REMARK SMILES CN1CCN(c2cc(-c3ccc(CN4CCC(n5c(O)nc6ccccc65)CC4)cc3)ncn2)CC1
REMARK SMILES IDX 13 1 12 2 9 3 10 4 31 5 11 6 30 7 8 8 6 9 7 10 34 11 33 12
REMARK SMILES IDX 32 13 5 14 2 15 3 16 36 17 4 18 35 19 1 20 14 21 15 22 29 23
REMARK SMILES IDX 16 24 28 25 17 26 18 27 19 28 27 29 21 30 26 31 22 32 25 33
REMARK SMILES IDX 23 34 24 35 20 36
REMARK H PARENT 20 37
ROOT
ATOM      1  C   UNL     1       2.146  -1.753  -0.924  1.00  0.00     0.120 C 
ENDROOT
BRANCH   1   2
ATOM      2  C   UNL     1       0.796  -1.300  -0.415  1.00  0.00    -0.034 A 
ATOM      3  C   UNL     1      -1.774  -0.533   0.554  1.00  0.00     0.000 A 
ATOM      4  C   UNL     1      -1.504  -0.620  -0.823  1.00  0.00     0.011 A 
ATOM      5  C   UNL     1      -0.710  -0.820   1.429  1.00  0.00     0.011 A 
ATOM      6  C   UNL     1      -0.241  -0.995  -1.303  1.00  0.00     0.006 A 
ATOM      7  C   UNL     1       0.551  -1.202   0.958  1.00  0.00     0.006 A 
BRANCH   3   8
ATOM      8  C   UNL     1      -3.106  -0.170   1.087  1.00  0.00     0.076 A 
ATOM      9  C   UNL     1      -5.479  -0.093   1.034  1.00  0.00     0.132 A 
ATOM     10  C   UNL     1      -4.287  -0.435   0.415  1.00  0.00     0.076 A 
ATOM     11  N   UNL     1      -5.495   0.486   2.245  1.00  0.00    -0.219 NA
ATOM     12  C   UNL     1      -4.307   0.717   2.817  1.00  0.00     0.224 A 
ATOM     13  N   UNL     1      -3.110   0.415   2.304  1.00  0.00    -0.236 NA
BRANCH   9  14
ATOM     14  N   UNL     1      -6.692  -0.374   0.365  1.00  0.00    -0.354 N 
ATOM     15  N   UNL     1      -9.186   1.290  -0.016  1.00  0.00    -0.303 NA
ATOM     16  C   UNL     1      -8.666   0.855   1.303  1.00  0.00     0.105 C 
ATOM     17  C   UNL     1      -8.379   0.727  -1.123  1.00  0.00     0.105 C 
ATOM     18  C   UNL     1      -7.864  -0.462   1.268  1.00  0.00     0.133 C 
ATOM     19  C   UNL     1      -6.882   0.566  -0.771  1.00  0.00     0.133 C 
ATOM     20  C   UNL     1     -10.595   0.946  -0.182  1.00  0.00     0.105 C 
ENDBRANCH   9  14
ENDBRANCH   3   8
ENDBRANCH   1   2
BRANCH   1  21
ATOM     21  N   UNL     1       2.853  -0.749  -1.738  1.00  0.00    -0.299 NA
ATOM     22  C   UNL     1       3.168   0.488  -1.012  1.00  0.00     0.087 C 
ATOM     23  C   UNL     1       4.046  -1.331  -2.381  1.00  0.00     0.087 C 
ATOM     24  C   UNL     1       4.216   0.311   0.091  1.00  0.00     0.041 C 
ATOM     25  C   UNL     1       5.389  -0.804  -1.861  1.00  0.00     0.041 C 
ATOM     26  C   UNL     1       5.335  -0.649  -0.339  1.00  0.00     0.095 C 
BRANCH  26  27
ATOM     27  N   UNL     1       6.625  -0.338   0.254  1.00  0.00    -0.291 N 
ATOM     28  C   UNL     1       7.278  -1.134   1.155  1.00  0.00     0.295 A 
ATOM     29  C   UNL     1       7.438   0.751   0.020  1.00  0.00     0.072 A 
ATOM     30  N   UNL     1       8.454  -0.681   1.490  1.00  0.00    -0.195 NA
ATOM     31  C   UNL     1       7.303   1.914  -0.746  1.00  0.00     0.029 A 
ATOM     32  C   UNL     1       8.574   0.496   0.793  1.00  0.00     0.092 A 
ATOM     33  C   UNL     1       8.370   2.821  -0.732  1.00  0.00     0.002 A 
ATOM     34  C   UNL     1       9.635   1.414   0.787  1.00  0.00     0.031 A 
ATOM     35  C   UNL     1       9.521   2.576   0.018  1.00  0.00     0.002 A 
BRANCH  28  36
ATOM     36  O   UNL     1       6.795  -2.254   1.654  1.00  0.00    -0.480 OA
ATOM     37  H   UNL     1       7.514  -2.521   2.256  1.00  0.00     0.296 HD
ENDBRANCH  28  36
ENDBRANCH  26  27
ENDBRANCH   1  21
TORSDOF 6
