MODEL        3USER    Run = 3USERUSER    Estimated Free Energy of Binding    = -11.59 kcal/mol  [=(1)+(2)+(3)-(4)]USERUSER    (1) Final Intermolecular Energy     = -13.38 kcal/molUSER        vdW + Hbond + desolv Energy     = -13.22 kcal/molUSER        Electrostatic Energy            =  -0.16 kcal/molUSER        Moving Ligand-Fixed Receptor    = -13.38 kcal/molUSER        Moving Ligand-Moving Receptor   =  +0.00 kcal/molUSER    (2) Final Total Internal Energy     =  -1.96 kcal/molUSER    (3) Torsional Free Energy           =  +1.79 kcal/molUSER    (4) Unbound System's Energy         =  -1.96 kcal/molUSERUSERREMARK SMILES CN1CCN(c2cc(-c3ccc(CN4CCC(n5c(O)nc6ccccc65)CC4)cc3)ncn2)CC1REMARK SMILES IDX 13 1 12 2 9 3 10 4 31 5 11 6 30 7 8 8 6 9 7 10 34 11 33 12REMARK SMILES IDX 32 13 5 14 2 15 3 16 36 17 4 18 35 19 1 20 14 21 15 22 29 23REMARK SMILES IDX 16 24 28 25 17 26 18 27 19 28 27 29 21 30 26 31 22 32 25 33REMARK SMILES IDX 23 34 24 35 20 36REMARK H PARENT 20 37USER                              x       y       z     vdW  Elec       q    TypeUSER                           _______ _______ _______ _____ _____    ______ ____ROOTATOM      1  C   UNL     1      35.213  46.227  14.818 -0.34 -0.11    +0.120 C  ENDROOTBRANCH   1   2ATOM      2  C   UNL     1      35.523  45.485  16.099 -0.31 +0.02    -0.034 A  ATOM      3  C   UNL     1      36.192  44.069  18.483 -0.34 -0.00    +0.000 A  ATOM      4  C   UNL     1      35.529  43.439  17.415 -0.34 -0.00    +0.011 A  ATOM      5  C   UNL     1      36.488  45.436  18.327 -0.25 -0.00    +0.011 A  ATOM      6  C   UNL     1      35.197  44.132  16.243 -0.34 -0.00    +0.006 A  ATOM      7  C   UNL     1      36.167  46.133  17.157 -0.35 -0.00    +0.006 A  BRANCH   3   8ATOM      8  C   UNL     1      36.581  43.353  19.718 -0.32 -0.01    +0.076 A  ATOM      9  C   UNL     1      37.572  43.191  21.870 -0.30 +0.01    +0.132 A  ATOM     10  C   UNL     1      37.306  43.945  20.738 -0.34 -0.00    +0.076 A  ATOM     11  N   UNL     1      37.149  41.921  21.977 -0.35 -0.01    -0.219 NA ATOM     12  C   UNL     1      36.465  41.425  20.939 -0.30 -0.00    +0.224 A  ATOM     13  N   UNL     1      36.153  42.076  19.814 -0.26 +0.01    -0.236 NA BRANCH   9  14ATOM     14  N   UNL     1      38.297  43.789  22.925 -0.11 -0.02    -0.354 N  ATOM     15  N   UNL     1      38.389  46.646  23.906 -0.33 -0.05    -0.303 NA ATOM     16  C   UNL     1      38.802  46.216  22.548 -0.25 +0.01    +0.105 C  ATOM     17  C   UNL     1      38.015  45.485  24.746 -0.28 +0.01    +0.105 C  ATOM     18  C   UNL     1      39.316  44.764  22.470 -0.26 +0.01    +0.133 C  ATOM     19  C   UNL     1      37.364  44.333  23.946 -0.30 +0.02    +0.133 C  ATOM     20  C   UNL     1      39.425  47.440  24.561 -0.30 +0.01    +0.105 C  ENDBRANCH   9  14ENDBRANCH   3   8ENDBRANCH   1   2BRANCH   1  21ATOM     21  N   UNL     1      36.319  46.243  13.846 -0.22 +0.16    -0.299 NA ATOM     22  C   UNL     1      36.904  47.573  13.636 -0.56 -0.04    +0.087 C  ATOM     23  C   UNL     1      37.343  45.238  14.189 -0.41 -0.03    +0.087 C  ATOM     24  C   UNL     1      37.662  48.118  14.851 -0.56 -0.03    +0.041 C  ATOM     25  C   UNL     1      38.690  45.809  14.647 -0.43 -0.01    +0.041 C  ATOM     26  C   UNL     1      38.462  47.016  15.561 -0.43 -0.04    +0.095 C  BRANCH  26  27ATOM     27  N   UNL     1      39.679  47.499  16.191 -0.27 +0.08    -0.291 N  ATOM     28  C   UNL     1      40.414  48.564  15.748 -0.34 -0.07    +0.295 A  ATOM     29  C   UNL     1      40.300  47.032  17.331 -0.45 -0.01    +0.072 A  ATOM     30  N   UNL     1      41.425  48.854  16.520 -0.98 -0.00    -0.195 NA ATOM     31  C   UNL     1      40.062  45.954  18.191 -0.44 -0.00    +0.029 A  ATOM     32  C   UNL     1      41.372  47.909  17.514 -0.42 -0.01    +0.092 A  ATOM     33  C   UNL     1      40.936  45.790  19.273 -0.45 +0.00    +0.002 A  ATOM     34  C   UNL     1      42.231  47.732  18.610 -0.47 +0.00    +0.031 A  ATOM     35  C   UNL     1      42.001  46.666  19.485 -0.47 +0.00    +0.002 A  BRANCH  28  36ATOM     36  O   UNL     1      40.153  49.252  14.655 -0.19 +0.20    -0.480 OA ATOM     37  H   UNL     1      39.456  49.857  14.971 -0.15 -0.25    +0.296 HD ENDBRANCH  28  36ENDBRANCH  26  27ENDBRANCH   1  21TORSDOF 6TERENDMDL