REMARK SMILES CN1CCN(S(=O)(=O)c2cc(-c3ccc(CN4CCC(n5c(O)nc6ccccc65)CC4)cc3)n(-c3ccc(F)cc3)n2)CC1
REMARK SMILES IDX 12 1 13 2 14 3 15 4 33 5 34 6 11 7 9 8 10 9 43 10 35 11 6 12
REMARK SMILES IDX 7 13 8 14 5 15 2 16 3 17 45 18 4 19 44 20 1 21 36 22 37 23
REMARK SMILES IDX 42 24 38 25 41 26 39 27 40 28 16 29 17 30 18 31 32 32 19 33
REMARK SMILES IDX 31 34 20 35 21 36 22 37 30 38 24 39 29 40 25 41 28 42 26 43
REMARK SMILES IDX 27 44 23 45
REMARK H PARENT 23 46
ROOT
ATOM      1  C   UNL     1       1.088  -0.763   0.080  1.00  0.00     0.000 A 
ATOM      2  C   UNL     1       0.318  -1.441  -0.870  1.00  0.00     0.011 A 
ATOM      3  C   UNL     1      -1.016  -1.753  -0.599  1.00  0.00     0.006 A 
ATOM      4  C   UNL     1      -1.608  -1.365   0.611  1.00  0.00    -0.034 A 
ATOM      5  C   UNL     1      -0.827  -0.693   1.562  1.00  0.00     0.006 A 
ATOM      6  C   UNL     1       0.510  -0.388   1.299  1.00  0.00     0.011 A 
ENDROOT
BRANCH   1   7
ATOM      7  C   UNL     1       2.464  -0.395  -0.218  1.00  0.00     0.075 A 
ATOM      8  C   UNL     1       4.255   0.712  -0.918  1.00  0.00     0.193 A 
ATOM      9  C   UNL     1       2.857   0.669  -1.012  1.00  0.00     0.073 A 
ATOM     10  N   UNL     1       4.737  -0.262  -0.129  1.00  0.00    -0.154 NA
ATOM     11  N   UNL     1       3.640  -0.989   0.252  1.00  0.00    -0.232 N 
BRANCH   8  12
ATOM     12  S   UNL     1       5.236   1.932  -1.707  1.00  0.00     0.262 S 
ATOM     13  O   UNL     1       4.568   3.171  -1.372  1.00  0.00    -0.205 OA
ATOM     14  O   UNL     1       5.330   1.469  -3.075  1.00  0.00    -0.205 OA
BRANCH  12  15
ATOM     15  N   UNL     1       6.783   1.973  -1.025  1.00  0.00    -0.194 NA
ATOM     16  N   UNL     1       9.180   1.439   0.669  1.00  0.00    -0.304 NA
ATOM     17  C   UNL     1       9.098   1.166  -0.785  1.00  0.00     0.101 C 
ATOM     18  C   UNL     1       7.847   1.692   1.249  1.00  0.00     0.101 C 
ATOM     19  C   UNL     1       7.685   0.826  -1.306  1.00  0.00     0.118 C 
ATOM     20  C   UNL     1       6.880   2.504   0.365  1.00  0.00     0.118 C 
ATOM     21  C   UNL     1      10.102   2.547   0.930  1.00  0.00     0.105 C 
ENDBRANCH  12  15
ENDBRANCH   8  12
BRANCH  11  22
ATOM     22  C   UNL     1       3.854  -2.175   1.033  1.00  0.00     0.065 A 
ATOM     23  C   UNL     1       5.165  -2.481   1.457  1.00  0.00     0.031 A 
ATOM     24  C   UNL     1       2.821  -3.058   1.379  1.00  0.00     0.031 A 
ATOM     25  C   UNL     1       5.429  -3.624   2.216  1.00  0.00     0.041 A 
ATOM     26  C   UNL     1       3.089  -4.205   2.138  1.00  0.00     0.041 A 
ATOM     27  C   UNL     1       4.387  -4.474   2.553  1.00  0.00     0.123 A 
ATOM     28  F   UNL     1       4.634  -5.567   3.285  1.00  0.00    -0.207 F 
ENDBRANCH  11  22
ENDBRANCH   1   7
BRANCH   4  29
ATOM     29  C   UNL     1      -3.059  -1.692   0.906  1.00  0.00     0.120 C 
BRANCH  29  30
ATOM     30  N   UNL     1      -3.975  -1.399  -0.207  1.00  0.00    -0.299 NA
ATOM     31  C   UNL     1      -4.091   0.032  -0.525  1.00  0.00     0.087 C 
ATOM     32  C   UNL     1      -5.257  -2.090  -0.029  1.00  0.00     0.087 C 
ATOM     33  C   UNL     1      -5.307   0.711   0.101  1.00  0.00     0.041 C 
ATOM     34  C   UNL     1      -6.395  -1.426  -0.798  1.00  0.00     0.041 C 
ATOM     35  C   UNL     1      -6.621  -0.009  -0.249  1.00  0.00     0.095 C 
BRANCH  35  36
ATOM     36  N   UNL     1      -7.511   0.777  -1.094  1.00  0.00    -0.291 N 
ATOM     37  C   UNL     1      -7.253   1.232  -2.356  1.00  0.00     0.295 A 
ATOM     38  C   UNL     1      -8.786   1.203  -0.771  1.00  0.00     0.072 A 
ATOM     39  N   UNL     1      -8.244   1.904  -2.875  1.00  0.00    -0.195 NA
ATOM     40  C   UNL     1      -9.595   1.064   0.366  1.00  0.00     0.029 A 
ATOM     41  C   UNL     1      -9.215   1.892  -1.907  1.00  0.00     0.092 A 
ATOM     42  C   UNL     1     -10.871   1.639   0.320  1.00  0.00     0.002 A 
ATOM     43  C   UNL     1     -10.498   2.463  -1.931  1.00  0.00     0.031 A 
ATOM     44  C   UNL     1     -11.318   2.328  -0.807  1.00  0.00     0.002 A 
BRANCH  37  45
ATOM     45  O   UNL     1      -6.127   1.045  -3.011  1.00  0.00    -0.480 OA
ATOM     46  H   UNL     1      -6.300   1.542  -3.833  1.00  0.00     0.296 HD
ENDBRANCH  37  45
ENDBRANCH  35  36
ENDBRANCH  29  30
ENDBRANCH   4  29
TORSDOF 8
