MODEL        8USER    Run = 8USERUSER    Estimated Free Energy of Binding    =  -8.99 kcal/mol  [=(1)+(2)+(3)-(4)]USERUSER    (1) Final Intermolecular Energy     = -12.57 kcal/molUSER        vdW + Hbond + desolv Energy     = -12.92 kcal/molUSER        Electrostatic Energy            =  -0.16 kcal/molUSER        Moving Ligand-Fixed Receptor    = -13.08 kcal/molUSER        Moving Ligand-Moving Receptor   =  +0.51 kcal/molUSER    (2) Final Total Internal Energy     =  -1.93 kcal/molUSER    (3) Torsional Free Energy           =  +3.58 kcal/molUSER    (4) Unbound System's Energy         =  -1.93 kcal/molUSERUSERREMARK SMILES O=C(C1=CC=C2C(=NN=C2c2ccc(CN3CCC(n4c(O)nc5ccccc54)CC3)cc2)SC=C1)N1CCOCC1REMARK SMILES IDX 11 1 12 2 13 3 14 4 32 5 33 6 10 7 6 8 7 9 8 10 9 11 5 12REMARK SMILES IDX 4 13 3 14 2 15 37 16 38 17 42 18 39 19 41 20 40 21 1 22REMARK SMILES IDX 36 23 34 25 35 26 15 28 16 29 17 30 31 31 18 32 30 33 19 34REMARK SMILES IDX 20 35 21 36 29 37 23 38 28 39 24 40 27 41 25 42 26 43 22 44REMARK H PARENT 22 45REMARK Flexibility Score:  153.900USER                              x       y       z     vdW  Elec       q    TypeUSER                           _______ _______ _______ _____ _____    ______ ____ROOTATOM      1  C   UNL     1      34.229  43.477  17.394 -0.33 -0.00    +0.003 A  ATOM      2  C   UNL     1      34.163  42.079  17.450 -0.41 -0.00    +0.011 A  ATOM      3  C   UNL     1      32.939  41.447  17.687 -0.38 -0.00    +0.006 A  ATOM      4  C   UNL     1      31.770  42.202  17.857 -0.29 +0.01    -0.034 A  ATOM      5  C   UNL     1      31.844  43.602  17.777 -0.29 -0.00    +0.006 A  ATOM      6  C   UNL     1      33.064  44.236  17.529 -0.30 -0.00    +0.011 A  ENDROOTBRANCH   1   7ATOM      7  C   UNL     1      35.529  44.101  17.112 -0.30 -0.04    +0.103 C  ATOM      8  C   UNL     1      36.548  44.478  18.123 -0.36 -0.01    +0.037 C  ATOM      9  C   UNL     1      37.546  45.090  17.235 -0.33 -0.04    +0.132 C  ATOM     10  N   UNL     1      37.202  45.031  15.977 -0.25 +0.05    -0.142 NA ATOM     11  N   UNL     1      35.923  44.386  15.896 -0.26 +0.06    -0.149 NA BRANCH   8  12ATOM     12  C   UNL     1      36.496  44.223  19.437 -0.43 -0.00    +0.014 C  BRANCH  12  13ATOM     13  C   UNL     1      37.306  44.692  20.547 -0.25 -0.00    +0.014 C  BRANCH  13  14ATOM     14  C   UNL     1      38.586  44.415  20.858 -0.39 +0.00    +0.040 C  BRANCH  14  15ATOM     15  C   UNL     1      38.772  43.914  22.258 -0.20 +0.01    +0.254 C  ATOM     16  N   UNL     1      38.698  44.839  23.281 -0.11 -0.02    -0.334 N  ATOM     17  C   UNL     1      38.423  46.271  23.109 -0.19 +0.02    +0.148 C  ATOM     18  C   UNL     1      38.740  44.375  24.668 -0.17 +0.01    +0.148 C  ATOM     19  C   UNL     1      38.618  47.042  24.420 -0.29 +0.02    +0.181 C  ATOM     20  C   UNL     1      37.685  45.105  25.506 -0.25 +0.00    +0.181 C  ATOM     21  O   UNL     1      37.800  46.539  25.484 -0.44 -0.03    -0.378 OA ATOM     22  O   UNL     1      38.956  42.710  22.439 -0.20 -0.02    -0.269 OA ENDBRANCH  14  15BRANCH  14  23ATOM     23  C   UNL     1      39.723  44.362  19.963 -0.36 +0.00    +0.021 CG0ATOM     24  G   UNL     1      39.700  44.468  18.627 +0.00 +0.00    +0.000 G0 ENDBRANCH  14  23ENDBRANCH  13  14ENDBRANCH  12  13ENDBRANCH   8  12BRANCH   9  25ATOM     25  S   UNL     1      39.019  45.799  17.771 -0.53 +0.01    -0.076 SA BRANCH  25  26ATOM     26  C   UNL     1      39.701  44.462  18.627 -0.41 -0.00    +0.048 CG0ATOM     27  G   UNL     1      39.723  44.359  19.963 +0.00 +0.00    +0.000 G0 ENDBRANCH  25  26ENDBRANCH   9  25ENDBRANCH   1   7BRANCH   4  28ATOM     28  C   UNL     1      30.439  41.524  18.110 -0.08 -0.01    +0.120 C  BRANCH  28  29ATOM     29  N   UNL     1      30.079  40.556  17.057 -0.18 +0.03    -0.299 NA ATOM     30  C   UNL     1      28.988  41.020  16.187 -0.36 -0.02    +0.087 C  ATOM     31  C   UNL     1      29.761  39.236  17.615 -0.34 +0.02    +0.087 C  ATOM     32  C   UNL     1      27.625  41.079  16.877 -0.26 -0.00    +0.041 C  ATOM     33  C   UNL     1      28.451  39.203  18.399 -0.30 +0.01    +0.041 C  ATOM     34  C   UNL     1      27.286  39.745  17.556 -0.23 +0.02    +0.095 C  BRANCH  34  35ATOM     35  N   UNL     1      26.045  39.817  18.319 -0.12 +0.01    -0.291 N  ATOM     36  C   UNL     1      24.949  39.013  18.162 -0.20 -0.06    +0.295 A  ATOM     37  C   UNL     1      25.746  40.707  19.331 -0.23 -0.01    +0.072 A  ATOM     38  N   UNL     1      23.968  39.311  18.968 -0.24 +0.08    -0.195 NA ATOM     39  C   UNL     1      26.454  41.750  19.944 -0.17 -0.00    +0.029 A  ATOM     40  C   UNL     1      24.445  40.364  19.710 -0.27 -0.02    +0.092 A  ATOM     41  C   UNL     1      25.803  42.451  20.968 -0.36 -0.00    +0.002 A  ATOM     42  C   UNL     1      23.812  41.079  20.739 -0.44 -0.01    +0.031 A  ATOM     43  C   UNL     1      24.504  42.123  21.362 -0.60 -0.00    +0.002 A  BRANCH  36  44ATOM     44  O   UNL     1      24.856  38.022  17.297 -0.54 -0.00    -0.480 OA ATOM     45  H   UNL     1      23.890  37.884  17.274 -0.27 -0.22    +0.296 HD ENDBRANCH  36  44ENDBRANCH  34  35ENDBRANCH  28  29ENDBRANCH   4  28TORSDOF 6TERENDMDL