MODEL        7USER    Run = 7USERUSER    Estimated Free Energy of Binding    = -13.25 kcal/mol  [=(1)+(2)+(3)-(4)]USERUSER    (1) Final Intermolecular Energy     = -15.63 kcal/molUSER        vdW + Hbond + desolv Energy     = -15.50 kcal/molUSER        Electrostatic Energy            =  -0.14 kcal/molUSER        Moving Ligand-Fixed Receptor    = -15.63 kcal/molUSER        Moving Ligand-Moving Receptor   =  +0.00 kcal/molUSER    (2) Final Total Internal Energy     =  -2.41 kcal/molUSER    (3) Torsional Free Energy           =  +2.39 kcal/molUSER    (4) Unbound System's Energy         =  -2.41 kcal/molUSERUSERREMARK SMILES CN1CCN(S(=O)(=O)c2cc(-c3ccc(CN4CCC(n5c(O)nc6ccccc65)CC4)cc3)n(-c3ccc(F)cc3)n2)CC1REMARK SMILES IDX 12 1 13 2 14 3 15 4 33 5 34 6 11 7 9 8 10 9 43 10 35 11 6 12REMARK SMILES IDX 7 13 8 14 5 15 2 16 3 17 45 18 4 19 44 20 1 21 36 22 37 23REMARK SMILES IDX 42 24 38 25 41 26 39 27 40 28 16 29 17 30 18 31 32 32 19 33REMARK SMILES IDX 31 34 20 35 21 36 22 37 30 38 24 39 29 40 25 41 28 42 26 43REMARK SMILES IDX 27 44 23 45REMARK H PARENT 23 46USER                              x       y       z     vdW  Elec       q    TypeUSER                           _______ _______ _______ _____ _____    ______ ____ROOTATOM      1  C   UNL     1      35.004  44.379  15.886 -0.33 -0.00    +0.000 A  ATOM      2  C   UNL     1      34.855  45.766  15.789 -0.31 -0.01    +0.011 A  ATOM      3  C   UNL     1      35.663  46.499  14.917 -0.36 -0.01    +0.006 A  ATOM      4  C   UNL     1      36.609  45.854  14.108 -0.41 +0.02    -0.034 A  ATOM      5  C   UNL     1      36.758  44.464  14.218 -0.29 -0.00    +0.006 A  ATOM      6  C   UNL     1      35.959  43.729  15.095 -0.13 -0.00    +0.011 A  ENDROOTBRANCH   1   7ATOM      7  C   UNL     1      34.131  43.607  16.758 -0.29 -0.03    +0.075 A  ATOM      8  C   UNL     1      32.462  42.355  17.512 -0.20 -0.06    +0.193 A  ATOM      9  C   UNL     1      32.872  43.138  16.424 -0.28 -0.03    +0.073 A  ATOM     10  N   UNL     1      33.383  42.327  18.489 -0.27 +0.03    -0.154 NA ATOM     11  N   UNL     1      34.387  43.153  18.056 -0.17 +0.06    -0.232 N  BRANCH   8  12ATOM     12  S   UNL     1      30.940  41.485  17.552 -0.29 -0.06    +0.262 S  ATOM     13  O   UNL     1      30.709  41.145  16.165 -0.28 +0.09    -0.205 OA ATOM     14  O   UNL     1      30.052  42.373  18.272 -0.03 +0.02    -0.205 OA BRANCH  12  15ATOM     15  N   UNL     1      31.111  40.044  18.421 -0.25 +0.00    -0.194 NA ATOM     16  N   UNL     1      31.053  37.180  19.256 -0.71 -0.12    -0.304 NA ATOM     17  C   UNL     1      32.288  37.961  19.007 -0.42 +0.02    +0.101 C  ATOM     18  C   UNL     1      29.860  37.871  18.729 -0.37 +0.04    +0.101 C  ATOM     19  C   UNL     1      32.148  39.085  17.958 -0.41 -0.01    +0.118 C  ATOM     20  C   UNL     1      29.851  39.403  18.895 -0.29 +0.01    +0.118 C  ATOM     21  C   UNL     1      30.917  36.880  20.683 -0.44 +0.02    +0.105 C  ENDBRANCH  12  15ENDBRANCH   8  12BRANCH  11  22ATOM     22  C   UNL     1      35.485  43.404  18.947 -0.33 -0.01    +0.065 A  ATOM     23  C   UNL     1      35.655  42.565  20.069 -0.44 -0.00    +0.031 A  ATOM     24  C   UNL     1      36.388  44.462  18.766 -0.33 -0.01    +0.031 A  ATOM     25  C   UNL     1      36.704  42.768  20.969 -0.42 +0.00    +0.041 A  ATOM     26  C   UNL     1      37.438  44.665  19.672 -0.29 -0.00    +0.041 A  ATOM     27  C   UNL     1      37.589  43.814  20.760 -0.29 -0.00    +0.123 A  ATOM     28  F   UNL     1      38.599  44.009  21.616 -0.06 -0.01    -0.207 F  ENDBRANCH  11  22ENDBRANCH   1   7BRANCH   4  29ATOM     29  C   UNL     1      37.482  46.644  13.152 -0.49 -0.04    +0.120 C  BRANCH  29  30ATOM     30  N   UNL     1      38.689  47.208  13.774 -0.25 +0.07    -0.299 NA ATOM     31  C   UNL     1      39.550  46.208  14.424 -0.33 -0.01    +0.087 C  ATOM     32  C   UNL     1      38.357  48.364  14.615 -0.53 -0.04    +0.087 C  ATOM     33  C   UNL     1      39.338  46.091  15.931 -0.41 -0.01    +0.041 C  ATOM     34  C   UNL     1      39.412  48.638  15.682 -0.57 -0.02    +0.041 C  ATOM     35  C   UNL     1      39.482  47.445  16.647 -0.46 -0.03    +0.095 C  BRANCH  35  36ATOM     36  N   UNL     1      40.634  47.518  17.535 -0.31 +0.04    -0.291 N  ATOM     37  C   UNL     1      41.626  48.458  17.517 +0.01 +0.00    +0.295 A  ATOM     38  C   UNL     1      40.933  46.646  18.566 -0.44 -0.00    +0.072 A  ATOM     39  N   UNL     1      42.528  48.275  18.442 -0.40 -0.00    -0.195 NA ATOM     40  C   UNL     1      40.314  45.493  19.070 -0.43 -0.00    +0.029 A  ATOM     41  C   UNL     1      42.112  47.155  19.114 -0.43 +0.01    +0.092 A  ATOM     42  C   UNL     1      40.921  44.864  20.164 -0.38 +0.00    +0.002 A  ATOM     43  C   UNL     1      42.705  46.507  20.210 -0.32 +0.01    +0.031 A  ATOM     44  C   UNL     1      42.097  45.359  20.727 -0.28 +0.00    +0.002 A  BRANCH  37  45ATOM     45  O   UNL     1      41.706  49.454  16.660 -0.82 -0.08    -0.480 OA ATOM     46  H   UNL     1      41.826  50.213  17.262 +0.04 +0.03    +0.296 HD ENDBRANCH  37  45ENDBRANCH  35  36ENDBRANCH  29  30ENDBRANCH   4  29TORSDOF 8TERENDMDL