REMARK SMILES O=C(C1=CC=C2C(=NN=C2c2ccc(CN3CCC(n4c(O)nc5ccccc54)CC3)cc2)SC=C1)N1CCOCC1
REMARK SMILES IDX 11 1 12 2 13 3 14 4 32 5 33 6 10 7 6 8 7 9 8 10 9 11 5 12
REMARK SMILES IDX 4 13 3 14 2 15 37 16 38 17 42 18 39 19 41 20 40 21 1 22
REMARK SMILES IDX 36 23 34 25 35 26 15 28 16 29 17 30 31 31 18 32 30 33 19 34
REMARK SMILES IDX 20 35 21 36 29 37 23 38 28 39 24 40 27 41 25 42 26 43 22 44
REMARK H PARENT 22 45
REMARK Flexibility Score:  153.900
ROOT
ATOM      1  C   UNL     1       1.173  -2.141   0.682  1.00  0.00     0.003 A 
ATOM      2  C   UNL     1       0.009  -2.260   1.451  1.00  0.00     0.011 A 
ATOM      3  C   UNL     1      -1.244  -2.111   0.851  1.00  0.00     0.006 A 
ATOM      4  C   UNL     1      -1.347  -1.854  -0.524  1.00  0.00    -0.034 A 
ATOM      5  C   UNL     1      -0.175  -1.757  -1.290  1.00  0.00     0.006 A 
ATOM      6  C   UNL     1       1.079  -1.917  -0.694  1.00  0.00     0.011 A 
ENDROOT
BRANCH   1   7
ATOM      7  C   UNL     1       2.469  -2.335   1.345  1.00  0.00     0.103 C 
ATOM      8  C   UNL     1       3.680  -1.501   1.146  1.00  0.00     0.037 C 
ATOM      9  C   UNL     1       4.615  -2.230   2.014  1.00  0.00     0.132 C 
ATOM     10  N   UNL     1       4.051  -3.236   2.625  1.00  0.00    -0.142 NA
ATOM     11  N   UNL     1       2.678  -3.295   2.212  1.00  0.00    -0.149 NA
BRANCH   8  12
ATOM     12  C   UNL     1       3.763  -0.384   0.411  1.00  0.00     0.014 C 
BRANCH  12  13
ATOM     13  C   UNL     1       4.873   0.507   0.126  1.00  0.00     0.014 C 
BRANCH  13  14
ATOM     14  C   UNL     1       5.765   1.070   0.962  1.00  0.00     0.040 C 
BRANCH  14  15
ATOM     15  C   UNL     1       6.568   2.170   0.338  1.00  0.00     0.254 C 
ATOM     16  N   UNL     1       7.818   1.846  -0.154  1.00  0.00    -0.334 N 
ATOM     17  C   UNL     1       8.411   0.503  -0.140  1.00  0.00     0.148 C 
ATOM     18  C   UNL     1       8.579   2.855  -0.890  1.00  0.00     0.148 C 
ATOM     19  C   UNL     1       9.882   0.534  -0.570  1.00  0.00     0.181 C 
ATOM     20  C   UNL     1       9.216   2.236  -2.139  1.00  0.00     0.181 C 
ATOM     21  O   UNL     1      10.065   1.106  -1.872  1.00  0.00    -0.378 OA
ATOM     22  O   UNL     1       6.078   3.298   0.267  1.00  0.00    -0.269 OA
ENDBRANCH  14  15
BRANCH  14  23
ATOM     23  C   UNL     1       5.886   0.871   2.392  1.00  0.00     0.021 CG0
ATOM     24  G   UNL     1       6.094  -0.291   3.027  1.00  0.00     0.000 G0
ENDBRANCH  14  23
ENDBRANCH  13  14
ENDBRANCH  12  13
ENDBRANCH   8  12
BRANCH   9  25
ATOM     25  S   UNL     1       6.270  -1.812   2.227  1.00  0.00    -0.076 SA
BRANCH  25  26
ATOM     26  C   UNL     1       6.094  -0.291   3.027  1.00  0.00     0.048 CG0
ATOM     27  G   UNL     1       5.886   0.871   2.392  1.00  0.00     0.000 G0
ENDBRANCH  25  26
ENDBRANCH   9  25
ENDBRANCH   1   7
BRANCH   4  28
ATOM     28  C   UNL     1      -2.702  -1.694  -1.183  1.00  0.00     0.120 C 
BRANCH  28  29
ATOM     29  N   UNL     1      -2.992  -0.299  -1.566  1.00  0.00    -0.299 NA
ATOM     30  C   UNL     1      -3.248   0.580  -0.416  1.00  0.00     0.087 C 
ATOM     31  C   UNL     1      -4.098  -0.217  -2.529  1.00  0.00     0.087 C 
ATOM     32  C   UNL     1      -4.566   0.294   0.304  1.00  0.00     0.041 C 
ATOM     33  C   UNL     1      -5.458  -0.566  -1.928  1.00  0.00     0.041 C 
ATOM     34  C   UNL     1      -5.746   0.279  -0.678  1.00  0.00     0.095 C 
BRANCH  34  35
ATOM     35  N   UNL     1      -6.994  -0.108  -0.030  1.00  0.00    -0.291 N 
ATOM     36  C   UNL     1      -7.280  -1.331   0.514  1.00  0.00     0.295 A 
ATOM     37  C   UNL     1      -8.112   0.682   0.151  1.00  0.00     0.072 A 
ATOM     38  N   UNL     1      -8.482  -1.407   1.015  1.00  0.00    -0.195 NA
ATOM     39  C   UNL     1      -8.423   2.009  -0.174  1.00  0.00     0.029 A 
ATOM     40  C   UNL     1      -9.018  -0.160   0.802  1.00  0.00     0.092 A 
ATOM     41  C   UNL     1      -9.697   2.473   0.180  1.00  0.00     0.002 A 
ATOM     42  C   UNL     1     -10.289   0.326   1.149  1.00  0.00     0.031 A 
ATOM     43  C   UNL     1     -10.617   1.649   0.832  1.00  0.00     0.002 A 
BRANCH  36  44
ATOM     44  O   UNL     1      -6.450  -2.354   0.552  1.00  0.00    -0.480 OA
ATOM     45  H   UNL     1      -6.993  -3.018   1.018  1.00  0.00     0.296 HD
ENDBRANCH  36  44
ENDBRANCH  34  35
ENDBRANCH  28  29
ENDBRANCH   4  28
TORSDOF 6
