
     RDKit          3D

 45 47  0  0  0  0  0  0  0  0999 V2000
   -4.3890   -1.7175    0.0592 C   0  0  0  0  0  0  0  0  0  0  0  0
   -3.4869   -0.5458   -0.3411 C   0  0  0  0  0  0  0  0  0  0  0  0
   -3.8733    0.8046    0.2661 C   0  0  1  0  0  0  0  0  0  0  0  0
   -5.3625    1.1252    0.2761 C   0  0  0  0  0  0  0  0  0  0  0  0
   -5.5793    2.4306    0.7986 O   0  0  0  0  0  0  0  0  0  0  0  0
   -3.2493    0.7647    1.6569 C   0  0  0  0  0  0  0  0  0  0  0  0
   -2.0977   -0.2295    1.5432 C   0  0  0  0  0  0  0  0  0  0  0  0
   -2.1197   -0.7994    0.1747 N   0  0  0  0  0  0  0  0  0  0  0  0
   -1.0965   -0.1527   -0.6822 C   0  0  0  0  0  0  0  0  0  0  0  0
    0.2840   -0.7084   -0.3505 C   0  0  0  0  0  0  0  0  0  0  0  0
    1.3536   -0.0036   -0.5260 N   0  0  0  0  0  0  0  0  0  0  0  0
    2.5632   -0.5922   -0.2137 C   0  0  0  0  0  0  0  0  0  0  0  0
    3.7482    0.2602   -0.4605 C   0  0  0  0  0  0  0  0  0  0  0  0
    4.4624    0.8281    0.6043 C   0  0  0  0  0  0  0  0  0  0  0  0
    5.5770    1.6307    0.3536 C   0  0  0  0  0  0  0  0  0  0  0  0
    5.9736    1.8707   -0.9568 C   0  0  0  0  0  0  0  0  0  0  0  0
    7.0672    2.6604   -1.1535 O   0  0  0  0  0  0  0  0  0  0  0  0
    5.2716    1.3252   -2.0267 C   0  0  0  0  0  0  0  0  0  0  0  0
    4.1556    0.5222   -1.7770 C   0  0  0  0  0  0  0  0  0  0  0  0
    2.7061   -1.8460    0.2621 C   0  0  0  0  0  0  0  0  0  0  0  0
    3.9508   -2.4593    0.5602 C   0  0  0  0  0  0  0  0  0  0  0  0
    4.9810   -2.9401    0.7966 N   0  0  0  0  0  0  0  0  0  0  0  0
    1.4638   -2.6184    0.4800 C   0  0  0  0  0  0  0  0  0  0  0  0
    1.4537   -3.7388    0.9771 O   0  0  0  0  0  0  0  0  0  0  0  0
    0.3130   -1.9956    0.1005 N   0  0  0  0  0  0  0  0  0  0  0  0
   -3.9842   -2.6627   -0.3204 H   0  0  0  0  0  0  0  0  0  0  0  0
   -5.3898   -1.5996   -0.3693 H   0  0  0  0  0  0  0  0  0  0  0  0
   -4.4967   -1.8116    1.1450 H   0  0  0  0  0  0  0  0  0  0  0  0
   -3.5010   -0.4904   -1.4368 H   0  0  0  0  0  0  0  0  0  0  0  0
   -3.3630    1.6020   -0.2935 H   0  0  0  0  0  0  0  0  0  0  0  0
   -5.9244    0.4263    0.9030 H   0  0  0  0  0  0  0  0  0  0  0  0
   -5.7799    1.0858   -0.7353 H   0  0  0  0  0  0  0  0  0  0  0  0
   -5.1559    3.0669    0.1972 H   0  0  0  0  0  0  0  0  0  0  0  0
   -3.9673    0.4200    2.4102 H   0  0  0  0  0  0  0  0  0  0  0  0
   -2.8963    1.7570    1.9574 H   0  0  0  0  0  0  0  0  0  0  0  0
   -2.2469   -1.0440    2.2620 H   0  0  0  0  0  0  0  0  0  0  0  0
   -1.1413    0.2385    1.8037 H   0  0  0  0  0  0  0  0  0  0  0  0
   -1.0901    0.9392   -0.5870 H   0  0  0  0  0  0  0  0  0  0  0  0
   -1.2703   -0.4024   -1.7363 H   0  0  0  0  0  0  0  0  0  0  0  0
    4.1578    0.6561    1.6339 H   0  0  0  0  0  0  0  0  0  0  0  0
    6.1339    2.0673    1.1780 H   0  0  0  0  0  0  0  0  0  0  0  0
    7.2451    2.7136   -2.1066 H   0  0  0  0  0  0  0  0  0  0  0  0
    5.5714    1.5141   -3.0525 H   0  0  0  0  0  0  0  0  0  0  0  0
    3.6011    0.1046   -2.6144 H   0  0  0  0  0  0  0  0  0  0  0  0
   -0.5728   -2.4560    0.2814 H   0  0  0  0  0  0  0  0  0  0  0  0
  1  2  1  0
  2  3  1  0
  3  4  1  0
  4  5  1  0
  3  6  1  0
  6  7  1  0
  7  8  1  0
  8  9  1  0
  9 10  1  0
 10 11  2  0
 11 12  1  0
 12 13  1  0
 13 14  2  0
 14 15  1  0
 15 16  2  0
 16 17  1  0
 16 18  1  0
 18 19  2  0
 12 20  2  0
 20 21  1  0
 21 22  3  0
 20 23  1  0
 23 24  2  0
 23 25  1  0
  8  2  1  0
 25 10  1  0
 19 13  1  0
  1 26  1  0
  1 27  1  0
  1 28  1  0
  2 29  1  0
  3 30  1  6
  4 31  1  0
  4 32  1  0
  5 33  1  0
  6 34  1  0
  6 35  1  0
  7 36  1  0
  7 37  1  0
  9 38  1  0
  9 39  1  0
 14 40  1  0
 15 41  1  0
 17 42  1  0
 18 43  1  0
 19 44  1  0
 25 45  1  0
M  END
$$$$
