
     RDKit          3D

 44 46  0  0  0  0  0  0  0  0999 V2000
   -1.5932    0.8060    1.3542 C   0  0  0  0  0  0  0  0  0  0  0  0
   -2.3026   -0.5224    1.1150 C   0  0  0  0  0  0  0  0  0  0  0  0
   -3.8444   -0.4532    1.1430 C   0  0  1  0  0  0  0  0  0  0  0  0
   -4.4553    0.8621    0.6504 C   0  0  0  0  0  0  0  0  0  0  0  0
   -5.8713    0.8383    0.8068 O   0  0  0  0  0  0  0  0  0  0  0  0
   -4.2840   -1.6362    0.2612 C   0  0  0  0  0  0  0  0  0  0  0  0
   -2.9943   -2.2568   -0.2519 C   0  0  0  0  0  0  0  0  0  0  0  0
   -2.0315   -1.1460   -0.2011 N   0  0  0  0  0  0  0  0  0  0  0  0
   -0.6522   -1.6663   -0.3295 C   0  0  0  0  0  0  0  0  0  0  0  0
    0.2697   -0.5839   -0.8717 C   0  0  0  0  0  0  0  0  0  0  0  0
    1.5229   -0.5440   -0.5570 N   0  0  0  0  0  0  0  0  0  0  0  0
    2.2890    0.4640   -1.1094 C   0  0  0  0  0  0  0  0  0  0  0  0
    3.7231    0.4239   -0.7375 C   0  0  0  0  0  0  0  0  0  0  0  0
    4.2905    1.4128    0.0801 C   0  0  0  0  0  0  0  0  0  0  0  0
    5.6453    1.3570    0.4194 C   0  0  0  0  0  0  0  0  0  0  0  0
    6.4332    0.3067   -0.0478 C   0  0  0  0  0  0  0  0  0  0  0  0
    8.2646    0.2304    0.4128 Br  0  0  0  0  0  0  0  0  0  0  0  0
    5.8801   -0.6908   -0.8482 C   0  0  0  0  0  0  0  0  0  0  0  0
    4.5264   -0.6331   -1.1898 C   0  0  0  0  0  0  0  0  0  0  0  0
    1.8168    1.4139   -1.9430 C   0  0  0  0  0  0  0  0  0  0  0  0
    2.6058    2.4364   -2.5311 C   0  0  0  0  0  0  0  0  0  0  0  0
    3.2762    3.2643   -2.9934 N   0  0  0  0  0  0  0  0  0  0  0  0
    0.3708    1.3685   -2.2495 C   0  0  0  0  0  0  0  0  0  0  0  0
   -0.1992    2.2313   -2.9077 O   0  0  0  0  0  0  0  0  0  0  0  0
   -0.3044    0.3034   -1.7347 N   0  0  0  0  0  0  0  0  0  0  0  0
   -0.5131    0.6634    1.4612 H   0  0  0  0  0  0  0  0  0  0  0  0
   -1.9477    1.2680    2.2818 H   0  0  0  0  0  0  0  0  0  0  0  0
   -1.7590    1.5146    0.5362 H   0  0  0  0  0  0  0  0  0  0  0  0
   -1.9916   -1.2119    1.9148 H   0  0  0  0  0  0  0  0  0  0  0  0
   -4.2003   -0.6326    2.1662 H   0  0  0  0  0  0  0  0  0  0  0  0
   -4.2174    1.0636   -0.4003 H   0  0  0  0  0  0  0  0  0  0  0  0
   -4.0958    1.7056    1.2468 H   0  0  0  0  0  0  0  0  0  0  0  0
   -6.2426    0.2948    0.0916 H   0  0  0  0  0  0  0  0  0  0  0  0
   -4.8640   -2.3659    0.8371 H   0  0  0  0  0  0  0  0  0  0  0  0
   -4.9021   -1.3113   -0.5837 H   0  0  0  0  0  0  0  0  0  0  0  0
   -2.6932   -3.0835    0.4052 H   0  0  0  0  0  0  0  0  0  0  0  0
   -3.1133   -2.6474   -1.2678 H   0  0  0  0  0  0  0  0  0  0  0  0
   -0.6188   -2.4738   -1.0726 H   0  0  0  0  0  0  0  0  0  0  0  0
   -0.2610   -2.0652    0.6133 H   0  0  0  0  0  0  0  0  0  0  0  0
    3.6861    2.2327    0.4624 H   0  0  0  0  0  0  0  0  0  0  0  0
    6.0730    2.1344    1.0475 H   0  0  0  0  0  0  0  0  0  0  0  0
    6.4898   -1.5153   -1.2086 H   0  0  0  0  0  0  0  0  0  0  0  0
    4.0996   -1.4208   -1.8072 H   0  0  0  0  0  0  0  0  0  0  0  0
   -1.3106    0.2641   -1.8551 H   0  0  0  0  0  0  0  0  0  0  0  0
  1  2  1  0
  2  3  1  0
  3  4  1  0
  4  5  1  0
  3  6  1  0
  6  7  1  0
  7  8  1  0
  8  9  1  0
  9 10  1  0
 10 11  2  0
 11 12  1  0
 12 13  1  0
 13 14  2  0
 14 15  1  0
 15 16  2  0
 16 17  1  0
 16 18  1  0
 18 19  2  0
 12 20  2  0
 20 21  1  0
 21 22  3  0
 20 23  1  0
 23 24  2  0
 23 25  1  0
  8  2  1  0
 25 10  1  0
 19 13  1  0
  1 26  1  0
  1 27  1  0
  1 28  1  0
  2 29  1  0
  3 30  1  1
  4 31  1  0
  4 32  1  0
  5 33  1  0
  6 34  1  0
  6 35  1  0
  7 36  1  0
  7 37  1  0
  9 38  1  0
  9 39  1  0
 14 40  1  0
 15 41  1  0
 18 42  1  0
 19 43  1  0
 25 44  1  0
M  END
$$$$
