
     RDKit          3D

 34 35  0  0  0  0  0  0  0  0999 V2000
    4.8952    1.0307    1.0447 C   0  0  0  0  0  0  0  0  0  0  0  0
    4.0932    0.9722   -0.2417 C   0  0  0  0  0  0  0  0  0  0  0  0
    2.7373    0.5958    0.0388 O   0  0  0  0  0  0  0  0  0  0  0  0
    2.4967   -0.7374    0.0764 C   0  0  0  0  0  0  0  0  0  0  0  0
    3.3078   -1.6350   -0.0736 O   0  0  0  0  0  0  0  0  0  0  0  0
    1.0772   -0.9643    0.4347 C   0  0  0  0  0  0  0  0  0  0  0  0
    0.8519   -1.8428    1.5025 C   0  0  0  0  0  0  0  0  0  0  0  0
   -0.4436   -2.0886    1.9397 C   0  0  0  0  0  0  0  0  0  0  0  0
   -1.5136   -1.4566    1.3137 C   0  0  0  0  0  0  0  0  0  0  0  0
   -2.7487   -1.7382    1.8376 O   0  0  0  0  0  0  0  0  0  0  0  0
   -1.3264   -0.5851    0.2184 C   0  0  0  0  0  0  0  0  0  0  0  0
   -2.4845    0.0644   -0.4172 C   0  0  0  0  0  0  0  0  0  0  0  0
   -3.2609   -0.6180   -1.3601 C   0  0  0  0  0  0  0  0  0  0  0  0
   -4.3509    0.0293   -1.9174 C   0  0  0  0  0  0  0  0  0  0  0  0
   -4.7164    1.2885   -1.5990 N   0  0  0  0  0  0  0  0  0  0  0  0
   -3.9554    1.9335   -0.6903 C   0  0  0  0  0  0  0  0  0  0  0  0
   -2.8470    1.3719   -0.0788 C   0  0  0  0  0  0  0  0  0  0  0  0
   -0.0035   -0.3557   -0.2483 C   0  0  0  0  0  0  0  0  0  0  0  0
    0.2500    0.5410   -1.4375 C   0  0  0  0  0  0  0  0  0  0  0  0
    4.4242    1.7123    1.7606 H   0  0  0  0  0  0  0  0  0  0  0  0
    5.9157    1.3727    0.8503 H   0  0  0  0  0  0  0  0  0  0  0  0
    4.9412    0.0477    1.5239 H   0  0  0  0  0  0  0  0  0  0  0  0
    4.0609    1.9653   -0.7016 H   0  0  0  0  0  0  0  0  0  0  0  0
    4.5526    0.2944   -0.9703 H   0  0  0  0  0  0  0  0  0  0  0  0
    1.6888   -2.3280    2.0014 H   0  0  0  0  0  0  0  0  0  0  0  0
   -0.6215   -2.7615    2.7745 H   0  0  0  0  0  0  0  0  0  0  0  0
   -3.4222   -1.2062    1.3810 H   0  0  0  0  0  0  0  0  0  0  0  0
   -3.0202   -1.6338   -1.6586 H   0  0  0  0  0  0  0  0  0  0  0  0
   -4.9780   -0.4631   -2.6555 H   0  0  0  0  0  0  0  0  0  0  0  0
   -4.2709    2.9467   -0.4570 H   0  0  0  0  0  0  0  0  0  0  0  0
   -2.2787    1.9440    0.6480 H   0  0  0  0  0  0  0  0  0  0  0  0
    0.3789    1.5761   -1.1063 H   0  0  0  0  0  0  0  0  0  0  0  0
   -0.5687    0.5010   -2.1621 H   0  0  0  0  0  0  0  0  0  0  0  0
    1.1394    0.2269   -1.9933 H   0  0  0  0  0  0  0  0  0  0  0  0
  1  2  1  0
  2  3  1  0
  3  4  1  0
  4  5  2  0
  4  6  1  0
  6  7  2  0
  7  8  1  0
  8  9  2  0
  9 10  1  0
  9 11  1  0
 11 12  1  0
 12 13  2  0
 13 14  1  0
 14 15  2  0
 15 16  1  0
 16 17  2  0
 11 18  2  0
 18 19  1  0
 18  6  1  0
 17 12  1  0
  1 20  1  0
  1 21  1  0
  1 22  1  0
  2 23  1  0
  2 24  1  0
  7 25  1  0
  8 26  1  0
 10 27  1  0
 13 28  1  0
 14 29  1  0
 16 30  1  0
 17 31  1  0
 19 32  1  0
 19 33  1  0
 19 34  1  0
M  END
$$$$
