
     RDKit          3D

 39 41  0  0  0  0  0  0  0  0999 V2000
   -4.3441    0.8493    1.0967 C   0  0  0  0  0  0  0  0  0  0  0  0
   -3.9779    0.8285   -0.3169 N   0  0  0  0  0  0  0  0  0  0  0  0
   -3.1035    1.9637   -0.6788 C   0  0  0  0  0  0  0  0  0  0  0  0
   -1.6028    1.6244   -0.7495 C   0  0  0  0  0  0  0  0  0  0  0  0
   -1.3465    0.5424   -1.7378 N   0  0  0  0  0  0  0  0  0  0  0  0
    0.2201   -0.0567   -1.8138 S   0  0  0  0  0  0  0  0  0  0  0  0
    1.1243    1.0613   -1.6901 O   0  0  0  0  0  0  0  0  0  0  0  0
    0.2858   -0.9787   -2.9221 O   0  0  0  0  0  0  0  0  0  0  0  0
    0.2279   -0.9643   -0.3923 N   0  0  0  0  0  0  0  0  0  0  0  0
    1.5349   -1.3593    0.0033 C   0  0  0  0  0  0  0  0  0  0  0  0
    1.8032   -2.6077   -0.4242 N   0  0  0  0  0  0  0  0  0  0  0  0
    3.0344   -3.0807   -0.1501 C   0  0  0  0  0  0  0  0  0  0  0  0
    3.9956   -2.3707    0.5504 C   0  0  0  0  0  0  0  0  0  0  0  0
    3.6852   -1.0876    1.0163 C   0  0  0  0  0  0  0  0  0  0  0  0
    4.6184   -0.3364    1.7511 C   0  0  0  0  0  0  0  0  0  0  0  0
    4.2937    0.9349    2.2283 C   0  0  0  0  0  0  0  0  0  0  0  0
    3.0329    1.4646    1.9773 C   0  0  0  0  0  0  0  0  0  0  0  0
    2.6248    3.0239    2.5790 Cl  0  0  0  0  0  0  0  0  0  0  0  0
    2.0955    0.7374    1.2479 C   0  0  0  0  0  0  0  0  0  0  0  0
    2.4103   -0.5460    0.7457 C   0  0  0  0  0  0  0  0  0  0  0  0
   -2.4810   -0.3992   -1.9359 C   0  0  0  0  0  0  0  0  0  0  0  0
   -3.3709   -0.4681   -0.6809 C   0  0  0  0  0  0  0  0  0  0  0  0
   -3.4677    0.7881    1.7518 H   0  0  0  0  0  0  0  0  0  0  0  0
   -5.0127    0.0141    1.3335 H   0  0  0  0  0  0  0  0  0  0  0  0
   -4.8916    1.7671    1.3380 H   0  0  0  0  0  0  0  0  0  0  0  0
   -3.4232    2.3109   -1.6702 H   0  0  0  0  0  0  0  0  0  0  0  0
   -3.2587    2.8155   -0.0050 H   0  0  0  0  0  0  0  0  0  0  0  0
   -1.2509    1.3234    0.2434 H   0  0  0  0  0  0  0  0  0  0  0  0
   -1.0543    2.5218   -1.0555 H   0  0  0  0  0  0  0  0  0  0  0  0
   -0.2409   -1.8389   -0.6262 H   0  0  0  0  0  0  0  0  0  0  0  0
    3.2405   -4.0810   -0.5218 H   0  0  0  0  0  0  0  0  0  0  0  0
    4.9672   -2.8199    0.7323 H   0  0  0  0  0  0  0  0  0  0  0  0
    5.6085   -0.7371    1.9611 H   0  0  0  0  0  0  0  0  0  0  0  0
    5.0270    1.5026    2.7952 H   0  0  0  0  0  0  0  0  0  0  0  0
    1.1164    1.1694    1.0607 H   0  0  0  0  0  0  0  0  0  0  0  0
   -2.1253   -1.4072   -2.1728 H   0  0  0  0  0  0  0  0  0  0  0  0
   -3.0624   -0.0585   -2.8009 H   0  0  0  0  0  0  0  0  0  0  0  0
   -2.7580   -0.8507    0.1467 H   0  0  0  0  0  0  0  0  0  0  0  0
   -4.1739   -1.1947   -0.8497 H   0  0  0  0  0  0  0  0  0  0  0  0
  1  2  1  0
  2  3  1  0
  3  4  1  0
  4  5  1  0
  5  6  1  0
  6  7  2  0
  6  8  2  0
  6  9  1  0
  9 10  1  0
 10 11  2  0
 11 12  1  0
 12 13  2  0
 13 14  1  0
 14 15  2  0
 15 16  1  0
 16 17  2  0
 17 18  1  0
 17 19  1  0
 19 20  2  0
  5 21  1  0
 21 22  1  0
 22  2  1  0
 20 10  1  0
 20 14  1  0
  1 23  1  0
  1 24  1  0
  1 25  1  0
  3 26  1  0
  3 27  1  0
  4 28  1  0
  4 29  1  0
  9 30  1  0
 12 31  1  0
 13 32  1  0
 15 33  1  0
 16 34  1  0
 19 35  1  0
 21 36  1  0
 21 37  1  0
 22 38  1  0
 22 39  1  0
M  END
$$$$
