
     RDKit          3D

 53 56  0  0  0  0  0  0  0  0999 V2000
    5.2351   -1.7817   -0.9807 C   0  0  0  0  0  0  0  0  0  0  0  0
    4.6982   -1.2059    0.3257 C   0  0  0  0  0  0  0  0  0  0  0  0
    5.7097   -0.3484    1.1006 C   0  0  1  0  0  0  0  0  0  0  0  0
    6.5272    0.6240    0.2424 C   0  0  0  0  0  0  0  0  0  0  0  0
    7.4359    1.3371    1.0769 O   0  0  0  0  0  0  0  0  0  0  0  0
    4.8098    0.4090    2.0835 C   0  0  0  0  0  0  0  0  0  0  0  0
    3.4210    0.3998    1.4498 C   0  0  0  0  0  0  0  0  0  0  0  0
    3.5772   -0.2650    0.1390 N   0  0  0  0  0  0  0  0  0  0  0  0
    2.3282   -0.9389   -0.2726 C   0  0  0  0  0  0  0  0  0  0  0  0
    1.2822    0.0979   -0.6626 C   0  0  0  0  0  0  0  0  0  0  0  0
    0.0255   -0.0839   -0.4199 N   0  0  0  0  0  0  0  0  0  0  0  0
   -0.8529    0.9016   -0.8263 C   0  0  0  0  0  0  0  0  0  0  0  0
   -2.2788    0.6122   -0.5488 C   0  0  0  0  0  0  0  0  0  0  0  0
   -2.9961    1.3413    0.4065 C   0  0  0  0  0  0  0  0  0  0  0  0
   -4.3435    1.0531    0.6520 C   0  0  0  0  0  0  0  0  0  0  0  0
   -5.0047    0.0254   -0.0403 C   0  0  0  0  0  0  0  0  0  0  0  0
   -6.4194   -0.2757    0.2199 C   0  0  0  0  0  0  0  0  0  0  0  0
   -6.8565   -1.5717    0.5231 C   0  0  0  0  0  0  0  0  0  0  0  0
   -8.2059   -1.8214    0.7684 C   0  0  0  0  0  0  0  0  0  0  0  0
   -9.0922   -0.7605    0.7041 C   0  0  0  0  0  0  0  0  0  0  0  0
   -8.7237    0.5041    0.4157 N   0  0  0  0  0  0  0  0  0  0  0  0
   -7.4045    0.7130    0.1802 C   0  0  0  0  0  0  0  0  0  0  0  0
   -4.2698   -0.7095   -0.9846 C   0  0  0  0  0  0  0  0  0  0  0  0
   -2.9234   -0.4228   -1.2350 C   0  0  0  0  0  0  0  0  0  0  0  0
   -0.4894    2.0408   -1.4505 C   0  0  0  0  0  0  0  0  0  0  0  0
   -1.3918    3.0438   -1.8908 C   0  0  0  0  0  0  0  0  0  0  0  0
   -2.1521    3.8508   -2.2360 N   0  0  0  0  0  0  0  0  0  0  0  0
    0.9579    2.2388   -1.6803 C   0  0  0  0  0  0  0  0  0  0  0  0
    1.4237    3.2683   -2.1556 O   0  0  0  0  0  0  0  0  0  0  0  0
    1.7577    1.1986   -1.3142 N   0  0  0  0  0  0  0  0  0  0  0  0
    5.4053   -1.0045   -1.7334 H   0  0  0  0  0  0  0  0  0  0  0  0
    6.1817   -2.3053   -0.8099 H   0  0  0  0  0  0  0  0  0  0  0  0
    4.5346   -2.5053   -1.4101 H   0  0  0  0  0  0  0  0  0  0  0  0
    4.3856   -2.0396    0.9715 H   0  0  0  0  0  0  0  0  0  0  0  0
    6.4056   -0.9820    1.6647 H   0  0  0  0  0  0  0  0  0  0  0  0
    5.8897    1.3490   -0.2744 H   0  0  0  0  0  0  0  0  0  0  0  0
    7.1242    0.0865   -0.5002 H   0  0  0  0  0  0  0  0  0  0  0  0
    7.9219    1.9563    0.5051 H   0  0  0  0  0  0  0  0  0  0  0  0
    4.7773   -0.1238    3.0416 H   0  0  0  0  0  0  0  0  0  0  0  0
    5.1534    1.4285    2.2846 H   0  0  0  0  0  0  0  0  0  0  0  0
    2.7308   -0.1391    2.1113 H   0  0  0  0  0  0  0  0  0  0  0  0
    3.0429    1.4195    1.3239 H   0  0  0  0  0  0  0  0  0  0  0  0
    2.4927   -1.5444   -1.1708 H   0  0  0  0  0  0  0  0  0  0  0  0
    1.9323   -1.5970    0.5097 H   0  0  0  0  0  0  0  0  0  0  0  0
   -2.5172    2.1359    0.9745 H   0  0  0  0  0  0  0  0  0  0  0  0
   -4.8717    1.6349    1.4059 H   0  0  0  0  0  0  0  0  0  0  0  0
   -6.1458   -2.3926    0.5832 H   0  0  0  0  0  0  0  0  0  0  0  0
   -8.5548   -2.8195    1.0077 H   0  0  0  0  0  0  0  0  0  0  0  0
  -10.1530   -0.9038    0.8887 H   0  0  0  0  0  0  0  0  0  0  0  0
   -7.1539    1.7435   -0.0613 H   0  0  0  0  0  0  0  0  0  0  0  0
   -4.7464   -1.5110   -1.5461 H   0  0  0  0  0  0  0  0  0  0  0  0
   -2.3818   -1.0148   -1.9696 H   0  0  0  0  0  0  0  0  0  0  0  0
    2.7621    1.3146   -1.3864 H   0  0  0  0  0  0  0  0  0  0  0  0
  1  2  1  0
  2  3  1  0
  3  4  1  0
  4  5  1  0
  3  6  1  0
  6  7  1  0
  7  8  1  0
  8  9  1  0
  9 10  1  0
 10 11  2  0
 11 12  1  0
 12 13  1  0
 13 14  2  0
 14 15  1  0
 15 16  2  0
 16 17  1  0
 17 18  2  0
 18 19  1  0
 19 20  2  0
 20 21  1  0
 21 22  2  0
 16 23  1  0
 23 24  2  0
 12 25  2  0
 25 26  1  0
 26 27  3  0
 25 28  1  0
 28 29  2  0
 28 30  1  0
  8  2  1  0
 30 10  1  0
 24 13  1  0
 22 17  1  0
  1 31  1  0
  1 32  1  0
  1 33  1  0
  2 34  1  0
  3 35  1  1
  4 36  1  0
  4 37  1  0
  5 38  1  0
  6 39  1  0
  6 40  1  0
  7 41  1  0
  7 42  1  0
  9 43  1  0
  9 44  1  0
 14 45  1  0
 15 46  1  0
 18 47  1  0
 19 48  1  0
 20 49  1  0
 22 50  1  0
 23 51  1  0
 24 52  1  0
 30 53  1  0
M  END
$$$$
