
     RDKit          3D

 50 53  0  0  0  0  0  0  0  0999 V2000
   -7.2508    2.7318    0.2991 C   0  0  0  0  0  0  0  0  0  0  0  0
   -6.6785    1.4288    0.7584 C   0  0  0  0  0  0  0  0  0  0  0  0
   -7.4489    0.5162    1.4676 C   0  0  0  0  0  0  0  0  0  0  0  0
   -7.0027   -0.6888    1.8808 N   0  0  0  0  0  0  0  0  0  0  0  0
   -5.7242   -1.0038    1.5618 C   0  0  0  0  0  0  0  0  0  0  0  0
   -4.8557   -0.1839    0.8403 C   0  0  0  0  0  0  0  0  0  0  0  0
   -3.4820   -0.5977    0.5198 C   0  0  0  0  0  0  0  0  0  0  0  0
   -2.3894    0.2366    0.8022 C   0  0  0  0  0  0  0  0  0  0  0  0
   -1.0819   -0.1582    0.4978 C   0  0  0  0  0  0  0  0  0  0  0  0
   -0.8329   -1.4043   -0.0915 C   0  0  0  0  0  0  0  0  0  0  0  0
    0.5779   -1.7689   -0.4092 C   0  0  0  0  0  0  0  0  0  0  0  0
    1.4325   -0.8119   -0.6540 N   0  0  0  0  0  0  0  0  0  0  0  0
    2.7496   -1.1338   -0.9457 C   0  0  0  0  0  0  0  0  0  0  0  0
    3.6470    0.0814   -1.2070 C   0  0  0  0  0  0  0  0  0  0  0  0
    3.8393    0.9366   -0.0238 N   0  0  0  0  0  0  0  0  0  0  0  0
    4.7380    0.3506    0.9917 C   0  0  0  0  0  0  0  0  0  0  0  0
    6.1655    0.9199    0.9490 C   0  0  0  0  0  0  0  0  0  0  0  0
    6.2133    2.3397    1.1448 O   0  0  0  0  0  0  0  0  0  0  0  0
    5.0156    3.0078    0.7243 C   0  0  0  0  0  0  0  0  0  0  0  0
    4.3108    2.2788   -0.4281 C   0  0  0  0  0  0  0  0  0  0  0  0
    3.1906   -2.4080   -1.0305 C   0  0  0  0  0  0  0  0  0  0  0  0
    4.5424   -2.7427   -1.3441 C   0  0  0  0  0  0  0  0  0  0  0  0
    5.6406   -3.0241   -1.5906 N   0  0  0  0  0  0  0  0  0  0  0  0
    2.3227   -3.4436   -0.7834 N   0  0  0  0  0  0  0  0  0  0  0  0
    1.0124   -3.2428   -0.4327 C   0  0  0  0  0  0  0  0  0  0  0  0
    0.2660   -4.1654   -0.1519 O   0  0  0  0  0  0  0  0  0  0  0  0
   -1.9124   -2.2374   -0.3924 C   0  0  0  0  0  0  0  0  0  0  0  0
   -3.2199   -1.8382   -0.0846 C   0  0  0  0  0  0  0  0  0  0  0  0
   -5.3688    1.0565    0.4357 C   0  0  0  0  0  0  0  0  0  0  0  0
   -7.7017    2.6155   -0.6912 H   0  0  0  0  0  0  0  0  0  0  0  0
   -8.0159    3.0905    0.9957 H   0  0  0  0  0  0  0  0  0  0  0  0
   -6.4741    3.5019    0.2458 H   0  0  0  0  0  0  0  0  0  0  0  0
   -8.4805    0.7330    1.7326 H   0  0  0  0  0  0  0  0  0  0  0  0
   -5.4028   -1.9768    1.9261 H   0  0  0  0  0  0  0  0  0  0  0  0
   -2.5449    1.2045    1.2758 H   0  0  0  0  0  0  0  0  0  0  0  0
   -0.2584    0.5151    0.7315 H   0  0  0  0  0  0  0  0  0  0  0  0
    4.6176   -0.1965   -1.6341 H   0  0  0  0  0  0  0  0  0  0  0  0
    3.1399    0.6628   -1.9908 H   0  0  0  0  0  0  0  0  0  0  0  0
    4.7725   -0.7420    0.9355 H   0  0  0  0  0  0  0  0  0  0  0  0
    4.3049    0.5895    1.9714 H   0  0  0  0  0  0  0  0  0  0  0  0
    6.7759    0.4618    1.7340 H   0  0  0  0  0  0  0  0  0  0  0  0
    6.6447    0.6912   -0.0101 H   0  0  0  0  0  0  0  0  0  0  0  0
    4.3525    3.1066    1.5918 H   0  0  0  0  0  0  0  0  0  0  0  0
    5.2975    4.0191    0.4141 H   0  0  0  0  0  0  0  0  0  0  0  0
    5.0202    2.1980   -1.2626 H   0  0  0  0  0  0  0  0  0  0  0  0
    3.4542    2.8704   -0.7693 H   0  0  0  0  0  0  0  0  0  0  0  0
    2.6422   -4.4047   -0.8073 H   0  0  0  0  0  0  0  0  0  0  0  0
   -1.7721   -3.1981   -0.8806 H   0  0  0  0  0  0  0  0  0  0  0  0
   -4.0403   -2.5076   -0.3405 H   0  0  0  0  0  0  0  0  0  0  0  0
   -4.7478    1.7345   -0.1467 H   0  0  0  0  0  0  0  0  0  0  0  0
  1  2  1  0
  2  3  2  0
  3  4  1  0
  4  5  2  0
  5  6  1  0
  6  7  1  0
  7  8  2  0
  8  9  1  0
  9 10  2  0
 10 11  1  0
 11 12  2  0
 12 13  1  0
 13 14  1  0
 14 15  1  0
 15 16  1  0
 16 17  1  0
 17 18  1  0
 18 19  1  0
 19 20  1  0
 13 21  2  0
 21 22  1  0
 22 23  3  0
 21 24  1  0
 24 25  1  0
 25 26  2  0
 10 27  1  0
 27 28  2  0
  6 29  2  0
 29  2  1  0
 28  7  1  0
 25 11  1  0
 20 15  1  0
  1 30  1  0
  1 31  1  0
  1 32  1  0
  3 33  1  0
  5 34  1  0
  8 35  1  0
  9 36  1  0
 14 37  1  0
 14 38  1  0
 16 39  1  0
 16 40  1  0
 17 41  1  0
 17 42  1  0
 19 43  1  0
 19 44  1  0
 20 45  1  0
 20 46  1  0
 24 47  1  0
 27 48  1  0
 28 49  1  0
 29 50  1  0
M  END
$$$$
