
     RDKit          3D

 38 38  0  0  0  0  0  0  0  0999 V2000
    2.0952   -3.1101    1.2954 C   0  0  0  0  0  0  0  0  0  0  0  0
    2.1392   -1.6911    1.0524 N   0  0  0  0  0  0  0  0  0  0  0  0
    1.7665   -1.1685   -0.1682 C   0  0  0  0  0  0  0  0  0  0  0  0
    1.4570   -1.8380   -1.1428 O   0  0  0  0  0  0  0  0  0  0  0  0
    1.7601    0.3156   -0.2202 C   0  0  0  0  0  0  0  0  0  0  0  0
    2.9820    0.9612    0.0422 C   0  0  0  0  0  0  0  0  0  0  0  0
    3.0606    2.3526    0.0436 C   0  0  0  0  0  0  0  0  0  0  0  0
    1.9135    3.0920   -0.2073 C   0  0  0  0  0  0  0  0  0  0  0  0
    1.9324    4.4550   -0.2031 O   0  0  0  0  0  0  0  0  0  0  0  0
    0.6971    2.4653   -0.4701 C   0  0  0  0  0  0  0  0  0  0  0  0
    0.5950    1.0598   -0.5017 C   0  0  0  0  0  0  0  0  0  0  0  0
   -0.7595    0.4004   -0.7791 C   0  0  0  0  0  0  0  0  0  0  0  0
   -1.4098    0.9125   -2.0772 C   0  0  0  0  0  0  0  0  0  0  0  0
   -0.3834    0.3900   -3.6537 Br  0  0  0  0  0  0  0  0  0  0  0  0
   -1.6944    0.6334    0.4394 C   0  0  0  0  0  0  0  0  0  0  0  0
   -2.5908   -0.5541    0.8571 C   0  0  0  0  0  0  0  0  0  0  0  0
   -3.5433   -1.0168   -0.2417 C   0  0  0  0  0  0  0  0  0  0  0  0
   -1.7745   -1.7347    1.3877 C   0  0  0  0  0  0  0  0  0  0  0  0
    2.4348   -3.6603    0.4138 H   0  0  0  0  0  0  0  0  0  0  0  0
    2.7399   -3.3363    2.1477 H   0  0  0  0  0  0  0  0  0  0  0  0
    1.0650   -3.3930    1.5265 H   0  0  0  0  0  0  0  0  0  0  0  0
    2.2134   -1.0658    1.8446 H   0  0  0  0  0  0  0  0  0  0  0  0
    3.8787    0.3745    0.2313 H   0  0  0  0  0  0  0  0  0  0  0  0
    4.0127    2.8340    0.2423 H   0  0  0  0  0  0  0  0  0  0  0  0
    2.8485    4.7559   -0.0850 H   0  0  0  0  0  0  0  0  0  0  0  0
   -0.1736    3.0926   -0.6460 H   0  0  0  0  0  0  0  0  0  0  0  0
   -0.6173   -0.6744   -0.9027 H   0  0  0  0  0  0  0  0  0  0  0  0
   -1.5041    2.0008   -2.1213 H   0  0  0  0  0  0  0  0  0  0  0  0
   -2.4004    0.4812   -2.2366 H   0  0  0  0  0  0  0  0  0  0  0  0
   -1.0988    0.8988    1.3244 H   0  0  0  0  0  0  0  0  0  0  0  0
   -2.3341    1.5057    0.2480 H   0  0  0  0  0  0  0  0  0  0  0  0
   -3.2102   -0.1954    1.6905 H   0  0  0  0  0  0  0  0  0  0  0  0
   -3.0072   -1.4799   -1.0759 H   0  0  0  0  0  0  0  0  0  0  0  0
   -4.1317   -0.1779   -0.6270 H   0  0  0  0  0  0  0  0  0  0  0  0
   -4.2460   -1.7609    0.1492 H   0  0  0  0  0  0  0  0  0  0  0  0
   -1.1988   -2.2238    0.5965 H   0  0  0  0  0  0  0  0  0  0  0  0
   -2.4357   -2.4900    1.8266 H   0  0  0  0  0  0  0  0  0  0  0  0
   -1.0781   -1.4103    2.1679 H   0  0  0  0  0  0  0  0  0  0  0  0
  1  2  1  0
  2  3  1  0
  3  4  2  0
  3  5  1  0
  5  6  2  0
  6  7  1  0
  7  8  2  0
  8  9  1  0
  8 10  1  0
 10 11  2  0
 11 12  1  0
 12 13  1  0
 13 14  1  0
 12 15  1  0
 15 16  1  0
 16 17  1  0
 16 18  1  0
 11  5  1  0
  1 19  1  0
  1 20  1  0
  1 21  1  0
  2 22  1  0
  6 23  1  0
  7 24  1  0
  9 25  1  0
 10 26  1  0
 12 27  1  0
 13 28  1  0
 13 29  1  0
 15 30  1  0
 15 31  1  0
 16 32  1  0
 17 33  1  0
 17 34  1  0
 17 35  1  0
 18 36  1  0
 18 37  1  0
 18 38  1  0
M  END
$$$$
