MODEL        1USER    Run = 1USERUSER    Estimated Free Energy of Binding    =  -7.29 kcal/mol  [=(1)+(2)+(3)-(4)]USERUSER    (1) Final Intermolecular Energy     = -11.47 kcal/molUSER        vdW + Hbond + desolv Energy     = -11.95 kcal/molUSER        Electrostatic Energy            =  -0.38 kcal/molUSER        Moving Ligand-Fixed Receptor    = -12.33 kcal/molUSER        Moving Ligand-Moving Receptor   =  +0.86 kcal/molUSER    (2) Final Total Internal Energy     =  -2.94 kcal/molUSER    (3) Torsional Free Energy           =  +4.18 kcal/molUSER    (4) Unbound System's Energy         =  -2.94 kcal/molUSERUSERREMARK SMILES COc1ccc(O)c(C(=O)c2ccc(C(=O)N[C@@H]3CCCN[C@@H](C)[C@H]3NC(=O)c3ccncc3)cc2)c1FREMARK SMILES IDX 15 1 16 2 17 3 14 5 11 6 12 7 36 8 13 9 35 10 9 11 10 12REMARK SMILES IDX 8 13 3 14 4 15 37 16 5 17 6 18 38 19 2 20 1 21 7 22 18 24REMARK SMILES IDX 19 25 25 27 23 28 24 29 22 30 21 32 20 33 26 35 27 36 28 38REMARK SMILES IDX 29 39 30 40 34 41 31 42 33 43 32 44REMARK H PARENT 17 4 7 23 22 31 26 37REMARK Flexibility Score:   88.900USER                              x       y       z     vdW  Elec       q    TypeUSER                           _______ _______ _______ _____ _____    ______ ____ROOTATOM      1  C   UNL     1      39.862  46.338  16.198 -0.32 -0.04    +0.251 C  ATOM      2  O   UNL     1      40.400  45.913  15.184 -0.36 +0.01    -0.269 OA ATOM      3  N   UNL     1      38.541  46.737  16.243 -0.17 +0.13    -0.347 N  ATOM      4  H   UNL     1      38.181  47.164  17.085 +0.09 -0.08    +0.164 HD ENDROOTBRANCH   1   5ATOM      5  C   UNL     1      40.644  46.471  17.459 -0.47 -0.00    +0.039 A  ATOM      6  C   UNL     1      42.169  46.807  19.790 -0.43 +0.00    +0.023 A  ATOM      7  C   UNL     1      42.238  47.759  18.767 -0.44 +0.00    +0.013 A  ATOM      8  C   UNL     1      41.371  45.668  19.627 -0.42 +0.00    +0.013 A  ATOM      9  C   UNL     1      41.474  47.590  17.608 -0.45 -0.00    +0.014 A  ATOM     10  C   UNL     1      40.609  45.498  18.466 -0.46 -0.00    +0.014 A  BRANCH   6  11ATOM     11  C   UNL     1      42.987  46.922  21.023 -0.32 +0.06    +0.199 C  ATOM     12  O   UNL     1      44.190  46.661  20.965 -0.51 -0.26    -0.288 OA BRANCH  11  13ATOM     13  C   UNL     1      42.446  47.391  22.317 -0.22 +0.02    +0.104 A  ATOM     14  C   UNL     1      40.688  47.449  24.007 -0.19 +0.02    +0.155 A  ATOM     15  C   UNL     1      41.456  48.333  24.769 -0.29 +0.01    +0.053 A  ATOM     16  C   UNL     1      41.197  46.979  22.788 -0.10 +0.02    +0.179 A  ATOM     17  C   UNL     1      42.722  48.724  24.324 -0.34 +0.01    +0.051 A  ATOM     18  C   UNL     1      43.217  48.244  23.116 -0.28 +0.03    +0.130 A  ATOM     19  F   UNL     1      40.470  46.097  22.082 -0.06 -0.02    -0.202 F  BRANCH  14  20ATOM     20  O   UNL     1      39.447  46.983  24.347 -0.07 -0.05    -0.494 OA ATOM     21  C   UNL     1      39.357  45.643  24.812 -0.10 +0.01    +0.278 C  ENDBRANCH  14  20BRANCH  18  22ATOM     22  O   UNL     1      44.478  48.649  22.770 -0.19 -0.14    -0.507 OA ATOM     23  H   UNL     1      44.545  48.625  21.787 -0.44 +0.00    +0.293 HD ENDBRANCH  18  22ENDBRANCH  11  13ENDBRANCH   6  11ENDBRANCH   1   5BRANCH   3  24ATOM     24  C   UNL     1      37.651  46.598  15.087 -0.39 -0.05    +0.106 C  BRANCH  24  25ATOM     25  C   UNL     1      38.042  47.610  13.996 -0.56 -0.01    +0.028 CG0ATOM     26  G   UNL     1      37.796  47.270  12.525 +0.00 +0.00    +0.000 G0 ENDBRANCH  24  25BRANCH  24  27ATOM     27  C   UNL     1      36.143  46.561  15.479 -0.35 -0.10    +0.121 C  BRANCH  27  28ATOM     28  C   UNL     1      35.189  46.594  14.247 -0.39 -0.07    +0.075 C  ATOM     29  C   UNL     1      33.862  45.884  14.555 -0.23 -0.03    +0.026 C  BRANCH  28  30ATOM     30  N   UNL     1      35.724  45.983  13.023 -0.26 +0.17    -0.312 NA ATOM     31  H   UNL     1      36.334  45.203  13.263 +0.08 -0.05    +0.123 HD BRANCH  30  32ATOM     32  C   UNL     1      36.372  46.909  12.109 -0.70 -0.04    +0.081 C  BRANCH  32  33ATOM     33  C   UNL     1      37.791  47.272  12.525 -0.40 -0.00    +0.017 CG0ATOM     34  G   UNL     1      38.030  47.614  13.997 +0.00 +0.00    +0.000 G0 ENDBRANCH  32  33ENDBRANCH  30  32ENDBRANCH  28  30ENDBRANCH  27  28BRANCH  27  35ATOM     35  N   UNL     1      35.846  45.425  16.372 -0.10 +0.20    -0.346 N  ATOM     36  C   UNL     1      36.310  45.365  17.669 -0.22 -0.10    +0.251 C  ATOM     37  H   UNL     1      35.272  44.678  16.015 +0.12 -0.09    +0.164 HD ATOM     38  O   UNL     1      37.051  46.200  18.172 -0.06 +0.09    -0.269 OA BRANCH  36  39ATOM     39  C   UNL     1      35.877  44.190  18.469 -0.31 -0.01    +0.042 A  ATOM     40  C   UNL     1      36.479  43.982  19.710 -0.37 -0.00    +0.034 A  ATOM     41  C   UNL     1      34.873  43.327  18.033 -0.31 -0.01    +0.034 A  ATOM     42  C   UNL     1      36.069  42.892  20.454 -0.37 -0.00    +0.112 A  ATOM     43  C   UNL     1      34.534  42.268  18.855 -0.33 -0.02    +0.112 A  ATOM     44  N   UNL     1      35.115  42.027  20.049 -0.25 +0.00    -0.265 NA ENDBRANCH  36  39ENDBRANCH  27  35ENDBRANCH  24  27ENDBRANCH   3  24TORSDOF 8TERENDMDL