MODEL        9USER    Run = 9USERUSER    Estimated Free Energy of Binding    = -11.93 kcal/mol  [=(1)+(2)+(3)-(4)]USERUSER    (1) Final Intermolecular Energy     = -13.72 kcal/molUSER        vdW + Hbond + desolv Energy     = -13.58 kcal/molUSER        Electrostatic Energy            =  -0.15 kcal/molUSER        Moving Ligand-Fixed Receptor    = -13.72 kcal/molUSER        Moving Ligand-Moving Receptor   =  +0.00 kcal/molUSER    (2) Final Total Internal Energy     =  -1.48 kcal/molUSER    (3) Torsional Free Energy           =  +1.79 kcal/molUSER    (4) Unbound System's Energy         =  -1.48 kcal/molUSERUSERREMARK SMILES C[C@H]1C[C@@H](n2c(O)nc3ccccc32)CCN1Cc1ccc(-c2nc3ccccc3nc2-c2ccncc2)cc1FREMARK SMILES IDX 1 1 2 2 3 3 4 4 15 5 16 6 17 7 18 8 19 9 20 10 40 11 21 12REMARK SMILES IDX 39 13 22 14 41 15 23 16 24 17 32 18 25 19 31 20 26 21 30 22REMARK SMILES IDX 27 23 29 24 28 25 33 26 34 27 38 28 35 29 37 30 36 31 5 32REMARK SMILES IDX 6 33 14 34 8 35 13 36 9 37 12 38 10 39 11 40 7 41REMARK H PARENT 7 42USER                              x       y       z     vdW  Elec       q    TypeUSER                           _______ _______ _______ _____ _____    ______ ____ROOTATOM      1  C   UNL     1      25.135  43.568  16.747 -0.35 +0.00    +0.024 C  ATOM      2  C   UNL     1      26.414  43.753  17.572 -0.37 -0.00    +0.056 C  ATOM      3  C   UNL     1      26.281  43.210  19.008 -0.42 -0.01    +0.044 C  ATOM      4  C   UNL     1      26.659  41.724  19.164 -0.20 -0.01    +0.095 C  ATOM      5  C   UNL     1      26.796  40.985  17.832 -0.25 -0.00    +0.041 C  ATOM      6  C   UNL     1      27.646  41.750  16.822 -0.22 -0.02    +0.087 C  ATOM      7  N   UNL     1      27.643  43.210  16.975 -0.07 +0.07    -0.296 NA ENDROOTBRANCH   7   8ATOM      8  C   UNL     1      28.056  43.857  15.718 -0.22 -0.07    +0.123 C  BRANCH   8   9ATOM      9  C   UNL     1      29.515  44.240  15.682 -0.29 -0.00    +0.002 A  ATOM     10  C   UNL     1      29.907  45.585  15.685 -0.36 -0.00    +0.009 A  ATOM     11  C   UNL     1      30.507  43.261  15.624 -0.23 -0.07    +0.128 A  ATOM     12  C   UNL     1      31.262  45.930  15.629 -0.41 -0.01    +0.011 A  ATOM     13  C   UNL     1      31.858  43.599  15.568 -0.32 -0.03    +0.050 A  ATOM     14  C   UNL     1      32.262  44.943  15.580 -0.37 -0.00    +0.005 A  ATOM     15  F   UNL     1      30.172  41.966  15.603 -0.10 +0.10    -0.207 F  BRANCH  14  16ATOM     16  C   UNL     1      33.694  45.278  15.491 -0.24 -0.08    +0.097 A  ATOM     17  N   UNL     1      34.025  45.881  14.314 -0.14 +0.22    -0.244 NA ATOM     18  C   UNL     1      34.660  45.039  16.481 -0.25 -0.06    +0.097 A  ATOM     19  C   UNL     1      35.296  46.281  14.148 -0.36 -0.07    +0.089 A  ATOM     20  N   UNL     1      35.946  45.465  16.309 -0.17 +0.14    -0.244 NA ATOM     21  C   UNL     1      35.669  46.904  12.965 -0.55 -0.02    +0.030 A  ATOM     22  C   UNL     1      36.261  46.082  15.156 -0.32 -0.06    +0.089 A  ATOM     23  C   UNL     1      36.975  47.342  12.757 -0.64 -0.00    +0.002 A  ATOM     24  C   UNL     1      37.560  46.528  14.943 -0.38 -0.01    +0.030 A  ATOM     25  C   UNL     1      37.925  47.159  13.753 -0.50 -0.00    +0.002 A  BRANCH  18  26ATOM     26  C   UNL     1      34.447  44.308  17.748 -0.31 -0.00    +0.005 A  ATOM     27  C   UNL     1      33.419  44.694  18.621 -0.39 -0.01    +0.030 A  ATOM     28  C   UNL     1      35.272  43.255  18.168 -0.33 -0.01    +0.030 A  ATOM     29  C   UNL     1      33.250  44.019  19.819 -0.35 -0.01    +0.111 A  ATOM     30  C   UNL     1      35.017  42.631  19.380 -0.35 -0.01    +0.111 A  ATOM     31  N   UNL     1      34.023  42.988  20.212 -0.63 -0.04    -0.265 NA ENDBRANCH  18  26ENDBRANCH  14  16ENDBRANCH   8   9ENDBRANCH   7   8BRANCH   4  32ATOM     32  N   UNL     1      25.779  40.988  20.067 -0.15 +0.05    -0.291 N  ATOM     33  C   UNL     1      25.757  39.633  20.246 -0.12 -0.09    +0.295 A  ATOM     34  C   UNL     1      24.952  41.531  21.031 -0.45 -0.02    +0.072 A  ATOM     35  N   UNL     1      24.977  39.249  21.218 -0.25 +0.10    -0.195 NA ATOM     36  C   UNL     1      24.602  42.841  21.380 -0.50 -0.01    +0.029 A  ATOM     37  C   UNL     1      24.480  40.420  21.736 -0.40 -0.02    +0.092 A  ATOM     38  C   UNL     1      23.757  43.005  22.489 -0.72 -0.00    +0.002 A  ATOM     39  C   UNL     1      23.630  40.608  22.840 -0.42 -0.01    +0.031 A  ATOM     40  C   UNL     1      23.278  41.910  23.209 -0.56 -0.00    +0.002 A  BRANCH  33  41ATOM     41  O   UNL     1      26.481  38.770  19.563 -0.04 +0.10    -0.480 OA ATOM     42  H   UNL     1      25.953  37.958  19.659 +0.12 -0.18    +0.296 HD ENDBRANCH  33  41ENDBRANCH   4  32TORSDOF 6TERENDMDL