REMARK SMILES COc1ccc(O)c(C(=O)c2ccc(C(=O)N[C@@H]3CCCN[C@@H](C)[C@H]3NC(=O)c3ccncc3)cc2)c1F
REMARK SMILES IDX 15 1 16 2 17 3 14 5 11 6 12 7 36 8 13 9 35 10 9 11 10 12
REMARK SMILES IDX 8 13 3 14 4 15 37 16 5 17 6 18 38 19 2 20 1 21 7 22 18 24
REMARK SMILES IDX 19 25 25 27 23 28 24 29 22 30 21 32 20 33 26 35 27 36 28 38
REMARK SMILES IDX 29 39 30 40 34 41 31 42 33 43 32 44
REMARK H PARENT 17 4 7 23 22 31 26 37
REMARK Flexibility Score:   88.900
ROOT
ATOM      1  C   UNL     1       0.022  -0.466  -0.593  1.00  0.00     0.251 C 
ATOM      2  O   UNL     1      -0.267  -1.299  -1.443  1.00  0.00    -0.269 OA
ATOM      3  N   UNL     1      -0.816   0.569  -0.232  1.00  0.00    -0.347 N 
ATOM      4  H   UNL     1      -0.484   1.276   0.409  1.00  0.00     0.164 HD
ENDROOT
BRANCH   1   5
ATOM      5  C   UNL     1       1.345  -0.524   0.089  1.00  0.00     0.039 A 
ATOM      6  C   UNL     1       3.874  -0.697   1.293  1.00  0.00     0.023 A 
ATOM      7  C   UNL     1       3.668  -1.239   0.020  1.00  0.00     0.013 A 
ATOM      8  C   UNL     1       2.804  -0.108   1.979  1.00  0.00     0.013 A 
ATOM      9  C   UNL     1       2.407  -1.148  -0.579  1.00  0.00     0.014 A 
ATOM     10  C   UNL     1       1.543  -0.020   1.381  1.00  0.00     0.014 A 
BRANCH   6  11
ATOM     11  C   UNL     1       5.182  -0.800   1.986  1.00  0.00     0.199 C 
ATOM     12  O   UNL     1       5.197  -0.987   3.204  1.00  0.00    -0.288 OA
BRANCH  11  13
ATOM     13  C   UNL     1       6.481  -0.748   1.282  1.00  0.00     0.104 A 
ATOM     14  C   UNL     1       7.910   0.074  -0.516  1.00  0.00     0.155 A 
ATOM     15  C   UNL     1       8.962  -0.707  -0.031  1.00  0.00     0.053 A 
ATOM     16  C   UNL     1       6.678   0.051   0.154  1.00  0.00     0.179 A 
ATOM     17  C   UNL     1       8.787  -1.483   1.118  1.00  0.00     0.051 A 
ATOM     18  C   UNL     1       7.561  -1.490   1.776  1.00  0.00     0.130 A 
ATOM     19  F   UNL     1       5.685   0.837  -0.295  1.00  0.00    -0.202 F 
BRANCH  14  20
ATOM     20  O   UNL     1       7.967   0.885  -1.617  1.00  0.00    -0.494 OA
ATOM     21  C   UNL     1       9.200   0.945  -2.322  1.00  0.00     0.278 C 
ENDBRANCH  14  20
BRANCH  18  22
ATOM     22  O   UNL     1       7.484  -2.250   2.912  1.00  0.00    -0.507 OA
ATOM     23  H   UNL     1       6.659  -1.999   3.389  1.00  0.00     0.293 HD
ENDBRANCH  18  22
ENDBRANCH  11  13
ENDBRANCH   6  11
ENDBRANCH   1   5
BRANCH   3  24
ATOM     24  C   UNL     1      -2.168   0.699  -0.785  1.00  0.00     0.106 C 
BRANCH  24  25
ATOM     25  C   UNL     1      -2.634   2.163  -0.697  1.00  0.00     0.028 CG0
ATOM     26  G   UNL     1      -3.359   2.652   0.559  1.00  0.00     0.000 G0
ENDBRANCH  24  25
BRANCH  24  27
ATOM     27  C   UNL     1      -3.158  -0.370  -0.233  1.00  0.00     0.121 C 
BRANCH  27  28
ATOM     28  C   UNL     1      -3.155  -0.461   1.323  1.00  0.00     0.075 C 
ATOM     29  C   UNL     1      -3.892  -1.720   1.805  1.00  0.00     0.026 C 
BRANCH  28  30
ATOM     30  N   UNL     1      -3.764   0.680   2.019  1.00  0.00    -0.312 NA
ATOM     31  H   UNL     1      -4.743   0.767   1.751  1.00  0.00     0.123 HD
BRANCH  30  32
ATOM     32  C   UNL     1      -3.053   1.939   1.869  1.00  0.00     0.081 C 
BRANCH  32  33
ATOM     33  C   UNL     1      -3.359   2.652   0.559  1.00  0.00     0.017 CG0
ATOM     34  G   UNL     1      -2.634   2.163  -0.697  1.00  0.00     0.000 G0
ENDBRANCH  32  33
ENDBRANCH  30  32
ENDBRANCH  28  30
ENDBRANCH  27  28
BRANCH  27  35
ATOM     35  N   UNL     1      -4.518  -0.172  -0.768  1.00  0.00    -0.346 N 
ATOM     36  C   UNL     1      -5.274  -1.213  -1.265  1.00  0.00     0.251 C 
ATOM     37  H   UNL     1      -4.904   0.758  -0.752  1.00  0.00     0.164 HD
ATOM     38  O   UNL     1      -4.872  -2.365  -1.367  1.00  0.00    -0.269 OA
BRANCH  36  39
ATOM     39  C   UNL     1      -6.650  -0.873  -1.710  1.00  0.00     0.042 A 
ATOM     40  C   UNL     1      -7.202  -1.607  -2.760  1.00  0.00     0.034 A 
ATOM     41  C   UNL     1      -7.405   0.121  -1.088  1.00  0.00     0.034 A 
ATOM     42  C   UNL     1      -8.484  -1.292  -3.167  1.00  0.00     0.112 A 
ATOM     43  C   UNL     1      -8.680   0.355  -1.569  1.00  0.00     0.112 A 
ATOM     44  N   UNL     1      -9.231  -0.321  -2.599  1.00  0.00    -0.265 NA
ENDBRANCH  36  39
ENDBRANCH  27  35
ENDBRANCH  24  27
ENDBRANCH   3  24
TORSDOF 8
