
     RDKit          3D

 67 70  0  0  0  0  0  0  0  0999 V2000
   -9.1265    2.2507   -0.8909 C   0  0  0  0  0  0  0  0  0  0  0  0
   -8.9445    0.9107   -0.4380 O   0  0  0  0  0  0  0  0  0  0  0  0
   -7.6007    0.6282   -0.2812 C   0  0  0  0  0  0  0  0  0  0  0  0
   -6.8706    0.0234   -1.2262 C   0  0  0  0  0  0  0  0  0  0  0  0
   -7.2903   -0.4311   -2.5435 C   0  0  0  0  0  0  0  0  0  0  0  0
   -6.2102   -1.0337   -3.0698 C   0  0  0  0  0  0  0  0  0  0  0  0
   -5.1559   -1.0311   -2.1840 N   0  0  0  0  0  0  0  0  0  0  0  0
   -5.4505   -0.3124   -1.0476 C   0  0  0  0  0  0  0  0  0  0  0  0
   -4.7206    0.1199    0.0004 C   0  0  0  0  0  0  0  0  0  0  0  0
   -3.3419   -0.0839    0.1686 N   0  0  0  0  0  0  0  0  0  0  0  0
   -2.6269    0.3495    1.3543 C   0  0  0  0  0  0  0  0  0  0  0  0
   -1.2999   -0.3759    1.2889 C   0  0  0  0  0  0  0  0  0  0  0  0
   -1.0240   -0.4226   -0.2043 C   0  0  0  0  0  0  0  0  0  0  0  0
   -0.0943   -1.5509   -0.6449 C   0  0  0  0  0  0  0  0  0  0  0  0
    1.3294   -1.3356   -0.1874 C   0  0  0  0  0  0  0  0  0  0  0  0
    2.1885   -0.5083   -0.9233 C   0  0  0  0  0  0  0  0  0  0  0  0
    3.4972   -0.2869   -0.4911 C   0  0  0  0  0  0  0  0  0  0  0  0
    3.9589   -0.8915    0.6868 C   0  0  0  0  0  0  0  0  0  0  0  0
    5.3420   -0.6078    1.1204 C   0  0  0  0  0  0  0  0  0  0  0  0
    5.5555   -0.0654    2.1946 O   0  0  0  0  0  0  0  0  0  0  0  0
    6.3157   -0.9734    0.2168 N   0  0  0  0  0  0  0  0  0  0  0  0
    7.7306   -0.8288    0.5201 C   0  0  0  0  0  0  0  0  0  0  0  0
    8.2188    0.6268    0.3864 C   0  0  0  0  0  0  0  0  0  0  0  0
    9.6682    0.7914    0.6196 N   0  0  0  0  0  0  0  0  0  0  0  0
   10.4681    0.2378   -0.4733 C   0  0  0  0  0  0  0  0  0  0  0  0
    9.9866    2.2115    0.7950 C   0  0  0  0  0  0  0  0  0  0  0  0
    3.1111   -1.7156    1.4317 C   0  0  0  0  0  0  0  0  0  0  0  0
    3.6199   -2.5292    2.8673 Cl  0  0  0  0  0  0  0  0  0  0  0  0
    1.8009   -1.9366    0.9900 C   0  0  0  0  0  0  0  0  0  0  0  0
   -2.4201   -0.5731   -0.7852 C   0  0  0  0  0  0  0  0  0  0  0  0
   -2.6207   -0.9790   -1.9211 O   0  0  0  0  0  0  0  0  0  0  0  0
   -5.4472    0.9628    1.0551 C   0  0  0  0  0  0  0  0  0  0  0  0
   -7.0014    0.8964    1.0770 C   0  0  0  0  0  0  0  0  0  0  0  0
   -7.4820   -0.1748    2.0656 C   0  0  0  0  0  0  0  0  0  0  0  0
  -10.1999    2.4201   -1.0164 H   0  0  0  0  0  0  0  0  0  0  0  0
   -8.7514    2.9704   -0.1556 H   0  0  0  0  0  0  0  0  0  0  0  0
   -8.6412    2.4102   -1.8598 H   0  0  0  0  0  0  0  0  0  0  0  0
   -8.2601   -0.2951   -2.9881 H   0  0  0  0  0  0  0  0  0  0  0  0
   -6.0977   -1.4863   -4.0440 H   0  0  0  0  0  0  0  0  0  0  0  0
   -4.1836   -1.1447   -2.4696 H   0  0  0  0  0  0  0  0  0  0  0  0
   -2.4930    1.4356    1.3048 H   0  0  0  0  0  0  0  0  0  0  0  0
   -3.1508    0.0730    2.2725 H   0  0  0  0  0  0  0  0  0  0  0  0
   -0.5188    0.1393    1.8561 H   0  0  0  0  0  0  0  0  0  0  0  0
   -1.4098   -1.3885    1.6962 H   0  0  0  0  0  0  0  0  0  0  0  0
   -0.6423    0.5495   -0.5453 H   0  0  0  0  0  0  0  0  0  0  0  0
   -0.0954   -1.6375   -1.7392 H   0  0  0  0  0  0  0  0  0  0  0  0
   -0.4623   -2.5199   -0.2834 H   0  0  0  0  0  0  0  0  0  0  0  0
    1.8394   -0.0256   -1.8351 H   0  0  0  0  0  0  0  0  0  0  0  0
    4.1462    0.3739   -1.0620 H   0  0  0  0  0  0  0  0  0  0  0  0
    6.0541   -1.4899   -0.6122 H   0  0  0  0  0  0  0  0  0  0  0  0
    7.9079   -1.1954    1.5378 H   0  0  0  0  0  0  0  0  0  0  0  0
    8.2552   -1.4888   -0.1768 H   0  0  0  0  0  0  0  0  0  0  0  0
    7.6687    1.2262    1.1233 H   0  0  0  0  0  0  0  0  0  0  0  0
    7.9380    1.0237   -0.5986 H   0  0  0  0  0  0  0  0  0  0  0  0
   10.2280    0.6992   -1.4375 H   0  0  0  0  0  0  0  0  0  0  0  0
   11.5361    0.3892   -0.2801 H   0  0  0  0  0  0  0  0  0  0  0  0
   10.3285   -0.8438   -0.5612 H   0  0  0  0  0  0  0  0  0  0  0  0
    9.7443    2.8024   -0.0956 H   0  0  0  0  0  0  0  0  0  0  0  0
   11.0510    2.3440    1.0178 H   0  0  0  0  0  0  0  0  0  0  0  0
    9.4388    2.6286    1.6473 H   0  0  0  0  0  0  0  0  0  0  0  0
    1.1436   -2.5840    1.5684 H   0  0  0  0  0  0  0  0  0  0  0  0
   -5.1556    2.0083    0.8782 H   0  0  0  0  0  0  0  0  0  0  0  0
   -5.0993    0.7158    2.0626 H   0  0  0  0  0  0  0  0  0  0  0  0
   -7.3604    1.8665    1.4443 H   0  0  0  0  0  0  0  0  0  0  0  0
   -7.1164    0.0401    3.0752 H   0  0  0  0  0  0  0  0  0  0  0  0
   -7.1282   -1.1732    1.7846 H   0  0  0  0  0  0  0  0  0  0  0  0
   -8.5770   -0.2047    2.1142 H   0  0  0  0  0  0  0  0  0  0  0  0
  1  2  1  0
  2  3  1  0
  3  4  2  0
  4  5  1  0
  5  6  2  0
  6  7  1  0
  7  8  1  0
  8  9  2  0
  9 10  1  0
 10 11  1  0
 11 12  1  0
 12 13  1  0
 13 14  1  0
 14 15  1  0
 15 16  2  0
 16 17  1  0
 17 18  2  0
 18 19  1  0
 19 20  2  0
 19 21  1  0
 21 22  1  0
 22 23  1  0
 23 24  1  0
 24 25  1  0
 24 26  1  0
 18 27  1  0
 27 28  1  0
 27 29  2  0
 13 30  1  0
 30 31  2  0
  9 32  1  0
 32 33  1  0
 33 34  1  0
 33  3  1  0
  8  4  1  0
 30 10  1  0
 29 15  1  0
  1 35  1  0
  1 36  1  0
  1 37  1  0
  5 38  1  0
  6 39  1  0
  7 40  1  0
 11 41  1  0
 11 42  1  0
 12 43  1  0
 12 44  1  0
 13 45  1  0
 14 46  1  0
 14 47  1  0
 16 48  1  0
 17 49  1  0
 21 50  1  0
 22 51  1  0
 22 52  1  0
 23 53  1  0
 23 54  1  0
 25 55  1  0
 25 56  1  0
 25 57  1  0
 26 58  1  0
 26 59  1  0
 26 60  1  0
 29 61  1  0
 32 62  1  0
 32 63  1  0
 33 64  1  0
 34 65  1  0
 34 66  1  0
 34 67  1  0
M  END
$$$$
