
     RDKit          3D

 68 72  0  0  0  0  0  0  0  0999 V2000
   -9.6296   -0.1707   -0.0514 C   0  0  0  0  0  0  0  0  0  0  0  0
   -8.7357    0.9057   -0.3334 O   0  0  0  0  0  0  0  0  0  0  0  0
   -7.4094    0.5240   -0.2749 C   0  0  0  0  0  0  0  0  0  0  0  0
   -6.7376    0.2924    0.8635 C   0  0  0  0  0  0  0  0  0  0  0  0
   -7.2160    0.3164    2.2346 C   0  0  0  0  0  0  0  0  0  0  0  0
   -6.1696   -0.0641    2.9854 C   0  0  0  0  0  0  0  0  0  0  0  0
   -5.0554   -0.3639    2.2157 N   0  0  0  0  0  0  0  0  0  0  0  0
   -5.3076   -0.0523    0.8854 C   0  0  0  0  0  0  0  0  0  0  0  0
   -4.5141    0.0859   -0.1959 C   0  0  0  0  0  0  0  0  0  0  0  0
   -3.1523   -0.2247   -0.2185 N   0  0  0  0  0  0  0  0  0  0  0  0
   -2.4818   -1.0112    0.7931 C   0  0  0  0  0  0  0  0  0  0  0  0
   -1.2190   -1.4978    0.1138 C   0  0  0  0  0  0  0  0  0  0  0  0
   -0.8655   -0.3655   -0.8451 C   0  0  0  0  0  0  0  0  0  0  0  0
   -0.0304    0.7628   -0.2285 C   0  0  0  0  0  0  0  0  0  0  0  0
    1.3573    0.3368    0.1910 C   0  0  0  0  0  0  0  0  0  0  0  0
    2.2693   -0.1610   -0.7517 C   0  0  0  0  0  0  0  0  0  0  0  0
    3.5502   -0.5562   -0.3601 C   0  0  0  0  0  0  0  0  0  0  0  0
    3.9390   -0.4288    0.9762 C   0  0  0  0  0  0  0  0  0  0  0  0
    5.2839   -0.8553    1.4285 C   0  0  0  0  0  0  0  0  0  0  0  0
    5.3486   -1.6174    2.3909 O   0  0  0  0  0  0  0  0  0  0  0  0
    6.4056   -0.3806    0.7581 N   0  0  0  0  0  0  0  0  0  0  0  0
    6.4135    0.7745   -0.1497 C   0  0  0  0  0  0  0  0  0  0  0  0
    7.7620    1.5184   -0.1287 C   0  0  0  0  0  0  0  0  0  0  0  0
    8.8980    0.6541   -0.4995 N   0  0  0  0  0  0  0  0  0  0  0  0
   10.1665    1.2819   -0.1444 C   0  0  0  0  0  0  0  0  0  0  0  0
    8.7780   -0.7086    0.0608 C   0  0  0  0  0  0  0  0  0  0  0  0
    7.7181   -0.8821    1.1642 C   0  0  0  0  0  0  0  0  0  0  0  0
    3.0343    0.0523    1.9263 C   0  0  0  0  0  0  0  0  0  0  0  0
    1.7524    0.4417    1.5328 C   0  0  0  0  0  0  0  0  0  0  0  0
   -2.2327    0.1836   -1.2046 C   0  0  0  0  0  0  0  0  0  0  0  0
   -2.4227    0.9136   -2.1664 O   0  0  0  0  0  0  0  0  0  0  0  0
   -5.1460    0.6453   -1.4685 C   0  0  0  0  0  0  0  0  0  0  0  0
   -6.6855    0.4802   -1.6050 C   0  0  0  0  0  0  0  0  0  0  0  0
   -7.0142   -0.8234   -2.3446 C   0  0  0  0  0  0  0  0  0  0  0  0
  -10.6296    0.1328   -0.3760 H   0  0  0  0  0  0  0  0  0  0  0  0
   -9.6739   -0.3735    1.0220 H   0  0  0  0  0  0  0  0  0  0  0  0
   -9.3595   -1.0822   -0.5939 H   0  0  0  0  0  0  0  0  0  0  0  0
   -8.1890    0.6273    2.5716 H   0  0  0  0  0  0  0  0  0  0  0  0
   -6.1102   -0.1234    4.0634 H   0  0  0  0  0  0  0  0  0  0  0  0
   -4.1559   -0.0927    2.5894 H   0  0  0  0  0  0  0  0  0  0  0  0
   -3.0936   -1.8574    1.1206 H   0  0  0  0  0  0  0  0  0  0  0  0
   -2.2381   -0.3633    1.6420 H   0  0  0  0  0  0  0  0  0  0  0  0
   -0.4311   -1.7558    0.8264 H   0  0  0  0  0  0  0  0  0  0  0  0
   -1.4453   -2.4018   -0.4672 H   0  0  0  0  0  0  0  0  0  0  0  0
   -0.3929   -0.7725   -1.7454 H   0  0  0  0  0  0  0  0  0  0  0  0
    0.0755    1.5820   -0.9536 H   0  0  0  0  0  0  0  0  0  0  0  0
   -0.5600    1.2051    0.6261 H   0  0  0  0  0  0  0  0  0  0  0  0
    1.9876   -0.2501   -1.7992 H   0  0  0  0  0  0  0  0  0  0  0  0
    4.2329   -0.9726   -1.0960 H   0  0  0  0  0  0  0  0  0  0  0  0
    6.2155    0.3988   -1.1602 H   0  0  0  0  0  0  0  0  0  0  0  0
    5.6109    1.4667    0.1242 H   0  0  0  0  0  0  0  0  0  0  0  0
    7.9099    1.9322    0.8781 H   0  0  0  0  0  0  0  0  0  0  0  0
    7.7129    2.3638   -0.8247 H   0  0  0  0  0  0  0  0  0  0  0  0
   11.0084    0.6843   -0.5120 H   0  0  0  0  0  0  0  0  0  0  0  0
   10.2778    1.4046    0.9383 H   0  0  0  0  0  0  0  0  0  0  0  0
   10.2532    2.2667   -0.6153 H   0  0  0  0  0  0  0  0  0  0  0  0
    9.7425   -1.0836    0.4252 H   0  0  0  0  0  0  0  0  0  0  0  0
    8.5004   -1.3630   -0.7754 H   0  0  0  0  0  0  0  0  0  0  0  0
    7.6357   -1.9402    1.4375 H   0  0  0  0  0  0  0  0  0  0  0  0
    8.0145   -0.3322    2.0658 H   0  0  0  0  0  0  0  0  0  0  0  0
    3.3285    0.1222    2.9713 H   0  0  0  0  0  0  0  0  0  0  0  0
    1.0652    0.8232    2.2850 H   0  0  0  0  0  0  0  0  0  0  0  0
   -4.9103    1.7177   -1.5064 H   0  0  0  0  0  0  0  0  0  0  0  0
   -4.6889    0.1869   -2.3523 H   0  0  0  0  0  0  0  0  0  0  0  0
   -7.0445    1.3119   -2.2266 H   0  0  0  0  0  0  0  0  0  0  0  0
   -8.0864   -0.9005   -2.5510 H   0  0  0  0  0  0  0  0  0  0  0  0
   -6.7139   -1.7031   -1.7646 H   0  0  0  0  0  0  0  0  0  0  0  0
   -6.5000   -0.8639   -3.3111 H   0  0  0  0  0  0  0  0  0  0  0  0
  1  2  1  0
  2  3  1  0
  3  4  2  0
  4  5  1  0
  5  6  2  0
  6  7  1  0
  7  8  1  0
  8  9  2  0
  9 10  1  0
 10 11  1  0
 11 12  1  0
 12 13  1  0
 13 14  1  0
 14 15  1  0
 15 16  2  0
 16 17  1  0
 17 18  2  0
 18 19  1  0
 19 20  2  0
 19 21  1  0
 21 22  1  0
 22 23  1  0
 23 24  1  0
 24 25  1  0
 24 26  1  0
 26 27  1  0
 18 28  1  0
 28 29  2  0
 13 30  1  0
 30 31  2  0
  9 32  1  0
 32 33  1  0
 33 34  1  0
 33  3  1  0
  8  4  1  0
 30 10  1  0
 29 15  1  0
 27 21  1  0
  1 35  1  0
  1 36  1  0
  1 37  1  0
  5 38  1  0
  6 39  1  0
  7 40  1  0
 11 41  1  0
 11 42  1  0
 12 43  1  0
 12 44  1  0
 13 45  1  0
 14 46  1  0
 14 47  1  0
 16 48  1  0
 17 49  1  0
 22 50  1  0
 22 51  1  0
 23 52  1  0
 23 53  1  0
 25 54  1  0
 25 55  1  0
 25 56  1  0
 26 57  1  0
 26 58  1  0
 27 59  1  0
 27 60  1  0
 28 61  1  0
 29 62  1  0
 32 63  1  0
 32 64  1  0
 33 65  1  0
 34 66  1  0
 34 67  1  0
 34 68  1  0
M  END
$$$$
