
     RDKit          3D

 43 45  0  0  0  0  0  0  0  0999 V2000
   -2.5008    2.2962   -1.3067 O   0  0  0  0  0  0  0  0  0  0  0  0
   -3.5223    2.1381   -0.6674 C   0  0  0  0  0  0  0  0  0  0  0  0
   -4.3797    3.1469   -0.4308 O   0  0  0  0  0  0  0  0  0  0  0  0
   -4.0049    0.8684   -0.0911 C   0  0  0  0  0  0  0  0  0  0  0  0
   -5.3680    0.5458   -0.1758 C   0  0  0  0  0  0  0  0  0  0  0  0
   -5.8289   -0.6832    0.3001 C   0  0  0  0  0  0  0  0  0  0  0  0
   -4.9354   -1.5964    0.8618 C   0  0  0  0  0  0  0  0  0  0  0  0
   -3.5809   -1.2741    0.9536 C   0  0  0  0  0  0  0  0  0  0  0  0
   -2.7115   -2.1618    1.5229 O   0  0  0  0  0  0  0  0  0  0  0  0
   -3.1083   -0.0464    0.4722 C   0  0  0  0  0  0  0  0  0  0  0  0
   -1.6953    0.3232    0.6687 C   0  0  0  0  0  0  0  0  0  0  0  0
   -1.4504    1.2173    1.4762 O   0  0  0  0  0  0  0  0  0  0  0  0
   -0.6025   -0.3634   -0.0759 C   0  0  0  0  0  0  0  0  0  0  0  0
   -0.8557   -1.2028   -1.1711 C   0  0  0  0  0  0  0  0  0  0  0  0
    0.2034   -1.8156   -1.8406 C   0  0  0  0  0  0  0  0  0  0  0  0
    1.5006   -1.5765   -1.4108 C   0  0  0  0  0  0  0  0  0  0  0  0
    2.5402   -2.1979   -2.0505 O   0  0  0  0  0  0  0  0  0  0  0  0
    1.7919   -0.7314   -0.3269 C   0  0  0  0  0  0  0  0  0  0  0  0
    3.1522   -0.5183   -0.0014 N   0  0  0  0  0  0  0  0  0  0  0  0
    3.6572    0.7110   -0.6711 C   0  0  0  0  0  0  0  0  0  0  0  0
    5.0031    1.1541   -0.0572 C   0  0  0  0  0  0  0  0  0  0  0  0
    4.9515    1.4771    1.3815 N   0  0  0  0  0  0  0  0  0  0  0  0
    3.8321    0.7835    2.0498 C   0  0  0  0  0  0  0  0  0  0  0  0
    3.4787   -0.5939    1.4470 C   0  0  0  0  0  0  0  0  0  0  0  0
    0.7207   -0.1257    0.3348 C   0  0  0  0  0  0  0  0  0  0  0  0
   -3.9275    3.9306   -0.8086 H   0  0  0  0  0  0  0  0  0  0  0  0
   -6.0721    1.2472   -0.6190 H   0  0  0  0  0  0  0  0  0  0  0  0
   -6.8868   -0.9280    0.2315 H   0  0  0  0  0  0  0  0  0  0  0  0
   -5.3136   -2.5469    1.2281 H   0  0  0  0  0  0  0  0  0  0  0  0
   -3.2043   -2.9138    1.8924 H   0  0  0  0  0  0  0  0  0  0  0  0
   -1.8657   -1.3876   -1.5230 H   0  0  0  0  0  0  0  0  0  0  0  0
    0.0223   -2.4722   -2.6856 H   0  0  0  0  0  0  0  0  0  0  0  0
    3.3127   -1.9323   -1.5068 H   0  0  0  0  0  0  0  0  0  0  0  0
    2.9387    1.5376   -0.5831 H   0  0  0  0  0  0  0  0  0  0  0  0
    3.8024    0.5074   -1.7389 H   0  0  0  0  0  0  0  0  0  0  0  0
    5.3858    2.0249   -0.6014 H   0  0  0  0  0  0  0  0  0  0  0  0
    5.7385    0.3517   -0.1940 H   0  0  0  0  0  0  0  0  0  0  0  0
    4.8228    2.4815    1.5026 H   0  0  0  0  0  0  0  0  0  0  0  0
    2.9489    1.4325    2.0094 H   0  0  0  0  0  0  0  0  0  0  0  0
    4.0868    0.6621    3.1082 H   0  0  0  0  0  0  0  0  0  0  0  0
    2.6758   -1.0647    2.0277 H   0  0  0  0  0  0  0  0  0  0  0  0
    4.3490   -1.2546    1.5483 H   0  0  0  0  0  0  0  0  0  0  0  0
    0.8997    0.5503    1.1654 H   0  0  0  0  0  0  0  0  0  0  0  0
  1  2  2  0
  2  3  1  0
  2  4  1  0
  4  5  2  0
  5  6  1  0
  6  7  2  0
  7  8  1  0
  8  9  1  0
  8 10  2  0
 10 11  1  0
 11 12  2  0
 11 13  1  0
 13 14  2  0
 14 15  1  0
 15 16  2  0
 16 17  1  0
 16 18  1  0
 18 19  1  0
 19 20  1  0
 20 21  1  0
 21 22  1  0
 22 23  1  0
 23 24  1  0
 18 25  2  0
 10  4  1  0
 25 13  1  0
 24 19  1  0
  3 26  1  0
  5 27  1  0
  6 28  1  0
  7 29  1  0
  9 30  1  0
 14 31  1  0
 15 32  1  0
 17 33  1  0
 20 34  1  0
 20 35  1  0
 21 36  1  0
 21 37  1  0
 22 38  1  0
 23 39  1  0
 23 40  1  0
 24 41  1  0
 24 42  1  0
 25 43  1  0
M  END
$$$$
