
     RDKit          3D

 65 69  0  0  0  0  0  0  0  0999 V2000
   -9.3191    0.9767    0.2786 C   0  0  0  0  0  0  0  0  0  0  0  0
   -8.4698   -0.1531    0.2016 O   0  0  0  0  0  0  0  0  0  0  0  0
   -7.1039   -0.0173    0.2409 C   0  0  0  0  0  0  0  0  0  0  0  0
   -6.3359    1.0809    0.4106 C   0  0  0  0  0  0  0  0  0  0  0  0
   -6.6788    2.4781    0.6705 C   0  0  0  0  0  0  0  0  0  0  0  0
   -5.5168    3.1141    0.8909 C   0  0  0  0  0  0  0  0  0  0  0  0
   -4.4539    2.2491    0.8249 N   0  0  0  0  0  0  0  0  0  0  0  0
   -4.8498    0.9996    0.4040 C   0  0  0  0  0  0  0  0  0  0  0  0
   -4.1608   -0.0773   -0.0273 C   0  0  0  0  0  0  0  0  0  0  0  0
   -2.7649   -0.1644   -0.1439 N   0  0  0  0  0  0  0  0  0  0  0  0
   -2.0881   -1.3949   -0.5064 C   0  0  0  0  0  0  0  0  0  0  0  0
   -0.6382   -1.1575   -0.1468 C   0  0  0  0  0  0  0  0  0  0  0  0
   -0.4622    0.3220   -0.4410 C   0  0  0  0  0  0  0  0  0  0  0  0
    0.6633    0.9972    0.3397 C   0  0  0  0  0  0  0  0  0  0  0  0
    2.0255    0.4407   -0.0035 C   0  0  0  0  0  0  0  0  0  0  0  0
    2.6356    0.7675   -1.2243 C   0  0  0  0  0  0  0  0  0  0  0  0
    3.8785    0.2294   -1.5598 C   0  0  0  0  0  0  0  0  0  0  0  0
    4.5220   -0.6271   -0.6646 C   0  0  0  0  0  0  0  0  0  0  0  0
    5.8236   -1.2113   -1.0444 C   0  0  0  0  0  0  0  0  0  0  0  0
    5.8357   -2.0063   -1.9797 O   0  0  0  0  0  0  0  0  0  0  0  0
    6.9542   -0.8163   -0.3388 N   0  0  0  0  0  0  0  0  0  0  0  0
    8.2603   -1.3512   -0.7275 C   0  0  0  0  0  0  0  0  0  0  0  0
    9.2773   -0.2171   -0.9453 C   0  0  0  0  0  0  0  0  0  0  0  0
    9.4420    0.7121    0.1920 N   0  0  0  0  0  0  0  0  0  0  0  0
    8.3806    0.5558    1.1983 C   0  0  0  0  0  0  0  0  0  0  0  0
    6.9799    0.3009    0.6128 C   0  0  0  0  0  0  0  0  0  0  0  0
    3.9212   -0.9731    0.5480 C   0  0  0  0  0  0  0  0  0  0  0  0
    2.6779   -0.4333    0.8794 C   0  0  0  0  0  0  0  0  0  0  0  0
   -1.8229    0.8868   -0.0734 C   0  0  0  0  0  0  0  0  0  0  0  0
   -2.0032    2.0744    0.1584 O   0  0  0  0  0  0  0  0  0  0  0  0
   -4.9901   -1.2699   -0.4925 C   0  0  0  0  0  0  0  0  0  0  0  0
   -6.4146   -1.3643    0.1001 C   0  0  0  0  0  0  0  0  0  0  0  0
   -6.3946   -2.0753    1.4613 C   0  0  0  0  0  0  0  0  0  0  0  0
  -10.3504    0.6285    0.1668 H   0  0  0  0  0  0  0  0  0  0  0  0
   -9.2423    1.4566    1.2586 H   0  0  0  0  0  0  0  0  0  0  0  0
   -9.1206    1.6757   -0.5395 H   0  0  0  0  0  0  0  0  0  0  0  0
   -7.6459    2.9427    0.6749 H   0  0  0  0  0  0  0  0  0  0  0  0
   -5.3500    4.1620    1.0924 H   0  0  0  0  0  0  0  0  0  0  0  0
   -3.5027    2.5620    0.6240 H   0  0  0  0  0  0  0  0  0  0  0  0
   -2.2140   -1.5632   -1.5814 H   0  0  0  0  0  0  0  0  0  0  0  0
   -2.4657   -2.2502    0.0595 H   0  0  0  0  0  0  0  0  0  0  0  0
   -0.4802   -1.3648    0.9191 H   0  0  0  0  0  0  0  0  0  0  0  0
    0.0395   -1.7951   -0.7220 H   0  0  0  0  0  0  0  0  0  0  0  0
   -0.3323    0.4754   -1.5207 H   0  0  0  0  0  0  0  0  0  0  0  0
    0.4824    0.9121    1.4200 H   0  0  0  0  0  0  0  0  0  0  0  0
    0.6698    2.0764    0.1348 H   0  0  0  0  0  0  0  0  0  0  0  0
    2.1397    1.4369   -1.9238 H   0  0  0  0  0  0  0  0  0  0  0  0
    4.3406    0.4690   -2.5145 H   0  0  0  0  0  0  0  0  0  0  0  0
    8.5941   -2.0131    0.0799 H   0  0  0  0  0  0  0  0  0  0  0  0
    8.1835   -1.9587   -1.6342 H   0  0  0  0  0  0  0  0  0  0  0  0
   10.2559   -0.6424   -1.1913 H   0  0  0  0  0  0  0  0  0  0  0  0
    8.9577    0.3704   -1.8156 H   0  0  0  0  0  0  0  0  0  0  0  0
    9.4220    1.6646   -0.1739 H   0  0  0  0  0  0  0  0  0  0  0  0
    8.6547   -0.2797    1.8537 H   0  0  0  0  0  0  0  0  0  0  0  0
    8.3578    1.4483    1.8337 H   0  0  0  0  0  0  0  0  0  0  0  0
    6.6256    1.1941    0.0850 H   0  0  0  0  0  0  0  0  0  0  0  0
    6.2818    0.0891    1.4277 H   0  0  0  0  0  0  0  0  0  0  0  0
    4.4123   -1.6671    1.2253 H   0  0  0  0  0  0  0  0  0  0  0  0
    2.2160   -0.7090    1.8249 H   0  0  0  0  0  0  0  0  0  0  0  0
   -5.0710   -1.1957   -1.5860 H   0  0  0  0  0  0  0  0  0  0  0  0
   -4.4919   -2.2210   -0.2890 H   0  0  0  0  0  0  0  0  0  0  0  0
   -7.0031   -1.9874   -0.5886 H   0  0  0  0  0  0  0  0  0  0  0  0
   -7.4061   -2.1718    1.8715 H   0  0  0  0  0  0  0  0  0  0  0  0
   -5.9832   -3.0863    1.3639 H   0  0  0  0  0  0  0  0  0  0  0  0
   -5.7838   -1.5337    2.1913 H   0  0  0  0  0  0  0  0  0  0  0  0
  1  2  1  0
  2  3  1  0
  3  4  2  0
  4  5  1  0
  5  6  2  0
  6  7  1  0
  7  8  1  0
  8  9  2  0
  9 10  1  0
 10 11  1  0
 11 12  1  0
 12 13  1  0
 13 14  1  0
 14 15  1  0
 15 16  2  0
 16 17  1  0
 17 18  2  0
 18 19  1  0
 19 20  2  0
 19 21  1  0
 21 22  1  0
 22 23  1  0
 23 24  1  0
 24 25  1  0
 25 26  1  0
 18 27  1  0
 27 28  2  0
 13 29  1  0
 29 30  2  0
  9 31  1  0
 31 32  1  0
 32 33  1  0
 32  3  1  0
  8  4  1  0
 29 10  1  0
 28 15  1  0
 26 21  1  0
  1 34  1  0
  1 35  1  0
  1 36  1  0
  5 37  1  0
  6 38  1  0
  7 39  1  0
 11 40  1  0
 11 41  1  0
 12 42  1  0
 12 43  1  0
 13 44  1  0
 14 45  1  0
 14 46  1  0
 16 47  1  0
 17 48  1  0
 22 49  1  0
 22 50  1  0
 23 51  1  0
 23 52  1  0
 24 53  1  0
 25 54  1  0
 25 55  1  0
 26 56  1  0
 26 57  1  0
 27 58  1  0
 28 59  1  0
 31 60  1  0
 31 61  1  0
 32 62  1  0
 33 63  1  0
 33 64  1  0
 33 65  1  0
M  END
$$$$
