MODEL        5USER    Run = 5USERUSER    Estimated Free Energy of Binding    = -14.86 kcal/mol  [=(1)+(2)+(3)-(4)]USERUSER    (1) Final Intermolecular Energy     = -18.44 kcal/molUSER        vdW + Hbond + desolv Energy     = -18.23 kcal/molUSER        Electrostatic Energy            =  -0.21 kcal/molUSER        Moving Ligand-Fixed Receptor    = -18.44 kcal/molUSER        Moving Ligand-Moving Receptor   =  +0.00 kcal/molUSER    (2) Final Total Internal Energy     =  -2.56 kcal/molUSER    (3) Torsional Free Energy           =  +3.58 kcal/molUSER    (4) Unbound System's Energy         =  -2.56 kcal/molUSERUSERREMARK SMILES Cc1cc(Nc2ccc3nc(-c4ccc(CN5CCC(n6c(O)nc7ccccc76)CC5)cc4)c(-c4ccnc(N)c4)nc3c2)n(CCO)n1REMARK SMILES IDX 6 1 7 2 8 3 9 4 10 5 11 6 35 7 43 8 44 9 45 10 5 11 4 13REMARK SMILES IDX 2 14 3 15 50 16 46 17 1 18 47 19 48 20 49 21 36 23 37 24REMARK SMILES IDX 42 25 38 26 40 27 39 28 41 29 12 32 13 33 34 34 14 35 33 36REMARK SMILES IDX 15 37 16 38 17 39 18 40 32 41 19 42 31 43 20 44 21 45 22 46REMARK SMILES IDX 30 47 24 48 29 49 25 50 28 51 26 52 27 53 23 54REMARK H PARENT 5 12 49 22 41 30 41 31 23 55USER                              x       y       z     vdW  Elec       q    TypeUSER                           _______ _______ _______ _____ _____    ______ ____ROOTATOM      1  C   UNL     1      34.767  48.658  29.901 -0.29 -0.00    +0.042 A  ATOM      2  C   UNL     1      35.353  49.494  28.947 -0.24 -0.00    +0.028 A  ATOM      3  C   UNL     1      36.061  48.962  27.867 -0.31 -0.00    +0.033 A  ATOM      4  C   UNL     1      36.198  47.592  27.706 -0.25 -0.02    +0.090 A  ATOM      5  N   UNL     1      36.882  47.111  26.654 -0.25 +0.04    -0.244 NA ATOM      6  C   UNL     1      36.990  45.756  26.536 -0.26 -0.01    +0.097 A  ATOM      7  C   UNL     1      36.390  44.897  27.471 -0.32 -0.02    +0.097 A  ATOM      8  N   UNL     1      35.719  45.397  28.548 -0.29 +0.06    -0.244 NA ATOM      9  C   UNL     1      35.613  46.733  28.659 -0.27 -0.02    +0.092 A  ATOM     10  C   UNL     1      34.912  47.278  29.730 -0.29 -0.01    +0.056 A  ENDROOTBRANCH   1  11ATOM     11  N   UNL     1      34.015  49.248  30.937 -0.08 +0.01    -0.340 N  ATOM     12  H   UNL     1      34.289  50.228  31.079 +0.05 +0.01    +0.168 HD BRANCH  11  13ATOM     13  C   UNL     1      33.257  48.640  31.886 -0.16 -0.01    +0.129 A  ATOM     14  C   UNL     1      32.301  47.662  33.646 -0.28 -0.01    +0.062 A  ATOM     15  C   UNL     1      33.511  48.219  33.175 -0.16 -0.01    +0.072 A  ATOM     16  N   UNL     1      31.345  47.697  32.712 -0.29 +0.01    -0.176 NA ATOM     17  N   UNL     1      31.958  48.246  31.638 -0.17 +0.02    -0.247 N  ATOM     18  C   UNL     1      32.026  47.075  34.980 -0.32 -0.00    +0.069 C  BRANCH  17  19ATOM     19  C   UNL     1      31.237  48.268  30.375 -0.36 +0.01    +0.174 C  BRANCH  19  20ATOM     20  C   UNL     1      30.707  46.902  29.965 -0.42 +0.02    +0.179 C  BRANCH  20  21ATOM     21  O   UNL     1      31.631  45.877  30.351 -0.87 -0.01    -0.394 OA ATOM     22  H   UNL     1      32.051  46.178  31.176 -0.46 -0.07    +0.210 HD ENDBRANCH  20  21ENDBRANCH  19  20ENDBRANCH  17  19ENDBRANCH  11  13ENDBRANCH   1  11BRANCH   7  23ATOM     23  C   UNL     1      36.378  43.422  27.408 -0.43 -0.00    +0.008 A  ATOM     24  C   UNL     1      37.544  42.657  27.477 -0.35 -0.01    +0.030 A  ATOM     25  C   UNL     1      35.167  42.733  27.227 -0.52 -0.01    +0.057 A  ATOM     26  C   UNL     1      37.442  41.278  27.404 -0.40 -0.02    +0.114 A  ATOM     27  C   UNL     1      35.156  41.345  27.161 -0.52 -0.05    +0.123 A  ATOM     28  N   UNL     1      36.278  40.617  27.254 -0.35 +0.09    -0.240 NA BRANCH  27  29ATOM     29  N   UNL     1      33.954  40.663  26.952 -0.22 +0.21    -0.384 N  ATOM     30  H   UNL     1      33.885  39.905  27.624 -0.33 -0.15    +0.158 HD ATOM     31  H   UNL     1      33.945  40.256  26.022 -0.38 -0.14    +0.158 HD ENDBRANCH  27  29ENDBRANCH   7  23BRANCH   6  32ATOM     32  C   UNL     1      37.777  45.322  25.367 -0.30 +0.00    +0.002 A  ATOM     33  C   UNL     1      39.112  45.719  25.179 -0.19 +0.00    +0.011 A  ATOM     34  C   UNL     1      37.201  44.480  24.401 -0.30 +0.00    +0.011 A  ATOM     35  C   UNL     1      39.856  45.252  24.089 -0.17 +0.00    +0.006 A  ATOM     36  C   UNL     1      37.944  44.013  23.313 -0.32 +0.00    +0.006 A  ATOM     37  C   UNL     1      39.283  44.386  23.147 -0.22 -0.00    -0.034 A  BRANCH  37  38ATOM     38  C   UNL     1      40.104  43.842  21.996 -0.24 +0.00    +0.120 C  BRANCH  38  39ATOM     39  N   UNL     1      40.216  44.682  20.800 -0.15 -0.01    -0.299 NA ATOM     40  C   UNL     1      39.027  45.452  20.468 -0.33 +0.00    +0.087 C  ATOM     41  C   UNL     1      41.451  45.463  20.724 -0.35 +0.01    +0.087 C  ATOM     42  C   UNL     1      39.061  45.827  18.982 -0.40 -0.00    +0.041 C  ATOM     43  C   UNL     1      41.411  46.541  19.633 -0.43 +0.00    +0.041 C  ATOM     44  C   UNL     1      40.489  46.121  18.484 -0.47 -0.00    +0.095 C  BRANCH  44  45ATOM     45  N   UNL     1      40.515  47.050  17.363 -0.30 +0.04    -0.291 N  ATOM     46  C   UNL     1      41.453  48.030  17.178 -0.18 -0.02    +0.295 A  ATOM     47  C   UNL     1      39.640  47.130  16.299 -0.43 -0.02    +0.072 A  ATOM     48  N   UNL     1      41.261  48.735  16.097 -0.80 +0.01    -0.195 NA ATOM     49  C   UNL     1      38.500  46.406  15.921 -0.39 -0.01    +0.029 A  ATOM     50  C   UNL     1      40.135  48.190  15.533 -0.49 -0.02    +0.092 A  ATOM     51  C   UNL     1      37.855  46.789  14.739 -0.43 -0.00    +0.002 A  ATOM     52  C   UNL     1      39.477  48.555  14.349 -0.42 -0.01    +0.031 A  ATOM     53  C   UNL     1      38.333  47.845  13.963 -0.51 -0.00    +0.002 A  BRANCH  46  54ATOM     54  O   UNL     1      42.461  48.268  17.990 -0.28 -0.02    -0.480 OA ATOM     55  H   UNL     1      43.169  47.745  17.571 -0.36 -0.05    +0.296 HD ENDBRANCH  46  54ENDBRANCH  44  45ENDBRANCH  38  39ENDBRANCH  37  38ENDBRANCH   6  32TORSDOF 12TERENDMDL