REMARK SMILES CO[C@@H]1CCCN(c2cc(Nc3cc(C)[nH]n3)nc(C)c2CCNC(=O)N[C@H](C)F)C1
REMARK SMILES IDX 22 1 21 2 8 3 9 4 10 5 19 6 18 7 20 8 7 9 3 10 4 11 31 12
REMARK SMILES IDX 5 13 6 14 2 15 1 16 11 17 12 19 13 20 17 21 14 22 16 23
REMARK SMILES IDX 15 24 23 26 24 27 25 28 27 29 26 31 28 33 29 34 30 35
REMARK H PARENT 11 18 16 25 24 30 27 32
ROOT
ATOM      1  C   UNL     1      -1.303  -0.326  -0.271  1.00  0.00     0.061 C 
ENDROOT
BRANCH   1   2
ATOM      2  C   UNL     1       0.151  -0.667  -0.036  1.00  0.00    -0.001 A 
ATOM      3  C   UNL     1       1.118   0.358  -0.014  1.00  0.00     0.046 A 
ATOM      4  C   UNL     1       2.454   0.016   0.216  1.00  0.00     0.073 A 
ATOM      5  C   UNL     1       2.811  -1.313   0.427  1.00  0.00     0.133 A 
ATOM      6  C   UNL     1       0.583  -1.976   0.195  1.00  0.00     0.045 A 
ATOM      7  N   UNL     1       1.885  -2.291   0.407  1.00  0.00    -0.236 NA
ATOM      8  C   UNL     1      -0.365  -3.140   0.214  1.00  0.00     0.067 C 
BRANCH   3   9
ATOM      9  N   UNL     1       0.712   1.688  -0.249  1.00  0.00    -0.369 N 
ATOM     10  C   UNL     1       0.402   4.013   0.558  1.00  0.00     0.137 C 
ATOM     11  C   UNL     1       0.585   4.496  -0.887  1.00  0.00     0.036 C 
ATOM     12  C   UNL     1       1.144   2.670   0.766  1.00  0.00     0.148 C 
ATOM     13  C   UNL     1       0.214   3.413  -1.903  1.00  0.00     0.024 C 
ATOM     14  C   UNL     1       0.973   2.114  -1.633  1.00  0.00     0.117 C 
BRANCH  10  15
ATOM     15  O   UNL     1      -1.012   3.907   0.806  1.00  0.00    -0.380 OA
ATOM     16  C   UNL     1      -1.341   3.954   2.188  1.00  0.00     0.195 C 
ENDBRANCH  10  15
ENDBRANCH   3   9
BRANCH   5  17
ATOM     17  N   UNL     1       4.178  -1.607   0.604  1.00  0.00    -0.323 N 
ATOM     18  H   UNL     1       4.633  -0.920   1.190  1.00  0.00     0.170 HD
BRANCH  17  19
ATOM     19  C   UNL     1       4.810  -2.798   0.591  1.00  0.00     0.153 A 
ATOM     20  C   UNL     1       4.364  -3.982  -0.041  1.00  0.00     0.071 A 
ATOM     21  N   UNL     1       6.009  -2.976   1.156  1.00  0.00    -0.158 NA
ATOM     22  C   UNL     1       5.348  -4.918   0.186  1.00  0.00     0.034 A 
ATOM     23  N   UNL     1       6.296  -4.266   0.922  1.00  0.00    -0.281 N 
ATOM     24  C   UNL     1       5.480  -6.334  -0.216  1.00  0.00     0.066 C 
ATOM     25  H   UNL     1       7.167  -4.635   1.286  1.00  0.00     0.190 HD
ENDBRANCH  17  19
ENDBRANCH   5  17
ENDBRANCH   1   2
BRANCH   1  26
ATOM     26  C   UNL     1      -1.970   0.247   0.984  1.00  0.00     0.122 C 
BRANCH  26  27
ATOM     27  N   UNL     1      -3.185   0.975   0.661  1.00  0.00    -0.338 N 
ATOM     28  C   UNL     1      -4.335   0.306   0.336  1.00  0.00     0.317 C 
ATOM     29  N   UNL     1      -5.296   1.161  -0.122  1.00  0.00    -0.308 N 
ATOM     30  H   UNL     1      -3.041   1.864   0.201  1.00  0.00     0.165 HD
ATOM     31  O   UNL     1      -4.483  -0.904   0.435  1.00  0.00    -0.249 OA
ATOM     32  H   UNL     1      -5.271   2.089   0.266  1.00  0.00     0.168 HD
BRANCH  29  33
ATOM     33  C   UNL     1      -6.614   0.670  -0.410  1.00  0.00     0.260 C 
ATOM     34  C   UNL     1      -6.684  -0.128  -1.699  1.00  0.00     0.069 C 
ATOM     35  F   UNL     1      -7.412   1.763  -0.542  1.00  0.00    -0.224 F 
ENDBRANCH  29  33
ENDBRANCH  26  27
ENDBRANCH   1  26
TORSDOF 8
