MODEL        6USER    Run = 6USERUSER    Estimated Free Energy of Binding    =  -9.04 kcal/mol  [=(1)+(2)+(3)-(4)]USERUSER    (1) Final Intermolecular Energy     = -11.42 kcal/molUSER        vdW + Hbond + desolv Energy     = -11.29 kcal/molUSER        Electrostatic Energy            =  -0.13 kcal/molUSER        Moving Ligand-Fixed Receptor    = -11.42 kcal/molUSER        Moving Ligand-Moving Receptor   =  +0.00 kcal/molUSER    (2) Final Total Internal Energy     =  -1.28 kcal/molUSER    (3) Torsional Free Energy           =  +2.39 kcal/molUSER    (4) Unbound System's Energy         =  -1.28 kcal/molUSERUSERREMARK SMILES CO[C@@H]1CCCN(c2cc(Nc3cc(C)[nH]n3)nc(C)c2CCNC(=O)N[C@H](C)F)C1REMARK SMILES IDX 22 1 21 2 8 3 9 4 10 5 19 6 18 7 20 8 7 9 3 10 4 11 31 12REMARK SMILES IDX 5 13 6 14 2 15 1 16 11 17 12 19 13 20 17 21 14 22 16 23REMARK SMILES IDX 15 24 23 26 24 27 25 28 27 29 26 31 28 33 29 34 30 35REMARK H PARENT 11 18 16 25 24 30 27 32USER                              x       y       z     vdW  Elec       q    TypeUSER                           _______ _______ _______ _____ _____    ______ ____ROOTATOM      1  C   UNL     1      35.181  45.641  16.677 -0.35 -0.05    +0.061 C  ENDROOTBRANCH   1   2ATOM      2  C   UNL     1      36.620  46.098  16.592 -0.37 +0.00    -0.001 A  ATOM      3  C   UNL     1      37.540  45.712  17.587 -0.33 -0.01    +0.046 A  ATOM      4  C   UNL     1      38.866  46.140  17.478 -0.37 -0.02    +0.073 A  ATOM      5  C   UNL     1      39.263  46.925  16.399 -0.36 -0.04    +0.133 A  ATOM      6  C   UNL     1      37.094  46.878  15.533 -0.37 -0.03    +0.045 A  ATOM      7  N   UNL     1      38.382  47.292  15.448 -0.25 +0.10    -0.236 NA ATOM      8  C   UNL     1      36.205  47.328  14.410 -0.41 -0.05    +0.067 C  BRANCH   3   9ATOM      9  N   UNL     1      37.089  44.929  18.670 -0.12 +0.07    -0.369 N  ATOM     10  C   UNL     1      35.805  42.988  19.530 -0.38 -0.01    +0.137 C  ATOM     11  C   UNL     1      36.760  42.940  20.730 -0.46 -0.00    +0.036 C  ATOM     12  C   UNL     1      36.521  43.615  18.308 -0.22 -0.03    +0.148 C  ATOM     13  C   UNL     1      37.396  44.304  21.010 -0.42 +0.00    +0.024 C  ATOM     14  C   UNL     1      38.074  44.868  19.761 -0.30 -0.01    +0.117 C  BRANCH  10  15ATOM     15  O   UNL     1      34.641  43.734  19.929 -0.28 +0.03    -0.380 OA ATOM     16  C   UNL     1      33.448  43.286  19.298 -0.33 -0.01    +0.195 C  ENDBRANCH  10  15ENDBRANCH   3   9BRANCH   5  17ATOM     17  N   UNL     1      40.600  47.370  16.365 -0.26 +0.05    -0.323 N  ATOM     18  H   UNL     1      41.250  46.598  16.427 -0.12 -0.01    +0.170 HD BRANCH  17  19ATOM     19  C   UNL     1      41.127  48.465  15.780 -0.38 -0.02    +0.153 A  ATOM     20  C   UNL     1      41.394  48.639  14.402 -0.31 -0.01    +0.071 A  ATOM     21  N   UNL     1      41.416  49.573  16.471 -1.08 +0.00    -0.158 NA ATOM     22  C   UNL     1      41.890  49.917  14.278 -0.66 -0.01    +0.034 A  ATOM     23  N   UNL     1      41.899  50.420  15.548 -0.36 +0.02    -0.281 N  ATOM     24  C   UNL     1      42.345  50.694  13.106 -0.63 -0.02    +0.066 C  ATOM     25  H   UNL     1      42.207  51.335  15.855 -0.33 -0.05    +0.190 HD ENDBRANCH  17  19ENDBRANCH   5  17ENDBRANCH   1   2BRANCH   1  26ATOM     26  C   UNL     1      34.790  44.748  15.495 -0.27 -0.07    +0.122 C  BRANCH  26  27ATOM     27  N   UNL     1      34.006  43.603  15.924 -0.12 +0.16    -0.338 N  ATOM     28  C   UNL     1      32.658  43.551  15.688 -0.15 -0.16    +0.317 C  ATOM     29  N   UNL     1      32.079  42.498  16.337 -0.10 +0.16    -0.308 N  ATOM     30  H   UNL     1      34.327  43.159  16.774 +0.11 -0.07    +0.165 HD ATOM     31  O   UNL     1      32.046  44.348  14.992 -0.28 +0.14    -0.249 OA ATOM     32  H   UNL     1      32.665  41.688  16.458 -0.46 -0.12    +0.168 HD BRANCH  29  33ATOM     33  C   UNL     1      30.690  42.203  16.128 -0.22 -0.12    +0.260 C  ATOM     34  C   UNL     1      29.762  43.169  16.842 -0.27 -0.02    +0.069 C  ATOM     35  F   UNL     1      30.479  40.958  16.634 -0.08 +0.06    -0.224 F  ENDBRANCH  29  33ENDBRANCH  26  27ENDBRANCH   1  26TORSDOF 8TERENDMDL