REMARK SMILES Cc1cc(Nc2ccc3nc(-c4ccc(CN5CCC(n6c(O)nc7ccccc76)CC5)cc4)c(-c4ccnc(N)c4)nc3c2)n(CCO)n1
REMARK SMILES IDX 6 1 7 2 8 3 9 4 10 5 11 6 35 7 43 8 44 9 45 10 5 11 4 13
REMARK SMILES IDX 2 14 3 15 50 16 46 17 1 18 47 19 48 20 49 21 36 23 37 24
REMARK SMILES IDX 42 25 38 26 40 27 39 28 41 29 12 32 13 33 34 34 14 35 33 36
REMARK SMILES IDX 15 37 16 38 17 39 18 40 32 41 19 42 31 43 20 44 21 45 22 46
REMARK SMILES IDX 30 47 24 48 29 49 25 50 28 51 26 52 27 53 23 54
REMARK H PARENT 5 12 49 22 41 30 41 31 23 55
ROOT
ATOM      1  C   UNL     1      -5.359   1.654  -1.023  1.00  0.00     0.042 A 
ATOM      2  C   UNL     1      -4.287   2.287  -1.658  1.00  0.00     0.028 A 
ATOM      3  C   UNL     1      -2.994   1.764  -1.571  1.00  0.00     0.033 A 
ATOM      4  C   UNL     1      -2.738   0.603  -0.860  1.00  0.00     0.090 A 
ATOM      5  N   UNL     1      -1.484   0.123  -0.798  1.00  0.00    -0.244 NA
ATOM      6  C   UNL     1      -1.279  -1.023  -0.088  1.00  0.00     0.097 A 
ATOM      7  C   UNL     1      -2.346  -1.688   0.539  1.00  0.00     0.097 A 
ATOM      8  N   UNL     1      -3.610  -1.179   0.490  1.00  0.00    -0.244 NA
ATOM      9  C   UNL     1      -3.808  -0.049  -0.213  1.00  0.00     0.092 A 
ATOM     10  C   UNL     1      -5.089   0.484  -0.308  1.00  0.00     0.056 A 
ENDROOT
BRANCH   1  11
ATOM     11  N   UNL     1      -6.650   2.193  -1.194  1.00  0.00    -0.340 N 
ATOM     12  H   UNL     1      -6.627   3.220  -1.173  1.00  0.00     0.168 HD
BRANCH  11  13
ATOM     13  C   UNL     1      -7.851   1.567  -1.085  1.00  0.00     0.129 A 
ATOM     14  C   UNL     1      -9.636   0.241  -0.931  1.00  0.00     0.062 A 
ATOM     15  C   UNL     1      -8.232   0.241  -1.091  1.00  0.00     0.072 A 
ATOM     16  N   UNL     1     -10.124   1.484  -0.858  1.00  0.00    -0.176 NA
ATOM     17  N   UNL     1      -9.035   2.272  -1.005  1.00  0.00    -0.247 N 
ATOM     18  C   UNL     1     -10.545  -0.928  -0.857  1.00  0.00     0.069 C 
BRANCH  17  19
ATOM     19  C   UNL     1      -9.239   3.705  -1.150  1.00  0.00     0.174 C 
BRANCH  19  20
ATOM     20  C   UNL     1      -8.610   4.515  -0.025  1.00  0.00     0.179 C 
BRANCH  20  21
ATOM     21  O   UNL     1      -7.229   4.768  -0.311  1.00  0.00    -0.394 OA
ATOM     22  H   UNL     1      -6.905   5.364   0.388  1.00  0.00     0.210 HD
ENDBRANCH  20  21
ENDBRANCH  19  20
ENDBRANCH  17  19
ENDBRANCH  11  13
ENDBRANCH   1  11
BRANCH   7  23
ATOM     23  C   UNL     1      -2.259  -2.967   1.270  1.00  0.00     0.008 A 
ATOM     24  C   UNL     1      -1.583  -4.079   0.762  1.00  0.00     0.030 A 
ATOM     25  C   UNL     1      -2.907  -3.119   2.507  1.00  0.00     0.057 A 
ATOM     26  C   UNL     1      -1.556  -5.243   1.512  1.00  0.00     0.114 A 
ATOM     27  C   UNL     1      -2.831  -4.326   3.192  1.00  0.00     0.123 A 
ATOM     28  N   UNL     1      -2.159  -5.380   2.709  1.00  0.00    -0.240 NA
BRANCH  27  29
ATOM     29  N   UNL     1      -3.501  -4.484   4.409  1.00  0.00    -0.384 N 
ATOM     30  H   UNL     1      -4.498  -4.370   4.253  1.00  0.00     0.158 HD
ATOM     31  H   UNL     1      -3.204  -3.766   5.062  1.00  0.00     0.158 HD
ENDBRANCH  27  29
ENDBRANCH   7  23
BRANCH   6  32
ATOM     32  C   UNL     1       0.129  -1.459  -0.055  1.00  0.00     0.002 A 
ATOM     33  C   UNL     1       0.804  -1.709   1.152  1.00  0.00     0.011 A 
ATOM     34  C   UNL     1       0.839  -1.644  -1.254  1.00  0.00     0.011 A 
ATOM     35  C   UNL     1       2.125  -2.172   1.157  1.00  0.00     0.006 A 
ATOM     36  C   UNL     1       2.158  -2.107  -1.249  1.00  0.00     0.006 A 
ATOM     37  C   UNL     1       2.815  -2.385  -0.044  1.00  0.00    -0.034 A 
BRANCH  37  38
ATOM     38  C   UNL     1       4.227  -2.934  -0.038  1.00  0.00     0.120 C 
BRANCH  38  39
ATOM     39  N   UNL     1       5.321  -1.962  -0.117  1.00  0.00    -0.299 NA
ATOM     40  C   UNL     1       5.373  -1.182  -1.344  1.00  0.00     0.087 C 
ATOM     41  C   UNL     1       5.499  -1.155   1.091  1.00  0.00     0.087 C 
ATOM     42  C   UNL     1       6.793  -0.640  -1.544  1.00  0.00     0.041 C 
ATOM     43  C   UNL     1       6.440   0.039   0.879  1.00  0.00     0.041 C 
ATOM     44  C   UNL     1       7.471  -0.265  -0.213  1.00  0.00     0.095 C 
BRANCH  44  45
ATOM     45  N   UNL     1       8.468   0.785  -0.364  1.00  0.00    -0.291 N 
ATOM     46  C   UNL     1       9.810   0.631  -0.140  1.00  0.00     0.295 A 
ATOM     47  C   UNL     1       8.277   2.096  -0.750  1.00  0.00     0.072 A 
ATOM     48  N   UNL     1      10.499   1.720  -0.342  1.00  0.00    -0.195 NA
ATOM     49  C   UNL     1       7.151   2.846  -1.119  1.00  0.00     0.029 A 
ATOM     50  C   UNL     1       9.562   2.647  -0.724  1.00  0.00     0.092 A 
ATOM     51  C   UNL     1       7.354   4.189  -1.458  1.00  0.00     0.002 A 
ATOM     52  C   UNL     1       9.744   3.994  -1.071  1.00  0.00     0.031 A 
ATOM     53  C   UNL     1       8.628   4.757  -1.436  1.00  0.00     0.002 A 
BRANCH  46  54
ATOM     54  O   UNL     1      10.384  -0.490   0.244  1.00  0.00    -0.480 OA
ATOM     55  H   UNL     1      11.320  -0.219   0.283  1.00  0.00     0.296 HD
ENDBRANCH  46  54
ENDBRANCH  44  45
ENDBRANCH  38  39
ENDBRANCH  37  38
ENDBRANCH   6  32
TORSDOF 12
