REMARK SMILES CN(C)[C@H](O)Cn1cc(-c2nc3cc(O)ccc3nc2-c2ccc(CN3CCC(n4c(O)nc5ccccc54)CC3)cc2)cn1
REMARK SMILES IDX 10 1 11 2 12 3 13 4 14 5 16 6 17 7 18 8 19 9 20 10 9 11 7 12
REMARK SMILES IDX 8 13 45 14 44 15 6 16 4 17 2 18 1 19 3 20 5 21 21 23 22 24
REMARK SMILES IDX 43 25 23 26 42 27 24 28 25 29 26 30 27 31 41 32 28 33 40 34
REMARK SMILES IDX 29 35 30 36 31 37 39 38 33 39 38 40 34 41 37 42 35 43 36 44
REMARK SMILES IDX 32 45 15 47
REMARK H PARENT 5 22 32 46 15 48
ROOT
ATOM      1  C   UNL     1      -3.452   2.671   0.749  1.00  0.00     0.100 A 
ATOM      2  N   UNL     1      -4.619   3.069   1.322  1.00  0.00    -0.244 NA
ATOM      3  C   UNL     1      -4.652   4.314   1.833  1.00  0.00     0.093 A 
ATOM      4  C   UNL     1      -5.817   4.782   2.426  1.00  0.00     0.076 A 
ATOM      5  C   UNL     1      -5.874   6.058   2.975  1.00  0.00     0.117 A 
ATOM      6  C   UNL     1      -4.769   6.894   2.937  1.00  0.00     0.048 A 
ATOM      7  C   UNL     1      -3.596   6.434   2.335  1.00  0.00     0.034 A 
ATOM      8  C   UNL     1      -3.518   5.163   1.781  1.00  0.00     0.090 A 
ATOM      9  N   UNL     1      -2.363   4.765   1.219  1.00  0.00    -0.244 NA
ATOM     10  C   UNL     1      -2.326   3.504   0.711  1.00  0.00     0.097 A 
ENDROOT
BRANCH   1  11
ATOM     11  C   UNL     1      -3.472   1.336   0.182  1.00  0.00     0.040 A 
ATOM     12  N   UNL     1      -3.750  -0.835  -0.011  1.00  0.00    -0.268 N 
ATOM     13  C   UNL     1      -3.962   0.221   0.830  1.00  0.00     0.119 A 
ATOM     14  N   UNL     1      -3.233  -0.471  -1.204  1.00  0.00    -0.181 NA
ATOM     15  C   UNL     1      -3.040   0.845  -1.070  1.00  0.00     0.145 A 
BRANCH  12  16
ATOM     16  C   UNL     1      -4.078  -2.220   0.243  1.00  0.00     0.192 C 
BRANCH  16  17
ATOM     17  C   UNL     1      -3.088  -2.926   1.191  1.00  0.00     0.206 C 
BRANCH  17  18
ATOM     18  N   UNL     1      -1.691  -3.000   0.755  1.00  0.00    -0.283 NA
ATOM     19  C   UNL     1      -0.827  -3.556   1.792  1.00  0.00     0.107 C 
ATOM     20  C   UNL     1      -1.466  -3.657  -0.527  1.00  0.00     0.107 C 
ENDBRANCH  17  18
BRANCH  17  21
ATOM     21  O   UNL     1      -3.595  -4.220   1.507  1.00  0.00    -0.376 OA
ATOM     22  H   UNL     1      -3.466  -4.766   0.715  1.00  0.00     0.212 HD
ENDBRANCH  17  21
ENDBRANCH  16  17
ENDBRANCH  12  16
ENDBRANCH   1  11
BRANCH  10  23
ATOM     23  C   UNL     1      -1.015   3.096   0.197  1.00  0.00     0.002 A 
ATOM     24  C   UNL     1      -0.260   2.118   0.863  1.00  0.00     0.011 A 
ATOM     25  C   UNL     1      -0.493   3.661  -0.977  1.00  0.00     0.011 A 
ATOM     26  C   UNL     1       0.962   1.687   0.347  1.00  0.00     0.006 A 
ATOM     27  C   UNL     1       0.726   3.223  -1.500  1.00  0.00     0.006 A 
ATOM     28  C   UNL     1       1.458   2.223  -0.848  1.00  0.00    -0.034 A 
BRANCH  28  29
ATOM     29  C   UNL     1       2.750   1.700  -1.437  1.00  0.00     0.120 C 
BRANCH  29  30
ATOM     30  N   UNL     1       2.579   0.999  -2.724  1.00  0.00    -0.299 NA
ATOM     31  C   UNL     1       3.873   0.588  -3.287  1.00  0.00     0.087 C 
ATOM     32  C   UNL     1       1.652  -0.143  -2.676  1.00  0.00     0.087 C 
ATOM     33  C   UNL     1       4.529  -0.579  -2.545  1.00  0.00     0.041 C 
ATOM     34  C   UNL     1       2.185  -1.336  -1.886  1.00  0.00     0.041 C 
ATOM     35  C   UNL     1       3.562  -1.762  -2.412  1.00  0.00     0.095 C 
BRANCH  35  36
ATOM     36  N   UNL     1       4.140  -2.863  -1.652  1.00  0.00    -0.291 N 
ATOM     37  C   UNL     1       4.478  -4.082  -2.176  1.00  0.00     0.295 A 
ATOM     38  C   UNL     1       4.469  -2.901  -0.312  1.00  0.00     0.072 A 
ATOM     39  N   UNL     1       4.972  -4.908  -1.295  1.00  0.00    -0.195 NA
ATOM     40  C   UNL     1       4.385  -1.976   0.738  1.00  0.00     0.029 A 
ATOM     41  C   UNL     1       4.974  -4.191  -0.123  1.00  0.00     0.092 A 
ATOM     42  C   UNL     1       4.816  -2.394   2.004  1.00  0.00     0.002 A 
ATOM     43  C   UNL     1       5.405  -4.587   1.153  1.00  0.00     0.031 A 
ATOM     44  C   UNL     1       5.319  -3.678   2.212  1.00  0.00     0.002 A 
BRANCH  37  45
ATOM     45  O   UNL     1       4.344  -4.416  -3.442  1.00  0.00    -0.480 OA
ATOM     46  H   UNL     1       4.691  -5.327  -3.438  1.00  0.00     0.296 HD
ENDBRANCH  37  45
ENDBRANCH  35  36
ENDBRANCH  29  30
ENDBRANCH  28  29
ENDBRANCH  10  23
BRANCH   5  47
ATOM     47  O   UNL     1      -7.047   6.456   3.545  1.00  0.00    -0.508 OA
ATOM     48  H   UNL     1      -6.926   7.334   3.944  1.00  0.00     0.293 HD
ENDBRANCH   5  47
TORSDOF 11
