MODEL        7USER    Run = 7USERUSER    Estimated Free Energy of Binding    = -10.97 kcal/mol  [=(1)+(2)+(3)-(4)]USERUSER    (1) Final Intermolecular Energy     = -14.25 kcal/molUSER        vdW + Hbond + desolv Energy     = -13.80 kcal/molUSER        Electrostatic Energy            =  -0.45 kcal/molUSER        Moving Ligand-Fixed Receptor    = -14.25 kcal/molUSER        Moving Ligand-Moving Receptor   =  +0.00 kcal/molUSER    (2) Final Total Internal Energy     =  -3.00 kcal/molUSER    (3) Torsional Free Energy           =  +3.28 kcal/molUSER    (4) Unbound System's Energy         =  -3.00 kcal/molUSERUSERREMARK SMILES CN(C)[C@H](O)Cn1cc(-c2nc3cc(O)ccc3nc2-c2ccc(CN3CCC(n4c(O)nc5ccccc54)CC3)cc2)cn1REMARK SMILES IDX 10 1 11 2 12 3 13 4 14 5 16 6 17 7 18 8 19 9 20 10 9 11 7 12REMARK SMILES IDX 8 13 45 14 44 15 6 16 4 17 2 18 1 19 3 20 5 21 21 23 22 24REMARK SMILES IDX 43 25 23 26 42 27 24 28 25 29 26 30 27 31 41 32 28 33 40 34REMARK SMILES IDX 29 35 30 36 31 37 39 38 33 39 38 40 34 41 37 42 35 43 36 44REMARK SMILES IDX 32 45 15 47REMARK H PARENT 5 22 32 46 15 48USER                              x       y       z     vdW  Elec       q    TypeUSER                           _______ _______ _______ _____ _____    ______ ____ROOTATOM      1  C   UNL     1      40.809  46.663  18.754 -0.38 -0.00    +0.100 A  ATOM      2  N   UNL     1      40.854  47.296  17.552 -0.35 +0.03    -0.244 NA ATOM      3  C   UNL     1      39.780  47.162  16.753 -0.42 -0.02    +0.093 A  ATOM      4  C   UNL     1      39.762  47.791  15.515 -0.47 -0.02    +0.076 A  ATOM      5  C   UNL     1      38.672  47.656  14.663 -0.41 -0.04    +0.117 A  ATOM      6  C   UNL     1      37.574  46.896  15.034 -0.39 -0.02    +0.048 A  ATOM      7  C   UNL     1      37.580  46.267  16.281 -0.36 -0.02    +0.034 A  ATOM      8  C   UNL     1      38.659  46.388  17.147 -0.35 -0.03    +0.090 A  ATOM      9  N   UNL     1      38.619  45.757  18.334 -0.25 +0.04    -0.244 NA ATOM     10  C   UNL     1      39.708  45.885  19.138 -0.35 -0.01    +0.097 A  ENDROOTBRANCH   1  11ATOM     11  C   UNL     1      41.973  46.862  19.596 -0.40 +0.00    +0.040 A  ATOM     12  N   UNL     1      43.249  46.990  21.381 -0.23 -0.08    -0.268 N  ATOM     13  C   UNL     1      42.000  46.632  20.956 -0.24 +0.02    +0.119 A  ATOM     14  N   UNL     1      44.070  47.356  20.373 -0.33 -0.10    -0.181 NA ATOM     15  C   UNL     1      43.281  47.303  19.295 -0.35 +0.04    +0.145 A  BRANCH  12  16ATOM     16  C   UNL     1      43.744  46.946  22.738 -0.22 +0.06    +0.192 C  BRANCH  16  17ATOM     17  C   UNL     1      43.336  48.168  23.585 -0.27 +0.05    +0.206 C  BRANCH  17  18ATOM     18  N   UNL     1      42.326  47.947  24.623 -0.13 -0.04    -0.283 NA ATOM     19  C   UNL     1      42.803  48.358  25.941 -0.20 +0.01    +0.107 C  ATOM     20  C   UNL     1      41.006  48.500  24.344 -0.33 +0.02    +0.107 C  ENDBRANCH  17  18BRANCH  17  21ATOM     21  O   UNL     1      42.950  49.226  22.712 -0.73 -0.14    -0.376 OA ATOM     22  H   UNL     1      43.285  48.991  21.831 -0.44 -0.02    +0.212 HD ENDBRANCH  17  21ENDBRANCH  16  17ENDBRANCH  12  16ENDBRANCH   1  11BRANCH  10  23ATOM     23  C   UNL     1      39.644  45.100  20.375 -0.37 +0.00    +0.002 A  ATOM     24  C   UNL     1      38.629  45.334  21.316 -0.27 +0.00    +0.011 A  ATOM     25  C   UNL     1      40.583  44.091  20.638 -0.26 +0.00    +0.011 A  ATOM     26  C   UNL     1      38.531  44.552  22.467 -0.32 +0.00    +0.006 A  ATOM     27  C   UNL     1      40.480  43.301  21.786 -0.12 +0.00    +0.006 A  ATOM     28  C   UNL     1      39.445  43.518  22.704 -0.25 -0.00    -0.034 A  BRANCH  28  29ATOM     29  C   UNL     1      39.290  42.630  23.920 -0.09 +0.01    +0.120 C  BRANCH  29  30ATOM     30  N   UNL     1      40.237  42.938  25.008 -0.09 -0.00    -0.299 NA ATOM     31  C   UNL     1      40.993  44.167  24.731 -0.12 +0.00    +0.087 C  ATOM     32  C   UNL     1      39.627  42.999  26.346 -0.19 -0.00    +0.087 C  ATOM     33  C   UNL     1      40.164  45.447  24.862 -0.14 +0.00    +0.041 C  ATOM     34  C   UNL     1      38.713  44.205  26.552 -0.22 -0.00    +0.041 C  ATOM     35  C   UNL     1      39.453  45.507  26.220 -0.16 +0.00    +0.095 C  BRANCH  35  36ATOM     36  N   UNL     1      38.604  46.685  26.346 -0.12 +0.00    -0.291 N  ATOM     37  C   UNL     1      37.351  46.806  25.809 -0.18 +0.00    +0.295 A  ATOM     38  C   UNL     1      38.866  47.864  27.015 -0.20 -0.00    +0.072 A  ATOM     39  N   UNL     1      36.791  47.960  26.051 -0.40 +0.01    -0.195 NA ATOM     40  C   UNL     1      39.950  48.336  27.768 -0.18 +0.00    +0.029 A  ATOM     41  C   UNL     1      37.721  48.637  26.802 -0.26 +0.00    +0.092 A  ATOM     42  C   UNL     1      39.856  49.631  28.296 -0.26 +0.00    +0.002 A  ATOM     43  C   UNL     1      37.645  49.929  27.344 -0.21 +0.00    +0.031 A  ATOM     44  C   UNL     1      38.723  50.417  28.090 -0.21 +0.00    +0.002 A  BRANCH  37  45ATOM     45  O   UNL     1      36.736  45.866  25.124 -0.64 -0.08    -0.480 OA ATOM     46  H   UNL     1      35.866  45.846  25.563 -0.43 -0.08    +0.296 HD ENDBRANCH  37  45ENDBRANCH  35  36ENDBRANCH  29  30ENDBRANCH  28  29ENDBRANCH  10  23BRANCH   5  47ATOM     47  O   UNL     1      38.718  48.297  13.460 -0.30 +0.11    -0.508 OA ATOM     48  H   UNL     1      38.537  49.242  13.595 -0.21 -0.14    +0.293 HD ENDBRANCH   5  47TORSDOF 11TERENDMDL