REMARK SMILES C[C@H]1C[C@@H](n2c(O)nc3ccccc32)CCN1Cc1ccc(-c2nc3ccccc3nc2-c2ccncc2)cc1F
REMARK SMILES IDX 1 1 2 2 3 3 4 4 15 5 16 6 17 7 18 8 19 9 20 10 40 11 21 12
REMARK SMILES IDX 39 13 22 14 41 15 23 16 24 17 32 18 25 19 31 20 26 21 30 22
REMARK SMILES IDX 27 23 29 24 28 25 33 26 34 27 38 28 35 29 37 30 36 31 5 32
REMARK SMILES IDX 6 33 14 34 8 35 13 36 9 37 12 38 10 39 11 40 7 41
REMARK H PARENT 7 42
ROOT
ATOM      1  C   UNL     1      -2.257  -2.224   1.823  1.00  0.00     0.024 C 
ATOM      2  C   UNL     1      -1.980  -1.022   0.912  1.00  0.00     0.056 C 
ATOM      3  C   UNL     1      -3.033  -0.864  -0.202  1.00  0.00     0.044 C 
ATOM      4  C   UNL     1      -4.251  -0.006   0.190  1.00  0.00     0.095 C 
ATOM      5  C   UNL     1      -4.345   0.272   1.691  1.00  0.00     0.041 C 
ATOM      6  C   UNL     1      -3.021   0.746   2.284  1.00  0.00     0.087 C 
ATOM      7  N   UNL     1      -1.817   0.271   1.592  1.00  0.00    -0.296 NA
ENDROOT
BRANCH   7   8
ATOM      8  C   UNL     1      -0.648   0.355   2.485  1.00  0.00     0.123 C 
BRANCH   8   9
ATOM      9  C   UNL     1       0.674   0.228   1.769  1.00  0.00     0.002 A 
ATOM     10  C   UNL     1       1.097   1.205   0.859  1.00  0.00     0.009 A 
ATOM     11  C   UNL     1       1.496  -0.879   1.982  1.00  0.00     0.128 A 
ATOM     12  C   UNL     1       2.315   1.067   0.183  1.00  0.00     0.011 A 
ATOM     13  C   UNL     1       2.709  -1.022   1.313  1.00  0.00     0.050 A 
ATOM     14  C   UNL     1       3.147  -0.044   0.406  1.00  0.00     0.005 A 
ATOM     15  F   UNL     1       1.119  -1.841   2.832  1.00  0.00    -0.207 F 
BRANCH  14  16
ATOM     16  C   UNL     1       4.420  -0.230  -0.314  1.00  0.00     0.097 A 
ATOM     17  N   UNL     1       4.487  -1.421  -0.973  1.00  0.00    -0.244 NA
ATOM     18  C   UNL     1       5.480   0.688  -0.363  1.00  0.00     0.097 A 
ATOM     19  C   UNL     1       5.582  -1.671  -1.709  1.00  0.00     0.089 A 
ATOM     20  N   UNL     1       6.582   0.431  -1.128  1.00  0.00    -0.244 NA
ATOM     21  C   UNL     1       5.683  -2.871  -2.400  1.00  0.00     0.030 A 
ATOM     22  C   UNL     1       6.632  -0.735  -1.797  1.00  0.00     0.089 A 
ATOM     23  C   UNL     1       6.798  -3.165  -3.182  1.00  0.00     0.002 A 
ATOM     24  C   UNL     1       7.737  -1.033  -2.585  1.00  0.00     0.030 A 
ATOM     25  C   UNL     1       7.828  -2.240  -3.280  1.00  0.00     0.002 A 
BRANCH  18  26
ATOM     26  C   UNL     1       5.568   1.960   0.386  1.00  0.00     0.005 A 
ATOM     27  C   UNL     1       6.133   3.094  -0.215  1.00  0.00     0.030 A 
ATOM     28  C   UNL     1       5.159   2.088   1.721  1.00  0.00     0.030 A 
ATOM     29  C   UNL     1       6.237   4.271   0.509  1.00  0.00     0.111 A 
ATOM     30  C   UNL     1       5.291   3.312   2.360  1.00  0.00     0.111 A 
ATOM     31  N   UNL     1       5.817   4.406   1.782  1.00  0.00    -0.265 NA
ENDBRANCH  18  26
ENDBRANCH  14  16
ENDBRANCH   8   9
ENDBRANCH   7   8
BRANCH   4  32
ATOM     32  N   UNL     1      -5.519  -0.525  -0.313  1.00  0.00    -0.291 N 
ATOM     33  C   UNL     1      -6.025  -1.776  -0.090  1.00  0.00     0.295 A 
ATOM     34  C   UNL     1      -6.514   0.201  -0.937  1.00  0.00     0.072 A 
ATOM     35  N   UNL     1      -7.242  -1.931  -0.532  1.00  0.00    -0.195 NA
ATOM     36  C   UNL     1      -6.614   1.528  -1.375  1.00  0.00     0.029 A 
ATOM     37  C   UNL     1      -7.575  -0.702  -1.047  1.00  0.00     0.092 A 
ATOM     38  C   UNL     1      -7.842   1.930  -1.924  1.00  0.00     0.002 A 
ATOM     39  C   UNL     1      -8.793  -0.279  -1.605  1.00  0.00     0.031 A 
ATOM     40  C   UNL     1      -8.915   1.046  -2.038  1.00  0.00     0.002 A 
BRANCH  33  41
ATOM     41  O   UNL     1      -5.398  -2.739   0.554  1.00  0.00    -0.480 OA
ATOM     42  H   UNL     1      -6.066  -3.447   0.538  1.00  0.00     0.296 HD
ENDBRANCH  33  41
ENDBRANCH   4  32
TORSDOF 6
