MODEL        6USER    Run = 6USERUSER    Estimated Free Energy of Binding    = -10.37 kcal/mol  [=(1)+(2)+(3)-(4)]USERUSER    (1) Final Intermolecular Energy     = -13.36 kcal/molUSER        vdW + Hbond + desolv Energy     = -13.34 kcal/molUSER        Electrostatic Energy            =  -0.02 kcal/molUSER        Moving Ligand-Fixed Receptor    = -13.36 kcal/molUSER        Moving Ligand-Moving Receptor   =  +0.00 kcal/molUSER    (2) Final Total Internal Energy     =  -3.46 kcal/molUSER    (3) Torsional Free Energy           =  +2.98 kcal/molUSER    (4) Unbound System's Energy         =  -3.46 kcal/molUSERUSERREMARK SMILES COCCNC[C@@H]1C(=O)N[C@@H](c2c(Cl)cccc2Cl)N1C(=O)CN1CCC(c2cccc3c2CCC3)CC1REMARK SMILES IDX 6 1 5 2 4 4 3 5 2 6 1 7 7 8 8 9 20 10 10 11 11 12 9 13 21 15REMARK SMILES IDX 22 16 23 17 24 18 25 19 38 20 26 21 37 22 27 23 28 24 29 25REMARK SMILES IDX 33 26 30 27 32 28 34 29 31 30 36 31 35 32 12 33 13 34 18 35REMARK SMILES IDX 15 36 17 37 16 38 14 39 19 40REMARK H PARENT 5 3 10 14USER                              x       y       z     vdW  Elec       q    TypeUSER                           _______ _______ _______ _____ _____    ______ ____ROOTATOM      1  C   UNL     1      41.259  46.521  24.202 -0.15 +0.01    +0.116 C  ENDROOTBRANCH   1   2ATOM      2  N   UNL     1      41.033  47.848  24.779 -0.11 -0.04    -0.312 NA ATOM      3  H   UNL     1      40.797  48.532  24.057 +0.04 +0.02    +0.122 HD BRANCH   2   4ATOM      4  C   UNL     1      42.206  48.326  25.517 -0.24 +0.01    +0.109 C  BRANCH   4   5ATOM      5  C   UNL     1      43.073  49.240  24.634 -0.29 +0.04    +0.175 C  BRANCH   5   6ATOM      6  O   UNL     1      42.716  49.163  23.250 -0.89 -0.15    -0.383 OA ATOM      7  C   UNL     1      43.458  48.191  22.532 -0.21 +0.04    +0.194 C  ENDBRANCH   5   6ENDBRANCH   4   5ENDBRANCH   2   4ENDBRANCH   1   2BRANCH   1   8ATOM      8  C   UNL     1      40.151  46.063  23.226 -0.19 +0.01    +0.190 C  ATOM      9  C   UNL     1      38.793  46.633  23.633 -0.25 +0.03    +0.246 C  ATOM     10  N   UNL     1      39.881  44.611  23.322 -0.06 -0.01    -0.304 N  ATOM     11  N   UNL     1      37.981  45.607  24.060 -0.14 -0.05    -0.330 N  ATOM     12  C   UNL     1      38.584  44.334  23.909 -0.19 +0.01    +0.216 C  ATOM     13  O   UNL     1      38.430  47.798  23.624 -0.34 -0.05    -0.273 OA ATOM     14  H   UNL     1      37.034  45.788  24.360 +0.07 +0.07    +0.166 HD BRANCH  10  15ATOM     15  C   UNL     1      40.864  43.695  22.992 -0.17 +0.01    +0.239 C  ATOM     16  O   UNL     1      40.855  42.570  23.501 -0.18 -0.00    -0.273 OA BRANCH  15  17ATOM     17  C   UNL     1      41.930  44.138  21.970 -0.24 +0.02    +0.185 C  BRANCH  17  18ATOM     18  N   UNL     1      41.440  44.944  20.832 -0.17 -0.04    -0.294 NA ATOM     19  C   UNL     1      42.347  46.038  20.475 -0.31 +0.02    +0.085 C  ATOM     20  C   UNL     1      41.061  44.133  19.670 -0.28 +0.01    +0.085 C  ATOM     21  C   UNL     1      41.693  46.967  19.450 -0.41 +0.00    +0.024 C  ATOM     22  C   UNL     1      40.367  44.996  18.612 -0.49 -0.00    +0.024 C  ATOM     23  C   UNL     1      41.260  46.180  18.207 -0.54 -0.00    +0.022 C  BRANCH  23  24ATOM     24  C   UNL     1      40.680  47.078  17.129 -0.48 +0.01    -0.041 A  ATOM     25  C   UNL     1      41.370  48.268  16.819 -0.45 -0.00    +0.004 A  ATOM     26  C   UNL     1      39.493  46.843  16.434 -0.44 +0.01    -0.041 A  ATOM     27  C   UNL     1      40.911  49.162  15.838 -0.63 -0.00    +0.001 A  ATOM     28  C   UNL     1      39.039  47.743  15.451 -0.47 +0.02    -0.045 A  ATOM     29  C   UNL     1      38.542  45.681  16.513 -0.40 -0.01    +0.036 C  ATOM     30  C   UNL     1      39.740  48.894  15.135 -0.52 -0.00    +0.004 A  ATOM     31  C   UNL     1      37.779  47.259  14.801 -0.50 -0.02    +0.036 C  ATOM     32  C   UNL     1      37.288  46.241  15.830 -0.43 -0.01    +0.010 C  ENDBRANCH  23  24ENDBRANCH  17  18ENDBRANCH  15  17ENDBRANCH  10  15BRANCH  12  33ATOM     33  C   UNL     1      37.664  43.397  23.147 -0.34 +0.00    +0.032 A  ATOM     34  C   UNL     1      37.436  43.592  21.764 -0.36 +0.00    +0.049 A  ATOM     35  C   UNL     1      37.044  42.273  23.736 -0.40 +0.00    +0.049 A  ATOM     36  C   UNL     1      36.620  42.726  21.021 -0.44 +0.00    +0.021 A  ATOM     37  C   UNL     1      36.242  41.402  22.982 -0.42 +0.00    +0.021 A  ATOM     38  C   UNL     1      36.024  41.631  21.629 -0.50 +0.00    +0.003 A  ATOM     39  Cl  UNL     1      38.152  44.890  20.867 -0.36 -0.00    -0.084 Cl ATOM     40  Cl  UNL     1      37.217  41.855  25.408 -0.47 +0.01    -0.084 Cl ENDBRANCH  12  33ENDBRANCH   1   8TORSDOF 10TERENDMDL