REMARK SMILES COCCNC[C@@H]1C(=O)N[C@@H](c2c(Cl)cccc2Cl)N1C(=O)CN1CCC(c2cccc3c2CCC3)CC1
REMARK SMILES IDX 6 1 5 2 4 4 3 5 2 6 1 7 7 8 8 9 20 10 10 11 11 12 9 13 21 15
REMARK SMILES IDX 22 16 23 17 24 18 25 19 38 20 26 21 37 22 27 23 28 24 29 25
REMARK SMILES IDX 33 26 30 27 32 28 34 29 31 30 36 31 35 32 12 33 13 34 18 35
REMARK SMILES IDX 15 36 17 37 16 38 14 39 19 40
REMARK H PARENT 5 3 10 14
ROOT
ATOM      1  C   UNL     1      -3.770   0.955   0.728  1.00  0.00     0.116 C 
ENDROOT
BRANCH   1   2
ATOM      2  N   UNL     1      -4.856   1.919   0.536  1.00  0.00    -0.312 NA
ATOM      3  H   UNL     1      -4.977   2.150  -0.453  1.00  0.00     0.122 HD
BRANCH   2   4
ATOM      4  C   UNL     1      -4.622   3.157   1.285  1.00  0.00     0.109 C 
BRANCH   4   5
ATOM      5  C   UNL     1      -5.735   4.182   1.009  1.00  0.00     0.175 C 
BRANCH   5   6
ATOM      6  O   UNL     1      -5.756   4.614  -0.356  1.00  0.00    -0.383 OA
ATOM      7  C   UNL     1      -4.782   5.603  -0.647  1.00  0.00     0.194 C 
ENDBRANCH   5   6
ENDBRANCH   4   5
ENDBRANCH   2   4
ENDBRANCH   1   2
BRANCH   1   8
ATOM      8  C   UNL     1      -3.974  -0.381  -0.024  1.00  0.00     0.190 C 
ATOM      9  C   UNL     1      -5.058  -1.225   0.646  1.00  0.00     0.246 C 
ATOM     10  N   UNL     1      -2.806  -1.281   0.101  1.00  0.00    -0.304 N 
ATOM     11  N   UNL     1      -4.480  -2.342   1.206  1.00  0.00    -0.330 N 
ATOM     12  C   UNL     1      -3.095  -2.441   0.922  1.00  0.00     0.216 C 
ATOM     13  O   UNL     1      -6.253  -0.995   0.724  1.00  0.00    -0.273 OA
ATOM     14  H   UNL     1      -5.042  -3.030   1.685  1.00  0.00     0.166 HD
BRANCH  10  15
ATOM     15  C   UNL     1      -1.581  -0.912  -0.426  1.00  0.00     0.239 C 
ATOM     16  O   UNL     1      -1.501   0.067  -1.173  1.00  0.00    -0.273 OA
BRANCH  15  17
ATOM     17  C   UNL     1      -0.355  -1.758  -0.026  1.00  0.00     0.185 C 
BRANCH  17  18
ATOM     18  N   UNL     1       0.956  -1.081  -0.119  1.00  0.00    -0.294 NA
ATOM     19  C   UNL     1       1.413  -0.911  -1.501  1.00  0.00     0.085 C 
ATOM     20  C   UNL     1       1.017   0.170   0.645  1.00  0.00     0.085 C 
ATOM     21  C   UNL     1       2.860  -0.414  -1.533  1.00  0.00     0.024 C 
ATOM     22  C   UNL     1       2.449   0.710   0.684  1.00  0.00     0.024 C 
ATOM     23  C   UNL     1       2.999   0.891  -0.740  1.00  0.00     0.022 C 
BRANCH  23  24
ATOM     24  C   UNL     1       4.404   1.463  -0.814  1.00  0.00    -0.041 A 
ATOM     25  C   UNL     1       4.625   2.564  -1.667  1.00  0.00     0.004 A 
ATOM     26  C   UNL     1       5.515   0.968  -0.129  1.00  0.00    -0.041 A 
ATOM     27  C   UNL     1       5.889   3.160  -1.802  1.00  0.00     0.001 A 
ATOM     28  C   UNL     1       6.779   1.572  -0.269  1.00  0.00    -0.045 A 
ATOM     29  C   UNL     1       5.617  -0.165   0.854  1.00  0.00     0.036 C 
ATOM     30  C   UNL     1       6.978   2.670  -1.088  1.00  0.00     0.004 A 
ATOM     31  C   UNL     1       7.804   0.909   0.600  1.00  0.00     0.036 C 
ATOM     32  C   UNL     1       7.127  -0.431   0.887  1.00  0.00     0.010 C 
ENDBRANCH  23  24
ENDBRANCH  17  18
ENDBRANCH  15  17
ENDBRANCH  10  15
BRANCH  12  33
ATOM     33  C   UNL     1      -2.768  -3.803   0.337  1.00  0.00     0.032 A 
ATOM     34  C   UNL     1      -2.064  -4.759   1.107  1.00  0.00     0.049 A 
ATOM     35  C   UNL     1      -3.182  -4.212  -0.950  1.00  0.00     0.049 A 
ATOM     36  C   UNL     1      -1.775  -6.039   0.612  1.00  0.00     0.021 A 
ATOM     37  C   UNL     1      -2.903  -5.500  -1.433  1.00  0.00     0.021 A 
ATOM     38  C   UNL     1      -2.195  -6.410  -0.657  1.00  0.00     0.003 A 
ATOM     39  Cl  UNL     1      -1.520  -4.447   2.723  1.00  0.00    -0.084 Cl
ATOM     40  Cl  UNL     1      -4.070  -3.194  -2.035  1.00  0.00    -0.084 Cl
ENDBRANCH  12  33
ENDBRANCH   1   8
TORSDOF 10
