REMARK SMILES CC(=O)NC[C@@H]1C(=O)N[C@H](c2c(F)cccc2Cl)N1C(=O)CN1CCC(c2cccc3c2CCC3)CC1
REMARK SMILES IDX 6 1 7 2 8 3 9 4 10 5 19 6 5 8 4 9 2 10 1 11 3 12 20 14 21 15
REMARK SMILES IDX 22 16 23 17 24 18 37 19 25 20 36 21 26 22 27 23 28 24 32 25
REMARK SMILES IDX 29 26 31 27 33 28 30 29 35 30 34 31 11 32 12 33 17 34 14 35
REMARK SMILES IDX 16 36 15 37 13 38 18 39
REMARK H PARENT 9 7 4 13
ROOT
ATOM      1  C   UNL     1      -4.106   1.358  -0.103  1.00  0.00     0.196 C 
ATOM      2  C   UNL     1      -5.089   1.084  -1.236  1.00  0.00     0.246 C 
ATOM      3  O   UNL     1      -6.111   1.701  -1.494  1.00  0.00    -0.273 OA
ATOM      4  N   UNL     1      -4.648   0.013  -1.971  1.00  0.00    -0.330 N 
ATOM      5  C   UNL     1      -3.437  -0.530  -1.467  1.00  0.00     0.218 C 
ATOM      6  N   UNL     1      -3.158   0.242  -0.273  1.00  0.00    -0.303 N 
ATOM      7  H   UNL     1      -5.134  -0.296  -2.802  1.00  0.00     0.166 HD
ENDROOT
BRANCH   1   8
ATOM      8  C   UNL     1      -4.836   1.405   1.246  1.00  0.00     0.151 C 
BRANCH   8   9
ATOM      9  N   UNL     1      -5.840   2.460   1.332  1.00  0.00    -0.354 N 
ATOM     10  C   UNL     1      -5.475   3.780   1.465  1.00  0.00     0.216 C 
ATOM     11  C   UNL     1      -6.627   4.747   1.403  1.00  0.00     0.114 C 
ATOM     12  O   UNL     1      -4.318   4.154   1.616  1.00  0.00    -0.275 OA
ATOM     13  H   UNL     1      -6.730   2.273   0.882  1.00  0.00     0.163 HD
ENDBRANCH   8   9
ENDBRANCH   1   8
BRANCH   6  14
ATOM     14  C   UNL     1      -1.959   0.256   0.423  1.00  0.00     0.239 C 
ATOM     15  O   UNL     1      -1.770   1.077   1.322  1.00  0.00    -0.273 OA
BRANCH  14  16
ATOM     16  C   UNL     1      -0.909  -0.817   0.057  1.00  0.00     0.185 C 
BRANCH  16  17
ATOM     17  N   UNL     1       0.459  -0.446   0.466  1.00  0.00    -0.294 NA
ATOM     18  C   UNL     1       0.982   0.702  -0.278  1.00  0.00     0.085 C 
ATOM     19  C   UNL     1       1.356  -1.607   0.454  1.00  0.00     0.085 C 
ATOM     20  C   UNL     1       2.320   1.148   0.315  1.00  0.00     0.024 C 
ATOM     21  C   UNL     1       2.761  -1.328  -0.084  1.00  0.00     0.024 C 
ATOM     22  C   UNL     1       3.329  -0.010   0.457  1.00  0.00     0.022 C 
BRANCH  22  23
ATOM     23  C   UNL     1       4.672   0.286  -0.189  1.00  0.00    -0.041 A 
ATOM     24  C   UNL     1       4.760   0.666  -1.542  1.00  0.00     0.004 A 
ATOM     25  C   UNL     1       5.870   0.169   0.513  1.00  0.00    -0.041 A 
ATOM     26  C   UNL     1       5.996   0.942  -2.149  1.00  0.00     0.001 A 
ATOM     27  C   UNL     1       7.103   0.447  -0.099  1.00  0.00    -0.045 A 
ATOM     28  C   UNL     1       6.086  -0.193   1.954  1.00  0.00     0.036 C 
ATOM     29  C   UNL     1       7.180   0.841  -1.423  1.00  0.00     0.004 A 
ATOM     30  C   UNL     1       8.234   0.307   0.872  1.00  0.00     0.036 C 
ATOM     31  C   UNL     1       7.581  -0.536   1.971  1.00  0.00     0.010 C 
ENDBRANCH  22  23
ENDBRANCH  16  17
ENDBRANCH  14  16
ENDBRANCH   6  14
BRANCH   5  32
ATOM     32  C   UNL     1      -3.565  -2.021  -1.268  1.00  0.00     0.049 A 
ATOM     33  C   UNL     1      -4.324  -2.538  -0.209  1.00  0.00     0.131 A 
ATOM     34  C   UNL     1      -2.977  -2.952  -2.142  1.00  0.00     0.051 A 
ATOM     35  C   UNL     1      -4.465  -3.908   0.008  1.00  0.00     0.040 A 
ATOM     36  C   UNL     1      -3.109  -4.331  -1.928  1.00  0.00     0.021 A 
ATOM     37  C   UNL     1      -3.847  -4.810  -0.848  1.00  0.00     0.005 A 
ATOM     38  F   UNL     1      -4.955  -1.711   0.634  1.00  0.00    -0.206 F 
ATOM     39  Cl  UNL     1      -2.068  -2.466  -3.530  1.00  0.00    -0.084 Cl
ENDBRANCH   5  32
TORSDOF 7
