MODEL        6USER    Run = 6USERUSER    Estimated Free Energy of Binding    = -10.43 kcal/mol  [=(1)+(2)+(3)-(4)]USERUSER    (1) Final Intermolecular Energy     = -12.52 kcal/molUSER        vdW + Hbond + desolv Energy     = -12.53 kcal/molUSER        Electrostatic Energy            =  +0.01 kcal/molUSER        Moving Ligand-Fixed Receptor    = -12.52 kcal/molUSER        Moving Ligand-Moving Receptor   =  +0.00 kcal/molUSER    (2) Final Total Internal Energy     =  -2.71 kcal/molUSER    (3) Torsional Free Energy           =  +2.09 kcal/molUSER    (4) Unbound System's Energy         =  -2.71 kcal/molUSERUSERREMARK SMILES CC(=O)NC[C@@H]1C(=O)N[C@H](c2c(F)cccc2Cl)N1C(=O)CN1CCC(c2cccc3c2CCC3)CC1REMARK SMILES IDX 6 1 7 2 8 3 9 4 10 5 19 6 5 8 4 9 2 10 1 11 3 12 20 14 21 15REMARK SMILES IDX 22 16 23 17 24 18 37 19 25 20 36 21 26 22 27 23 28 24 32 25REMARK SMILES IDX 29 26 31 27 33 28 30 29 35 30 34 31 11 32 12 33 17 34 14 35REMARK SMILES IDX 16 36 15 37 13 38 18 39REMARK H PARENT 9 7 4 13USER                              x       y       z     vdW  Elec       q    TypeUSER                           _______ _______ _______ _____ _____    ______ ____ROOTATOM      1  C   UNL     1      39.153  45.736  16.456 -0.23 -0.04    +0.196 C  ATOM      2  C   UNL     1      38.280  45.643  15.209 -0.25 -0.07    +0.246 C  ATOM      3  O   UNL     1      38.507  46.126  14.110 -0.29 +0.07    -0.273 OA ATOM      4  N   UNL     1      37.162  44.901  15.492 -0.14 +0.12    -0.330 N  ATOM      5  C   UNL     1      37.133  44.454  16.840 -0.25 -0.07    +0.218 C  ATOM      6  N   UNL     1      38.309  45.043  17.446 -0.18 +0.06    -0.303 N  ATOM      7  H   UNL     1      36.480  44.676  14.780 +0.11 -0.07    +0.166 HD ENDROOTBRANCH   1   8ATOM      8  C   UNL     1      39.481  47.201  16.778 -0.42 -0.04    +0.151 C  BRANCH   8   9ATOM      9  N   UNL     1      39.918  47.971  15.618 -0.24 +0.10    -0.354 N  ATOM     10  C   UNL     1      40.943  48.883  15.716 -0.50 -0.03    +0.216 C  ATOM     11  C   UNL     1      41.355  49.490  14.401 -0.62 -0.02    +0.114 C  ATOM     12  O   UNL     1      41.489  49.184  16.771 -1.03 -0.01    -0.275 OA ATOM     13  H   UNL     1      39.769  47.543  14.711 +0.12 -0.04    +0.163 HD ENDBRANCH   8   9ENDBRANCH   1   8BRANCH   6  14ATOM     14  C   UNL     1      38.848  44.696  18.676 -0.28 -0.02    +0.239 C  ATOM     15  O   UNL     1      39.993  44.246  18.749 -0.28 +0.01    -0.273 OA BRANCH  14  16ATOM     16  C   UNL     1      37.980  44.941  19.930 -0.18 -0.01    +0.185 C  BRANCH  16  17ATOM     17  N   UNL     1      38.175  43.916  20.973 -0.16 -0.00    -0.294 NA ATOM     18  C   UNL     1      36.923  43.268  21.372 -0.43 +0.00    +0.085 C  ATOM     19  C   UNL     1      38.946  44.442  22.105 -0.31 +0.00    +0.085 C  ATOM     20  C   UNL     1      37.214  42.098  22.314 -0.54 +0.00    +0.024 C  ATOM     21  C   UNL     1      38.457  43.989  23.482 -0.31 +0.00    +0.024 C  ATOM     22  C   UNL     1      38.113  42.495  23.504 -0.36 +0.00    +0.022 C  BRANCH  22  23ATOM     23  C   UNL     1      37.523  42.112  24.851 -0.31 -0.00    -0.041 A  ATOM     24  C   UNL     1      36.166  41.758  24.976 -0.32 -0.00    +0.004 A  ATOM     25  C   UNL     1      38.284  42.121  26.018 -0.27 +0.00    -0.041 A  ATOM     26  C   UNL     1      35.611  41.402  26.217 -0.48 -0.00    +0.001 A  ATOM     27  C   UNL     1      37.724  41.763  27.255 -0.40 +0.01    -0.045 A  ATOM     28  C   UNL     1      39.743  42.431  26.189 -0.23 -0.00    +0.036 C  ATOM     29  C   UNL     1      36.395  41.395  27.368 -0.57 -0.00    +0.004 A  ATOM     30  C   UNL     1      38.751  41.794  28.344 -0.35 -0.00    +0.036 C  ATOM     31  C   UNL     1      39.840  42.658  27.703 -0.28 -0.00    +0.010 C  ENDBRANCH  22  23ENDBRANCH  16  17ENDBRANCH  14  16ENDBRANCH   6  14BRANCH   5  32ATOM     32  C   UNL     1      35.815  44.807  17.488 -0.29 -0.02    +0.049 A  ATOM     33  C   UNL     1      35.336  46.124  17.462 -0.29 -0.10    +0.131 A  ATOM     34  C   UNL     1      34.995  43.844  18.102 -0.28 -0.01    +0.051 A  ATOM     35  C   UNL     1      34.125  46.488  18.050 -0.45 -0.04    +0.040 A  ATOM     36  C   UNL     1      33.779  44.203  18.700 -0.37 -0.01    +0.021 A  ATOM     37  C   UNL     1      33.347  45.527  18.681 -0.37 -0.00    +0.005 A  ATOM     38  F   UNL     1      36.039  47.085  16.850 -0.07 +0.22    -0.206 F  ATOM     39  Cl  UNL     1      35.421  42.169  18.153 -0.45 +0.02    -0.084 Cl ENDBRANCH   5  32TORSDOF 7TERENDMDL