MODEL        4USER    Run = 4USERUSER    Estimated Free Energy of Binding    = -11.80 kcal/mol  [=(1)+(2)+(3)-(4)]USERUSER    (1) Final Intermolecular Energy     = -14.19 kcal/molUSER        vdW + Hbond + desolv Energy     = -14.17 kcal/molUSER        Electrostatic Energy            =  -0.02 kcal/molUSER        Moving Ligand-Fixed Receptor    = -14.19 kcal/molUSER        Moving Ligand-Moving Receptor   =  +0.00 kcal/molUSER    (2) Final Total Internal Energy     =  -1.84 kcal/molUSER    (3) Torsional Free Energy           =  +2.39 kcal/molUSER    (4) Unbound System's Energy         =  -1.84 kcal/molUSERUSERREMARK SMILES N#Cc1cnc(-c2ccc(CNCc3ccc(-c4csnn4)cc3)cc2)c(-c2ccccc2)c1REMARK SMILES IDX 11 1 10 2 7 3 8 4 26 5 9 6 25 7 6 8 3 9 4 10 34 11 5 12REMARK SMILES IDX 27 13 2 14 1 15 28 16 29 17 33 18 30 19 32 20 31 21 12 22REMARK SMILES IDX 13 24 14 25 15 26 24 27 16 28 23 29 17 30 18 31 19 32 22 33REMARK SMILES IDX 20 34 21 35REMARK H PARENT 12 23USER                              x       y       z     vdW  Elec       q    TypeUSER                           _______ _______ _______ _____ _____    ______ ____ROOTATOM      1  C   UNL     1      41.266  45.103  18.340 -0.37 +0.01    +0.117 C  ENDROOTBRANCH   1   2ATOM      2  C   UNL     1      40.480  44.773  19.586 -0.39 -0.00    -0.034 A  ATOM      3  C   UNL     1      38.987  44.192  21.931 -0.30 +0.00    +0.001 A  ATOM      4  C   UNL     1      40.378  43.996  21.885 -0.27 +0.00    +0.011 A  ATOM      5  C   UNL     1      38.358  44.671  20.770 -0.36 +0.00    +0.011 A  ATOM      6  C   UNL     1      41.117  44.287  20.733 -0.34 +0.00    +0.006 A  ATOM      7  C   UNL     1      39.094  44.966  19.618 -0.38 -0.00    +0.006 A  BRANCH   3   8ATOM      8  C   UNL     1      38.231  43.879  23.161 -0.27 +0.01    +0.078 A  ATOM      9  C   UNL     1      36.711  43.049  25.318 -0.33 -0.00    +0.071 A  ATOM     10  C   UNL     1      36.892  42.269  24.193 -0.33 +0.00    +0.131 A  ATOM     11  C   UNL     1      37.334  44.295  25.355 -0.30 +0.00    +0.032 A  ATOM     12  N   UNL     1      37.635  42.650  23.130 -0.23 -0.02    -0.254 NA ATOM     13  C   UNL     1      38.118  44.741  24.272 -0.27 +0.00    +0.009 A  BRANCH   9  14ATOM     14  C   UNL     1      35.915  42.582  26.407 -0.45 -0.02    +0.101 C  ATOM     15  N   UNL     1      35.270  42.201  27.292 -0.41 +0.05    -0.192 NA ENDBRANCH   9  14BRANCH  13  16ATOM     16  C   UNL     1      38.794  46.046  24.376 -0.26 -0.00    -0.016 A  ATOM     17  C   UNL     1      38.068  47.208  24.689 -0.31 +0.00    +0.009 A  ATOM     18  C   UNL     1      40.180  46.163  24.184 -0.18 +0.00    +0.009 A  ATOM     19  C   UNL     1      38.704  48.447  24.795 -0.39 +0.00    +0.001 A  ATOM     20  C   UNL     1      40.817  47.402  24.288 -0.24 +0.00    +0.001 A  ATOM     21  C   UNL     1      40.079  48.543  24.593 -0.31 +0.00    +0.000 A  ENDBRANCH  13  16ENDBRANCH   3   8ENDBRANCH   1   2BRANCH   1  22ATOM     22  N   UNL     1      42.012  46.348  18.519 -0.26 -0.01    -0.309 NA ATOM     23  H   UNL     1      42.775  46.361  17.844 -0.45 -0.02    +0.123 HD BRANCH  22  24ATOM     24  C   UNL     1      41.173  47.529  18.310 -0.39 -0.01    +0.117 C  BRANCH  24  25ATOM     25  C   UNL     1      40.236  47.398  17.132 -0.48 +0.01    -0.034 A  ATOM     26  C   UNL     1      38.909  46.987  17.314 -0.35 -0.00    +0.006 A  ATOM     27  C   UNL     1      40.682  47.668  15.833 -0.52 -0.00    +0.006 A  ATOM     28  C   UNL     1      38.045  46.858  16.220 -0.40 -0.01    +0.011 A  ATOM     29  C   UNL     1      39.821  47.538  14.740 -0.48 -0.00    +0.011 A  ATOM     30  C   UNL     1      38.489  47.138  14.919 -0.45 -0.00    +0.003 A  BRANCH  30  31ATOM     31  C   UNL     1      37.614  47.014  13.757 -0.42 -0.04    +0.105 A  ATOM     32  C   UNL     1      37.000  45.840  13.354 -0.40 -0.05    +0.118 A  ATOM     33  N   UNL     1      37.312  48.120  12.964 -0.99 +0.03    -0.138 NA ATOM     34  S   UNL     1      36.069  46.198  11.957 -0.85 +0.01    -0.020 S  ATOM     35  N   UNL     1      36.503  47.811  11.966 -1.05 +0.04    -0.091 NA ENDBRANCH  30  31ENDBRANCH  24  25ENDBRANCH  22  24ENDBRANCH   1  22TORSDOF 8TERENDMDL