MODEL        10USER    Run = 10USERUSER    Estimated Free Energy of Binding    =  -7.09 kcal/mol  [=(1)+(2)+(3)-(4)]USERUSER    (1) Final Intermolecular Energy     = -11.57 kcal/molUSER        vdW + Hbond + desolv Energy     = -11.33 kcal/molUSER        Electrostatic Energy            =  -0.47 kcal/molUSER        Moving Ligand-Fixed Receptor    = -11.80 kcal/molUSER        Moving Ligand-Moving Receptor   =  +0.23 kcal/molUSER    (2) Final Total Internal Energy     =  -2.18 kcal/molUSER    (3) Torsional Free Energy           =  +4.47 kcal/molUSER    (4) Unbound System's Energy         =  -2.18 kcal/molUSERUSERREMARK SMILES COc1ccc(O)c(C(=O)c2ccc(NC[C@@H]3CCCNC[C@@H]3NC(=O)c3ccncc3)cc2)c1FREMARK SMILES IDX 16 1 15 2 14 4 11 5 12 6 34 7 13 8 33 9 9 10 10 11 8 12 3 13REMARK SMILES IDX 4 14 35 15 5 16 6 17 36 18 2 19 1 20 7 21 17 23 18 24 23 26REMARK SMILES IDX 22 27 21 28 20 30 19 31 24 33 25 34 26 36 27 37 28 38 32 39REMARK SMILES IDX 29 40 31 41 30 42REMARK H PARENT 15 3 7 22 21 29 24 35REMARK Flexibility Score:   99.900USER                              x       y       z     vdW  Elec       q    TypeUSER                           _______ _______ _______ _____ _____    ______ ____ROOTATOM      1  C   UNL     1      31.189  42.282  15.991 -0.17 -0.06    +0.118 C  ENDROOTBRANCH   1   2ATOM      2  N   UNL     1      29.787  42.682  15.841 -0.08 +0.20    -0.385 N  ATOM      3  H   UNL     1      29.652  43.688  15.866 +0.10 -0.09    +0.160 HD BRANCH   2   4ATOM      4  C   UNL     1      28.737  41.962  16.404 -0.25 -0.01    +0.034 A  ATOM      5  C   UNL     1      26.498  40.638  17.519 -0.24 -0.00    +0.023 A  ATOM      6  C   UNL     1      27.373  39.956  16.672 -0.18 +0.00    +0.014 A  ATOM      7  C   UNL     1      26.704  41.996  17.767 -0.21 -0.00    +0.014 A  ATOM      8  C   UNL     1      28.476  40.617  16.116 -0.34 -0.00    +0.026 A  ATOM      9  C   UNL     1      27.812  42.644  17.207 -0.19 -0.01    +0.026 A  BRANCH   5  10ATOM     10  C   UNL     1      25.325  39.909  18.059 -0.24 -0.01    +0.199 C  ATOM     11  O   UNL     1      24.592  39.294  17.282 -0.35 +0.04    -0.288 OA BRANCH  10  12ATOM     12  C   UNL     1      24.948  39.923  19.489 -0.24 -0.03    +0.104 A  ATOM     13  C   UNL     1      23.981  41.022  21.440 -0.39 -0.03    +0.155 A  ATOM     14  C   UNL     1      24.243  39.885  22.207 -0.35 -0.02    +0.053 A  ATOM     15  C   UNL     1      24.346  41.032  20.085 -0.27 -0.04    +0.179 A  ATOM     16  C   UNL     1      24.876  38.782  21.630 -0.32 -0.04    +0.051 A  ATOM     17  C   UNL     1      25.238  38.809  20.286 -0.22 -0.08    +0.130 A  ATOM     18  F   UNL     1      24.127  42.147  19.369 -0.09 +0.04    -0.202 F  BRANCH  13  19ATOM     19  O   UNL     1      23.385  42.167  21.898 -0.70 +0.07    -0.494 OA ATOM     20  C   UNL     1      24.074  42.906  22.899 -0.55 -0.09    +0.278 C  ENDBRANCH  13  19BRANCH  17  21ATOM     21  O   UNL     1      25.884  37.700  19.808 -0.04 +0.41    -0.507 OA ATOM     22  H   UNL     1      25.229  36.966  19.762 -0.36 -0.66    +0.293 HD ENDBRANCH  17  21ENDBRANCH  10  12ENDBRANCH   5  10ENDBRANCH   2   4ENDBRANCH   1   2BRANCH   1  23ATOM     23  C   UNL     1      31.936  43.162  17.025 -0.34 -0.01    +0.032 C  BRANCH  23  24ATOM     24  C   UNL     1      33.454  43.119  16.758 -0.40 -0.00    +0.009 CG0ATOM     25  G   UNL     1      34.410  43.473  17.898 +0.00 +0.00    +0.000 G0 ENDBRANCH  23  24BRANCH  23  26ATOM     26  C   UNL     1      31.504  42.788  18.461 -0.26 -0.01    +0.101 C  BRANCH  26  27ATOM     27  C   UNL     1      32.131  43.737  19.510 -0.38 -0.00    +0.106 C  BRANCH  27  28ATOM     28  N   UNL     1      33.368  43.247  20.132 -0.73 -0.04    -0.315 NA ATOM     29  H   UNL     1      33.837  44.053  20.553 -0.06 -0.00    +0.122 HD BRANCH  28  30ATOM     30  C   UNL     1      34.291  42.643  19.170 -0.41 -0.01    +0.081 C  BRANCH  30  31ATOM     31  C   UNL     1      34.409  43.472  17.898 -0.37 -0.00    +0.016 CG0ATOM     32  G   UNL     1      33.451  43.121  16.759 +0.00 +0.00    +0.000 G0 ENDBRANCH  30  31ENDBRANCH  28  30ENDBRANCH  27  28ENDBRANCH  26  27BRANCH  26  33ATOM     33  N   UNL     1      31.812  41.403  18.811 -0.13 +0.02    -0.348 N  ATOM     34  C   UNL     1      30.864  40.409  18.860 -0.10 +0.00    +0.251 C  ATOM     35  H   UNL     1      32.759  41.247  19.133 +0.10 +0.01    +0.164 HD ATOM     36  O   UNL     1      29.678  40.604  18.620 -0.03 +0.00    -0.269 OA BRANCH  34  37ATOM     37  C   UNL     1      31.334  39.052  19.248 -0.41 +0.01    +0.042 A  ATOM     38  C   UNL     1      32.080  38.325  18.319 -0.45 +0.00    +0.034 A  ATOM     39  C   UNL     1      31.081  38.503  20.506 -0.44 +0.01    +0.034 A  ATOM     40  C   UNL     1      32.522  37.066  18.679 -0.35 +0.02    +0.112 A  ATOM     41  C   UNL     1      31.570  37.235  20.768 -0.43 +0.02    +0.112 A  ATOM     42  N   UNL     1      32.278  36.504  19.882 -0.43 -0.07    -0.265 NA ENDBRANCH  34  37ENDBRANCH  26  33ENDBRANCH  23  26ENDBRANCH   1  23TORSDOF 9TERENDMDL