MODEL        10USER    Run = 10USERUSER    Estimated Free Energy of Binding    =  -6.62 kcal/mol  [=(1)+(2)+(3)-(4)]USERUSER    (1) Final Intermolecular Energy     = -11.09 kcal/molUSER        vdW + Hbond + desolv Energy     = -11.00 kcal/molUSER        Electrostatic Energy            =  -0.24 kcal/molUSER        Moving Ligand-Fixed Receptor    = -11.24 kcal/molUSER        Moving Ligand-Moving Receptor   =  +0.15 kcal/molUSER    (2) Final Total Internal Energy     =  -3.95 kcal/molUSER    (3) Torsional Free Energy           =  +4.47 kcal/molUSER    (4) Unbound System's Energy         =  -3.95 kcal/molUSERUSERREMARK SMILES COc1ccc(O)c(C(=O)c2ccc(CN[C@@H]3CCCNC[C@H]3NC(=O)c3ccncc3)cc2)c1FREMARK SMILES IDX 16 1 15 3 14 4 11 5 12 6 34 7 13 8 33 9 9 10 10 11 8 12 3 13REMARK SMILES IDX 4 14 35 15 5 16 6 17 36 18 2 19 1 20 7 21 17 23 18 24 23 26REMARK SMILES IDX 22 27 21 28 20 30 19 31 24 33 25 34 26 36 27 37 28 38 32 39REMARK SMILES IDX 29 40 31 41 30 42REMARK H PARENT 16 2 7 22 21 29 24 35REMARK Flexibility Score:   99.900USER                              x       y       z     vdW  Elec       q    TypeUSER                           _______ _______ _______ _____ _____    ______ ____ROOTATOM      1  N   UNL     1      31.000  43.161  17.459 -0.09 +0.07    -0.308 NA ATOM      2  H   UNL     1      31.573  43.386  18.276 +0.08 -0.02    +0.123 HD ENDROOTBRANCH   1   3ATOM      3  C   UNL     1      31.511  43.909  16.308 -0.30 -0.05    +0.117 C  BRANCH   3   4ATOM      4  C   UNL     1      32.995  44.179  16.372 -0.30 +0.02    -0.034 A  ATOM      5  C   UNL     1      35.763  44.663  16.480 -0.31 -0.01    +0.023 A  ATOM      6  C   UNL     1      35.288  43.380  16.189 -0.40 -0.00    +0.012 A  ATOM      7  C   UNL     1      34.855  45.695  16.742 -0.33 -0.01    +0.012 A  ATOM      8  C   UNL     1      33.912  43.145  16.128 -0.34 -0.00    +0.006 A  ATOM      9  C   UNL     1      33.481  45.456  16.682 -0.30 -0.00    +0.006 A  BRANCH   5  10ATOM     10  C   UNL     1      37.212  44.954  16.597 -0.27 -0.07    +0.199 C  ATOM     11  O   UNL     1      37.903  44.258  17.343 -0.21 +0.06    -0.288 OA BRANCH  10  12ATOM     12  C   UNL     1      37.895  46.006  15.813 -0.30 -0.04    +0.104 A  ATOM     13  C   UNL     1      38.143  47.352  13.795 -0.37 -0.05    +0.155 A  ATOM     14  C   UNL     1      39.237  48.004  14.368 -0.44 -0.02    +0.053 A  ATOM     15  C   UNL     1      37.476  46.360  14.530 -0.28 -0.08    +0.179 A  ATOM     16  C   UNL     1      39.643  47.682  15.666 -0.48 -0.01    +0.051 A  ATOM     17  C   UNL     1      38.966  46.702  16.387 -0.34 -0.04    +0.130 A  ATOM     18  F   UNL     1      36.401  45.767  13.984 -0.09 +0.10    -0.202 F  BRANCH  13  19ATOM     19  O   UNL     1      37.641  47.596  12.545 -0.80 +0.06    -0.494 OA ATOM     20  C   UNL     1      36.270  47.961  12.453 -0.44 -0.13    +0.278 C  ENDBRANCH  13  19BRANCH  17  21ATOM     21  O   UNL     1      39.404  46.473  17.664 -0.15 +0.10    -0.507 OA ATOM     22  H   UNL     1      39.064  45.592  17.945 +0.19 -0.05    +0.293 HD ENDBRANCH  17  21ENDBRANCH  10  12ENDBRANCH   5  10ENDBRANCH   3   4ENDBRANCH   1   3BRANCH   1  23ATOM     23  C   UNL     1      31.015  41.685  17.270 -0.31 -0.02    +0.077 C  BRANCH  23  24ATOM     24  C   UNL     1      29.565  41.241  17.039 -0.33 -0.00    +0.022 CG0ATOM     25  G   UNL     1      28.923  40.480  18.198 +0.00 +0.00    +0.000 G0 ENDBRANCH  23  24BRANCH  23  26ATOM     26  C   UNL     1      31.688  40.999  18.500 -0.34 -0.01    +0.113 C  BRANCH  26  27ATOM     27  C   UNL     1      31.815  39.467  18.308 -0.44 -0.00    +0.107 C  BRANCH  27  28ATOM     28  N   UNL     1      30.688  38.734  17.741 -0.08 -0.07    -0.315 NA ATOM     29  H   UNL     1      30.863  37.731  17.836 +0.06 +0.06    +0.122 HD BRANCH  28  30ATOM     30  C   UNL     1      29.363  39.021  18.270 -0.33 +0.02    +0.081 C  BRANCH  30  31ATOM     31  C   UNL     1      28.923  40.481  18.199 -0.21 +0.00    +0.017 CG0ATOM     32  G   UNL     1      29.567  41.240  17.040 +0.00 +0.00    +0.000 G0 ENDBRANCH  30  31ENDBRANCH  28  30ENDBRANCH  27  28ENDBRANCH  26  27BRANCH  26  33ATOM     33  N   UNL     1      33.026  41.582  18.720 -0.17 +0.03    -0.346 N  ATOM     34  C   UNL     1      33.226  42.607  19.619 -0.04 +0.02    +0.251 C  ATOM     35  H   UNL     1      33.808  41.145  18.254 +0.03 -0.04    +0.164 HD ATOM     36  O   UNL     1      32.314  43.163  20.218 -0.78 -0.04    -0.269 OA BRANCH  34  37ATOM     37  C   UNL     1      34.628  43.053  19.824 -0.40 -0.00    +0.042 A  ATOM     38  C   UNL     1      35.571  42.099  20.209 -0.41 -0.00    +0.034 A  ATOM     39  C   UNL     1      35.028  44.373  19.616 -0.37 -0.01    +0.034 A  ATOM     40  C   UNL     1      36.875  42.512  20.399 -0.27 -0.00    +0.112 A  ATOM     41  C   UNL     1      36.360  44.685  19.830 -0.10 -0.01    +0.112 A  ATOM     42  N   UNL     1      37.286  43.787  20.226 -0.20 +0.01    -0.265 NA ENDBRANCH  34  37ENDBRANCH  26  33ENDBRANCH  23  26ENDBRANCH   1  23TORSDOF 9TERENDMDL