MODEL        10USER    Run = 10USERUSER    Estimated Free Energy of Binding    =  -7.91 kcal/mol  [=(1)+(2)+(3)-(4)]USERUSER    (1) Final Intermolecular Energy     = -12.38 kcal/molUSER        vdW + Hbond + desolv Energy     = -12.71 kcal/molUSER        Electrostatic Energy            =  +0.03 kcal/molUSER        Moving Ligand-Fixed Receptor    = -12.67 kcal/molUSER        Moving Ligand-Moving Receptor   =  +0.29 kcal/molUSER    (2) Final Total Internal Energy     =  -3.09 kcal/molUSER    (3) Torsional Free Energy           =  +4.47 kcal/molUSER    (4) Unbound System's Energy         =  -3.09 kcal/molUSERUSERREMARK SMILES COc1ccc(O)c(C(=O)c2ccc(CO[C@@H]3CCCNC[C@@H]3NC(=O)c3ccncc3)cc2)c1FREMARK SMILES IDX 16 1 15 2 14 3 11 4 12 5 34 6 13 7 33 8 9 9 10 10 8 11 3 12REMARK SMILES IDX 4 13 35 14 5 15 6 16 36 17 2 18 1 19 7 20 17 22 18 23 23 25REMARK SMILES IDX 22 26 21 27 20 29 19 30 24 32 25 33 26 35 27 36 28 37 32 38REMARK SMILES IDX 29 39 31 40 30 41REMARK H PARENT 7 21 21 28 24 34REMARK Flexibility Score:   99.900USER                              x       y       z     vdW  Elec       q    TypeUSER                           _______ _______ _______ _____ _____    ______ ____ROOTATOM      1  O   UNL     1      36.679  44.942  15.787 -0.14 +0.16    -0.371 OA ENDROOTBRANCH   1   2ATOM      2  C   UNL     1      35.602  45.115  16.704 -0.25 -0.10    +0.196 C  BRANCH   2   3ATOM      3  C   UNL     1      35.978  44.453  18.004 -0.31 +0.01    -0.022 A  ATOM      4  C   UNL     1      36.657  43.236  20.444 -0.40 -0.00    +0.023 A  ATOM      5  C   UNL     1      35.333  43.214  19.996 -0.42 -0.00    +0.012 A  ATOM      6  C   UNL     1      37.646  43.837  19.658 -0.30 -0.00    +0.012 A  ATOM      7  C   UNL     1      34.998  43.825  18.787 -0.35 -0.00    +0.007 A  ATOM      8  C   UNL     1      37.308  44.447  18.448 -0.35 -0.00    +0.007 A  BRANCH   4   9ATOM      9  C   UNL     1      37.067  42.571  21.705 -0.38 +0.01    +0.199 C  ATOM     10  O   UNL     1      37.312  41.362  21.691 -0.41 -0.01    -0.288 OA BRANCH   9  11ATOM     11  C   UNL     1      37.139  43.271  23.004 -0.31 +0.01    +0.104 A  ATOM     12  C   UNL     1      37.710  45.214  24.362 -0.20 +0.02    +0.155 A  ATOM     13  C   UNL     1      37.235  44.557  25.499 -0.30 +0.00    +0.053 A  ATOM     14  C   UNL     1      37.663  44.559  23.123 -0.22 +0.02    +0.179 A  ATOM     15  C   UNL     1      36.739  43.255  25.398 -0.34 -0.00    +0.051 A  ATOM     16  C   UNL     1      36.705  42.613  24.162 -0.29 +0.01    +0.130 A  ATOM     17  F   UNL     1      38.156  45.187  22.043 -0.11 -0.02    -0.202 F  BRANCH  12  18ATOM     18  O   UNL     1      38.232  46.480  24.339 -0.36 -0.08    -0.494 OA ATOM     19  C   UNL     1      39.622  46.609  24.066 -0.17 +0.02    +0.278 C  ENDBRANCH  12  18BRANCH  16  20ATOM     20  O   UNL     1      36.233  41.328  24.157 -0.12 +0.06    -0.507 OA ATOM     21  H   UNL     1      36.602  40.875  23.363 +0.19 -0.01    +0.293 HD ENDBRANCH  16  20ENDBRANCH   9  11ENDBRANCH   4   9ENDBRANCH   2   3ENDBRANCH   1   2BRANCH   1  22ATOM     22  C   UNL     1      36.616  45.833  14.652 -0.35 -0.07    +0.142 C  BRANCH  22  23ATOM     23  C   UNL     1      37.047  44.970  13.457 -0.48 -0.01    +0.035 CG0ATOM     24  G   UNL     1      36.600  45.364  12.053 +0.00 +0.00    +0.000 G0 ENDBRANCH  22  23BRANCH  22  25ATOM     25  C   UNL     1      37.484  47.083  14.933 -0.40 -0.07    +0.125 C  BRANCH  25  26ATOM     26  C   UNL     1      37.888  47.785  13.613 -0.50 -0.04    +0.108 C  BRANCH  26  27ATOM     27  N   UNL     1      36.902  47.779  12.535 -0.93 +0.10    -0.315 NA ATOM     28  H   UNL     1      36.914  48.694  12.083 -0.04 -0.01    +0.122 HD BRANCH  27  29ATOM     29  C   UNL     1      37.085  46.719  11.554 -0.61 -0.03    +0.081 C  BRANCH  29  30ATOM     30  C   UNL     1      36.599  45.366  12.054 -0.64 -0.01    +0.018 CG0ATOM     31  G   UNL     1      37.044  44.970  13.458 +0.00 +0.00    +0.000 G0 ENDBRANCH  29  30ENDBRANCH  27  29ENDBRANCH  26  27ENDBRANCH  25  26BRANCH  25  32ATOM     32  N   UNL     1      38.614  46.757  15.814 -0.16 +0.12    -0.345 N  ATOM     33  C   UNL     1      39.425  47.745  16.333 -0.35 -0.09    +0.251 C  ATOM     34  H   UNL     1      38.464  45.953  16.410 +0.11 -0.05    +0.164 HD ATOM     35  O   UNL     1      39.340  48.927  16.026 -0.37 +0.14    -0.269 OA BRANCH  33  36ATOM     36  C   UNL     1      40.420  47.312  17.351 -0.48 -0.01    +0.042 A  ATOM     37  C   UNL     1      40.130  46.186  18.122 -0.45 -0.00    +0.034 A  ATOM     38  C   UNL     1      41.604  48.014  17.575 -0.42 -0.00    +0.034 A  ATOM     39  C   UNL     1      41.051  45.798  19.078 -0.38 +0.00    +0.112 A  ATOM     40  C   UNL     1      42.458  47.544  18.558 -0.41 +0.00    +0.112 A  ATOM     41  N   UNL     1      42.210  46.451  19.308 -0.29 -0.04    -0.265 NA ENDBRANCH  33  36ENDBRANCH  25  32ENDBRANCH  22  25ENDBRANCH   1  22TORSDOF 9TERENDMDL