MODEL        5USER    Run = 5USERUSER    Estimated Free Energy of Binding    =  -5.68 kcal/mol  [=(1)+(2)+(3)-(4)]USERUSER    (1) Final Intermolecular Energy     = -10.15 kcal/molUSER        vdW + Hbond + desolv Energy     = -10.75 kcal/molUSER        Electrostatic Energy            =  -0.33 kcal/molUSER        Moving Ligand-Fixed Receptor    = -11.08 kcal/molUSER        Moving Ligand-Moving Receptor   =  +0.92 kcal/molUSER    (2) Final Total Internal Energy     =  -2.93 kcal/molUSER    (3) Torsional Free Energy           =  +4.47 kcal/molUSER    (4) Unbound System's Energy         =  -2.93 kcal/molUSERUSERREMARK SMILES COc1ccc(O)c(C(=O)c2ccc(C(=O)O[C@@H]3CCCNC[C@H]3NC(=O)c3ccncc3)cc2)c1FREMARK SMILES IDX 17 1 15 2 16 3 14 4 11 5 12 6 35 7 13 8 34 9 9 10 10 11 8 12REMARK SMILES IDX 3 13 4 14 36 15 5 16 6 17 37 18 2 19 1 20 7 21 18 23 24 25REMARK SMILES IDX 23 26 22 27 21 29 20 30 19 31 25 33 26 34 27 36 28 37 29 38REMARK SMILES IDX 33 39 30 40 32 41 31 42REMARK H PARENT 7 22 22 28 25 35REMARK Flexibility Score:   99.900USER                              x       y       z     vdW  Elec       q    TypeUSER                           _______ _______ _______ _____ _____    ______ ____ROOTATOM      1  O   UNL     1      32.174  41.229  18.545 -0.15 +0.04    -0.457 OA ENDROOTBRANCH   1   2ATOM      2  C   UNL     1      32.145  39.929  18.156 -0.25 -0.03    +0.338 C  ATOM      3  O   UNL     1      33.043  39.309  17.605 -0.40 +0.08    -0.246 OA BRANCH   2   4ATOM      4  C   UNL     1      30.848  39.321  18.544 -0.36 +0.01    +0.060 A  ATOM      5  C   UNL     1      28.357  38.222  19.229 -0.27 +0.00    +0.023 A  ATOM      6  C   UNL     1      29.499  37.895  19.972 -0.34 +0.00    +0.013 A  ATOM      7  C   UNL     1      28.468  39.105  18.145 -0.23 +0.00    +0.013 A  ATOM      8  C   UNL     1      30.741  38.443  19.631 -0.42 +0.00    +0.016 A  ATOM      9  C   UNL     1      29.706  39.661  17.809 -0.33 +0.00    +0.016 A  BRANCH   5  10ATOM     10  C   UNL     1      27.018  37.647  19.533 -0.14 -0.03    +0.199 C  ATOM     11  O   UNL     1      26.848  36.433  19.575 -0.30 +0.12    -0.288 OA BRANCH  10  12ATOM     12  C   UNL     1      25.868  38.523  19.786 -0.22 -0.05    +0.104 A  ATOM     13  C   UNL     1      24.847  40.263  21.133 -0.31 -0.04    +0.155 A  ATOM     14  C   UNL     1      23.690  40.169  20.349 -0.33 -0.02    +0.053 A  ATOM     15  C   UNL     1      25.932  39.426  20.845 -0.22 -0.06    +0.179 A  ATOM     16  C   UNL     1      23.632  39.271  19.275 -0.28 -0.02    +0.051 A  ATOM     17  C   UNL     1      24.725  38.456  18.990 -0.22 -0.09    +0.130 A  ATOM     18  F   UNL     1      27.059  39.530  21.568 +0.16 +0.03    -0.202 F  BRANCH  13  19ATOM     19  O   UNL     1      25.035  41.137  22.170 -0.72 +0.03    -0.494 OA ATOM     20  C   UNL     1      24.264  42.332  22.167 -0.50 -0.07    +0.278 C  ENDBRANCH  13  19BRANCH  17  21ATOM     21  O   UNL     1      24.683  37.595  17.932 -0.41 +0.26    -0.507 OA ATOM     22  H   UNL     1      24.911  36.697  18.222 -0.32 -0.30    +0.293 HD ENDBRANCH  17  21ENDBRANCH  10  12ENDBRANCH   5  10ENDBRANCH   2   4ENDBRANCH   1   2BRANCH   1  23ATOM     23  C   UNL     1      32.591  42.197  17.546 -0.27 -0.06    +0.200 CG0ATOM     24  G   UNL     1      34.000  42.653  17.924 +0.00 +0.00    +0.000 G0 BRANCH  23  25ATOM     25  C   UNL     1      31.539  43.325  17.540 -0.25 -0.03    +0.137 C  BRANCH  25  26ATOM     26  C   UNL     1      31.870  44.506  16.606 -0.29 -0.04    +0.109 C  BRANCH  26  27ATOM     27  N   UNL     1      33.056  45.271  16.997 -0.17 +0.20    -0.315 NA ATOM     28  H   UNL     1      32.886  46.254  16.784 -0.39 -0.16    +0.122 HD BRANCH  27  29ATOM     29  C   UNL     1      33.455  45.161  18.404 -0.42 -0.03    +0.081 C  BRANCH  29  30ATOM     30  C   UNL     1      34.098  43.850  18.873 -0.42 -0.00    +0.019 C  BRANCH  30  31ATOM     31  C   UNL     1      34.002  42.658  17.913 -0.40 -0.01    +0.049 CG0ATOM     32  G   UNL     1      32.593  42.198  17.540 +0.00 +0.00    +0.000 G0 ENDBRANCH  30  31ENDBRANCH  29  30ENDBRANCH  27  29ENDBRANCH  26  27ENDBRANCH  25  26BRANCH  25  33ATOM     33  N   UNL     1      30.228  42.759  17.195 -0.07 +0.08    -0.344 N  ATOM     34  C   UNL     1      29.172  43.541  16.799 -0.15 -0.07    +0.251 C  ATOM     35  H   UNL     1      30.222  41.775  16.960 +0.09 -0.04    +0.164 HD ATOM     36  O   UNL     1      29.208  44.764  16.745 -0.18 +0.03    -0.269 OA BRANCH  34  37ATOM     37  C   UNL     1      27.939  42.816  16.412 -0.21 -0.02    +0.042 A  ATOM     38  C   UNL     1      26.780  43.025  17.156 -0.23 -0.01    +0.034 A  ATOM     39  C   UNL     1      27.934  41.910  15.353 -0.17 -0.02    +0.034 A  ATOM     40  C   UNL     1      25.643  42.329  16.789 -0.22 -0.01    +0.112 A  ATOM     41  C   UNL     1      26.746  41.260  15.071 -0.25 -0.05    +0.112 A  ATOM     42  N   UNL     1      25.601  41.455  15.760 -0.18 +0.04    -0.265 NA ENDBRANCH  34  37ENDBRANCH  25  33ENDBRANCH  23  25ENDBRANCH   1  23TORSDOF 9TERENDMDL