MODEL        8USER    Run = 8USERUSER    Estimated Free Energy of Binding    = -13.54 kcal/mol  [=(1)+(2)+(3)-(4)]USERUSER    (1) Final Intermolecular Energy     = -15.33 kcal/molUSER        vdW + Hbond + desolv Energy     = -15.19 kcal/molUSER        Electrostatic Energy            =  -0.14 kcal/molUSER        Moving Ligand-Fixed Receptor    = -15.33 kcal/molUSER        Moving Ligand-Moving Receptor   =  +0.00 kcal/molUSER    (2) Final Total Internal Energy     =  -2.68 kcal/molUSER    (3) Torsional Free Energy           =  +1.79 kcal/molUSER    (4) Unbound System's Energy         =  -2.68 kcal/molUSERUSERREMARK SMILES Oc1nc2ccccc2n1C1CCN(Cc2ccc(-c3nc4ccccc4nc3-c3ccccc3)cc2)CC1REMARK SMILES IDX 11 1 12 2 13 3 14 4 38 5 39 6 10 7 2 8 3 9 4 10 9 11 5 12REMARK SMILES IDX 8 13 6 14 7 15 1 16 15 18 16 19 17 20 37 21 18 22 36 23REMARK SMILES IDX 19 24 20 25 21 26 29 27 22 28 28 29 23 30 27 31 24 32 26 33REMARK SMILES IDX 25 34 30 35 31 36 35 37 32 38 34 39 33 40REMARK H PARENT 1 17USER                              x       y       z     vdW  Elec       q    TypeUSER                           _______ _______ _______ _____ _____    ______ ____ROOTATOM      1  C   UNL     1      38.542  47.227  15.325 -0.45 -0.04    +0.095 C  ATOM      2  C   UNL     1      37.662  48.429  14.943 -0.58 -0.03    +0.041 C  ATOM      3  C   UNL     1      37.124  48.311  13.518 -0.55 -0.04    +0.087 C  ATOM      4  N   UNL     1      36.630  46.972  13.180 -0.34 +0.14    -0.299 NA ATOM      5  C   UNL     1      37.644  45.923  13.375 -0.42 -0.03    +0.087 C  ATOM      6  C   UNL     1      38.913  46.379  14.103 -0.38 -0.01    +0.041 C  ENDROOTBRANCH   1   7ATOM      7  N   UNL     1      39.697  47.610  16.123 -0.27 +0.08    -0.291 N  ATOM      8  C   UNL     1      40.509  48.689  15.911 -0.34 -0.07    +0.295 A  ATOM      9  N   UNL     1      41.467  48.796  16.789 -0.94 -0.00    -0.195 NA ATOM     10  C   UNL     1      41.272  47.733  17.637 -0.45 -0.01    +0.092 A  ATOM     11  C   UNL     1      40.166  46.970  17.252 -0.45 -0.01    +0.072 A  ATOM     12  C   UNL     1      42.005  47.359  18.774 -0.50 +0.00    +0.031 A  ATOM     13  C   UNL     1      39.751  45.836  17.964 -0.43 -0.00    +0.029 A  ATOM     14  C   UNL     1      41.606  46.228  19.495 -0.45 +0.00    +0.002 A  ATOM     15  C   UNL     1      40.498  45.481  19.095 -0.45 +0.00    +0.002 A  BRANCH   8  16ATOM     16  O   UNL     1      40.361  49.560  14.934 -0.21 +0.21    -0.480 OA ATOM     17  H   UNL     1      39.706  50.171  15.319 -0.19 -0.23    +0.296 HD ENDBRANCH   8  16ENDBRANCH   1   7BRANCH   4  18ATOM     18  C   UNL     1      35.355  46.621  13.831 -0.44 -0.09    +0.120 C  BRANCH  18  19ATOM     19  C   UNL     1      35.520  45.920  15.162 -0.35 +0.03    -0.034 A  ATOM     20  C   UNL     1      35.534  46.648  16.357 -0.23 -0.01    +0.006 A  ATOM     21  C   UNL     1      35.678  44.529  15.218 -0.30 -0.00    +0.006 A  ATOM     22  C   UNL     1      35.683  45.993  17.584 -0.36 -0.01    +0.011 A  ATOM     23  C   UNL     1      35.825  43.878  16.446 -0.36 -0.00    +0.011 A  ATOM     24  C   UNL     1      35.814  44.596  17.653 -0.31 -0.00    +0.002 A  BRANCH  24  25ATOM     25  C   UNL     1      35.950  43.924  18.956 -0.29 -0.02    +0.097 A  ATOM     26  N   UNL     1      37.102  44.236  19.617 -0.22 +0.02    -0.244 NA ATOM     27  C   UNL     1      35.020  43.024  19.500 -0.35 -0.01    +0.097 A  ATOM     28  C   UNL     1      37.329  43.621  20.791 -0.33 -0.00    +0.089 A  ATOM     29  N   UNL     1      35.265  42.396  20.687 -0.32 -0.01    -0.244 NA ATOM     30  C   UNL     1      38.496  43.898  21.494 -0.30 +0.00    +0.030 A  ATOM     31  C   UNL     1      36.408  42.695  21.326 -0.40 +0.00    +0.089 A  ATOM     32  C   UNL     1      38.772  43.280  22.715 -0.30 +0.00    +0.002 A  ATOM     33  C   UNL     1      36.692  42.084  22.542 -0.49 +0.00    +0.030 A  ATOM     34  C   UNL     1      37.866  42.369  23.241 -0.36 +0.00    +0.002 A  BRANCH  27  35ATOM     35  C   UNL     1      33.719  42.677  18.899 -0.39 -0.00    +0.002 A  ATOM     36  C   UNL     1      33.548  41.448  18.237 -0.37 -0.00    +0.010 A  ATOM     37  C   UNL     1      32.605  43.531  18.988 -0.39 -0.00    +0.010 A  ATOM     38  C   UNL     1      32.322  41.096  17.664 -0.36 -0.00    +0.001 A  ATOM     39  C   UNL     1      31.380  43.184  18.412 -0.28 -0.00    +0.001 A  ATOM     40  C   UNL     1      31.239  41.968  17.748 -0.30 -0.00    +0.000 A  ENDBRANCH  27  35ENDBRANCH  24  25ENDBRANCH  18  19ENDBRANCH   4  18TORSDOF 6TERENDMDL