MODEL        9USER    Run = 9USERUSER    Estimated Free Energy of Binding    = -12.20 kcal/mol  [=(1)+(2)+(3)-(4)]USERUSER    (1) Final Intermolecular Energy     = -13.99 kcal/molUSER        vdW + Hbond + desolv Energy     = -13.76 kcal/molUSER        Electrostatic Energy            =  -0.23 kcal/molUSER        Moving Ligand-Fixed Receptor    = -13.99 kcal/molUSER        Moving Ligand-Moving Receptor   =  +0.00 kcal/molUSER    (2) Final Total Internal Energy     =  -2.07 kcal/molUSER    (3) Torsional Free Energy           =  +1.79 kcal/molUSER    (4) Unbound System's Energy         =  -2.07 kcal/molUSERUSERREMARK SMILES Oc1nc2ccccc2n1C1CCN(Cc2ccc(-c3cc4ccccc4nc3-c3ccccc3)cc2)CC1REMARK SMILES IDX 11 1 12 2 13 3 14 4 38 5 39 6 10 7 2 8 3 9 4 10 9 11 5 12REMARK SMILES IDX 8 13 6 14 7 15 1 16 15 18 16 19 17 20 37 21 18 22 36 23REMARK SMILES IDX 19 24 20 25 21 26 29 27 22 28 28 29 23 30 27 31 24 32 26 33REMARK SMILES IDX 25 34 30 35 31 36 35 37 32 38 34 39 33 40REMARK H PARENT 1 17USER                              x       y       z     vdW  Elec       q    TypeUSER                           _______ _______ _______ _____ _____    ______ ____ROOTATOM      1  C   UNL     1      26.036  41.502  17.131 -0.25 -0.01    +0.095 C  ATOM      2  C   UNL     1      27.567  41.481  17.248 -0.23 -0.00    +0.041 C  ATOM      3  C   UNL     1      28.180  42.767  17.793 -0.18 -0.01    +0.087 C  ATOM      4  N   UNL     1      27.641  43.990  17.194 -0.10 +0.04    -0.299 NA ATOM      5  C   UNL     1      26.190  44.066  17.388 -0.38 -0.00    +0.087 C  ATOM      6  C   UNL     1      25.415  42.875  16.830 -0.35 -0.00    +0.041 C  ENDROOTBRANCH   1   7ATOM      7  N   UNL     1      25.346  40.744  18.173 -0.11 +0.02    -0.291 N  ATOM      8  C   UNL     1      24.911  39.451  18.003 -0.14 -0.04    +0.295 A  ATOM      9  N   UNL     1      24.294  38.964  19.041 -0.27 +0.11    -0.195 NA ATOM     10  C   UNL     1      24.324  39.981  19.956 -0.29 -0.03    +0.092 A  ATOM     11  C   UNL     1      24.984  41.112  19.453 -0.28 -0.01    +0.072 A  ATOM     12  C   UNL     1      23.796  39.997  21.258 -0.35 -0.01    +0.031 A  ATOM     13  C   UNL     1      25.139  42.264  20.233 -0.45 -0.01    +0.029 A  ATOM     14  C   UNL     1      23.943  41.147  22.037 -0.55 -0.00    +0.002 A  ATOM     15  C   UNL     1      24.607  42.260  21.529 -0.61 -0.00    +0.002 A  BRANCH   8  16ATOM     16  O   UNL     1      25.079  38.734  16.910 -0.76 -0.04    -0.480 OA ATOM     17  H   UNL     1      24.179  38.387  16.774 -0.24 -0.17    +0.296 HD ENDBRANCH   8  16ENDBRANCH   1   7BRANCH   4  18ATOM     18  C   UNL     1      28.064  44.157  15.793 -0.24 -0.06    +0.120 C  BRANCH  18  19ATOM     19  C   UNL     1      29.532  44.499  15.651 -0.29 +0.02    -0.034 A  ATOM     20  C   UNL     1      29.970  45.828  15.700 -0.34 -0.00    +0.006 A  ATOM     21  C   UNL     1      30.479  43.482  15.466 -0.31 -0.00    +0.006 A  ATOM     22  C   UNL     1      31.328  46.133  15.565 -0.38 -0.01    +0.009 A  ATOM     23  C   UNL     1      31.834  43.791  15.322 -0.36 -0.00    +0.009 A  ATOM     24  C   UNL     1      32.278  45.119  15.365 -0.38 +0.01    -0.016 A  BRANCH  24  25ATOM     25  C   UNL     1      33.705  45.441  15.223 -0.28 -0.01    +0.009 A  ATOM     26  C   UNL     1      34.126  46.221  14.136 -0.18 -0.02    +0.021 A  ATOM     27  C   UNL     1      34.692  45.042  16.140 -0.26 -0.05    +0.079 A  ATOM     28  C   UNL     1      35.469  46.589  13.991 -0.46 -0.00    +0.001 A  ATOM     29  N   UNL     1      36.002  45.404  16.018 -0.17 +0.14    -0.247 NA ATOM     30  C   UNL     1      35.912  47.372  12.910 -0.60 -0.01    +0.010 A  ATOM     31  C   UNL     1      36.379  46.153  14.970 -0.34 -0.04    +0.071 A  ATOM     32  C   UNL     1      37.255  47.725  12.798 -0.50 -0.00    +0.001 A  ATOM     33  C   UNL     1      37.713  46.520  14.837 -0.39 -0.01    +0.029 A  ATOM     34  C   UNL     1      38.159  47.298  13.765 -0.49 -0.00    +0.002 A  BRANCH  27  35ATOM     35  C   UNL     1      34.428  44.197  17.320 -0.30 -0.00    +0.001 A  ATOM     36  C   UNL     1      34.608  42.804  17.253 -0.39 -0.00    +0.010 A  ATOM     37  C   UNL     1      33.972  44.742  18.532 -0.39 -0.00    +0.010 A  ATOM     38  C   UNL     1      34.365  41.990  18.363 -0.40 -0.00    +0.001 A  ATOM     39  C   UNL     1      33.728  43.930  19.643 -0.42 -0.00    +0.001 A  ATOM     40  C   UNL     1      33.929  42.554  19.559 -0.36 +0.00    +0.000 A  ENDBRANCH  27  35ENDBRANCH  24  25ENDBRANCH  18  19ENDBRANCH   4  18TORSDOF 6TERENDMDL