MODEL        7USER    Run = 7USERUSER    Estimated Free Energy of Binding    =  -7.56 kcal/mol  [=(1)+(2)+(3)-(4)]USERUSER    (1) Final Intermolecular Energy     = -12.03 kcal/molUSER        vdW + Hbond + desolv Energy     = -12.43 kcal/molUSER        Electrostatic Energy            =  +0.13 kcal/molUSER        Moving Ligand-Fixed Receptor    = -12.30 kcal/molUSER        Moving Ligand-Moving Receptor   =  +0.27 kcal/molUSER    (2) Final Total Internal Energy     =  -2.04 kcal/molUSER    (3) Torsional Free Energy           =  +4.47 kcal/molUSER    (4) Unbound System's Energy         =  -2.04 kcal/molUSERUSERREMARK SMILES COc1ccc(O)c(C(=O)c2ccc(/C=C/[C@@H]3CCCNC[C@H]3NC(=O)c3ccncc3)cc2)c1FREMARK SMILES IDX 16 1 15 2 14 3 11 4 12 5 34 6 13 7 33 8 9 9 10 10 8 11 3 12REMARK SMILES IDX 4 13 35 14 5 15 6 16 36 17 2 18 1 19 7 20 17 22 18 23 23 25REMARK SMILES IDX 22 26 21 27 20 29 19 30 24 32 25 33 26 35 27 36 28 37 32 38REMARK SMILES IDX 29 39 31 40 30 41REMARK H PARENT 7 21 21 28 24 34REMARK Flexibility Score:   99.900USER                              x       y       z     vdW  Elec       q    TypeUSER                           _______ _______ _______ _____ _____    ______ ____ROOTATOM      1  C   UNL     1      36.798  44.899  18.885 -0.32 +0.00    -0.021 C  ENDROOTBRANCH   1   2ATOM      2  C   UNL     1      37.695  44.164  19.561 -0.40 -0.00    +0.004 C  BRANCH   2   3ATOM      3  C   UNL     1      37.438  43.591  20.887 -0.36 -0.00    -0.026 A  ATOM      4  C   UNL     1      36.986  42.426  23.402 -0.42 +0.00    +0.023 A  ATOM      5  C   UNL     1      37.025  41.623  22.258 -0.54 +0.00    +0.013 A  ATOM      6  C   UNL     1      37.210  43.802  23.298 -0.33 +0.00    +0.013 A  ATOM      7  C   UNL     1      37.256  42.207  21.007 -0.27 +0.00    +0.009 A  ATOM      8  C   UNL     1      37.427  44.381  22.045 -0.37 +0.00    +0.009 A  BRANCH   4   9ATOM      9  C   UNL     1      36.777  41.842  24.743 -0.27 -0.01    +0.199 C  ATOM     10  O   UNL     1      35.673  41.371  25.021 -0.23 +0.07    -0.288 OA BRANCH   9  11ATOM     11  C   UNL     1      37.821  41.843  25.793 -0.24 -0.01    +0.104 A  ATOM     12  C   UNL     1      40.078  42.360  26.560 -0.14 -0.01    +0.155 A  ATOM     13  C   UNL     1      39.771  41.825  27.811 -0.28 -0.00    +0.053 A  ATOM     14  C   UNL     1      39.097  42.361  25.557 -0.08 +0.00    +0.179 A  ATOM     15  C   UNL     1      38.507  41.277  28.048 -0.37 -0.00    +0.051 A  ATOM     16  C   UNL     1      37.547  41.275  27.042 -0.36 -0.02    +0.130 A  ATOM     17  F   UNL     1      39.416  42.844  24.345 -0.04 -0.01    -0.202 F  BRANCH  12  18ATOM     18  O   UNL     1      41.283  42.904  26.204 -0.04 +0.03    -0.494 OA ATOM     19  C   UNL     1      41.340  44.316  26.048 -0.04 +0.00    +0.278 C  ENDBRANCH  12  18BRANCH  16  20ATOM     20  O   UNL     1      36.346  40.692  27.349 -0.24 +0.19    -0.507 OA ATOM     21  H   UNL     1      36.095  40.107  26.598 -0.31 -0.18    +0.293 HD ENDBRANCH  16  20ENDBRANCH   9  11ENDBRANCH   4   9ENDBRANCH   2   3ENDBRANCH   1   2BRANCH   1  22ATOM     22  C   UNL     1      35.487  44.392  18.289 -0.36 -0.01    +0.035 C  BRANCH  22  23ATOM     23  C   UNL     1      34.709  43.714  19.434 -0.46 -0.00    +0.011 CG0ATOM     24  G   UNL     1      34.568  42.196  19.416 +0.00 +0.00    +0.000 G0 ENDBRANCH  22  23BRANCH  22  25ATOM     25  C   UNL     1      35.597  43.531  16.994 -0.35 -0.04    +0.103 C  BRANCH  25  26ATOM     26  C   UNL     1      34.212  42.951  16.584 -0.38 -0.05    +0.106 C  BRANCH  26  27ATOM     27  N   UNL     1      33.825  41.652  17.123 -0.16 +0.16    -0.315 NA ATOM     28  H   UNL     1      34.570  40.977  16.944 -0.52 -0.10    +0.122 HD BRANCH  27  29ATOM     29  C   UNL     1      33.462  41.648  18.531 -0.38 -0.01    +0.081 C  BRANCH  29  30ATOM     30  C   UNL     1      34.572  42.195  19.416 -0.44 -0.00    +0.016 CG0ATOM     31  G   UNL     1      34.710  43.714  19.434 +0.00 +0.00    +0.000 G0 ENDBRANCH  29  30ENDBRANCH  27  29ENDBRANCH  26  27ENDBRANCH  25  26BRANCH  25  32ATOM     32  N   UNL     1      36.120  44.322  15.870 -0.13 +0.14    -0.347 N  ATOM     33  C   UNL     1      35.622  45.569  15.564 -0.23 -0.17    +0.251 C  ATOM     34  H   UNL     1      36.984  44.015  15.442 +0.10 -0.05    +0.164 HD ATOM     35  O   UNL     1      34.717  46.109  16.187 -0.20 +0.32    -0.269 OA BRANCH  33  36ATOM     36  C   UNL     1      36.270  46.271  14.429 -0.39 -0.03    +0.042 A  ATOM     37  C   UNL     1      36.937  47.484  14.601 -0.44 -0.02    +0.034 A  ATOM     38  C   UNL     1      36.233  45.673  13.171 -0.46 -0.02    +0.034 A  ATOM     39  C   UNL     1      37.519  48.062  13.488 -0.43 -0.04    +0.112 A  ATOM     40  C   UNL     1      36.843  46.333  12.121 -0.55 -0.04    +0.112 A  ATOM     41  N   UNL     1      37.476  47.519  12.251 -0.96 +0.04    -0.265 NA ENDBRANCH  33  36ENDBRANCH  25  32ENDBRANCH  22  25ENDBRANCH   1  22TORSDOF 9TERENDMDL