MODEL        2USER    Run = 2USERUSER    Estimated Free Energy of Binding    =  -7.18 kcal/mol  [=(1)+(2)+(3)-(4)]USERUSER    (1) Final Intermolecular Energy     = -11.36 kcal/molUSER        vdW + Hbond + desolv Energy     = -11.76 kcal/molUSER        Electrostatic Energy            =  -0.29 kcal/molUSER        Moving Ligand-Fixed Receptor    = -12.05 kcal/molUSER        Moving Ligand-Moving Receptor   =  +0.69 kcal/molUSER    (2) Final Total Internal Energy     =  -2.73 kcal/molUSER    (3) Torsional Free Energy           =  +4.18 kcal/molUSER    (4) Unbound System's Energy         =  -2.73 kcal/molUSERUSERREMARK SMILES COc1ccc(O)c(C(=O)c2ccc(C(=O)N[C@@H]3CCCNC[C@H]3NC(=O)c3ccncc3)cc2)c1FREMARK SMILES IDX 15 1 16 2 17 3 14 5 11 6 12 7 35 8 13 9 34 10 9 11 10 12REMARK SMILES IDX 8 13 3 14 4 15 36 16 5 17 6 18 37 19 2 20 1 21 7 22 18 24REMARK SMILES IDX 19 25 24 27 23 28 22 29 21 31 20 32 25 34 26 35 27 37 28 38REMARK SMILES IDX 29 39 33 40 30 41 32 42 31 43REMARK H PARENT 17 4 7 23 22 30 25 36REMARK Flexibility Score:   88.900USER                              x       y       z     vdW  Elec       q    TypeUSER                           _______ _______ _______ _____ _____    ______ ____ROOTATOM      1  C   UNL     1      39.554  45.931  16.210 -0.21 -0.04    +0.251 C  ATOM      2  O   UNL     1      40.198  45.938  15.167 -0.33 +0.02    -0.269 OA ATOM      3  N   UNL     1      38.175  45.907  16.249 -0.13 +0.12    -0.347 N  ATOM      4  H   UNL     1      37.722  46.112  17.130 +0.10 -0.06    +0.164 HD ENDROOTBRANCH   1   5ATOM      5  C   UNL     1      40.251  46.026  17.523 -0.44 -0.00    +0.039 A  ATOM      6  C   UNL     1      41.553  46.345  19.986 -0.38 +0.00    +0.023 A  ATOM      7  C   UNL     1      41.805  47.238  18.940 -0.45 +0.00    +0.013 A  ATOM      8  C   UNL     1      40.651  45.291  19.801 -0.40 +0.00    +0.013 A  ATOM      9  C   UNL     1      41.164  47.072  17.708 -0.48 -0.00    +0.014 A  ATOM     10  C   UNL     1      40.008  45.124  18.567 -0.43 -0.00    +0.014 A  BRANCH   6  11ATOM     11  C   UNL     1      42.193  46.610  21.293 -0.27 +0.04    +0.199 C  ATOM     12  O   UNL     1      43.399  46.382  21.404 -0.24 -0.13    -0.288 OA BRANCH  11  13ATOM     13  C   UNL     1      41.486  47.177  22.464 -0.01 +0.01    +0.104 A  ATOM     14  C   UNL     1      39.631  47.198  24.051 -0.23 +0.02    +0.155 A  ATOM     15  C   UNL     1      40.200  48.297  24.703 -0.29 +0.01    +0.053 A  ATOM     16  C   UNL     1      40.284  46.646  22.936 -0.11 +0.02    +0.179 A  ATOM     17  C   UNL     1      41.416  48.820  24.256 -0.34 +0.01    +0.051 A  ATOM     18  C   UNL     1      42.057  48.255  23.157 -0.19 +0.02    +0.130 A  ATOM     19  F   UNL     1      39.743  45.568  22.345 -0.07 -0.01    -0.202 F  BRANCH  14  20ATOM     20  O   UNL     1      38.456  46.590  24.404 -0.25 -0.07    -0.494 OA ATOM     21  C   UNL     1      37.716  47.177  25.471 -0.24 +0.02    +0.278 C  ENDBRANCH  14  20BRANCH  18  22ATOM     22  O   UNL     1      43.259  48.814  22.811 -0.68 -0.14    -0.507 OA ATOM     23  H   UNL     1      43.472  48.511  21.896 -0.38 +0.01    +0.293 HD ENDBRANCH  18  22ENDBRANCH  11  13ENDBRANCH   6  11ENDBRANCH   1   5BRANCH   3  24ATOM     24  C   UNL     1      37.383  46.095  15.027 -0.37 -0.05    +0.106 C  BRANCH  24  25ATOM     25  C   UNL     1      38.001  47.212  14.175 -0.53 -0.01    +0.028 CG0ATOM     26  G   UNL     1      37.783  47.091  12.658 +0.00 +0.00    +0.000 G0 ENDBRANCH  24  25BRANCH  24  27ATOM     27  C   UNL     1      35.887  46.326  15.381 -0.35 -0.10    +0.118 C  BRANCH  27  28ATOM     28  C   UNL     1      34.952  46.524  14.164 -0.34 -0.10    +0.108 C  BRANCH  28  29ATOM     29  N   UNL     1      35.459  46.102  12.855 -0.24 +0.18    -0.315 NA ATOM     30  H   UNL     1      35.922  45.200  12.937 +0.08 -0.05    +0.122 HD BRANCH  29  31ATOM     31  C   UNL     1      36.335  47.045  12.169 -0.69 -0.04    +0.081 C  BRANCH  31  32ATOM     32  C   UNL     1      37.780  47.091  12.660 -0.50 -0.00    +0.017 CG0ATOM     33  G   UNL     1      37.995  47.219  14.177 +0.00 +0.00    +0.000 G0 ENDBRANCH  31  32ENDBRANCH  29  31ENDBRANCH  28  29ENDBRANCH  27  28BRANCH  27  34ATOM     34  N   UNL     1      35.400  45.245  16.249 -0.10 +0.21    -0.346 N  ATOM     35  C   UNL     1      35.400  45.368  17.619 -0.24 -0.13    +0.251 C  ATOM     36  H   UNL     1      34.819  44.541  15.823 +0.12 -0.09    +0.164 HD ATOM     37  O   UNL     1      35.877  46.324  18.216 -0.08 +0.13    -0.269 OA BRANCH  35  38ATOM     38  C   UNL     1      34.749  44.271  18.378 -0.31 -0.01    +0.042 A  ATOM     39  C   UNL     1      35.535  43.196  18.792 -0.34 -0.01    +0.034 A  ATOM     40  C   UNL     1      33.382  44.277  18.659 -0.36 -0.01    +0.034 A  ATOM     41  C   UNL     1      34.923  42.177  19.494 -0.31 -0.01    +0.112 A  ATOM     42  C   UNL     1      32.864  43.207  19.367 -0.34 -0.00    +0.112 A  ATOM     43  N   UNL     1      33.606  42.161  19.795 -0.40 -0.04    -0.265 NA ENDBRANCH  35  38ENDBRANCH  27  34ENDBRANCH  24  27ENDBRANCH   3  24TORSDOF 8TERENDMDL