REMARK SMILES O=C(C1=CC=C(c2ccncc2NCc2ccc(F)cc2-c2nnn[nH]2)[C@@H]1F)N1CCOCC1
REMARK SMILES IDX 13 1 12 3 7 4 8 5 9 6 11 7 10 8 6 9 3 10 4 11 27 12 5 13
REMARK SMILES IDX 28 14 2 15 29 16 30 17 34 18 31 19 33 20 32 21 1 22 14 23
REMARK SMILES IDX 15 24 16 25 21 26 17 27 20 28 18 29 19 30 22 31 23 32 26 33
REMARK SMILES IDX 24 34 25 35
REMARK H PARENT 13 2 26 36
ROOT
ATOM      1  N   UNL     1       2.073   2.156  -1.696  1.00  0.00    -0.379 N 
ATOM      2  H   UNL     1       1.147   2.416  -1.373  1.00  0.00     0.160 HD
ENDROOT
BRANCH   1   3
ATOM      3  C   UNL     1       2.104   0.843  -2.208  1.00  0.00     0.061 A 
ATOM      4  C   UNL     1       1.008  -0.041  -2.096  1.00  0.00     0.007 A 
ATOM      5  C   UNL     1       1.150  -1.363  -2.535  1.00  0.00     0.031 A 
ATOM      6  C   UNL     1       2.357  -1.769  -3.073  1.00  0.00     0.112 A 
ATOM      7  C   UNL     1       3.258   0.326  -2.802  1.00  0.00     0.137 A 
ATOM      8  N   UNL     1       3.423  -0.959  -3.197  1.00  0.00    -0.263 NA
BRANCH   4   9
ATOM      9  C   UNL     1      -0.268   0.346  -1.489  1.00  0.00     0.000 C 
ATOM     10  C   UNL     1      -2.103   0.420  -0.083  1.00  0.00     0.056 C 
ATOM     11  C   UNL     1      -2.200   1.427  -0.963  1.00  0.00     0.013 C 
ATOM     12  C   UNL     1      -0.881  -0.397  -0.323  1.00  0.00     0.233 C 
ATOM     13  C   UNL     1      -1.072   1.361  -1.859  1.00  0.00     0.008 C 
ATOM     14  F   UNL     1      -1.216  -1.672  -0.672  1.00  0.00    -0.237 F 
BRANCH  10  15
ATOM     15  C   UNL     1      -2.959   0.201   1.079  1.00  0.00     0.253 C 
ATOM     16  N   UNL     1      -4.103  -0.541   0.883  1.00  0.00    -0.334 N 
ATOM     17  C   UNL     1      -4.963  -0.842   2.029  1.00  0.00     0.148 C 
ATOM     18  C   UNL     1      -4.494  -1.178  -0.382  1.00  0.00     0.148 C 
ATOM     19  C   UNL     1      -5.609  -2.222   1.879  1.00  0.00     0.181 C 
ATOM     20  C   UNL     1      -5.989  -1.512  -0.390  1.00  0.00     0.181 C 
ATOM     21  O   UNL     1      -6.384  -2.378   0.679  1.00  0.00    -0.378 OA
ATOM     22  O   UNL     1      -2.627   0.691   2.154  1.00  0.00    -0.269 OA
ENDBRANCH  10  15
ENDBRANCH   4   9
ENDBRANCH   1   3
BRANCH   1  23
ATOM     23  C   UNL     1       3.086   2.485  -0.677  1.00  0.00     0.149 C 
BRANCH  23  24
ATOM     24  C   UNL     1       2.856   1.687   0.595  1.00  0.00    -0.018 A 
ATOM     25  C   UNL     1       1.693   1.946   1.352  1.00  0.00     0.009 A 
ATOM     26  C   UNL     1       3.744   0.675   1.029  1.00  0.00     0.029 A 
ATOM     27  C   UNL     1       1.408   1.207   2.499  1.00  0.00     0.039 A 
ATOM     28  C   UNL     1       3.444  -0.062   2.185  1.00  0.00     0.051 A 
ATOM     29  C   UNL     1       2.284   0.207   2.902  1.00  0.00     0.123 A 
ATOM     30  F   UNL     1       2.014  -0.506   4.004  1.00  0.00    -0.207 F 
BRANCH  26  31
ATOM     31  C   UNL     1       5.000   0.412   0.348  1.00  0.00     0.179 A 
ATOM     32  N   UNL     1       6.079   1.169   0.350  1.00  0.00    -0.109 NA
ATOM     33  N   UNL     1       5.252  -0.672  -0.451  1.00  0.00    -0.239 N 
ATOM     34  N   UNL     1       7.000   0.530  -0.443  1.00  0.00    -0.024 NA
ATOM     35  N   UNL     1       6.504  -0.599  -0.931  1.00  0.00    -0.048 NA
ATOM     36  H   UNL     1       4.628  -1.414  -0.765  1.00  0.00     0.194 HD
ENDBRANCH  26  31
ENDBRANCH  23  24
ENDBRANCH   1  23
TORSDOF 6
