MODEL        6USER    Run = 6USERUSER    Estimated Free Energy of Binding    = -10.38 kcal/mol  [=(1)+(2)+(3)-(4)]USERUSER    (1) Final Intermolecular Energy     = -12.77 kcal/molUSER        vdW + Hbond + desolv Energy     = -12.71 kcal/molUSER        Electrostatic Energy            =  -0.07 kcal/molUSER        Moving Ligand-Fixed Receptor    = -12.77 kcal/molUSER        Moving Ligand-Moving Receptor   =  +0.00 kcal/molUSER    (2) Final Total Internal Energy     =  -2.02 kcal/molUSER    (3) Torsional Free Energy           =  +2.39 kcal/molUSER    (4) Unbound System's Energy         =  -2.02 kcal/molUSERUSERREMARK SMILES O=C(c1ccc(-c2ccncc2NCCc2ccc(F)cc2-c2nnn[nH]2)cc1O)N1CCOCC1REMARK SMILES IDX 13 1 12 3 7 4 8 5 9 6 11 7 10 8 6 9 3 10 4 11 29 12 5 13REMARK SMILES IDX 28 14 2 15 31 16 32 17 36 18 33 19 35 20 34 21 1 22 30 23REMARK SMILES IDX 14 25 15 26 16 27 17 28 22 29 18 30 21 31 19 32 20 33 23 34REMARK SMILES IDX 24 35 27 36 25 37 26 38REMARK H PARENT 13 2 30 24 27 39USER                              x       y       z     vdW  Elec       q    TypeUSER                           _______ _______ _______ _____ _____    ______ ____ROOTATOM      1  N   UNL     1      35.839  45.454  16.263 -0.08 +0.23    -0.383 N  ATOM      2  H   UNL     1      35.356  44.567  16.130 +0.11 -0.08    +0.160 HD ENDROOTBRANCH   1   3ATOM      3  C   UNL     1      36.151  46.094  15.067 -0.34 -0.04    +0.061 A  ATOM      4  C   UNL     1      37.429  46.678  14.877 -0.41 -0.00    +0.008 A  ATOM      5  C   UNL     1      37.705  47.344  13.668 -0.50 -0.01    +0.031 A  ATOM      6  C   UNL     1      36.727  47.420  12.696 -0.56 -0.04    +0.112 A  ATOM      7  C   UNL     1      35.235  46.291  14.029 -0.32 -0.10    +0.137 A  ATOM      8  N   UNL     1      35.502  46.890  12.840 -0.38 +0.17    -0.263 NA BRANCH   4   9ATOM      9  C   UNL     1      38.495  46.619  15.900 -0.40 +0.00    -0.012 A  ATOM     10  C   UNL     1      40.512  46.504  17.878 -0.44 -0.01    +0.081 A  ATOM     11  C   UNL     1      39.573  45.475  17.771 -0.40 -0.00    +0.018 A  ATOM     12  C   UNL     1      40.481  47.553  16.952 -0.42 -0.02    +0.128 A  ATOM     13  C   UNL     1      38.570  45.539  16.798 -0.36 -0.00    +0.010 A  ATOM     14  C   UNL     1      39.476  47.619  15.985 -0.46 -0.02    +0.055 A  BRANCH  10  15ATOM     15  C   UNL     1      41.575  46.467  18.911 -0.37 +0.01    +0.257 C  ATOM     16  N   UNL     1      41.354  45.825  20.123 -0.18 -0.03    -0.334 N  ATOM     17  C   UNL     1      42.475  45.709  21.057 -0.24 +0.04    +0.148 C  ATOM     18  C   UNL     1      40.029  45.560  20.709 -0.30 +0.01    +0.148 C  ATOM     19  C   UNL     1      42.157  44.714  22.176 -0.20 +0.03    +0.181 C  ATOM     20  C   UNL     1      40.029  45.841  22.217 -0.23 +0.01    +0.181 C  ATOM     21  O   UNL     1      41.003  45.079  22.945 -0.04 -0.03    -0.378 OA ATOM     22  O   UNL     1      42.631  47.044  18.645 -0.44 -0.02    -0.269 OA ENDBRANCH  10  15BRANCH  12  23ATOM     23  O   UNL     1      41.419  48.551  16.935 -0.69 +0.01    -0.507 OA ATOM     24  H   UNL     1      42.303  48.125  16.877 -0.27 +0.01    +0.293 HD ENDBRANCH  12  23ENDBRANCH   4   9ENDBRANCH   1   3BRANCH   1  25ATOM     25  C   UNL     1      35.506  46.119  17.517 -0.35 -0.08    +0.118 C  BRANCH  25  26ATOM     26  C   UNL     1      33.997  46.155  17.801 -0.45 -0.05    +0.057 C  BRANCH  26  27ATOM     27  C   UNL     1      33.203  45.069  17.097 -0.30 +0.02    -0.035 A  ATOM     28  C   UNL     1      32.305  45.479  16.085 -0.32 -0.00    +0.007 A  ATOM     29  C   UNL     1      33.339  43.691  17.376 -0.29 -0.01    +0.027 A  ATOM     30  C   UNL     1      31.555  44.549  15.367 -0.36 -0.02    +0.039 A  ATOM     31  C   UNL     1      32.565  42.768  16.647 -0.26 -0.02    +0.051 A  ATOM     32  C   UNL     1      31.690  43.203  15.658 -0.27 -0.06    +0.123 A  ATOM     33  F   UNL     1      30.966  42.303  14.979 -0.07 +0.13    -0.207 F  BRANCH  29  34ATOM     34  C   UNL     1      34.263  43.169  18.378 -0.23 -0.04    +0.179 A  ATOM     35  N   UNL     1      34.584  43.675  19.556 -0.37 +0.01    -0.109 NA ATOM     36  N   UNL     1      34.977  42.011  18.227 -0.27 +0.06    -0.239 N  ATOM     37  N   UNL     1      35.478  42.799  20.125 -0.45 +0.00    -0.024 NA ATOM     38  N   UNL     1      35.708  41.767  19.324 -0.42 +0.00    -0.048 NA ATOM     39  H   UNL     1      35.038  41.399  17.424 -0.38 -0.10    +0.194 HD ENDBRANCH  29  34ENDBRANCH  26  27ENDBRANCH  25  26ENDBRANCH   1  25TORSDOF 8TERENDMDL