MODEL        2USER    Run = 2USERUSER    Estimated Free Energy of Binding    = -10.19 kcal/mol  [=(1)+(2)+(3)-(4)]USERUSER    (1) Final Intermolecular Energy     = -12.28 kcal/molUSER        vdW + Hbond + desolv Energy     = -12.22 kcal/molUSER        Electrostatic Energy            =  -0.05 kcal/molUSER        Moving Ligand-Fixed Receptor    = -12.28 kcal/molUSER        Moving Ligand-Moving Receptor   =  +0.00 kcal/molUSER    (2) Final Total Internal Energy     =  -1.26 kcal/molUSER    (3) Torsional Free Energy           =  +2.09 kcal/molUSER    (4) Unbound System's Energy         =  -1.26 kcal/molUSERUSERREMARK SMILES C[C@H](CNc1cnccc1C1=CC=C(C(=O)N2CCOCC2)[C@@H]1F)c1ccc(F)cc1C(N)=OREMARK SMILES IDX 3 1 2 2 1 3 25 4 26 5 31 6 27 7 30 8 28 9 29 10 32 11 33 12REMARK SMILES IDX 34 13 4 16 5 18 6 19 10 20 7 21 9 22 8 23 11 24 12 25 23 26REMARK SMILES IDX 13 27 14 28 24 29 15 30 17 31 18 32 22 33 19 34 21 35 20 36REMARK SMILES IDX 16 37REMARK H PARENT 33 14 33 15 4 17USER                              x       y       z     vdW  Elec       q    TypeUSER                           _______ _______ _______ _____ _____    ______ ____ROOTATOM      1  C   UNL     1      35.839  44.002  15.442 -0.33 -0.05    +0.121 C  ENDROOTBRANCH   1   2ATOM      2  C   UNL     1      36.144  43.577  16.899 -0.40 -0.01    +0.036 C  ATOM      3  C   UNL     1      37.376  44.300  17.458 -0.37 -0.00    +0.014 C  BRANCH   2   4ATOM      4  C   UNL     1      34.941  43.656  17.836 -0.30 +0.01    -0.030 A  ATOM      5  C   UNL     1      34.510  42.449  18.431 -0.40 -0.00    +0.008 A  ATOM      6  C   UNL     1      34.244  44.836  18.176 -0.34 -0.02    +0.046 A  ATOM      7  C   UNL     1      33.441  42.423  19.331 -0.35 -0.00    +0.039 A  ATOM      8  C   UNL     1      33.169  44.804  19.079 -0.37 -0.01    +0.053 A  ATOM      9  C   UNL     1      32.782  43.601  19.646 -0.35 -0.00    +0.124 A  ATOM     10  F   UNL     1      31.756  43.575  20.506 -0.10 -0.02    -0.207 F  BRANCH   6  11ATOM     11  C   UNL     1      34.554  46.154  17.583 -0.29 -0.22    +0.249 C  ATOM     12  N   UNL     1      34.279  47.237  18.366 -0.29 +0.35    -0.366 N  ATOM     13  O   UNL     1      35.006  46.262  16.453 -0.24 +0.31    -0.270 OA ATOM     14  H   UNL     1      34.507  48.151  17.997 -0.27 -0.28    +0.159 HD ATOM     15  H   UNL     1      33.989  47.163  19.331 -0.32 -0.07    +0.159 HD ENDBRANCH   6  11ENDBRANCH   2   4ENDBRANCH   1   2BRANCH   1  16ATOM     16  N   UNL     1      37.093  44.316  14.742 -0.03 +0.13    -0.383 N  ATOM     17  H   UNL     1      37.849  44.567  15.382 +0.10 -0.05    +0.160 HD BRANCH  16  18ATOM     18  C   UNL     1      37.074  45.226  13.667 -0.41 -0.02    +0.060 A  ATOM     19  C   UNL     1      36.586  44.924  12.393 -0.32 -0.05    +0.137 A  ATOM     20  C   UNL     1      37.671  46.498  13.805 -0.46 -0.00    +0.007 A  ATOM     21  N   UNL     1      36.587  45.769  11.329 -0.16 +0.09    -0.263 NA ATOM     22  C   UNL     1      37.676  47.391  12.727 -0.46 -0.01    +0.031 A  ATOM     23  C   UNL     1      37.124  46.986  11.526 -0.48 -0.03    +0.112 A  BRANCH  20  24ATOM     24  C   UNL     1      38.321  46.920  15.045 -0.50 -0.00    +0.000 C  ATOM     25  C   UNL     1      37.757  46.963  16.264 -0.44 -0.00    +0.008 C  ATOM     26  C   UNL     1      39.765  47.344  15.122 -0.38 -0.05    +0.233 C  ATOM     27  C   UNL     1      38.744  47.383  17.226 -0.14 -0.01    +0.013 C  ATOM     28  C   UNL     1      39.900  47.616  16.582 -0.53 -0.01    +0.056 C  ATOM     29  F   UNL     1      39.960  48.484  14.404 -0.13 +0.07    -0.237 F  BRANCH  28  30ATOM     30  C   UNL     1      41.202  47.944  17.166 -0.35 -0.03    +0.253 C  ATOM     31  N   UNL     1      41.692  47.114  18.157 -0.30 +0.02    -0.334 N  ATOM     32  C   UNL     1      42.952  47.468  18.816 -0.47 +0.01    +0.148 C  ATOM     33  C   UNL     1      40.916  46.064  18.832 -0.43 +0.00    +0.148 C  ATOM     34  C   UNL     1      42.828  47.319  20.336 -0.30 +0.03    +0.181 C  ATOM     35  C   UNL     1      41.797  45.222  19.759 -0.21 +0.03    +0.181 C  ATOM     36  O   UNL     1      42.470  45.995  20.762 -0.17 -0.10    -0.378 OA ATOM     37  O   UNL     1      41.785  48.947  16.762 -0.95 -0.05    -0.269 OA ENDBRANCH  28  30ENDBRANCH  20  24ENDBRANCH  16  18ENDBRANCH   1  16TORSDOF 7TERENDMDL