REMARK SMILES O=C(c1ccc(-c2ccncc2NCCc2ccc(F)cc2-c2nnn[nH]2)cc1O)N1CCOCC1
REMARK SMILES IDX 13 1 12 3 7 4 8 5 9 6 11 7 10 8 6 9 3 10 4 11 29 12 5 13
REMARK SMILES IDX 28 14 2 15 31 16 32 17 36 18 33 19 35 20 34 21 1 22 30 23
REMARK SMILES IDX 14 25 15 26 16 27 17 28 22 29 18 30 21 31 19 32 20 33 23 34
REMARK SMILES IDX 24 35 27 36 25 37 26 38
REMARK H PARENT 13 2 30 24 27 39
ROOT
ATOM      1  N   UNL     1      -1.513   1.534  -0.991  1.00  0.00    -0.383 N 
ATOM      2  H   UNL     1      -0.737   1.365  -0.353  1.00  0.00     0.160 HD
ENDROOT
BRANCH   1   3
ATOM      3  C   UNL     1      -1.716   0.496  -1.896  1.00  0.00     0.061 A 
ATOM      4  C   UNL     1      -0.638  -0.340  -2.283  1.00  0.00     0.008 A 
ATOM      5  C   UNL     1      -0.868  -1.363  -3.222  1.00  0.00     0.031 A 
ATOM      6  C   UNL     1      -2.133  -1.528  -3.751  1.00  0.00     0.112 A 
ATOM      7  C   UNL     1      -2.930   0.259  -2.547  1.00  0.00     0.137 A 
ATOM      8  N   UNL     1      -3.177  -0.752  -3.419  1.00  0.00    -0.263 NA
BRANCH   4   9
ATOM      9  C   UNL     1       0.729  -0.185  -1.740  1.00  0.00    -0.012 A 
ATOM     10  C   UNL     1       3.331   0.106  -0.675  1.00  0.00     0.081 A 
ATOM     11  C   UNL     1       2.624  -1.085  -0.488  1.00  0.00     0.018 A 
ATOM     12  C   UNL     1       2.762   1.121  -1.452  1.00  0.00     0.128 A 
ATOM     13  C   UNL     1       1.333  -1.222  -1.008  1.00  0.00     0.010 A 
ATOM     14  C   UNL     1       1.471   0.985  -1.965  1.00  0.00     0.055 A 
BRANCH  10  15
ATOM     15  C   UNL     1       4.695   0.282  -0.121  1.00  0.00     0.257 C 
ATOM     16  N   UNL     1       4.999  -0.175   1.155  1.00  0.00    -0.334 N 
ATOM     17  C   UNL     1       6.389  -0.089   1.607  1.00  0.00     0.148 C 
ATOM     18  C   UNL     1       4.014  -0.413   2.224  1.00  0.00     0.148 C 
ATOM     19  C   UNL     1       6.606  -0.914   2.878  1.00  0.00     0.181 C 
ATOM     20  C   UNL     1       4.534   0.097   3.574  1.00  0.00     0.181 C 
ATOM     21  O   UNL     1       5.780  -0.494   3.972  1.00  0.00    -0.378 OA
ATOM     22  O   UNL     1       5.516   0.864  -0.833  1.00  0.00    -0.269 OA
ENDBRANCH  10  15
BRANCH  12  23
ATOM     23  O   UNL     1       3.427   2.280  -1.755  1.00  0.00    -0.507 OA
ATOM     24  H   UNL     1       4.384   2.123  -1.593  1.00  0.00     0.293 HD
ENDBRANCH  12  23
ENDBRANCH   4   9
ENDBRANCH   1   3
BRANCH   1  25
ATOM     25  C   UNL     1      -2.556   2.385  -0.430  1.00  0.00     0.118 C 
BRANCH  25  26
ATOM     26  C   UNL     1      -3.203   1.796   0.833  1.00  0.00     0.057 C 
BRANCH  26  27
ATOM     27  C   UNL     1      -4.391   0.890   0.562  1.00  0.00    -0.035 A 
ATOM     28  C   UNL     1      -5.622   1.514   0.255  1.00  0.00     0.007 A 
ATOM     29  C   UNL     1      -4.320  -0.521   0.569  1.00  0.00     0.027 A 
ATOM     30  C   UNL     1      -6.759   0.762  -0.035  1.00  0.00     0.039 A 
ATOM     31  C   UNL     1      -5.482  -1.263   0.284  1.00  0.00     0.051 A 
ATOM     32  C   UNL     1      -6.678  -0.620  -0.014  1.00  0.00     0.123 A 
ATOM     33  F   UNL     1      -7.768  -1.351  -0.282  1.00  0.00    -0.207 F 
BRANCH  29  34
ATOM     34  C   UNL     1      -3.088  -1.254   0.841  1.00  0.00     0.179 A 
ATOM     35  N   UNL     1      -2.223  -1.090   1.826  1.00  0.00    -0.109 NA
ATOM     36  N   UNL     1      -2.623  -2.279   0.061  1.00  0.00    -0.239 N 
ATOM     37  N   UNL     1      -1.245  -2.040   1.648  1.00  0.00    -0.024 NA
ATOM     38  N   UNL     1      -1.495  -2.785   0.579  1.00  0.00    -0.048 NA
ATOM     39  H   UNL     1      -2.987  -2.630  -0.815  1.00  0.00     0.194 HD
ENDBRANCH  29  34
ENDBRANCH  26  27
ENDBRANCH  25  26
ENDBRANCH   1  25
TORSDOF 8
