REMARK SMILES C[C@@H](CNc1cnccc1C1=CC=C(C(=O)N2CCOCC2)[C@@H]1F)c1ccc(O)cc1C(N)=O
REMARK SMILES IDX 3 1 2 2 1 3 25 4 26 5 31 6 27 7 30 8 28 9 32 10 33 11 34 12
REMARK SMILES IDX 29 15 4 17 5 19 6 20 10 21 7 22 9 23 8 24 11 25 12 26 23 27
REMARK SMILES IDX 13 28 14 29 24 30 15 31 17 32 18 33 22 34 19 35 21 36 20 37
REMARK SMILES IDX 16 38
REMARK H PARENT 33 13 33 14 29 16 4 18
ROOT
ATOM      1  C   UNL     1      -1.991   0.477  -1.536  1.00  0.00     0.121 C 
ENDROOT
BRANCH   1   2
ATOM      2  C   UNL     1      -2.935   1.541  -0.925  1.00  0.00     0.036 C 
ATOM      3  C   UNL     1      -2.153   2.697  -0.278  1.00  0.00     0.014 C 
BRANCH   2   4
ATOM      4  C   UNL     1      -3.993   0.929  -0.008  1.00  0.00    -0.030 A 
ATOM      5  C   UNL     1      -3.706   0.701   1.351  1.00  0.00     0.009 A 
ATOM      6  C   UNL     1      -5.272   0.554  -0.480  1.00  0.00     0.046 A 
ATOM      7  C   UNL     1      -4.654   0.140   2.209  1.00  0.00     0.046 A 
ATOM      8  C   UNL     1      -6.221  -0.020   0.385  1.00  0.00     0.060 A 
ATOM      9  C   UNL     1      -5.901  -0.217   1.721  1.00  0.00     0.116 A 
BRANCH   6  10
ATOM     10  C   UNL     1      -5.661   0.713  -1.907  1.00  0.00     0.249 C 
ATOM     11  N   UNL     1      -6.889   1.268  -2.137  1.00  0.00    -0.366 N 
ATOM     12  O   UNL     1      -4.925   0.388  -2.826  1.00  0.00    -0.270 OA
ATOM     13  H   UNL     1      -7.117   1.484  -3.098  1.00  0.00     0.159 HD
ATOM     14  H   UNL     1      -7.410   1.738  -1.409  1.00  0.00     0.159 HD
ENDBRANCH   6  10
BRANCH   9  15
ATOM     15  O   UNL     1      -6.788  -0.775   2.592  1.00  0.00    -0.508 OA
ATOM     16  H   UNL     1      -7.556  -1.106   2.098  1.00  0.00     0.293 HD
ENDBRANCH   9  15
ENDBRANCH   2   4
ENDBRANCH   1   2
BRANCH   1  17
ATOM     17  N   UNL     1      -1.037  -0.047  -0.552  1.00  0.00    -0.383 N 
ATOM     18  H   UNL     1      -0.085   0.253  -0.754  1.00  0.00     0.160 HD
BRANCH  17  19
ATOM     19  C   UNL     1      -1.058  -1.392  -0.148  1.00  0.00     0.060 A 
ATOM     20  C   UNL     1      -2.184  -2.218  -0.238  1.00  0.00     0.137 A 
ATOM     21  C   UNL     1       0.058  -1.960   0.513  1.00  0.00     0.007 A 
ATOM     22  N   UNL     1      -2.256  -3.509   0.175  1.00  0.00    -0.263 NA
ATOM     23  C   UNL     1       0.009  -3.294   0.940  1.00  0.00     0.031 A 
ATOM     24  C   UNL     1      -1.153  -4.018   0.747  1.00  0.00     0.112 A 
BRANCH  21  25
ATOM     25  C   UNL     1       1.284  -1.202   0.788  1.00  0.00     0.000 C 
ATOM     26  C   UNL     1       1.381  -0.063   1.499  1.00  0.00     0.008 C 
ATOM     27  C   UNL     1       2.656  -1.651   0.348  1.00  0.00     0.233 C 
ATOM     28  C   UNL     1       2.766   0.324   1.594  1.00  0.00     0.013 C 
ATOM     29  C   UNL     1       3.509  -0.567   0.918  1.00  0.00     0.056 C 
ATOM     30  F   UNL     1       2.740  -1.666  -1.010  1.00  0.00    -0.237 F 
BRANCH  29  31
ATOM     31  C   UNL     1       4.968  -0.653   0.868  1.00  0.00     0.253 C 
ATOM     32  N   UNL     1       5.659   0.384   0.273  1.00  0.00    -0.334 N 
ATOM     33  C   UNL     1       5.056   1.444  -0.547  1.00  0.00     0.148 C 
ATOM     34  C   UNL     1       7.122   0.302   0.196  1.00  0.00     0.148 C 
ATOM     35  C   UNL     1       6.043   2.592  -0.782  1.00  0.00     0.181 C 
ATOM     36  C   UNL     1       7.634   0.824  -1.149  1.00  0.00     0.181 C 
ATOM     37  O   UNL     1       7.263   2.185  -1.415  1.00  0.00    -0.378 OA
ATOM     38  O   UNL     1       5.508  -1.645   1.354  1.00  0.00    -0.269 OA
ENDBRANCH  29  31
ENDBRANCH  21  25
ENDBRANCH  17  19
ENDBRANCH   1  17
TORSDOF 8
