REMARK SMILES C[C@H](CNc1cnccc1C1=CC=C(C(=O)N2CCOCC2)[C@@H]1F)c1ccc(F)cc1C(N)=O
REMARK SMILES IDX 3 1 2 2 1 3 25 4 26 5 31 6 27 7 30 8 28 9 29 10 32 11 33 12
REMARK SMILES IDX 34 13 4 16 5 18 6 19 10 20 7 21 9 22 8 23 11 24 12 25 23 26
REMARK SMILES IDX 13 27 14 28 24 29 15 30 17 31 18 32 22 33 19 34 21 35 20 36
REMARK SMILES IDX 16 37
REMARK H PARENT 33 14 33 15 4 17
ROOT
ATOM      1  C   UNL     1      -2.495   0.796  -0.025  1.00  0.00     0.121 C 
ENDROOT
BRANCH   1   2
ATOM      2  C   UNL     1      -2.470  -0.672  -0.515  1.00  0.00     0.036 C 
ATOM      3  C   UNL     1      -1.952  -1.626   0.569  1.00  0.00     0.014 C 
BRANCH   2   4
ATOM      4  C   UNL     1      -3.783  -1.145  -1.135  1.00  0.00    -0.030 A 
ATOM      5  C   UNL     1      -3.781  -1.405  -2.524  1.00  0.00     0.008 A 
ATOM      6  C   UNL     1      -4.987  -1.367  -0.432  1.00  0.00     0.046 A 
ATOM      7  C   UNL     1      -4.923  -1.876  -3.178  1.00  0.00     0.039 A 
ATOM      8  C   UNL     1      -6.132  -1.838  -1.094  1.00  0.00     0.053 A 
ATOM      9  C   UNL     1      -6.086  -2.088  -2.456  1.00  0.00     0.124 A 
ATOM     10  F   UNL     1      -7.181  -2.536  -3.083  1.00  0.00    -0.207 F 
BRANCH   6  11
ATOM     11  C   UNL     1      -5.143  -1.081   1.010  1.00  0.00     0.249 C 
ATOM     12  N   UNL     1      -5.558  -2.127   1.781  1.00  0.00    -0.366 N 
ATOM     13  O   UNL     1      -4.935   0.030   1.472  1.00  0.00    -0.270 OA
ATOM     14  H   UNL     1      -5.646  -1.968   2.777  1.00  0.00     0.159 HD
ATOM     15  H   UNL     1      -5.649  -3.071   1.432  1.00  0.00     0.159 HD
ENDBRANCH   6  11
ENDBRANCH   2   4
ENDBRANCH   1   2
BRANCH   1  16
ATOM     16  N   UNL     1      -1.179   1.415  -0.240  1.00  0.00    -0.383 N 
ATOM     17  H   UNL     1      -0.408   0.812   0.051  1.00  0.00     0.160 HD
BRANCH  16  18
ATOM     18  C   UNL     1      -0.948   2.723   0.228  1.00  0.00     0.060 A 
ATOM     19  C   UNL     1      -1.959   3.619   0.585  1.00  0.00     0.137 A 
ATOM     20  C   UNL     1       0.364   3.245   0.253  1.00  0.00     0.007 A 
ATOM     21  N   UNL     1      -1.767   4.896   1.006  1.00  0.00    -0.263 NA
ATOM     22  C   UNL     1       0.590   4.555   0.691  1.00  0.00     0.031 A 
ATOM     23  C   UNL     1      -0.495   5.329   1.057  1.00  0.00     0.112 A 
BRANCH  20  24
ATOM     24  C   UNL     1       1.518   2.466  -0.195  1.00  0.00     0.000 C 
ATOM     25  C   UNL     1       1.796   2.114  -1.462  1.00  0.00     0.008 C 
ATOM     26  C   UNL     1       2.595   1.970   0.734  1.00  0.00     0.233 C 
ATOM     27  C   UNL     1       3.046   1.398  -1.489  1.00  0.00     0.013 C 
ATOM     28  C   UNL     1       3.512   1.298  -0.232  1.00  0.00     0.056 C 
ATOM     29  F   UNL     1       2.081   1.065   1.612  1.00  0.00    -0.237 F 
BRANCH  28  30
ATOM     30  C   UNL     1       4.801   0.761   0.207  1.00  0.00     0.253 C 
ATOM     31  N   UNL     1       5.043  -0.585   0.003  1.00  0.00    -0.334 N 
ATOM     32  C   UNL     1       6.290  -1.163   0.510  1.00  0.00     0.148 C 
ATOM     33  C   UNL     1       4.030  -1.566  -0.408  1.00  0.00     0.148 C 
ATOM     34  C   UNL     1       6.018  -2.487   1.232  1.00  0.00     0.181 C 
ATOM     35  C   UNL     1       4.657  -2.932  -0.702  1.00  0.00     0.181 C 
ATOM     36  O   UNL     1       5.382  -3.477   0.408  1.00  0.00    -0.378 OA
ATOM     37  O   UNL     1       5.595   1.525   0.750  1.00  0.00    -0.269 OA
ENDBRANCH  28  30
ENDBRANCH  20  24
ENDBRANCH  16  18
ENDBRANCH   1  16
TORSDOF 7
