MODEL        10USER    Run = 10USERUSER    Estimated Free Energy of Binding    =  -9.49 kcal/mol  [=(1)+(2)+(3)-(4)]USERUSER    (1) Final Intermolecular Energy     = -11.88 kcal/molUSER        vdW + Hbond + desolv Energy     = -11.70 kcal/molUSER        Electrostatic Energy            =  -0.18 kcal/molUSER        Moving Ligand-Fixed Receptor    = -11.88 kcal/molUSER        Moving Ligand-Moving Receptor   =  +0.00 kcal/molUSER    (2) Final Total Internal Energy     =  -2.09 kcal/molUSER    (3) Torsional Free Energy           =  +2.39 kcal/molUSER    (4) Unbound System's Energy         =  -2.09 kcal/molUSERUSERREMARK SMILES C[C@@H](CNc1cnccc1C1=CC=C(C(=O)N2CCOCC2)[C@@H]1F)c1ccc(O)cc1C(N)=OREMARK SMILES IDX 3 1 2 2 1 3 25 4 26 5 31 6 27 7 30 8 28 9 32 10 33 11 34 12REMARK SMILES IDX 29 15 4 17 5 19 6 20 10 21 7 22 9 23 8 24 11 25 12 26 23 27REMARK SMILES IDX 13 28 14 29 24 30 15 31 17 32 18 33 22 34 19 35 21 36 20 37REMARK SMILES IDX 16 38REMARK H PARENT 33 13 33 14 29 16 4 18USER                              x       y       z     vdW  Elec       q    TypeUSER                           _______ _______ _______ _____ _____    ______ ____ROOTATOM      1  C   UNL     1      39.928  46.590  15.521 -0.43 -0.02    +0.121 C  ENDROOTBRANCH   1   2ATOM      2  C   UNL     1      40.165  47.692  16.582 -0.56 -0.01    +0.036 C  ATOM      3  C   UNL     1      40.889  48.913  15.988 -0.68 -0.00    +0.014 C  BRANCH   2   4ATOM      4  C   UNL     1      40.819  47.151  17.853 -0.49 +0.00    -0.030 A  ATOM      5  C   UNL     1      42.024  47.707  18.321 -0.51 -0.00    +0.009 A  ATOM      6  C   UNL     1      40.263  46.078  18.587 -0.43 -0.00    +0.046 A  ATOM      7  C   UNL     1      42.643  47.229  19.478 -0.47 +0.01    +0.046 A  ATOM      8  C   UNL     1      40.894  45.593  19.746 -0.38 +0.00    +0.060 A  ATOM      9  C   UNL     1      42.076  46.177  20.179 -0.31 +0.02    +0.116 A  BRANCH   6  10ATOM     10  C   UNL     1      39.016  45.393  18.154 -0.30 -0.03    +0.249 C  ATOM     11  N   UNL     1      37.871  46.139  18.203 -0.02 +0.09    -0.366 N  ATOM     12  O   UNL     1      39.007  44.237  17.758 -0.17 +0.03    -0.270 OA ATOM     13  H   UNL     1      37.040  45.723  17.807 +0.09 -0.05    +0.159 HD ATOM     14  H   UNL     1      37.891  47.144  18.315 +0.23 -0.06    +0.159 HD ENDBRANCH   6  10BRANCH   9  15ATOM     15  O   UNL     1      42.724  45.734  21.294 -0.07 -0.16    -0.508 OA ATOM     16  H   UNL     1      42.534  46.334  22.033 +0.15 +0.06    +0.293 HD ENDBRANCH   9  15ENDBRANCH   2   4ENDBRANCH   1   2BRANCH   1  17ATOM     17  N   UNL     1      38.536  46.128  15.504 -0.12 +0.12    -0.383 N  ATOM     18  H   UNL     1      38.458  45.155  15.794 +0.11 -0.04    +0.160 HD BRANCH  17  19ATOM     19  C   UNL     1      37.684  46.391  14.418 -0.38 -0.02    +0.060 A  ATOM     20  C   UNL     1      38.066  47.114  13.283 -0.34 -0.03    +0.137 A  ATOM     21  C   UNL     1      36.314  46.038  14.479 -0.41 -0.00    +0.007 A  ATOM     22  N   UNL     1      37.264  47.421  12.231 -1.01 +0.06    -0.263 NA ATOM     23  C   UNL     1      35.470  46.337  13.401 -0.47 -0.02    +0.031 A  ATOM     24  C   UNL     1      35.986  47.017  12.313 -0.56 -0.06    +0.112 A  BRANCH  21  25ATOM     25  C   UNL     1      35.721  45.371  15.644 -0.41 -0.00    +0.000 C  ATOM     26  C   UNL     1      35.090  45.964  16.674 -0.39 -0.01    +0.008 C  ATOM     27  C   UNL     1      35.682  43.871  15.813 -0.28 -0.09    +0.233 C  ATOM     28  C   UNL     1      34.594  44.955  17.575 -0.38 -0.01    +0.013 C  ATOM     29  C   UNL     1      34.946  43.748  17.105 -0.35 -0.02    +0.056 C  ATOM     30  F   UNL     1      36.942  43.371  15.926 -0.09 +0.07    -0.237 F  BRANCH  29  31ATOM     31  C   UNL     1      34.533  42.440  17.614 -0.29 -0.08    +0.253 C  ATOM     32  N   UNL     1      33.223  42.052  17.418 -0.16 +0.13    -0.334 N  ATOM     33  C   UNL     1      32.134  42.935  16.977 -0.27 -0.05    +0.148 C  ATOM     34  C   UNL     1      32.788  40.752  17.942 -0.37 -0.04    +0.148 C  ATOM     35  C   UNL     1      30.900  42.128  16.561 -0.26 -0.07    +0.181 C  ATOM     36  C   UNL     1      31.380  40.839  18.536 -0.27 -0.01    +0.181 C  ATOM     37  O   UNL     1      30.387  41.280  17.597 -0.11 +0.06    -0.378 OA ATOM     38  O   UNL     1      35.371  41.752  18.194 -0.53 +0.07    -0.269 OA ENDBRANCH  29  31ENDBRANCH  21  25ENDBRANCH  17  19ENDBRANCH   1  17TORSDOF 8TERENDMDL