MODEL        8USER    Run = 8USERUSER    Estimated Free Energy of Binding    = -12.08 kcal/mol  [=(1)+(2)+(3)-(4)]USERUSER    (1) Final Intermolecular Energy     = -13.87 kcal/molUSER        vdW + Hbond + desolv Energy     = -13.78 kcal/molUSER        Electrostatic Energy            =  -0.10 kcal/molUSER        Moving Ligand-Fixed Receptor    = -13.87 kcal/molUSER        Moving Ligand-Moving Receptor   =  +0.00 kcal/molUSER    (2) Final Total Internal Energy     =  -2.07 kcal/molUSER    (3) Torsional Free Energy           =  +1.79 kcal/molUSER    (4) Unbound System's Energy         =  -2.07 kcal/molUSERUSERREMARK SMILES O=C(C1=CC=C(c2ccncc2NCc2ccc(F)cc2-c2nnn[nH]2)[C@@H]1F)N1CCOCC1REMARK SMILES IDX 13 1 12 3 7 4 8 5 9 6 11 7 10 8 6 9 3 10 4 11 27 12 5 13REMARK SMILES IDX 28 14 2 15 29 16 30 17 34 18 31 19 33 20 32 21 1 22 14 23REMARK SMILES IDX 15 24 16 25 21 26 17 27 20 28 18 29 19 30 22 31 23 32 26 33REMARK SMILES IDX 24 34 25 35REMARK H PARENT 13 2 26 36USER                              x       y       z     vdW  Elec       q    TypeUSER                           _______ _______ _______ _____ _____    ______ ____ROOTATOM      1  N   UNL     1      38.180  47.005  16.198 -0.14 +0.17    -0.379 N  ATOM      2  H   UNL     1      37.611  47.018  17.038 +0.09 -0.09    +0.160 HD ENDROOTBRANCH   1   3ATOM      3  C   UNL     1      37.395  47.063  15.028 -0.38 -0.03    +0.061 A  ATOM      4  C   UNL     1      36.179  46.357  14.894 -0.39 -0.00    +0.007 A  ATOM      5  C   UNL     1      35.509  46.380  13.665 -0.46 -0.02    +0.031 A  ATOM      6  C   UNL     1      36.050  47.098  12.615 -0.56 -0.06    +0.112 A  ATOM      7  C   UNL     1      37.821  47.781  13.908 -0.42 -0.06    +0.137 A  ATOM      8  N   UNL     1      37.204  47.782  12.702 -0.97 +0.07    -0.263 NA BRANCH   4   9ATOM      9  C   UNL     1      35.604  45.550  15.974 -0.40 -0.00    +0.000 C  ATOM     10  C   UNL     1      35.279  43.875  17.535 -0.33 -0.02    +0.056 C  ATOM     11  C   UNL     1      34.322  44.800  17.697 -0.39 -0.01    +0.013 C  ATOM     12  C   UNL     1      36.192  44.228  16.412 -0.25 -0.09    +0.233 C  ATOM     13  C   UNL     1      34.507  45.828  16.703 -0.35 -0.01    +0.008 C  ATOM     14  F   UNL     1      36.112  43.298  15.417 -0.12 +0.08    -0.237 F  BRANCH  10  15ATOM     15  C   UNL     1      35.543  42.740  18.413 -0.22 -0.05    +0.253 C  ATOM     16  N   UNL     1      36.234  42.995  19.577 -0.16 +0.03    -0.334 N  ATOM     17  C   UNL     1      36.470  41.902  20.522 -0.41 -0.00    +0.148 C  ATOM     18  C   UNL     1      36.670  44.323  20.030 -0.33 -0.01    +0.148 C  ATOM     19  C   UNL     1      36.445  42.413  21.965 -0.39 +0.01    +0.181 C  ATOM     20  C   UNL     1      37.780  44.209  21.079 -0.31 +0.00    +0.181 C  ATOM     21  O   UNL     1      37.397  43.455  22.233 -0.19 -0.03    -0.378 OA ATOM     22  O   UNL     1      35.150  41.628  18.071 -0.48 +0.08    -0.269 OA ENDBRANCH  10  15ENDBRANCH   4   9ENDBRANCH   1   3BRANCH   1  23ATOM     23  C   UNL     1      39.175  45.920  16.265 -0.32 -0.03    +0.149 C  BRANCH  23  24ATOM     24  C   UNL     1      40.056  46.067  17.494 -0.45 +0.00    -0.018 A  ATOM     25  C   UNL     1      39.911  45.133  18.543 -0.43 -0.00    +0.009 A  ATOM     26  C   UNL     1      41.036  47.081  17.611 -0.50 -0.00    +0.029 A  ATOM     27  C   UNL     1      40.729  45.192  19.670 -0.39 +0.00    +0.039 A  ATOM     28  C   UNL     1      41.854  47.127  18.750 -0.49 +0.00    +0.051 A  ATOM     29  C   UNL     1      41.696  46.185  19.761 -0.35 +0.01    +0.123 A  ATOM     30  F   UNL     1      42.485  46.245  20.842 -0.09 -0.05    -0.207 F  BRANCH  26  31ATOM     31  C   UNL     1      41.184  48.124  16.611 -0.32 -0.02    +0.179 A  ATOM     32  N   UNL     1      41.490  49.389  16.821 -1.00 -0.01    -0.109 NA ATOM     33  N   UNL     1      40.988  47.960  15.265 -0.33 +0.02    -0.239 N  ATOM     34  N   UNL     1      41.495  49.994  15.589 -1.06 +0.00    -0.024 NA ATOM     35  N   UNL     1      41.196  49.126  14.632 -0.63 +0.01    -0.048 NA ATOM     36  H   UNL     1      40.649  47.151  14.746 +0.15 -0.01    +0.194 HD ENDBRANCH  26  31ENDBRANCH  23  24ENDBRANCH   1  23TORSDOF 6TERENDMDL