REMARK SMILES CCc1c(NC(=O)C2=Nc3nc(NC)ccc32)ccc(O)c1F
REMARK SMILES IDX 5 1 6 2 7 3 4 5 3 6 22 7 18 8 20 9 19 10 23 11 2 12 1 13
REMARK SMILES IDX 21 14 8 16 9 17 17 18 10 19 16 20 11 21 15 22 12 23 13 24
REMARK SMILES IDX 14 25
REMARK H PARENT 5 4 21 15 13 26
ROOT
ATOM      1  N   UNL     1      -1.197  -0.460   0.024  1.00  0.00    -0.320 N 
ATOM      2  C   UNL     1      -0.114  -1.235   0.368  1.00  0.00     0.275 C 
ATOM      3  O   UNL     1      -0.023  -2.438   0.546  1.00  0.00    -0.267 OA
ATOM      4  H   UNL     1      -0.985   0.530  -0.063  1.00  0.00     0.170 HD
ENDROOT
BRANCH   1   5
ATOM      5  C   UNL     1      -2.522  -0.874  -0.228  1.00  0.00     0.047 A 
ATOM      6  C   UNL     1      -3.493   0.092  -0.571  1.00  0.00     0.015 A 
ATOM      7  C   UNL     1      -4.804  -0.338  -0.842  1.00  0.00     0.170 A 
ATOM      8  C   UNL     1      -2.899  -2.225  -0.151  1.00  0.00     0.030 A 
ATOM      9  C   UNL     1      -5.161  -1.682  -0.764  1.00  0.00     0.151 A 
ATOM     10  C   UNL     1      -4.212  -2.630  -0.416  1.00  0.00     0.051 A 
ATOM     11  F   UNL     1      -5.735   0.567  -1.187  1.00  0.00    -0.203 F 
BRANCH   6  12
ATOM     12  C   UNL     1      -3.197   1.570  -0.687  1.00  0.00     0.037 C 
ATOM     13  C   UNL     1      -2.593   1.928  -2.038  1.00  0.00     0.009 C 
ENDBRANCH   6  12
BRANCH   9  14
ATOM     14  O   UNL     1      -6.449  -2.046  -1.034  1.00  0.00    -0.505 OA
ATOM     15  H   UNL     1      -6.535  -3.008  -0.941  1.00  0.00     0.293 HD
ENDBRANCH   9  14
ENDBRANCH   1   5
BRANCH   2  16
ATOM     16  C   UNL     1       1.105  -0.428   0.534  1.00  0.00     0.142 C 
ATOM     17  N   UNL     1       1.318   0.854   0.391  1.00  0.00    -0.222 NA
ATOM     18  C   UNL     1       2.435  -0.698   0.889  1.00  0.00     0.051 A 
ATOM     19  C   UNL     1       2.645   0.628   0.742  1.00  0.00     0.164 A 
ATOM     20  C   UNL     1       3.447  -1.522   1.253  1.00  0.00     0.018 A 
ATOM     21  N   UNL     1       3.753   1.324   0.899  1.00  0.00    -0.211 NA
ATOM     22  C   UNL     1       4.674  -0.869   1.449  1.00  0.00     0.047 A 
ATOM     23  C   UNL     1       4.800   0.541   1.258  1.00  0.00     0.128 A 
BRANCH  23  24
ATOM     24  N   UNL     1       6.062   1.109   1.514  1.00  0.00    -0.373 N 
ATOM     25  C   UNL     1       6.136   2.541   1.264  1.00  0.00     0.141 C 
ATOM     26  H   UNL     1       6.773   0.600   0.997  1.00  0.00     0.161 HD
ENDBRANCH  23  24
ENDBRANCH   2  16
TORSDOF 5
