MODEL        5USER    Run = 5USERUSER    Estimated Free Energy of Binding    = -12.11 kcal/mol  [=(1)+(2)+(3)-(4)]USERUSER    (1) Final Intermolecular Energy     = -13.90 kcal/molUSER        vdW + Hbond + desolv Energy     = -13.72 kcal/molUSER        Electrostatic Energy            =  -0.18 kcal/molUSER        Moving Ligand-Fixed Receptor    = -13.90 kcal/molUSER        Moving Ligand-Moving Receptor   =  +0.00 kcal/molUSER    (2) Final Total Internal Energy     =  -2.25 kcal/molUSER    (3) Torsional Free Energy           =  +1.79 kcal/molUSER    (4) Unbound System's Energy         =  -2.25 kcal/molUSERUSERREMARK SMILES Oc1nc2ccccc2n1C1CCN(Cc2ccc(-c3nc4ccccc4nc3-c3ccncc3)cc2)CC1REMARK SMILES IDX 11 1 12 2 13 3 14 4 38 5 39 6 10 7 2 8 3 9 4 10 9 11 5 12REMARK SMILES IDX 8 13 6 14 7 15 1 16 15 18 16 19 17 20 37 21 18 22 36 23REMARK SMILES IDX 19 24 20 25 21 26 29 27 22 28 28 29 23 30 27 31 24 32 26 33REMARK SMILES IDX 25 34 30 35 31 36 35 37 32 38 34 39 33 40REMARK H PARENT 1 17USER                              x       y       z     vdW  Elec       q    TypeUSER                           _______ _______ _______ _____ _____    ______ ____ROOTATOM      1  C   UNL     1      37.001  46.306  15.103 -0.38 -0.05    +0.095 C  ATOM      2  C   UNL     1      35.809  46.622  16.019 -0.37 -0.04    +0.041 C  ATOM      3  C   UNL     1      35.048  45.362  16.427 -0.32 -0.06    +0.087 C  ATOM      4  N   UNL     1      35.966  44.424  17.055 -0.11 +0.11    -0.299 NA ATOM      5  C   UNL     1      37.088  43.996  16.223 -0.35 -0.03    +0.087 C  ATOM      6  C   UNL     1      37.268  44.804  14.940 -0.38 -0.01    +0.041 C  ENDROOTBRANCH   1   7ATOM      7  N   UNL     1      38.213  47.062  15.397 -0.20 +0.13    -0.291 N  ATOM      8  C   UNL     1      38.691  48.080  14.613 -0.29 -0.12    +0.295 A  ATOM      9  N   UNL     1      39.813  48.588  15.044 -0.39 +0.07    -0.195 NA ATOM     10  C   UNL     1      40.098  47.865  16.174 -0.46 -0.02    +0.092 A  ATOM     11  C   UNL     1      39.116  46.901  16.428 -0.39 -0.02    +0.072 A  ATOM     12  C   UNL     1      41.195  47.986  17.039 -0.46 -0.00    +0.031 A  ATOM     13  C   UNL     1      39.195  46.045  17.535 -0.41 -0.01    +0.029 A  ATOM     14  C   UNL     1      41.285  47.134  18.144 -0.52 -0.00    +0.002 A  ATOM     15  C   UNL     1      40.298  46.181  18.386 -0.47 -0.00    +0.002 A  BRANCH   8  16ATOM     16  O   UNL     1      38.112  48.521  13.516 -0.42 +0.14    -0.480 OA ATOM     17  H   UNL     1      38.050  49.475  13.705 -0.26 -0.18    +0.296 HD ENDBRANCH   8  16ENDBRANCH   1   7BRANCH   4  18ATOM     18  C   UNL     1      35.333  43.352  17.831 -0.31 -0.03    +0.120 C  BRANCH  18  19ATOM     19  C   UNL     1      35.835  43.162  19.249 -0.37 +0.00    -0.034 A  ATOM     20  C   UNL     1      36.328  44.247  19.985 -0.38 -0.00    +0.006 A  ATOM     21  C   UNL     1      35.818  41.899  19.853 -0.31 -0.00    +0.006 A  ATOM     22  C   UNL     1      36.788  44.071  21.295 -0.37 +0.00    +0.011 A  ATOM     23  C   UNL     1      36.274  41.727  21.165 -0.53 +0.00    +0.011 A  ATOM     24  C   UNL     1      36.782  42.806  21.905 -0.44 +0.00    +0.002 A  BRANCH  24  25ATOM     25  C   UNL     1      37.278  42.642  23.285 -0.35 +0.01    +0.097 A  ATOM     26  N   UNL     1      36.349  42.139  24.146 -0.26 -0.01    -0.244 NA ATOM     27  C   UNL     1      38.580  42.939  23.717 -0.23 +0.01    +0.097 A  ATOM     28  C   UNL     1      36.735  41.906  25.413 -0.31 -0.01    +0.089 A  ATOM     29  N   UNL     1      38.969  42.686  25.000 -0.12 -0.01    -0.244 NA ATOM     30  C   UNL     1      35.822  41.385  26.322 -0.45 -0.01    +0.030 A  ATOM     31  C   UNL     1      38.053  42.176  25.841 -0.25 -0.00    +0.089 A  ATOM     32  C   UNL     1      36.183  41.125  27.645 -0.60 -0.00    +0.002 A  ATOM     33  C   UNL     1      38.402  41.913  27.160 -0.36 -0.00    +0.030 A  ATOM     34  C   UNL     1      37.479  41.389  28.066 -0.43 -0.00    +0.002 A  BRANCH  27  35ATOM     35  C   UNL     1      39.635  43.553  22.892 -0.25 +0.00    +0.005 A  ATOM     36  C   UNL     1      39.534  44.893  22.496 -0.26 +0.00    +0.030 A  ATOM     37  C   UNL     1      40.750  42.830  22.448 -0.26 +0.00    +0.030 A  ATOM     38  C   UNL     1      40.539  45.447  21.720 -0.23 +0.01    +0.111 A  ATOM     39  C   UNL     1      41.706  43.473  21.677 -0.29 +0.01    +0.111 A  ATOM     40  N   UNL     1      41.629  44.768  21.310 -0.16 -0.03    -0.265 NA ENDBRANCH  27  35ENDBRANCH  24  25ENDBRANCH  18  19ENDBRANCH   4  18TORSDOF 6TERENDMDL