MODEL        7USER    Run = 7USERUSER    Estimated Free Energy of Binding    =  -8.15 kcal/mol  [=(1)+(2)+(3)-(4)]USERUSER    (1) Final Intermolecular Energy     =  -9.64 kcal/molUSER        vdW + Hbond + desolv Energy     =  -9.44 kcal/molUSER        Electrostatic Energy            =  -0.20 kcal/molUSER        Moving Ligand-Fixed Receptor    =  -9.64 kcal/molUSER        Moving Ligand-Moving Receptor   =  +0.00 kcal/molUSER    (2) Final Total Internal Energy     =  -0.85 kcal/molUSER    (3) Torsional Free Energy           =  +1.49 kcal/molUSER    (4) Unbound System's Energy         =  -0.85 kcal/molUSERUSERREMARK SMILES CCc1c(NC(=O)C2=Nc3nc(NC)ccc32)ccc(O)c1FREMARK SMILES IDX 5 1 6 2 7 3 4 5 3 6 22 7 18 8 20 9 19 10 23 11 2 12 1 13REMARK SMILES IDX 21 14 8 16 9 17 17 18 10 19 16 20 11 21 15 22 12 23 13 24REMARK SMILES IDX 14 25REMARK H PARENT 5 4 21 15 13 26USER                              x       y       z     vdW  Elec       q    TypeUSER                           _______ _______ _______ _____ _____    ______ ____ROOTATOM      1  N   UNL     1      38.053  45.350  17.640 -0.17 +0.08    -0.320 N  ATOM      2  C   UNL     1      39.343  45.351  18.117 -0.29 -0.03    +0.275 C  ATOM      3  O   UNL     1      39.940  44.532  18.795 -0.28 +0.01    -0.267 OA ATOM      4  H   UNL     1      37.816  46.171  17.089 +0.10 -0.06    +0.170 HD ENDROOTBRANCH   1   5ATOM      5  C   UNL     1      37.059  44.364  17.813 -0.30 -0.01    +0.047 A  ATOM      6  C   UNL     1      36.359  43.886  16.684 -0.35 -0.01    +0.015 A  ATOM      7  C   UNL     1      35.387  42.886  16.868 -0.31 -0.06    +0.170 A  ATOM      8  C   UNL     1      36.752  43.841  19.080 -0.31 -0.00    +0.030 A  ATOM      9  C   UNL     1      35.097  42.375  18.131 -0.29 -0.04    +0.151 A  ATOM     10  C   UNL     1      35.776  42.852  19.242 -0.36 -0.01    +0.051 A  ATOM     11  F   UNL     1      34.725  42.408  15.802 -0.11 +0.09    -0.203 F  BRANCH   6  12ATOM     12  C   UNL     1      36.610  44.374  15.276 -0.41 -0.01    +0.037 C  ATOM     13  C   UNL     1      36.154  45.813  15.079 -0.43 -0.01    +0.009 C  ENDBRANCH   6  12BRANCH   9  14ATOM     14  O   UNL     1      34.142  41.407  18.255 -0.15 +0.12    -0.505 OA ATOM     15  H   UNL     1      34.292  40.723  17.583 -0.36 -0.18    +0.293 HD ENDBRANCH   9  14ENDBRANCH   1   5BRANCH   2  16ATOM     16  C   UNL     1      40.075  46.561  17.710 -0.44 -0.02    +0.142 C  ATOM     17  N   UNL     1      41.021  47.239  18.306 -0.35 +0.02    -0.222 NA ATOM     18  C   UNL     1      40.049  47.411  16.594 -0.47 -0.01    +0.051 A  ATOM     19  C   UNL     1      41.028  48.103  17.216 -0.38 -0.02    +0.164 A  ATOM     20  C   UNL     1      39.586  47.804  15.383 -0.52 -0.01    +0.018 A  ATOM     21  N   UNL     1      41.666  49.187  16.824 -0.90 -0.03    -0.211 NA ATOM     22  C   UNL     1      40.211  48.955  14.878 -0.51 -0.02    +0.047 A  ATOM     23  C   UNL     1      41.233  49.626  15.617 -0.53 -0.02    +0.128 A  BRANCH  23  24ATOM     24  N   UNL     1      41.825  50.750  15.010 -0.35 +0.08    -0.373 N  ATOM     25  C   UNL     1      42.543  50.457  13.779 -0.62 -0.04    +0.141 C  ATOM     26  H   UNL     1      42.415  51.226  15.685 -0.32 -0.02    +0.161 HD ENDBRANCH  23  24ENDBRANCH   2  16TORSDOF 5TERENDMDL