REMARK SMILES CC(C)c1nnc2ccc(-c3ccc(Nc4cnc(N5CCOCC5)cn4)cc3)cn12
REMARK SMILES IDX 11 1 12 2 13 3 14 4 28 5 29 6 10 7 4 8 5 9 31 10 6 11 30 12
REMARK SMILES IDX 7 13 8 14 9 15 2 16 1 17 3 18 15 19 16 21 17 22 27 23 18 24
REMARK SMILES IDX 26 25 19 26 20 27 21 28 25 29 22 30 24 31 23 32
REMARK H PARENT 15 20
ROOT
ATOM      1  C   UNL     1      -2.315   1.403   0.082  1.00  0.00    -0.017 A 
ATOM      2  C   UNL     1      -1.188   1.243  -0.729  1.00  0.00     0.011 A 
ATOM      3  C   UNL     1       0.098   1.316  -0.179  1.00  0.00     0.027 A 
ATOM      4  C   UNL     1       0.287   1.563   1.185  1.00  0.00     0.040 A 
ATOM      5  C   UNL     1      -0.852   1.739   1.985  1.00  0.00     0.027 A 
ATOM      6  C   UNL     1      -2.139   1.663   1.443  1.00  0.00     0.011 A 
ENDROOT
BRANCH   1   7
ATOM      7  C   UNL     1      -3.665   1.302  -0.492  1.00  0.00    -0.001 A 
ATOM      8  C   UNL     1      -6.664  -0.874  -0.591  1.00  0.00     0.139 A 
ATOM      9  N   UNL     1      -7.740  -0.512  -1.267  1.00  0.00    -0.134 NA
ATOM     10  N   UNL     1      -5.699   0.104  -0.726  1.00  0.00    -0.286 N 
ATOM     11  N   UNL     1      -7.490   0.698  -1.871  1.00  0.00    -0.130 NA
ATOM     12  C   UNL     1      -4.412   0.217  -0.200  1.00  0.00     0.103 A 
ATOM     13  C   UNL     1      -6.272   1.064  -1.547  1.00  0.00     0.160 A 
ATOM     14  C   UNL     1      -5.492   2.206  -1.868  1.00  0.00     0.050 A 
ATOM     15  C   UNL     1      -4.247   2.322  -1.368  1.00  0.00     0.014 A 
BRANCH   8  16
ATOM     16  C   UNL     1      -6.492  -2.130   0.208  1.00  0.00     0.052 C 
ATOM     17  C   UNL     1      -6.834  -1.882   1.677  1.00  0.00     0.016 C 
ATOM     18  C   UNL     1      -7.351  -3.265  -0.351  1.00  0.00     0.016 C 
ENDBRANCH   8  16
ENDBRANCH   1   7
BRANCH   4  19
ATOM     19  N   UNL     1       1.541   1.577   1.808  1.00  0.00    -0.339 N 
ATOM     20  H   UNL     1       1.643   2.264   2.547  1.00  0.00     0.168 HD
BRANCH  19  21
ATOM     21  C   UNL     1       2.796   1.081   1.470  1.00  0.00     0.149 A 
ATOM     22  C   UNL     1       3.024   0.043   0.574  1.00  0.00     0.160 A 
ATOM     23  N   UNL     1       3.837   1.630   2.122  1.00  0.00    -0.234 NA
ATOM     24  N   UNL     1       4.256  -0.444   0.264  1.00  0.00    -0.234 NA
ATOM     25  C   UNL     1       5.067   1.128   1.819  1.00  0.00     0.160 A 
ATOM     26  C   UNL     1       5.313   0.113   0.889  1.00  0.00     0.147 A 
BRANCH  26  27
ATOM     27  N   UNL     1       6.582  -0.373   0.622  1.00  0.00    -0.351 N 
ATOM     28  C   UNL     1       7.758   0.504   0.709  1.00  0.00     0.146 C 
ATOM     29  C   UNL     1       6.684  -1.487  -0.332  1.00  0.00     0.146 C 
ATOM     30  C   UNL     1       8.701   0.276  -0.485  1.00  0.00     0.181 C 
ATOM     31  C   UNL     1       8.117  -2.045  -0.309  1.00  0.00     0.181 C 
ATOM     32  O   UNL     1       9.139  -1.082  -0.619  1.00  0.00    -0.378 OA
ENDBRANCH  26  27
ENDBRANCH  19  21
ENDBRANCH   4  19
TORSDOF 5
