MODEL        10USER    Run = 10USERUSER    Estimated Free Energy of Binding    = -10.44 kcal/mol  [=(1)+(2)+(3)-(4)]USERUSER    (1) Final Intermolecular Energy     = -11.94 kcal/molUSER        vdW + Hbond + desolv Energy     = -11.95 kcal/molUSER        Electrostatic Energy            =  +0.02 kcal/molUSER        Moving Ligand-Fixed Receptor    = -11.94 kcal/molUSER        Moving Ligand-Moving Receptor   =  +0.00 kcal/molUSER    (2) Final Total Internal Energy     =  -0.93 kcal/molUSER    (3) Torsional Free Energy           =  +1.49 kcal/molUSER    (4) Unbound System's Energy         =  -0.93 kcal/molUSERUSERREMARK SMILES CC(C)c1nnc2ccc(-c3ccc(Nc4cnc(N5CCOCC5)cn4)cc3)cn12REMARK SMILES IDX 11 1 12 2 13 3 14 4 28 5 29 6 10 7 4 8 5 9 31 10 6 11 30 12REMARK SMILES IDX 7 13 8 14 9 15 2 16 1 17 3 18 15 19 16 21 17 22 27 23 18 24REMARK SMILES IDX 26 25 19 26 20 27 21 28 25 29 22 30 24 31 23 32REMARK H PARENT 15 20USER                              x       y       z     vdW  Elec       q    TypeUSER                           _______ _______ _______ _____ _____    ______ ____ROOTATOM      1  C   UNL     1      37.143  44.268  17.719 -0.31 +0.00    -0.017 A  ATOM      2  C   UNL     1      36.248  44.033  18.766 -0.34 -0.00    +0.011 A  ATOM      3  C   UNL     1      35.118  43.230  18.566 -0.34 -0.01    +0.027 A  ATOM      4  C   UNL     1      34.850  42.659  17.317 -0.38 -0.01    +0.040 A  ATOM      5  C   UNL     1      35.747  42.917  16.270 -0.44 -0.01    +0.027 A  ATOM      6  C   UNL     1      36.880  43.713  16.464 -0.34 -0.00    +0.011 A  ENDROOTBRANCH   1   7ATOM      7  C   UNL     1      38.343  45.091  17.936 -0.39 +0.00    -0.001 A  ATOM      8  C   UNL     1      40.371  47.794  16.414 -0.43 -0.03    +0.139 A  ATOM      9  N   UNL     1      41.431  48.277  17.038 -0.77 +0.01    -0.134 NA ATOM     10  N   UNL     1      39.809  46.800  17.189 -0.28 +0.06    -0.286 N  ATOM     11  N   UNL     1      41.591  47.594  18.221 -0.48 +0.01    -0.130 NA ATOM     12  C   UNL     1      38.680  46.002  17.000 -0.34 -0.03    +0.103 A  ATOM     13  C   UNL     1      40.622  46.713  18.310 -0.37 -0.01    +0.160 A  ATOM     14  C   UNL     1      40.281  45.752  19.297 -0.40 -0.00    +0.050 A  ATOM     15  C   UNL     1      39.196  44.974  19.121 -0.39 -0.00    +0.014 A  BRANCH   8  16ATOM     16  C   UNL     1      39.838  48.237  15.086 -0.59 -0.02    +0.052 C  ATOM     17  C   UNL     1      38.429  48.810  15.239 -0.54 -0.01    +0.016 C  ATOM     18  C   UNL     1      40.760  49.268  14.434 -0.62 -0.00    +0.016 C  ENDBRANCH   8  16ENDBRANCH   1   7BRANCH   4  19ATOM     19  N   UNL     1      33.778  41.791  17.071 -0.16 +0.17    -0.339 N  ATOM     20  H   UNL     1      33.259  41.984  16.221 -0.44 -0.12    +0.168 HD BRANCH  19  21ATOM     21  C   UNL     1      33.053  40.900  17.856 -0.26 -0.05    +0.149 A  ATOM     22  C   UNL     1      32.526  41.194  19.108 -0.23 +0.01    +0.160 A  ATOM     23  N   UNL     1      32.925  39.656  17.361 -0.13 +0.10    -0.234 NA ATOM     24  N   UNL     1      31.832  40.308  19.873 -0.61 -0.05    -0.234 NA ATOM     25  C   UNL     1      32.242  38.769  18.138 -0.29 +0.00    +0.160 A  ATOM     26  C   UNL     1      31.671  39.063  19.380 -0.32 +0.03    +0.147 A  BRANCH  26  27ATOM     27  N   UNL     1      30.995  38.124  20.141 -0.20 -0.06    -0.351 N  ATOM     28  C   UNL     1      29.677  37.625  19.724 -0.33 +0.03    +0.146 C  ATOM     29  C   UNL     1      31.248  38.128  21.589 -0.46 +0.01    +0.146 C  ATOM     30  C   UNL     1      28.713  37.556  20.921 -0.24 -0.01    +0.181 C  ATOM     31  C   UNL     1      30.614  36.876  22.218 -0.38 +0.01    +0.181 C  ATOM     32  O   UNL     1      29.198  36.750  22.002 -0.15 +0.01    -0.378 OA ENDBRANCH  26  27ENDBRANCH  19  21ENDBRANCH   4  19TORSDOF 5TERENDMDL