REMARK SMILES Nc1nccc(-c2ccc(C(=O)NCc3cccc(Cl)c3)cc2)n1
REMARK SMILES IDX 7 1 8 2 9 3 10 4 22 5 23 6 6 7 2 8 3 9 24 10 4 11 5 12 1 13
REMARK SMILES IDX 11 16 13 17 12 18 14 20 15 21 16 22 21 23 17 24 19 25 18 26
REMARK SMILES IDX 20 27
REMARK H PARENT 1 14 1 15 13 19
ROOT
ATOM      1  C   UNL     1      -2.601   0.718   0.580  1.00  0.00     0.000 A 
ATOM      2  C   UNL     1      -1.770   1.830   0.351  1.00  0.00     0.011 A 
ATOM      3  C   UNL     1      -0.399   1.784   0.632  1.00  0.00     0.014 A 
ATOM      4  C   UNL     1       0.181   0.618   1.139  1.00  0.00     0.039 A 
ATOM      5  C   UNL     1      -0.625  -0.497   1.383  1.00  0.00     0.014 A 
ATOM      6  C   UNL     1      -1.996  -0.444   1.099  1.00  0.00     0.011 A 
ENDROOT
BRANCH   1   7
ATOM      7  C   UNL     1      -4.051   0.745   0.294  1.00  0.00     0.076 A 
ATOM      8  C   UNL     1      -5.899  -0.458  -0.355  1.00  0.00     0.220 A 
ATOM      9  N   UNL     1      -6.712   0.596  -0.281  1.00  0.00    -0.222 NA
ATOM     10  N   UNL     1      -4.590  -0.433  -0.098  1.00  0.00    -0.213 NA
ATOM     11  C   UNL     1      -6.155   1.750   0.119  1.00  0.00     0.117 A 
ATOM     12  C   UNL     1      -4.822   1.884   0.422  1.00  0.00     0.049 A 
BRANCH   8  13
ATOM     13  N   UNL     1      -6.443  -1.653  -0.776  1.00  0.00    -0.368 N 
ATOM     14  H   UNL     1      -5.726  -2.219  -1.207  1.00  0.00     0.159 HD
ATOM     15  H   UNL     1      -7.277  -1.470  -1.316  1.00  0.00     0.159 HD
ENDBRANCH   8  13
ENDBRANCH   1   7
BRANCH   4  16
ATOM     16  C   UNL     1       1.642   0.618   1.422  1.00  0.00     0.251 C 
ATOM     17  N   UNL     1       2.280  -0.601   1.339  1.00  0.00    -0.348 N 
ATOM     18  O   UNL     1       2.217   1.670   1.678  1.00  0.00    -0.269 OA
ATOM     19  H   UNL     1       1.800  -1.372   0.897  1.00  0.00     0.164 HD
BRANCH  17  20
ATOM     20  C   UNL     1       3.718  -0.706   1.448  1.00  0.00     0.152 C 
BRANCH  20  21
ATOM     21  C   UNL     1       4.353  -0.784   0.084  1.00  0.00    -0.027 A 
ATOM     22  C   UNL     1       4.719  -2.021  -0.469  1.00  0.00     0.005 A 
ATOM     23  C   UNL     1       4.553   0.384  -0.669  1.00  0.00     0.026 A 
ATOM     24  C   UNL     1       5.286  -2.087  -1.744  1.00  0.00     0.002 A 
ATOM     25  C   UNL     1       5.118   0.310  -1.941  1.00  0.00     0.041 A 
ATOM     26  C   UNL     1       5.487  -0.920  -2.481  1.00  0.00     0.020 A 
ATOM     27  Cl  UNL     1       5.359   1.748  -2.855  1.00  0.00    -0.084 Cl
ENDBRANCH  20  21
ENDBRANCH  17  20
ENDBRANCH   4  16
TORSDOF 5
