MODEL        3USER    Run = 3USERUSER    Estimated Free Energy of Binding    =  -8.69 kcal/mol  [=(1)+(2)+(3)-(4)]USERUSER    (1) Final Intermolecular Energy     = -10.18 kcal/molUSER        vdW + Hbond + desolv Energy     = -10.08 kcal/molUSER        Electrostatic Energy            =  -0.10 kcal/molUSER        Moving Ligand-Fixed Receptor    = -10.18 kcal/molUSER        Moving Ligand-Moving Receptor   =  +0.00 kcal/molUSER    (2) Final Total Internal Energy     =  -0.67 kcal/molUSER    (3) Torsional Free Energy           =  +1.49 kcal/molUSER    (4) Unbound System's Energy         =  -0.67 kcal/molUSERUSERREMARK SMILES Nc1nccc(-c2ccc(C(=O)NCc3cccc(Cl)c3)cc2)n1REMARK SMILES IDX 7 1 8 2 9 3 10 4 22 5 23 6 6 7 2 8 3 9 24 10 4 11 5 12 1 13REMARK SMILES IDX 11 16 13 17 12 18 14 20 15 21 16 22 21 23 17 24 19 25 18 26REMARK SMILES IDX 20 27REMARK H PARENT 1 14 1 15 13 19USER                              x       y       z     vdW  Elec       q    TypeUSER                           _______ _______ _______ _____ _____    ______ ____ROOTATOM      1  C   UNL     1      36.204  45.343  16.182 -0.35 -0.00    +0.000 A  ATOM      2  C   UNL     1      36.285  45.862  17.487 -0.35 -0.01    +0.011 A  ATOM      3  C   UNL     1      35.981  45.073  18.603 -0.30 -0.00    +0.014 A  ATOM      4  C   UNL     1      35.599  43.738  18.444 -0.31 -0.01    +0.039 A  ATOM      5  C   UNL     1      35.503  43.203  17.157 -0.37 -0.00    +0.014 A  ATOM      6  C   UNL     1      35.809  43.998  16.045 -0.37 -0.00    +0.011 A  ENDROOTBRANCH   1   7ATOM      7  C   UNL     1      36.517  46.158  14.989 -0.34 -0.05    +0.076 A  ATOM      8  C   UNL     1      37.771  47.876  14.116 -0.35 -0.10    +0.220 A  ATOM      9  N   UNL     1      37.227  47.766  12.904 -0.92 +0.06    -0.222 NA ATOM     10  N   UNL     1      37.448  47.124  15.170 -0.25 +0.12    -0.213 NA ATOM     11  C   UNL     1      36.313  46.795  12.748 -0.54 -0.06    +0.117 A  ATOM     12  C   UNL     1      35.917  45.956  13.761 -0.42 -0.03    +0.049 A  BRANCH   8  13ATOM     13  N   UNL     1      38.703  48.874  14.308 -0.12 +0.20    -0.368 N  ATOM     14  H   UNL     1      38.349  49.546  14.973 -0.39 -0.14    +0.159 HD ATOM     15  H   UNL     1      39.007  49.225  13.410 -0.23 -0.07    +0.159 HD ENDBRANCH   8  13ENDBRANCH   1   7BRANCH   4  16ATOM     16  C   UNL     1      35.285  42.941  19.661 -0.31 -0.02    +0.251 C  ATOM     17  N   UNL     1      36.292  42.128  20.134 -0.21 +0.01    -0.348 N  ATOM     18  O   UNL     1      34.191  43.054  20.203 -0.72 -0.03    -0.269 OA ATOM     19  H   UNL     1      37.231  42.262  19.785 +0.12 -0.01    +0.164 HD BRANCH  17  20ATOM     20  C   UNL     1      36.160  41.418  21.387 -0.47 +0.00    +0.152 C  BRANCH  20  21ATOM     21  C   UNL     1      36.660  42.259  22.533 -0.46 -0.00    -0.027 A  ATOM     22  C   UNL     1      37.229  43.521  22.303 -0.39 +0.00    +0.005 A  ATOM     23  C   UNL     1      36.527  41.802  23.854 -0.41 +0.00    +0.026 A  ATOM     24  C   UNL     1      37.669  44.305  23.373 -0.33 +0.00    +0.002 A  ATOM     25  C   UNL     1      36.968  42.590  24.916 -0.37 -0.00    +0.041 A  ATOM     26  C   UNL     1      37.540  43.839  24.681 -0.30 +0.00    +0.020 A  ATOM     27  Cl  UNL     1      36.801  42.020  26.531 -0.63 +0.02    -0.084 Cl ENDBRANCH  20  21ENDBRANCH  17  20ENDBRANCH   4  16TORSDOF 5TERENDMDL