MODEL        2USER    Run = 2USERUSER    Estimated Free Energy of Binding    =  -6.03 kcal/mol  [=(1)+(2)+(3)-(4)]USERUSER    (1) Final Intermolecular Energy     =  -9.61 kcal/molUSER        vdW + Hbond + desolv Energy     =  -9.67 kcal/molUSER        Electrostatic Energy            =  -0.34 kcal/molUSER        Moving Ligand-Fixed Receptor    = -10.01 kcal/molUSER        Moving Ligand-Moving Receptor   =  +0.40 kcal/molUSER    (2) Final Total Internal Energy     =  -3.63 kcal/molUSER    (3) Torsional Free Energy           =  +3.58 kcal/molUSER    (4) Unbound System's Energy         =  -3.63 kcal/molUSERUSERREMARK SMILES Cc1c(C(=O)[C@]2(ON)CCC=CC=C2O)cccc1[N+](=O)[O-]REMARK SMILES IDX 4 1 5 2 3 3 2 4 19 5 16 6 18 7 17 8 1 9 20 10 21 11 22 12REMARK SMILES IDX 6 13 7 14 8 15 9 18 10 19 11 20 14 22 13 23 12 24 15 26REMARK H PARENT 8 16 8 17 15 27REMARK Flexibility Score:   15.900USER                              x       y       z     vdW  Elec       q    TypeUSER                           _______ _______ _______ _____ _____    ______ ____ROOTATOM      1  C   UNL     1      38.380  59.782   7.143 -0.32 -0.13    +0.205 C  ATOM      2  O   UNL     1      37.376  59.727   7.856 -0.93 +0.17    -0.290 OA ENDROOTBRANCH   1   3ATOM      3  C   UNL     1      38.639  58.594   6.300 -0.33 -0.02    +0.031 A  ATOM      4  C   UNL     1      38.598  58.653   4.895 -0.37 -0.02    +0.038 A  ATOM      5  C   UNL     1      38.820  57.443   4.208 -0.22 -0.16    +0.273 A  ATOM      6  C   UNL     1      38.983  57.410   6.974 -0.40 -0.01    +0.013 A  ATOM      7  C   UNL     1      39.144  56.249   4.874 -0.31 -0.06    +0.086 A  ATOM      8  C   UNL     1      39.236  56.241   6.261 -0.43 -0.00    +0.008 A  ATOM      9  C   UNL     1      38.318  59.944   4.174 -0.51 -0.03    +0.053 C  BRANCH   5  10ATOM     10  N   UNL     1      38.691  57.372   2.757 -0.57 -0.03    +0.063 N  ATOM     11  O   UNL     1      39.577  57.918   2.086 -0.99 +0.10    -0.258 OA ATOM     12  O   UNL     1      37.693  56.796   2.306 -1.22 -0.00    -0.258 OA ENDBRANCH   5  10ENDBRANCH   1   3BRANCH   1  13ATOM     13  C   UNL     1      39.335  61.016   7.050 -0.25 -0.18    +0.208 C  BRANCH  13  14ATOM     14  O   UNL     1      38.867  62.077   6.174 -0.31 +0.28    -0.282 OA BRANCH  14  15ATOM     15  N   UNL     1      37.635  62.745   6.612 -0.58 +0.14    -0.214 NA ATOM     16  H   UNL     1      38.004  63.379   7.329 +0.02 -0.09    +0.151 HD ATOM     17  H   UNL     1      37.201  61.986   7.154 -0.48 -0.14    +0.151 HD ENDBRANCH  14  15ENDBRANCH  13  14BRANCH  13  18ATOM     18  C   UNL     1      40.595  60.483   6.320 -0.17 -0.07    +0.059 C  BRANCH  18  19ATOM     19  C   UNL     1      41.405  59.457   7.108 -0.15 -0.03    +0.031 C  BRANCH  19  20ATOM     20  C   UNL     1      42.334  60.127   8.070 -0.12 +0.02    -0.027 CG0ATOM     21  G   UNL     1      41.994  61.091   8.934 +0.00 +0.00    +0.000 G0 ENDBRANCH  19  20ENDBRANCH  18  19ENDBRANCH  13  18BRANCH  13  22ATOM     22  C   UNL     1      39.549  61.523   8.488 -0.34 -0.11    +0.134 C  BRANCH  22  23ATOM     23  C   UNL     1      40.664  61.554   9.232 -0.23 -0.04    +0.045 C  BRANCH  23  24ATOM     24  C   UNL     1      41.997  61.093   8.937 -0.19 +0.00    -0.001 CG0ATOM     25  G   UNL     1      42.334  60.130   8.070 +0.00 +0.00    +0.000 G0 ENDBRANCH  23  24ENDBRANCH  22  23BRANCH  22  26ATOM     26  O   UNL     1      38.411  62.074   9.091 -0.05 +0.39    -0.509 OA ATOM     27  H   UNL     1      37.661  61.803   8.508 -0.25 -0.32    +0.293 HD ENDBRANCH  22  26ENDBRANCH  13  22ENDBRANCH   1  13TORSDOF 6TERENDMDL