REMARK SMILES O=C1Nc2ccc(I)cc2/C1=C/N1C[C@@H](O)c2ccccc2O1
REMARK SMILES IDX 13 1 14 2 15 3 17 4 18 5 19 6 20 7 21 8 22 9 23 10 12 11
REMARK SMILES IDX 11 12 2 13 3 14 4 15 10 16 5 17 9 18 6 19 7 20 1 21 8 23
REMARK SMILES IDX 16 24
REMARK H PARENT 3 22 16 25
ROOT
ATOM      1  N   UNL     1      -0.726   0.209  -0.561  1.00  0.00    -0.213 N 
ATOM      2  C   UNL     1      -1.401  -1.023  -1.005  1.00  0.00     0.198 C 
ATOM      3  C   UNL     1      -2.900  -0.733  -1.169  1.00  0.00     0.171 C 
ATOM      4  C   UNL     1      -3.405   0.137  -0.045  1.00  0.00     0.028 A 
ATOM      5  C   UNL     1      -4.774   0.397   0.115  1.00  0.00     0.010 A 
ATOM      6  C   UNL     1      -5.220   1.208   1.159  1.00  0.00     0.001 A 
ATOM      7  C   UNL     1      -4.305   1.769   2.050  1.00  0.00     0.004 A 
ATOM      8  C   UNL     1      -2.940   1.527   1.892  1.00  0.00     0.050 A 
ATOM      9  C   UNL     1      -2.493   0.729   0.839  1.00  0.00     0.161 A 
ATOM     10  O   UNL     1      -1.133   0.514   0.759  1.00  0.00    -0.380 OA
ENDROOT
BRANCH   1  11
ATOM     11  C   UNL     1       0.639   0.339  -0.770  1.00  0.00     0.138 C 
BRANCH  11  12
ATOM     12  C   UNL     1       1.688  -0.222  -0.154  1.00  0.00     0.068 C 
ATOM     13  C   UNL     1       1.646  -1.239   0.957  1.00  0.00     0.257 C 
ATOM     14  N   UNL     1       2.979  -1.486   1.259  1.00  0.00    -0.321 N 
ATOM     15  C   UNL     1       3.833  -0.748   0.446  1.00  0.00     0.049 A 
ATOM     16  C   UNL     1       3.101   0.044  -0.444  1.00  0.00     0.013 A 
ATOM     17  C   UNL     1       5.213  -0.759   0.469  1.00  0.00     0.028 A 
ATOM     18  C   UNL     1       3.747   0.864  -1.353  1.00  0.00     0.026 A 
ATOM     19  C   UNL     1       5.876   0.065  -0.445  1.00  0.00     0.017 A 
ATOM     20  C   UNL     1       5.146   0.866  -1.344  1.00  0.00     0.014 A 
ATOM     21  O   UNL     1       0.684  -1.769   1.476  1.00  0.00    -0.269 OA
ATOM     22  H   UNL     1       3.258  -2.140   1.974  1.00  0.00     0.170 HD
ATOM     23  I   UNL     1       6.172   2.081  -2.690  1.00  0.00    -0.044 I 
ENDBRANCH  11  12
ENDBRANCH   1  11
BRANCH   3  24
ATOM     24  O   UNL     1      -3.627  -1.964  -1.218  1.00  0.00    -0.386 OA
ATOM     25  H   UNL     1      -3.812  -2.217  -0.296  1.00  0.00     0.211 HD
ENDBRANCH   3  24
TORSDOF 3
