MODEL        2USER    Run = 2USERUSER    Estimated Free Energy of Binding    =  -9.00 kcal/mol  [=(1)+(2)+(3)-(4)]USERUSER    (1) Final Intermolecular Energy     = -10.79 kcal/molUSER        vdW + Hbond + desolv Energy     = -10.56 kcal/molUSER        Electrostatic Energy            =  -0.23 kcal/molUSER        Moving Ligand-Fixed Receptor    = -10.79 kcal/molUSER        Moving Ligand-Moving Receptor   =  +0.00 kcal/molUSER    (2) Final Total Internal Energy     =  -0.98 kcal/molUSER    (3) Torsional Free Energy           =  +1.79 kcal/molUSER    (4) Unbound System's Energy         =  -0.98 kcal/molUSERUSERREMARK SMILES Nc1cc(Nc2nccc(-c3ccc4[nH]ncc4c3)n2)ccc1C(=O)OREMARK SMILES IDX 2 1 3 2 4 3 21 4 22 5 23 6 1 7 24 10 25 11 26 12 5 14 6 16REMARK SMILES IDX 7 17 20 18 8 19 10 20 9 21 11 22 12 23 19 24 13 25 18 26REMARK SMILES IDX 14 27 17 28 15 29 16 30REMARK H PARENT 1 8 1 9 26 13 5 15 15 31USER                              x       y       z     vdW  Elec       q    TypeUSER                           _______ _______ _______ _____ _____    ______ ____ROOTATOM      1  C   UNL     1      40.382  46.445  17.269 -0.45 -0.01    +0.048 A  ATOM      2  C   UNL     1      39.560  46.834  16.193 -0.43 -0.01    +0.052 A  ATOM      3  C   UNL     1      39.685  48.082  15.553 -0.51 -0.01    +0.043 A  ATOM      4  C   UNL     1      40.646  48.965  16.046 -0.58 -0.01    +0.027 A  ATOM      5  C   UNL     1      41.441  48.625  17.145 -0.30 -0.00    +0.020 A  ATOM      6  C   UNL     1      41.309  47.376  17.768 -0.44 -0.01    +0.082 A  ENDROOTBRANCH   1   7ATOM      7  N   UNL     1      40.078  45.236  17.925 -0.14 +0.03    -0.398 N  ATOM      8  H   UNL     1      40.357  44.404  17.415 +0.15 -0.00    +0.156 HD ATOM      9  H   UNL     1      40.430  45.237  18.887 +0.10 -0.00    +0.156 HD ENDBRANCH   1   7BRANCH   6  10ATOM     10  C   UNL     1      42.202  47.124  18.930 -0.34 +0.02    +0.337 C  ATOM     11  O   UNL     1      41.916  46.464  19.915 -0.33 -0.03    -0.246 OA BRANCH  10  12ATOM     12  O   UNL     1      43.396  47.746  18.853 -0.30 -0.06    -0.478 OA ATOM     13  H   UNL     1      43.310  48.463  19.519 -0.41 -0.07    +0.297 HD ENDBRANCH  10  12ENDBRANCH   6  10BRANCH   3  14ATOM     14  N   UNL     1      38.845  48.365  14.473 -0.27 +0.14    -0.324 N  ATOM     15  H   UNL     1      39.069  49.173  13.912 -0.23 -0.09    +0.170 HD BRANCH  14  16ATOM     16  C   UNL     1      37.705  47.764  13.946 -0.35 -0.10    +0.227 A  ATOM     17  N   UNL     1      37.116  48.208  12.829 -0.90 +0.05    -0.221 NA ATOM     18  N   UNL     1      37.255  46.707  14.642 -0.24 +0.11    -0.213 NA ATOM     19  C   UNL     1      36.023  47.553  12.405 -0.53 -0.06    +0.117 A  ATOM     20  C   UNL     1      36.158  46.057  14.190 -0.38 -0.04    +0.076 A  ATOM     21  C   UNL     1      35.496  46.464  13.050 -0.49 -0.03    +0.049 A  BRANCH  20  22ATOM     22  C   UNL     1      35.720  44.903  15.002 -0.34 -0.00    +0.001 A  ATOM     23  C   UNL     1      36.564  43.800  15.242 -0.32 -0.00    +0.012 A  ATOM     24  C   UNL     1      34.426  44.887  15.569 -0.29 -0.01    +0.022 A  ATOM     25  C   UNL     1      36.164  42.693  16.007 -0.40 -0.01    +0.029 A  ATOM     26  C   UNL     1      34.004  43.788  16.339 -0.33 -0.01    +0.020 A  ATOM     27  C   UNL     1      34.874  42.725  16.538 -0.39 -0.03    +0.065 A  ATOM     28  C   UNL     1      32.831  43.421  17.036 -0.22 -0.05    +0.143 A  ATOM     29  N   UNL     1      34.183  41.833  17.314 -0.25 +0.12    -0.278 N  ATOM     30  N   UNL     1      32.937  42.229  17.630 -0.23 +0.06    -0.183 NA ATOM     31  H   UNL     1      34.503  40.937  17.662 -0.43 -0.10    +0.190 HD ENDBRANCH  20  22ENDBRANCH  14  16ENDBRANCH   3  14TORSDOF 6TERENDMDL