REMARK SMILES O=[N+]([O-])C1=CN=CN(c2ccc3c(c2)COO3)N=C1NC1CCCCC1
REMARK SMILES IDX 18 1 19 2 20 3 4 5 2 7 1 8 3 9 21 10 22 11 26 12 23 13 25 14
REMARK SMILES IDX 24 15 8 16 7 17 6 18 5 19 9 21 10 22 14 23 11 24 13 25 12 26
REMARK SMILES IDX 15 27 17 28 16 29
REMARK H PARENT 20 4
REMARK Flexibility Score:   31.900
ROOT
ATOM      1  N   UNL     1       0.538  -0.646  -0.782  1.00  0.00    -0.141 NA
ENDROOT
BRANCH   1   2
ATOM      2  C   UNL     1      -0.567  -1.353  -0.807  1.00  0.00     0.227 C 
ATOM      3  N   UNL     1      -1.755  -0.626  -0.854  1.00  0.00    -0.360 N 
ATOM      4  H   UNL     1      -2.612  -1.153  -0.668  1.00  0.00     0.162 HD
BRANCH   2   5
ATOM      5  C   UNL     1      -0.597  -2.854  -0.762  1.00  0.00     0.331 CG0
ATOM      6  G   UNL     1       0.315  -3.679  -1.299  1.00  0.00     0.000 G0
BRANCH   5   7
ATOM      7  N   UNL     1      -1.715  -3.502  -0.097  1.00  0.00     0.068 N 
ATOM      8  O   UNL     1      -1.503  -4.565   0.505  1.00  0.00    -0.258 OA
ATOM      9  O   UNL     1      -2.825  -2.950  -0.163  1.00  0.00    -0.258 OA
ENDBRANCH   5   7
ENDBRANCH   2   5
BRANCH   3  10
ATOM     10  C   UNL     1      -1.858   0.809  -0.608  1.00  0.00     0.081 C 
ATOM     11  C   UNL     1      -1.799   1.104   0.896  1.00  0.00     0.025 C 
ATOM     12  C   UNL     1      -3.153   1.347  -1.234  1.00  0.00     0.025 C 
ATOM     13  C   UNL     1      -3.060   0.666   1.639  1.00  0.00     0.002 C 
ATOM     14  C   UNL     1      -4.414   0.932  -0.475  1.00  0.00     0.002 C 
ATOM     15  C   UNL     1      -4.316   1.260   1.011  1.00  0.00     0.000 C 
ENDBRANCH   3  10
ENDBRANCH   1   2
BRANCH   1  16
ATOM     16  N   UNL     1       1.773  -1.246  -0.787  1.00  0.00    -0.220 N 
BRANCH  16  17
ATOM     17  C   UNL     1       2.085  -2.283  -1.662  1.00  0.00     0.224 C 
BRANCH  17  18
ATOM     18  N   UNL     1       1.460  -3.369  -1.986  1.00  0.00    -0.237 NA
BRANCH  18  19
ATOM     19  C   UNL     1       0.315  -3.679  -1.299  1.00  0.00     0.202 CG0
ATOM     20  G   UNL     1      -0.597  -2.854  -0.762  1.00  0.00     0.000 G0
ENDBRANCH  18  19
ENDBRANCH  17  18
ENDBRANCH  16  17
BRANCH  16  21
ATOM     21  C   UNL     1       2.828  -0.425  -0.253  1.00  0.00     0.067 A 
ATOM     22  C   UNL     1       4.118  -0.966  -0.015  1.00  0.00     0.032 A 
ATOM     23  C   UNL     1       2.604   0.924   0.097  1.00  0.00     0.038 A 
ATOM     24  C   UNL     1       5.153  -0.191   0.523  1.00  0.00     0.053 A 
ATOM     25  C   UNL     1       3.644   1.677   0.623  1.00  0.00     0.030 A 
ATOM     26  C   UNL     1       4.883   1.126   0.825  1.00  0.00     0.171 A 
ATOM     27  C   UNL     1       3.669   3.078   1.067  1.00  0.00     0.256 C 
ATOM     28  O   UNL     1       5.767   2.009   1.365  1.00  0.00    -0.337 OA
ATOM     29  O   UNL     1       5.056   3.319   1.383  1.00  0.00    -0.183 OA
ENDBRANCH  16  21
ENDBRANCH   1  16
TORSDOF 3
