MODEL        8USER    Run = 8USERUSER    Estimated Free Energy of Binding    =  -7.13 kcal/mol  [=(1)+(2)+(3)-(4)]USERUSER    (1) Final Intermolecular Energy     = -10.42 kcal/molUSER        vdW + Hbond + desolv Energy     = -10.10 kcal/molUSER        Electrostatic Energy            =  -0.31 kcal/molUSER        Moving Ligand-Fixed Receptor    = -10.42 kcal/molUSER        Moving Ligand-Moving Receptor   =  +0.00 kcal/molUSER    (2) Final Total Internal Energy     =  -2.93 kcal/molUSER    (3) Torsional Free Energy           =  +3.28 kcal/molUSER    (4) Unbound System's Energy         =  -2.93 kcal/molUSERUSERREMARK SMILES NCc1cc(Cl)cc(F)c1Nc1ncc(C[C@@H](CCO)C(=O)O)s1REMARK SMILES IDX 12 1 13 2 14 3 15 4 24 5 11 6 10 8 3 9 4 10 5 11 8 12 7 13REMARK SMILES IDX 6 14 9 15 2 16 1 17 16 20 17 21 18 22 19 23 20 24 21 26REMARK SMILES IDX 22 27 23 28REMARK H PARENT 11 7 1 18 1 19 20 25 23 29USER                              x       y       z     vdW  Elec       q    TypeUSER                           _______ _______ _______ _____ _____    ______ ____ROOTATOM      1  C   UNL     1      41.747  46.297  18.815 -0.36 +0.01    +0.187 A  ATOM      2  N   UNL     1      42.692  47.170  19.085 -0.40 -0.03    -0.228 NA ATOM      3  C   UNL     1      42.829  47.329  20.448 -0.26 +0.02    +0.129 A  ATOM      4  C   UNL     1      41.967  46.586  21.227 -0.29 +0.00    +0.027 A  ATOM      5  S   UNL     1      40.977  45.627  20.209 -0.48 -0.01    -0.102 S  ENDROOTBRANCH   1   6ATOM      6  N   UNL     1      41.353  45.883  17.578 -0.21 +0.01    -0.329 N  ATOM      7  H   UNL     1      42.038  46.121  16.862 -0.22 -0.03    +0.169 HD BRANCH   6   8ATOM      8  C   UNL     1      40.037  46.130  17.108 -0.39 -0.01    +0.081 A  ATOM      9  C   UNL     1      39.712  47.216  16.269 -0.49 +0.00    -0.006 A  ATOM     10  C   UNL     1      38.387  47.338  15.800 -0.42 -0.01    +0.028 A  ATOM     11  C   UNL     1      37.412  46.399  16.141 -0.35 -0.02    +0.044 A  ATOM     12  C   UNL     1      39.026  45.205  17.435 -0.23 -0.02    +0.148 A  ATOM     13  C   UNL     1      37.725  45.328  16.965 -0.32 -0.02    +0.062 A  ATOM     14  Cl  UNL     1      35.806  46.580  15.551 -0.46 +0.08    -0.084 Cl ATOM     15  F   UNL     1      39.326  44.168  18.235 -0.08 +0.02    -0.205 F  BRANCH   9  16ATOM     16  C   UNL     1      40.693  48.313  15.927 -0.55 -0.02    +0.115 C  BRANCH  16  17ATOM     17  N   UNL     1      41.681  48.486  16.991 -0.66 -0.01    -0.326 NA ATOM     18  H   UNL     1      42.355  47.724  16.921 -0.49 -0.03    +0.119 HD ATOM     19  H   UNL     1      41.225  48.381  17.895 +0.04 -0.01    +0.119 HD ENDBRANCH  16  17ENDBRANCH   9  16ENDBRANCH   6   8ENDBRANCH   1   6BRANCH   4  20ATOM     20  C   UNL     1      41.845  46.528  22.718 -0.24 +0.01    +0.063 C  BRANCH  20  21ATOM     21  C   UNL     1      43.203  46.635  23.431 -0.17 +0.02    +0.106 C  BRANCH  21  22ATOM     22  C   UNL     1      44.329  45.903  22.687 -0.20 +0.02    +0.044 C  BRANCH  22  23ATOM     23  C   UNL     1      45.609  46.727  22.599 -0.16 +0.12    +0.157 C  BRANCH  23  24ATOM     24  O   UNL     1      45.452  47.742  21.616 -0.68 -0.34    -0.396 OA ATOM     25  H   UNL     1      44.999  48.494  22.035 -0.38 +0.06    +0.210 HD ENDBRANCH  23  24ENDBRANCH  22  23ENDBRANCH  21  22BRANCH  21  26ATOM     26  C   UNL     1      43.525  48.099  23.605 -0.22 +0.07    +0.306 C  ATOM     27  O   UNL     1      44.218  48.572  24.490 -0.25 -0.05    -0.252 OA BRANCH  26  28ATOM     28  O   UNL     1      42.962  48.892  22.677 -0.72 -0.13    -0.481 OA ATOM     29  H   UNL     1      43.592  48.880  21.925 -0.43 -0.02    +0.296 HD ENDBRANCH  26  28ENDBRANCH  21  26ENDBRANCH  20  21ENDBRANCH   4  20TORSDOF 11TERENDMDL