REMARK SMILES Cc1c(C(=O)[C@]2(ON)CCC=CC=C2O)cccc1[N+](=O)[O-]
REMARK SMILES IDX 4 1 5 2 3 3 2 4 19 5 16 6 18 7 17 8 1 9 20 10 21 11 22 12
REMARK SMILES IDX 6 13 7 14 8 15 9 18 10 19 11 20 14 22 13 23 12 24 15 26
REMARK H PARENT 8 16 8 17 15 27
REMARK Flexibility Score:   15.900
ROOT
ATOM      1  C   UNL     1      -0.222  -0.974  -0.535  1.00  0.00     0.205 C 
ATOM      2  O   UNL     1      -0.610  -2.075  -0.929  1.00  0.00    -0.290 OA
ENDROOT
BRANCH   1   3
ATOM      3  C   UNL     1       1.191  -0.645  -0.827  1.00  0.00     0.031 A 
ATOM      4  C   UNL     1       2.202  -0.771   0.144  1.00  0.00     0.038 A 
ATOM      5  C   UNL     1       3.500  -0.384  -0.246  1.00  0.00     0.273 A 
ATOM      6  C   UNL     1       1.484  -0.250  -2.143  1.00  0.00     0.013 A 
ATOM      7  C   UNL     1       3.799   0.033  -1.554  1.00  0.00     0.086 A 
ATOM      8  C   UNL     1       2.786   0.087  -2.505  1.00  0.00     0.008 A 
ATOM      9  C   UNL     1       1.899  -1.280   1.527  1.00  0.00     0.053 C 
BRANCH   5  10
ATOM     10  N   UNL     1       4.596  -0.371   0.715  1.00  0.00     0.063 N 
ATOM     11  O   UNL     1       4.417   0.261   1.765  1.00  0.00    -0.258 OA
ATOM     12  O   UNL     1       5.632  -0.970   0.400  1.00  0.00    -0.258 OA
ENDBRANCH   5  10
ENDBRANCH   1   3
BRANCH   1  13
ATOM     13  C   UNL     1      -1.123   0.076   0.192  1.00  0.00     0.208 C 
BRANCH  13  14
ATOM     14  O   UNL     1      -0.392   1.063   0.969  1.00  0.00    -0.282 OA
BRANCH  14  15
ATOM     15  N   UNL     1       0.260   2.116   0.179  1.00  0.00    -0.214 NA
ATOM     16  H   UNL     1       1.195   2.123   0.602  1.00  0.00     0.151 HD
ATOM     17  H   UNL     1      -0.196   2.948   0.577  1.00  0.00     0.151 HD
ENDBRANCH  14  15
ENDBRANCH  13  14
BRANCH  13  18
ATOM     18  C   UNL     1      -1.879  -0.738   1.275  1.00  0.00     0.059 C 
BRANCH  18  19
ATOM     19  C   UNL     1      -3.050  -0.005   1.924  1.00  0.00     0.031 C 
BRANCH  19  20
ATOM     20  C   UNL     1      -4.285  -0.112   1.087  1.00  0.00    -0.027 CG0
ATOM     21  G   UNL     1      -4.359   0.150  -0.224  1.00  0.00     0.000 G0
ENDBRANCH  19  20
ENDBRANCH  18  19
ENDBRANCH  13  18
BRANCH  13  22
ATOM     22  C   UNL     1      -1.995   0.740  -0.889  1.00  0.00     0.134 C 
BRANCH  22  23
ATOM     23  C   UNL     1      -3.327   0.734  -1.042  1.00  0.00     0.045 C 
BRANCH  23  24
ATOM     24  C   UNL     1      -4.359   0.150  -0.224  1.00  0.00    -0.001 CG0
ATOM     25  G   UNL     1      -4.285  -0.112   1.087  1.00  0.00     0.000 G0
ENDBRANCH  23  24
ENDBRANCH  22  23
BRANCH  22  26
ATOM     26  O   UNL     1      -1.287   1.500  -1.829  1.00  0.00    -0.509 OA
ATOM     27  H   UNL     1      -0.507   1.849  -1.334  1.00  0.00     0.293 HD
ENDBRANCH  22  26
ENDBRANCH  13  22
ENDBRANCH   1  13
TORSDOF 6
