MODEL        2USER    Run = 2USERUSER    Estimated Free Energy of Binding    =  -7.57 kcal/mol  [=(1)+(2)+(3)-(4)]USERUSER    (1) Final Intermolecular Energy     = -10.25 kcal/molUSER        vdW + Hbond + desolv Energy     =  -9.63 kcal/molUSER        Electrostatic Energy            =  -0.62 kcal/molUSER        Moving Ligand-Fixed Receptor    = -10.25 kcal/molUSER        Moving Ligand-Moving Receptor   =  +0.00 kcal/molUSER    (2) Final Total Internal Energy     =  -1.68 kcal/molUSER    (3) Torsional Free Energy           =  +2.68 kcal/molUSER    (4) Unbound System's Energy         =  -1.68 kcal/molUSERUSERREMARK SMILES O=S(=O)(NC=Cc1ccnc(NC2CC2)c1O)Nc1ccc(F)cc1REMARK SMILES IDX 4 1 2 3 1 4 3 5 18 6 19 8 20 9 25 10 21 11 24 12 22 13 23 14REMARK SMILES IDX 5 15 6 16 7 17 8 18 16 19 9 20 11 21 10 22 17 23 12 25 13 27REMARK SMILES IDX 14 28 15 29REMARK H PARENT 4 2 18 7 17 24 12 26USER                              x       y       z     vdW  Elec       q    TypeUSER                           _______ _______ _______ _____ _____    ______ ____ROOTATOM      1  N   UNL     1      28.035  33.139  21.570 -0.23 +0.10    -0.274 N  ATOM      2  H   UNL     1      27.809  33.659  20.724 +0.01 -0.12    +0.181 HD ENDROOTBRANCH   1   3ATOM      3  S   UNL     1      28.081  34.125  22.926 -0.36 +0.07    +0.321 S  ATOM      4  O   UNL     1      27.665  33.327  24.056 -0.64 -0.19    -0.183 OA ATOM      5  O   UNL     1      29.338  34.835  22.952 -0.34 -0.04    -0.183 OA BRANCH   3   6ATOM      6  N   UNL     1      26.885  35.270  22.589 -0.12 +0.14    -0.267 N  ATOM      7  H   UNL     1      26.083  34.753  22.225 -0.46 -0.30    +0.181 HD BRANCH   6   8ATOM      8  C   UNL     1      27.266  36.355  21.737 -0.29 -0.03    +0.050 A  ATOM      9  C   UNL     1      26.613  37.587  21.825 -0.31 -0.02    +0.030 A  ATOM     10  C   UNL     1      28.263  36.154  20.780 -0.23 -0.01    +0.030 A  ATOM     11  C   UNL     1      26.974  38.626  20.965 -0.25 -0.01    +0.041 A  ATOM     12  C   UNL     1      28.624  37.194  19.922 -0.28 +0.00    +0.041 A  ATOM     13  C   UNL     1      27.977  38.420  20.023 -0.21 -0.00    +0.123 A  ATOM     14  F   UNL     1      28.323  39.418  19.200 -0.04 -0.02    -0.207 F  ENDBRANCH   6   8ENDBRANCH   3   6ENDBRANCH   1   3BRANCH   1  15ATOM     15  C   UNL     1      27.428  31.866  21.731 -0.38 -0.06    +0.097 C  BRANCH  15  16ATOM     16  C   UNL     1      28.259  30.824  21.630 -0.45 -0.02    +0.030 C  BRANCH  16  17ATOM     17  C   UNL     1      29.452  30.660  22.478 -0.50 -0.00    +0.023 A  ATOM     18  C   UNL     1      29.274  30.665  23.863 -0.52 +0.01    +0.032 A  ATOM     19  C   UNL     1      30.756  30.526  21.991 -0.45 -0.02    +0.165 A  ATOM     20  C   UNL     1      30.381  30.501  24.682 -0.38 +0.07    +0.114 A  ATOM     21  C   UNL     1      31.822  30.408  22.895 -0.46 +0.01    +0.169 A  ATOM     22  N   UNL     1      31.646  30.363  24.229 -0.62 -0.08    -0.236 NA BRANCH  19  23ATOM     23  O   UNL     1      30.995  30.465  20.641 -0.17 +0.10    -0.504 OA ATOM     24  H   UNL     1      30.424  29.744  20.312 -0.28 -0.17    +0.293 HD ENDBRANCH  19  23BRANCH  21  25ATOM     25  N   UNL     1      33.161  30.321  22.433 -0.27 +0.01    -0.364 N  ATOM     26  H   UNL     1      33.021  30.355  21.419 -0.11 -0.01    +0.162 HD BRANCH  25  27ATOM     27  C   UNL     1      33.904  29.096  22.814 -0.46 -0.00    +0.081 C  ATOM     28  C   UNL     1      34.929  28.496  21.893 -0.45 -0.01    +0.027 C  ATOM     29  C   UNL     1      35.366  29.184  23.155 -0.39 -0.00    +0.027 C  ENDBRANCH  25  27ENDBRANCH  21  25ENDBRANCH  16  17ENDBRANCH  15  16ENDBRANCH   1  15TORSDOF 9TERENDMDL