REMARK SMILES COc1ccc(O)c(C(=O)c2ccc(C(=O)O[C@@H]3CCN(CCO)C[C@@H]3NC(=O)c3ccncc3)cc2)c1F
REMARK SMILES IDX 15 1 16 2 14 3 11 4 12 5 37 6 13 7 36 8 9 9 10 10 8 11 3 12
REMARK SMILES IDX 4 13 38 14 5 15 6 16 39 17 2 18 1 19 7 20 17 22 18 23 19 24
REMARK SMILES IDX 26 25 20 26 25 27 21 28 27 29 28 30 29 32 30 33 31 34 35 35
REMARK SMILES IDX 32 36 34 37 33 38 22 39 23 40 24 41
REMARK H PARENT 7 21 27 31 24 42
ROOT
ATOM      1  C   UNL     1       0.406  -1.032   1.498  1.00  0.00     0.338 C 
ATOM      2  O   UNL     1       0.606  -1.449   2.627  1.00  0.00    -0.246 OA
ENDROOT
BRANCH   1   3
ATOM      3  C   UNL     1       1.453  -0.978   0.441  1.00  0.00     0.060 A 
ATOM      4  C   UNL     1       3.499  -0.890  -1.472  1.00  0.00     0.023 A 
ATOM      5  C   UNL     1       3.784  -1.300  -0.165  1.00  0.00     0.013 A 
ATOM      6  C   UNL     1       2.189  -0.558  -1.833  1.00  0.00     0.013 A 
ATOM      7  C   UNL     1       2.763  -1.339   0.789  1.00  0.00     0.016 A 
ATOM      8  C   UNL     1       1.169  -0.591  -0.877  1.00  0.00     0.016 A 
BRANCH   4   9
ATOM      9  C   UNL     1       4.549  -0.851  -2.512  1.00  0.00     0.199 C 
ATOM     10  O   UNL     1       4.305  -1.342  -3.615  1.00  0.00    -0.288 OA
BRANCH   9  11
ATOM     11  C   UNL     1       5.895  -0.282  -2.277  1.00  0.00     0.104 A 
ATOM     12  C   UNL     1       7.397   1.266  -1.134  1.00  0.00     0.155 A 
ATOM     13  C   UNL     1       8.472   0.763  -1.869  1.00  0.00     0.053 A 
ATOM     14  C   UNL     1       6.114   0.740  -1.350  1.00  0.00     0.179 A 
ATOM     15  C   UNL     1       8.260  -0.237  -2.822  1.00  0.00     0.051 A 
ATOM     16  C   UNL     1       6.980  -0.745  -3.031  1.00  0.00     0.130 A 
ATOM     17  F   UNL     1       5.085   1.262  -0.663  1.00  0.00    -0.202 F 
BRANCH  12  18
ATOM     18  O   UNL     1       7.474   2.253  -0.188  1.00  0.00    -0.494 OA
ATOM     19  C   UNL     1       8.736   2.881  -0.002  1.00  0.00     0.278 C 
ENDBRANCH  12  18
BRANCH  16  20
ATOM     20  O   UNL     1       6.861  -1.702  -4.004  1.00  0.00    -0.507 OA
ATOM     21  H   UNL     1       5.901  -1.846  -4.173  1.00  0.00     0.293 HD
ENDBRANCH  16  20
ENDBRANCH   9  11
ENDBRANCH   4   9
ENDBRANCH   1   3
BRANCH   1  22
ATOM     22  O   UNL     1      -0.768  -0.559   1.021  1.00  0.00    -0.456 OA
BRANCH  22  23
ATOM     23  C   UNL     1      -1.875  -0.535   1.947  1.00  0.00     0.201 C 
ATOM     24  C   UNL     1      -2.546  -1.910   1.994  1.00  0.00     0.063 C 
ATOM     25  C   UNL     1      -2.868   0.566   1.514  1.00  0.00     0.137 C 
ATOM     26  C   UNL     1      -3.824  -1.875   2.830  1.00  0.00     0.088 C 
ATOM     27  C   UNL     1      -4.124   0.497   2.409  1.00  0.00     0.113 C 
ATOM     28  N   UNL     1      -4.739  -0.846   2.324  1.00  0.00    -0.299 NA
BRANCH  25  29
ATOM     29  N   UNL     1      -3.252   0.441   0.101  1.00  0.00    -0.344 N 
ATOM     30  C   UNL     1      -3.584   1.544  -0.652  1.00  0.00     0.251 C 
ATOM     31  H   UNL     1      -3.544  -0.480  -0.193  1.00  0.00     0.164 HD
ATOM     32  O   UNL     1      -3.376   2.697  -0.289  1.00  0.00    -0.269 OA
BRANCH  30  33
ATOM     33  C   UNL     1      -4.203   1.291  -1.980  1.00  0.00     0.042 A 
ATOM     34  C   UNL     1      -4.961   0.151  -2.251  1.00  0.00     0.034 A 
ATOM     35  C   UNL     1      -4.036   2.257  -2.974  1.00  0.00     0.034 A 
ATOM     36  C   UNL     1      -5.495   0.016  -3.521  1.00  0.00     0.112 A 
ATOM     37  C   UNL     1      -4.611   2.028  -4.209  1.00  0.00     0.112 A 
ATOM     38  N   UNL     1      -5.331   0.924  -4.506  1.00  0.00    -0.265 NA
ENDBRANCH  30  33
ENDBRANCH  25  29
BRANCH  28  39
ATOM     39  C   UNL     1      -6.070  -0.894   2.958  1.00  0.00     0.112 C 
BRANCH  39  40
ATOM     40  C   UNL     1      -6.172  -0.668   4.478  1.00  0.00     0.171 C 
BRANCH  40  41
ATOM     41  O   UNL     1      -5.938   0.693   4.820  1.00  0.00    -0.395 OA
ATOM     42  H   UNL     1      -6.053   0.767   5.783  1.00  0.00     0.210 HD
ENDBRANCH  40  41
ENDBRANCH  39  40
ENDBRANCH  28  39
ENDBRANCH  22  23
ENDBRANCH   1  22
TORSDOF 12
