REMARK SMILES O=S(=O)(NC=Cc1ccnc(NC2CC2)c1O)Nc1ccc(F)cc1
REMARK SMILES IDX 4 1 2 3 1 4 3 5 18 6 19 8 20 9 25 10 21 11 24 12 22 13 23 14
REMARK SMILES IDX 5 15 6 16 7 17 8 18 16 19 9 20 11 21 10 22 17 23 12 25 13 27
REMARK SMILES IDX 14 28 15 29
REMARK H PARENT 4 2 18 7 17 24 12 26
ROOT
ATOM      1  N   UNL     1      -2.155  -1.147   0.603  1.00  0.00    -0.274 N 
ATOM      2  H   UNL     1      -2.373  -2.067   0.224  1.00  0.00     0.181 HD
ENDROOT
BRANCH   1   3
ATOM      3  S   UNL     1      -2.676  -0.975   2.188  1.00  0.00     0.321 S 
ATOM      4  O   UNL     1      -3.969  -1.611   2.290  1.00  0.00    -0.183 OA
ATOM      5  O   UNL     1      -1.603  -1.344   3.081  1.00  0.00    -0.183 OA
BRANCH   3   6
ATOM      6  N   UNL     1      -2.871   0.698   2.331  1.00  0.00    -0.267 N 
ATOM      7  H   UNL     1      -2.948   0.896   3.330  1.00  0.00     0.181 HD
BRANCH   6   8
ATOM      8  C   UNL     1      -3.938   1.280   1.576  1.00  0.00     0.050 A 
ATOM      9  C   UNL     1      -5.239   1.294   2.086  1.00  0.00     0.030 A 
ATOM     10  C   UNL     1      -3.676   1.788   0.302  1.00  0.00     0.030 A 
ATOM     11  C   UNL     1      -6.276   1.836   1.324  1.00  0.00     0.041 A 
ATOM     12  C   UNL     1      -4.713   2.331  -0.458  1.00  0.00     0.041 A 
ATOM     13  C   UNL     1      -6.003   2.351   0.061  1.00  0.00     0.123 A 
ATOM     14  F   UNL     1      -6.998   2.872  -0.668  1.00  0.00    -0.207 F 
ENDBRANCH   6   8
ENDBRANCH   3   6
ENDBRANCH   1   3
BRANCH   1  15
ATOM     15  C   UNL     1      -0.883  -0.601   0.290  1.00  0.00     0.097 C 
BRANCH  15  16
ATOM     16  C   UNL     1      -0.371  -0.990  -0.882  1.00  0.00     0.030 C 
BRANCH  16  17
ATOM     17  C   UNL     1       0.913  -0.492  -1.405  1.00  0.00     0.023 A 
ATOM     18  C   UNL     1       0.974  -0.136  -2.754  1.00  0.00     0.032 A 
ATOM     19  C   UNL     1       2.083  -0.377  -0.649  1.00  0.00     0.165 A 
ATOM     20  C   UNL     1       2.169   0.347  -3.267  1.00  0.00     0.114 A 
ATOM     21  C   UNL     1       3.259   0.081  -1.262  1.00  0.00     0.169 A 
ATOM     22  N   UNL     1       3.306   0.471  -2.550  1.00  0.00    -0.236 NA
BRANCH  19  23
ATOM     23  O   UNL     1       2.080  -0.665   0.692  1.00  0.00    -0.504 OA
ATOM     24  H   UNL     1       2.930  -0.320   1.030  1.00  0.00     0.293 HD
ENDBRANCH  19  23
BRANCH  21  25
ATOM     25  N   UNL     1       4.475   0.161  -0.534  1.00  0.00    -0.364 N 
ATOM     26  H   UNL     1       5.066   0.673  -1.195  1.00  0.00     0.162 HD
BRANCH  25  27
ATOM     27  C   UNL     1       5.102  -1.132  -0.170  1.00  0.00     0.081 C 
ATOM     28  C   UNL     1       5.977  -1.867  -1.146  1.00  0.00     0.027 C 
ATOM     29  C   UNL     1       6.587  -1.204   0.056  1.00  0.00     0.027 C 
ENDBRANCH  25  27
ENDBRANCH  21  25
ENDBRANCH  16  17
ENDBRANCH  15  16
ENDBRANCH   1  15
TORSDOF 9
