MODEL        6USER    Run = 6USERUSER    Estimated Free Energy of Binding    =  -8.89 kcal/mol  [=(1)+(2)+(3)-(4)]USERUSER    (1) Final Intermolecular Energy     = -12.47 kcal/molUSER        vdW + Hbond + desolv Energy     = -12.37 kcal/molUSER        Electrostatic Energy            =  -0.10 kcal/molUSER        Moving Ligand-Fixed Receptor    = -12.47 kcal/molUSER        Moving Ligand-Moving Receptor   =  +0.00 kcal/molUSER    (2) Final Total Internal Energy     =  -4.57 kcal/molUSER    (3) Torsional Free Energy           =  +3.58 kcal/molUSER    (4) Unbound System's Energy         =  -4.57 kcal/molUSERUSERREMARK SMILES COc1ccc(O)c(C(=O)c2ccc(C(=O)O[C@@H]3CCN(CCO)C[C@@H]3NC(=O)c3ccncc3)cc2)c1FREMARK SMILES IDX 15 1 16 2 14 3 11 4 12 5 37 6 13 7 36 8 9 9 10 10 8 11 3 12REMARK SMILES IDX 4 13 38 14 5 15 6 16 39 17 2 18 1 19 7 20 17 22 18 23 19 24REMARK SMILES IDX 26 25 20 26 25 27 21 28 27 29 28 30 29 32 30 33 31 34 35 35REMARK SMILES IDX 32 36 34 37 33 38 22 39 23 40 24 41REMARK H PARENT 7 21 27 31 24 42USER                              x       y       z     vdW  Elec       q    TypeUSER                           _______ _______ _______ _____ _____    ______ ____ROOTATOM      1  C   UNL     1      37.035  44.801  18.625 -0.17 -0.06    +0.338 C  ATOM      2  O   UNL     1      38.086  45.041  18.054 -0.27 +0.05    -0.246 OA ENDROOTBRANCH   1   3ATOM      3  C   UNL     1      36.948  44.070  19.919 -0.35 -0.00    +0.060 A  ATOM      4  C   UNL     1      36.727  42.614  22.303 -0.43 +0.00    +0.023 A  ATOM      5  C   UNL     1      36.367  42.020  21.089 -0.51 +0.00    +0.013 A  ATOM      6  C   UNL     1      37.228  43.920  22.325 -0.37 +0.00    +0.013 A  ATOM      7  C   UNL     1      36.474  42.749  19.901 -0.35 -0.00    +0.016 A  ATOM      8  C   UNL     1      37.329  44.651  21.137 -0.25 +0.00    +0.016 A  BRANCH   4   9ATOM      9  C   UNL     1      36.642  41.870  23.578 -0.37 +0.01    +0.199 C  ATOM     10  O   UNL     1      35.798  40.979  23.686 -0.23 +0.03    -0.288 OA BRANCH   9  11ATOM     11  C   UNL     1      37.501  42.171  24.745 -0.28 +0.00    +0.104 A  ATOM     12  C   UNL     1      39.629  42.867  25.717 -0.13 -0.00    +0.155 A  ATOM     13  C   UNL     1      39.088  42.732  26.996 -0.23 -0.00    +0.053 A  ATOM     14  C   UNL     1      38.829  42.579  24.600 -0.08 +0.01    +0.179 A  ATOM     15  C   UNL     1      37.770  42.293  27.155 -0.34 -0.01    +0.051 A  ATOM     16  C   UNL     1      36.989  42.005  26.038 -0.31 -0.02    +0.130 A  ATOM     17  F   UNL     1      39.377  42.677  23.378 -0.06 -0.02    -0.202 F  BRANCH  12  18ATOM     18  O   UNL     1      40.907  43.270  25.433 -0.03 +0.01    -0.494 OA ATOM     19  C   UNL     1      41.070  44.551  24.838 -0.04 +0.01    +0.278 C  ENDBRANCH  12  18BRANCH  16  20ATOM     20  O   UNL     1      35.720  41.555  26.288 -0.18 +0.14    -0.507 OA ATOM     21  H   UNL     1      35.604  40.695  25.820 -0.21 -0.16    +0.293 HD ENDBRANCH  16  20ENDBRANCH   9  11ENDBRANCH   4   9ENDBRANCH   1   3BRANCH   1  22ATOM     22  O   UNL     1      35.800  45.149  18.198 -0.10 +0.16    -0.456 OA BRANCH  22  23ATOM     23  C   UNL     1      35.553  45.026  16.781 -0.24 -0.10    +0.201 C  ATOM     24  C   UNL     1      36.458  43.945  16.185 -0.40 -0.02    +0.063 C  ATOM     25  C   UNL     1      35.788  46.397  16.109 -0.32 -0.13    +0.137 C  ATOM     26  C   UNL     1      36.347  43.907  14.662 -0.08 -0.03    +0.088 C  ATOM     27  C   UNL     1      35.672  46.238  14.578 -0.39 -0.08    +0.113 C  ATOM     28  N   UNL     1      36.640  45.228  14.094 -0.20 +0.12    -0.299 NA BRANCH  25  29ATOM     29  N   UNL     1      37.097  46.966  16.456 -0.16 +0.23    -0.344 N  ATOM     30  C   UNL     1      37.687  47.935  15.677 -0.30 -0.18    +0.251 C  ATOM     31  H   UNL     1      37.657  46.419  17.095 +0.10 -0.07    +0.164 HD ATOM     32  O   UNL     1      37.095  48.543  14.792 -0.40 +0.23    -0.269 OA BRANCH  30  33ATOM     33  C   UNL     1      39.111  48.255  15.964 -0.44 -0.02    +0.042 A  ATOM     34  C   UNL     1      39.797  49.279  15.310 -0.38 -0.02    +0.034 A  ATOM     35  C   UNL     1      39.762  47.513  16.951 -0.43 -0.01    +0.034 A  ATOM     36  C   UNL     1      41.120  49.495  15.656 -0.55 -0.02    +0.112 A  ATOM     37  C   UNL     1      41.084  47.808  17.223 -0.43 -0.01    +0.112 A  ATOM     38  N   UNL     1      41.779  48.778  16.590 -0.74 -0.04    -0.265 NA ENDBRANCH  30  33ENDBRANCH  25  29BRANCH  28  39ATOM     39  C   UNL     1      36.746  45.214  12.623 -0.50 -0.04    +0.112 C  BRANCH  39  40ATOM     40  C   UNL     1      36.973  46.548  11.887 -0.57 -0.06    +0.171 C  BRANCH  40  41ATOM     41  O   UNL     1      37.782  47.435  12.651 -0.84 +0.06    -0.395 OA ATOM     42  H   UNL     1      37.822  47.075  13.553 +0.16 -0.07    +0.210 HD ENDBRANCH  40  41ENDBRANCH  39  40ENDBRANCH  28  39ENDBRANCH  22  23ENDBRANCH   1  22TORSDOF 12TERENDMDL