REMARK SMILES Nc1nccc(-c2ccc(C(=O)CCN3CCC(N)CC3)cc2)n1
REMARK SMILES IDX 11 1 12 2 10 3 7 4 8 5 23 6 9 7 22 8 6 9 2 10 3 11 24 12
REMARK SMILES IDX 4 13 5 14 1 15 13 18 14 19 15 20 16 21 21 22 17 23 20 24
REMARK SMILES IDX 18 25 19 26
REMARK H PARENT 1 16 1 17 19 27 19 28
ROOT
ATOM      1  C   UNL     1       0.390  -1.376   0.249  1.00  0.00     0.164 C 
ATOM      2  O   UNL     1       1.011  -1.998  -0.611  1.00  0.00    -0.294 OA
ENDROOT
BRANCH   1   3
ATOM      3  C   UNL     1      -1.021  -0.972  -0.035  1.00  0.00     0.018 A 
ATOM      4  C   UNL     1      -3.695  -0.243  -0.681  1.00  0.00     0.000 A 
ATOM      5  C   UNL     1      -3.189  -0.111   0.626  1.00  0.00     0.011 A 
ATOM      6  C   UNL     1      -2.825  -0.764  -1.655  1.00  0.00     0.011 A 
ATOM      7  C   UNL     1      -1.872  -0.468   0.950  1.00  0.00     0.012 A 
ATOM      8  C   UNL     1      -1.508  -1.122  -1.339  1.00  0.00     0.012 A 
BRANCH   4   9
ATOM      9  C   UNL     1      -5.089   0.141  -0.992  1.00  0.00     0.076 A 
ATOM     10  C   UNL     1      -7.242   0.337  -0.211  1.00  0.00     0.220 A 
ATOM     11  N   UNL     1      -7.710   0.792  -1.374  1.00  0.00    -0.222 NA
ATOM     12  N   UNL     1      -5.974  -0.007   0.021  1.00  0.00    -0.213 NA
ATOM     13  C   UNL     1      -6.811   0.939  -2.360  1.00  0.00     0.117 A 
ATOM     14  C   UNL     1      -5.479   0.629  -2.224  1.00  0.00     0.049 A 
BRANCH  10  15
ATOM     15  N   UNL     1      -8.147   0.165   0.816  1.00  0.00    -0.368 N 
ATOM     16  H   UNL     1      -7.815  -0.552   1.445  1.00  0.00     0.159 HD
ATOM     17  H   UNL     1      -9.075   0.052   0.431  1.00  0.00     0.159 HD
ENDBRANCH  10  15
ENDBRANCH   4   9
ENDBRANCH   1   3
BRANCH   1  18
ATOM     18  C   UNL     1       0.987  -1.033   1.603  1.00  0.00     0.096 C 
BRANCH  18  19
ATOM     19  C   UNL     1       2.515  -1.170   1.660  1.00  0.00     0.092 C 
BRANCH  19  20
ATOM     20  N   UNL     1       3.225   0.098   1.403  1.00  0.00    -0.303 NA
ATOM     21  C   UNL     1       4.646   0.023   1.794  1.00  0.00     0.086 C 
ATOM     22  C   UNL     1       3.034   0.571   0.020  1.00  0.00     0.086 C 
ATOM     23  C   UNL     1       5.586  -0.274   0.628  1.00  0.00     0.034 C 
ATOM     24  C   UNL     1       4.138   1.532  -0.420  1.00  0.00     0.034 C 
ATOM     25  C   UNL     1       5.486   0.800  -0.464  1.00  0.00     0.053 C 
BRANCH  25  26
ATOM     26  N   UNL     1       6.577   1.774  -0.364  1.00  0.00    -0.328 NA
ATOM     27  H   UNL     1       6.499   2.454  -1.120  1.00  0.00     0.119 HD
ATOM     28  H   UNL     1       7.471   1.301  -0.494  1.00  0.00     0.119 HD
ENDBRANCH  25  26
ENDBRANCH  19  20
ENDBRANCH  18  19
ENDBRANCH   1  18
TORSDOF 7
