MODEL        9USER    Run = 9USERUSER    Estimated Free Energy of Binding    =  -8.86 kcal/mol  [=(1)+(2)+(3)-(4)]USERUSER    (1) Final Intermolecular Energy     = -10.95 kcal/molUSER        vdW + Hbond + desolv Energy     = -10.66 kcal/molUSER        Electrostatic Energy            =  -0.28 kcal/molUSER        Moving Ligand-Fixed Receptor    = -10.95 kcal/molUSER        Moving Ligand-Moving Receptor   =  +0.00 kcal/molUSER    (2) Final Total Internal Energy     =  -0.93 kcal/molUSER    (3) Torsional Free Energy           =  +2.09 kcal/molUSER    (4) Unbound System's Energy         =  -0.93 kcal/molUSERUSERREMARK SMILES Nc1nccc(-c2ccc(C(=O)CCN3CCC(O)CC3)cc2F)n1REMARK SMILES IDX 11 1 12 2 10 3 7 4 8 5 23 6 9 7 22 8 24 9 6 10 2 11 3 12REMARK SMILES IDX 25 13 4 14 5 15 1 16 13 19 14 20 15 21 16 22 21 23 17 24REMARK SMILES IDX 20 25 18 26 19 27REMARK H PARENT 1 17 1 18 19 28USER                              x       y       z     vdW  Elec       q    TypeUSER                           _______ _______ _______ _____ _____    ______ ____ROOTATOM      1  C   UNL     1      36.882  47.237  13.181 -0.53 -0.07    +0.164 C  ATOM      2  O   UNL     1      37.164  48.100  12.345 -1.00 +0.03    -0.294 OA ENDROOTBRANCH   1   3ATOM      3  C   UNL     1      37.751  47.091  14.389 -0.45 -0.01    +0.020 A  ATOM      4  C   UNL     1      39.477  46.693  16.610 -0.43 -0.01    +0.036 A  ATOM      5  C   UNL     1      38.203  47.279  16.770 -0.22 -0.01    +0.014 A  ATOM      6  C   UNL     1      39.854  46.313  15.316 -0.33 -0.02    +0.133 A  ATOM      7  C   UNL     1      37.355  47.488  15.673 -0.42 -0.01    +0.013 A  ATOM      8  C   UNL     1      39.010  46.498  14.220 -0.37 -0.01    +0.051 A  ATOM      9  F   UNL     1      41.039  45.721  15.107 -0.01 -0.03    -0.206 F  BRANCH   4  10ATOM     10  C   UNL     1      40.351  46.459  17.768 -0.43 -0.01    +0.079 A  ATOM     11  C   UNL     1      42.216  47.146  18.917 -0.37 +0.01    +0.220 A  ATOM     12  N   UNL     1      42.044  46.238  19.881 -0.28 -0.04    -0.222 NA ATOM     13  N   UNL     1      41.411  47.301  17.865 -0.39 +0.02    -0.213 NA ATOM     14  C   UNL     1      41.004  45.392  19.737 -0.34 +0.01    +0.117 A  ATOM     15  C   UNL     1      40.115  45.458  18.695 -0.42 -0.00    +0.049 A  BRANCH  11  16ATOM     16  N   UNL     1      43.257  48.040  19.067 -0.12 -0.01    -0.368 N  ATOM     17  H   UNL     1      43.789  47.803  19.895 -0.44 +0.02    +0.159 HD ATOM     18  H   UNL     1      42.913  48.989  19.000 -0.45 -0.02    +0.159 HD ENDBRANCH  11  16ENDBRANCH   4  10ENDBRANCH   1   3BRANCH   1  19ATOM     19  C   UNL     1      35.694  46.325  12.981 -0.53 -0.06    +0.096 C  BRANCH  19  20ATOM     20  C   UNL     1      34.749  46.246  14.192 -0.38 -0.08    +0.092 C  BRANCH  20  21ATOM     21  N   UNL     1      34.739  45.029  15.016 -0.11 +0.19    -0.303 NA ATOM     22  C   UNL     1      33.819  45.087  16.157 -0.32 -0.06    +0.087 C  ATOM     23  C   UNL     1      36.056  44.517  15.379 -0.36 -0.04    +0.087 C  ATOM     24  C   UNL     1      34.089  44.012  17.214 -0.33 -0.02    +0.047 C  ATOM     25  C   UNL     1      35.950  43.052  15.808 -0.47 -0.02    +0.047 C  ATOM     26  C   UNL     1      34.660  42.752  16.579 -0.40 -0.05    +0.117 C  BRANCH  26  27ATOM     27  O   UNL     1      34.909  41.783  17.599 -0.32 +0.16    -0.393 OA ATOM     28  H   UNL     1      34.632  40.916  17.252 -0.45 -0.16    +0.210 HD ENDBRANCH  26  27ENDBRANCH  20  21ENDBRANCH  19  20ENDBRANCH   1  19TORSDOF 7TERENDMDL