REMARK SMILES Nc1nccc(-c2ccc(C(=O)CCN3CCC(O)CC3)cc2F)n1
REMARK SMILES IDX 11 1 12 2 10 3 7 4 8 5 23 6 9 7 22 8 24 9 6 10 2 11 3 12
REMARK SMILES IDX 25 13 4 14 5 15 1 16 13 19 14 20 15 21 16 22 21 23 17 24
REMARK SMILES IDX 20 25 18 26 19 27
REMARK H PARENT 1 17 1 18 19 28
ROOT
ATOM      1  C   UNL     1      -1.014   0.589  -1.648  1.00  0.00     0.164 C 
ATOM      2  O   UNL     1      -1.477  -0.386  -2.247  1.00  0.00    -0.294 OA
ENDROOT
BRANCH   1   3
ATOM      3  C   UNL     1       0.455   0.635  -1.371  1.00  0.00     0.020 A 
ATOM      4  C   UNL     1       3.248   0.564  -0.859  1.00  0.00     0.036 A 
ATOM      5  C   UNL     1       2.443   1.619  -0.378  1.00  0.00     0.014 A 
ATOM      6  C   UNL     1       2.615  -0.446  -1.595  1.00  0.00     0.133 A 
ATOM      7  C   UNL     1       1.066   1.662  -0.640  1.00  0.00     0.013 A 
ATOM      8  C   UNL     1       1.243  -0.423  -1.845  1.00  0.00     0.051 A 
ATOM      9  F   UNL     1       3.323  -1.490  -2.050  1.00  0.00    -0.206 F 
BRANCH   4  10
ATOM     10  C   UNL     1       4.686   0.516  -0.562  1.00  0.00     0.079 A 
ATOM     11  C   UNL     1       6.306   0.715   1.053  1.00  0.00     0.220 A 
ATOM     12  N   UNL     1       7.290   0.402   0.206  1.00  0.00    -0.222 NA
ATOM     13  N   UNL     1       5.013   0.777   0.729  1.00  0.00    -0.213 NA
ATOM     14  C   UNL     1       6.937   0.185  -1.077  1.00  0.00     0.117 A 
ATOM     15  C   UNL     1       5.640   0.225  -1.522  1.00  0.00     0.049 A 
BRANCH  11  16
ATOM     16  N   UNL     1       6.647   0.908   2.377  1.00  0.00    -0.368 N 
ATOM     17  H   UNL     1       7.506   0.413   2.580  1.00  0.00     0.159 HD
ATOM     18  H   UNL     1       5.853   0.712   2.972  1.00  0.00     0.159 HD
ENDBRANCH  11  16
ENDBRANCH   4  10
ENDBRANCH   1   3
BRANCH   1  19
ATOM     19  C   UNL     1      -1.915   1.708  -1.178  1.00  0.00     0.096 C 
BRANCH  19  20
ATOM     20  C   UNL     1      -2.318   1.612   0.303  1.00  0.00     0.092 C 
BRANCH  20  21
ATOM     21  N   UNL     1      -3.215   0.530   0.733  1.00  0.00    -0.303 NA
ATOM     22  C   UNL     1      -2.524  -0.720   1.070  1.00  0.00     0.087 C 
ATOM     23  C   UNL     1      -4.381   0.318  -0.117  1.00  0.00     0.087 C 
ATOM     24  C   UNL     1      -3.456  -1.934   1.133  1.00  0.00     0.047 C 
ATOM     25  C   UNL     1      -5.450  -0.469   0.644  1.00  0.00     0.047 C 
ATOM     26  C   UNL     1      -4.854  -1.527   1.578  1.00  0.00     0.117 C 
BRANCH  26  27
ATOM     27  O   UNL     1      -5.692  -2.684   1.611  1.00  0.00    -0.393 OA
ATOM     28  H   UNL     1      -6.583  -2.392   1.874  1.00  0.00     0.210 HD
ENDBRANCH  26  27
ENDBRANCH  20  21
ENDBRANCH  19  20
ENDBRANCH   1  19
TORSDOF 7
