MODEL        8USER    Run = 8USERUSER    Estimated Free Energy of Binding    =  -8.98 kcal/mol  [=(1)+(2)+(3)-(4)]USERUSER    (1) Final Intermolecular Energy     = -10.77 kcal/molUSER        vdW + Hbond + desolv Energy     = -10.67 kcal/molUSER        Electrostatic Energy            =  -0.10 kcal/molUSER        Moving Ligand-Fixed Receptor    = -10.77 kcal/molUSER        Moving Ligand-Moving Receptor   =  +0.00 kcal/molUSER    (2) Final Total Internal Energy     =  -0.70 kcal/molUSER    (3) Torsional Free Energy           =  +1.79 kcal/molUSER    (4) Unbound System's Energy         =  -0.70 kcal/molUSERUSERREMARK SMILES Nc1nccc(-c2ccc(C(=O)CCN3CCC(F)CC3)cc2)n1REMARK SMILES IDX 11 1 12 2 10 3 7 4 8 5 23 6 9 7 22 8 6 9 2 10 3 11 24 12REMARK SMILES IDX 4 13 5 14 1 15 13 18 14 19 15 20 16 21 21 22 17 23 20 24REMARK SMILES IDX 18 25 19 26REMARK H PARENT 1 16 1 17USER                              x       y       z     vdW  Elec       q    TypeUSER                           _______ _______ _______ _____ _____    ______ ____ROOTATOM      1  C   UNL     1      40.536  48.563  16.035 -0.52 -0.04    +0.164 C  ATOM      2  O   UNL     1      41.606  49.056  15.677 -0.85 -0.01    -0.294 OA ENDROOTBRANCH   1   3ATOM      3  C   UNL     1      40.534  47.598  17.170 -0.50 -0.00    +0.018 A  ATOM      4  C   UNL     1      40.425  45.741  19.315 -0.44 -0.00    +0.000 A  ATOM      5  C   UNL     1      39.355  45.877  18.411 -0.42 -0.00    +0.011 A  ATOM      6  C   UNL     1      41.549  46.565  19.108 -0.48 +0.00    +0.011 A  ATOM      7  C   UNL     1      39.405  46.797  17.356 -0.43 -0.00    +0.012 A  ATOM      8  C   UNL     1      41.606  47.487  18.056 -0.50 -0.00    +0.012 A  BRANCH   4   9ATOM      9  C   UNL     1      40.393  44.777  20.437 -0.32 +0.00    +0.076 A  ATOM     10  C   UNL     1      41.568  43.239  21.678 -0.21 +0.01    +0.220 A  ATOM     11  N   UNL     1      40.531  42.963  22.470 -0.19 -0.01    -0.222 NA ATOM     12  N   UNL     1      41.556  44.134  20.688 -0.23 -0.03    -0.213 NA ATOM     13  C   UNL     1      39.391  43.622  22.208 -0.20 +0.01    +0.117 A  ATOM     14  C   UNL     1      39.264  44.545  21.198 -0.30 +0.00    +0.049 A  BRANCH  10  15ATOM     15  N   UNL     1      42.756  42.588  21.937 -0.04 +0.02    -0.368 N  ATOM     16  H   UNL     1      43.289  42.503  21.084 -0.38 +0.02    +0.159 HD ATOM     17  H   UNL     1      42.577  41.746  22.464 -0.54 -0.04    +0.159 HD ENDBRANCH  10  15ENDBRANCH   4   9ENDBRANCH   1   3BRANCH   1  18ATOM     18  C   UNL     1      39.240  48.895  15.320 -0.48 -0.05    +0.096 C  BRANCH  18  19ATOM     19  C   UNL     1      38.760  47.807  14.352 -0.50 -0.03    +0.092 C  BRANCH  19  20ATOM     20  N   UNL     1      37.303  47.600  14.326 -0.26 +0.17    -0.303 NA ATOM     21  C   UNL     1      36.932  46.231  14.716 -0.40 -0.04    +0.087 C  ATOM     22  C   UNL     1      36.662  47.977  13.056 -0.62 -0.04    +0.087 C  ATOM     23  C   UNL     1      37.216  45.189  13.637 -0.47 -0.02    +0.053 C  ATOM     24  C   UNL     1      36.939  47.000  11.917 -0.72 -0.02    +0.053 C  ATOM     25  C   UNL     1      36.559  45.587  12.326 -0.52 -0.06    +0.169 C  ATOM     26  F   UNL     1      36.962  44.724  11.355 -0.14 +0.07    -0.247 F  ENDBRANCH  19  20ENDBRANCH  18  19ENDBRANCH   1  18TORSDOF 6TERENDMDL