REMARK SMILES Nc1nccc(-c2ccc(C(=O)CCN3CCC(F)CC3)cc2)n1
REMARK SMILES IDX 11 1 12 2 10 3 7 4 8 5 23 6 9 7 22 8 6 9 2 10 3 11 24 12
REMARK SMILES IDX 4 13 5 14 1 15 13 18 14 19 15 20 16 21 21 22 17 23 20 24
REMARK SMILES IDX 18 25 19 26
REMARK H PARENT 1 16 1 17
ROOT
ATOM      1  C   UNL     1      -1.032  -1.270   1.945  1.00  0.00     0.164 C 
ATOM      2  O   UNL     1      -1.376  -2.416   2.237  1.00  0.00    -0.294 OA
ENDROOT
BRANCH   1   3
ATOM      3  C   UNL     1       0.336  -1.047   1.401  1.00  0.00     0.018 A 
ATOM      4  C   UNL     1       2.949  -0.726   0.338  1.00  0.00     0.000 A 
ATOM      5  C   UNL     1       2.218  -1.911   0.135  1.00  0.00     0.011 A 
ATOM      6  C   UNL     1       2.328   0.291   1.090  1.00  0.00     0.011 A 
ATOM      7  C   UNL     1       0.932  -2.073   0.664  1.00  0.00     0.012 A 
ATOM      8  C   UNL     1       1.042   0.136   1.622  1.00  0.00     0.012 A 
BRANCH   4   9
ATOM      9  C   UNL     1       4.310  -0.534  -0.211  1.00  0.00     0.076 A 
ATOM     10  C   UNL     1       5.858   0.961  -1.021  1.00  0.00     0.220 A 
ATOM     11  N   UNL     1       6.780   0.020  -1.229  1.00  0.00    -0.222 NA
ATOM     12  N   UNL     1       4.647   0.743  -0.504  1.00  0.00    -0.213 NA
ATOM     13  C   UNL     1       6.426  -1.238  -0.919  1.00  0.00     0.117 A 
ATOM     14  C   UNL     1       5.197  -1.575  -0.405  1.00  0.00     0.049 A 
BRANCH  10  15
ATOM     15  N   UNL     1       6.203   2.263  -1.315  1.00  0.00    -0.368 N 
ATOM     16  H   UNL     1       7.208   2.361  -1.290  1.00  0.00     0.159 HD
ATOM     17  H   UNL     1       5.656   2.898  -0.753  1.00  0.00     0.159 HD
ENDBRANCH  10  15
ENDBRANCH   4   9
ENDBRANCH   1   3
BRANCH   1  18
ATOM     18  C   UNL     1      -1.962  -0.092   2.165  1.00  0.00     0.096 C 
BRANCH  18  19
ATOM     19  C   UNL     1      -2.244   0.730   0.902  1.00  0.00     0.092 C 
BRANCH  19  20
ATOM     20  N   UNL     1      -2.604  -0.062  -0.285  1.00  0.00    -0.303 NA
ATOM     21  C   UNL     1      -2.609   0.751  -1.511  1.00  0.00     0.087 C 
ATOM     22  C   UNL     1      -3.860  -0.817  -0.150  1.00  0.00     0.087 C 
ATOM     23  C   UNL     1      -3.813   1.682  -1.624  1.00  0.00     0.053 C 
ATOM     24  C   UNL     1      -5.109   0.058  -0.211  1.00  0.00     0.053 C 
ATOM     25  C   UNL     1      -5.107   0.899  -1.476  1.00  0.00     0.169 C 
ATOM     26  F   UNL     1      -6.146   1.776  -1.423  1.00  0.00    -0.247 F 
ENDBRANCH  19  20
ENDBRANCH  18  19
ENDBRANCH   1  18
TORSDOF 6
