MODEL        9USER    Run = 9USERUSER    Estimated Free Energy of Binding    =  -9.35 kcal/mol  [=(1)+(2)+(3)-(4)]USERUSER    (1) Final Intermolecular Energy     = -11.44 kcal/molUSER        vdW + Hbond + desolv Energy     = -11.31 kcal/molUSER        Electrostatic Energy            =  -0.13 kcal/molUSER        Moving Ligand-Fixed Receptor    = -11.44 kcal/molUSER        Moving Ligand-Moving Receptor   =  +0.00 kcal/molUSER    (2) Final Total Internal Energy     =  -0.65 kcal/molUSER    (3) Torsional Free Energy           =  +2.09 kcal/molUSER    (4) Unbound System's Energy         =  -0.65 kcal/molUSERUSERREMARK SMILES Nc1nccc(-c2ccc(C(=O)CCN3CCC(N)CC3)cc2)n1REMARK SMILES IDX 11 1 12 2 10 3 7 4 8 5 23 6 9 7 22 8 6 9 2 10 3 11 24 12REMARK SMILES IDX 4 13 5 14 1 15 13 18 14 19 15 20 16 21 21 22 17 23 20 24REMARK SMILES IDX 18 25 19 26REMARK H PARENT 1 16 1 17 19 27 19 28USER                              x       y       z     vdW  Elec       q    TypeUSER                           _______ _______ _______ _____ _____    ______ ____ROOTATOM      1  C   UNL     1      40.943  48.739  16.304 -0.50 -0.02    +0.164 C  ATOM      2  O   UNL     1      41.767  49.643  16.432 -1.03 -0.05    -0.294 OA ENDROOTBRANCH   1   3ATOM      3  C   UNL     1      40.812  47.727  17.396 -0.50 -0.00    +0.018 A  ATOM      4  C   UNL     1      40.664  45.832  19.515 -0.43 +0.00    +0.000 A  ATOM      5  C   UNL     1      39.589  46.034  18.629 -0.41 -0.00    +0.011 A  ATOM      6  C   UNL     1      41.814  46.617  19.317 -0.48 +0.00    +0.011 A  ATOM      7  C   UNL     1      39.657  46.966  17.583 -0.43 -0.00    +0.012 A  ATOM      8  C   UNL     1      41.889  47.549  18.273 -0.50 -0.00    +0.012 A  BRANCH   4   9ATOM      9  C   UNL     1      40.563  44.843  20.609 -0.31 +0.00    +0.076 A  ATOM     10  C   UNL     1      41.649  43.243  21.853 -0.23 +0.01    +0.220 A  ATOM     11  N   UNL     1      40.572  42.967  22.590 -0.19 -0.01    -0.222 NA ATOM     12  N   UNL     1      41.691  44.140  20.866 -0.23 -0.03    -0.213 NA ATOM     13  C   UNL     1      39.469  43.684  22.323 -0.20 +0.01    +0.117 A  ATOM     14  C   UNL     1      39.407  44.642  21.339 -0.29 +0.00    +0.049 A  BRANCH  10  15ATOM     15  N   UNL     1      42.793  42.512  22.098 -0.09 +0.02    -0.368 N  ATOM     16  H   UNL     1      43.355  42.469  21.261 -0.38 +0.01    +0.159 HD ATOM     17  H   UNL     1      42.544  41.635  22.536 -0.47 -0.05    +0.159 HD ENDBRANCH  10  15ENDBRANCH   4   9ENDBRANCH   1   3BRANCH   1  18ATOM     18  C   UNL     1      40.026  48.632  15.098 -0.56 -0.03    +0.096 C  BRANCH  18  19ATOM     19  C   UNL     1      39.844  47.197  14.583 -0.44 -0.02    +0.092 C  BRANCH  19  20ATOM     20  N   UNL     1      38.474  46.681  14.765 -0.19 +0.10    -0.303 NA ATOM     21  C   UNL     1      37.463  47.752  14.664 -0.50 -0.05    +0.086 C  ATOM     22  C   UNL     1      38.189  45.537  13.880 -0.34 -0.02    +0.086 C  ATOM     23  C   UNL     1      36.813  47.850  13.286 -0.65 -0.02    +0.034 C  ATOM     24  C   UNL     1      36.690  45.339  13.655 -0.49 -0.01    +0.034 C  ATOM     25  C   UNL     1      36.108  46.542  12.901 -0.63 -0.03    +0.053 C  BRANCH  25  26ATOM     26  N   UNL     1      34.663  46.618  13.139 -0.12 +0.27    -0.328 NA ATOM     27  H   UNL     1      34.169  46.102  12.411 -0.37 -0.10    +0.119 HD ATOM     28  H   UNL     1      34.355  47.587  13.065 -0.30 -0.10    +0.119 HD ENDBRANCH  25  26ENDBRANCH  19  20ENDBRANCH  18  19ENDBRANCH   1  18TORSDOF 7TERENDMDL