MODEL        2USER    Run = 2USERUSER    Estimated Free Energy of Binding    =  -9.16 kcal/mol  [=(1)+(2)+(3)-(4)]USERUSER    (1) Final Intermolecular Energy     = -11.85 kcal/molUSER        vdW + Hbond + desolv Energy     = -11.29 kcal/molUSER        Electrostatic Energy            =  -0.55 kcal/molUSER        Moving Ligand-Fixed Receptor    = -11.85 kcal/molUSER        Moving Ligand-Moving Receptor   =  +0.00 kcal/molUSER    (2) Final Total Internal Energy     =  -3.50 kcal/molUSER    (3) Torsional Free Energy           =  +2.68 kcal/molUSER    (4) Unbound System's Energy         =  -3.50 kcal/molUSERUSERREMARK SMILES CC(=O)Nc1ccc(-c2cnc3cccc(OC[C@H](O)CO)c3c2)c(Cl)c1NREMARK SMILES IDX 17 1 16 2 9 3 10 4 24 5 11 6 23 7 12 8 13 9 15 10 14 11 8 12REMARK SMILES IDX 5 13 6 14 27 15 7 16 25 17 26 18 4 19 2 20 1 21 3 22 28 24REMARK SMILES IDX 18 27 19 28 20 29 21 31 22 32REMARK H PARENT 4 23 28 25 28 26 20 30 22 33USER                              x       y       z     vdW  Elec       q    TypeUSER                           _______ _______ _______ _____ _____    ______ ____ROOTATOM      1  O   UNL     1      32.149  45.288  16.820 -0.40 +0.20    -0.490 OA ENDROOTBRANCH   1   2ATOM      2  C   UNL     1      32.694  44.502  17.805 -0.22 -0.04    +0.128 A  ATOM      3  C   UNL     1      36.324  45.445  17.673 -0.34 -0.00    +0.002 A  ATOM      4  C   UNL     1      36.742  44.599  18.696 -0.27 -0.02    +0.120 A  ATOM      5  C   UNL     1      34.959  45.417  17.373 -0.34 -0.01    +0.024 A  ATOM      6  N   UNL     1      35.928  43.779  19.405 -0.21 +0.03    -0.255 NA ATOM      7  C   UNL     1      34.077  44.578  18.081 -0.32 -0.02    +0.043 A  ATOM      8  C   UNL     1      34.619  43.775  19.104 -0.33 -0.01    +0.074 A  ATOM      9  C   UNL     1      33.763  42.950  19.823 -0.29 +0.00    +0.029 A  ATOM     10  C   UNL     1      31.851  43.683  18.552 -0.28 -0.01    +0.047 A  ATOM     11  C   UNL     1      32.390  42.898  19.564 -0.35 +0.00    +0.006 A  BRANCH   3  12ATOM     12  C   UNL     1      37.258  46.299  16.927 -0.35 -0.00    +0.004 A  ATOM     13  C   UNL     1      38.955  48.027  15.448 -0.46 -0.03    +0.066 A  ATOM     14  C   UNL     1      37.572  48.174  15.378 -0.46 -0.02    +0.029 A  ATOM     15  C   UNL     1      39.512  47.000  16.238 -0.42 -0.02    +0.075 A  ATOM     16  C   UNL     1      36.739  47.318  16.106 -0.30 -0.01    +0.012 A  ATOM     17  C   UNL     1      38.660  46.169  17.000 -0.36 -0.02    +0.074 A  ATOM     18  Cl  UNL     1      39.395  44.996  18.056 -0.52 +0.01    -0.081 Cl BRANCH  13  19ATOM     19  N   UNL     1      39.875  48.840  14.752 -0.29 +0.12    -0.325 N  ATOM     20  C   UNL     1      40.977  49.500  15.249 -0.54 -0.05    +0.221 C  ATOM     21  C   UNL     1      41.693  50.307  14.194 -0.60 -0.03    +0.114 C  ATOM     22  O   UNL     1      41.374  49.493  16.408 -1.06 +0.01    -0.275 OA ATOM     23  H   UNL     1      39.633  48.955  13.771 -0.00 -0.06    +0.169 HD ENDBRANCH  13  19BRANCH  15  24ATOM     24  N   UNL     1      40.936  46.983  16.419 -0.11 +0.04    -0.396 N  ATOM     25  H   UNL     1      41.363  47.454  15.619 +0.12 -0.01    +0.156 HD ATOM     26  H   UNL     1      41.168  47.535  17.249 +0.02 -0.02    +0.156 HD ENDBRANCH  15  24ENDBRANCH   3  12ENDBRANCH   1   2BRANCH   1  27ATOM     27  C   UNL     1      31.874  44.505  15.646 -0.24 -0.14    +0.263 C  BRANCH  27  28ATOM     28  C   UNL     1      31.919  45.398  14.401 -0.24 -0.12    +0.177 C  BRANCH  28  29ATOM     29  O   UNL     1      33.127  46.176  14.400 -0.20 +0.42    -0.387 OA ATOM     30  H   UNL     1      33.154  46.623  15.270 -0.31 -0.46    +0.211 HD ENDBRANCH  28  29BRANCH  28  31ATOM     31  C   UNL     1      30.722  46.347  14.303 -0.46 -0.10    +0.191 C  BRANCH  31  32ATOM     32  O   UNL     1      30.853  47.359  15.309 -0.77 +0.12    -0.394 OA ATOM     33  H   UNL     1      31.668  47.171  15.808 -0.42 -0.30    +0.210 HD ENDBRANCH  31  32ENDBRANCH  28  31ENDBRANCH  27  28ENDBRANCH   1  27TORSDOF 9TERENDMDL