MODEL        8USER    Run = 8USERUSER    Estimated Free Energy of Binding    = -11.46 kcal/mol  [=(1)+(2)+(3)-(4)]USERUSER    (1) Final Intermolecular Energy     = -13.54 kcal/molUSER        vdW + Hbond + desolv Energy     = -13.44 kcal/molUSER        Electrostatic Energy            =  -0.10 kcal/molUSER        Moving Ligand-Fixed Receptor    = -13.54 kcal/molUSER        Moving Ligand-Moving Receptor   =  +0.00 kcal/molUSER    (2) Final Total Internal Energy     =  -1.63 kcal/molUSER    (3) Torsional Free Energy           =  +2.09 kcal/molUSER    (4) Unbound System's Energy         =  -1.63 kcal/molUSERUSERREMARK SMILES Cc1nc2c(n1Cc1ccc(Cl)cc1Cl)=C[C@H](C=C1CCN(CCN3CCNCC3)CC1)C=2REMARK SMILES IDX 19 1 20 2 21 3 22 4 31 5 32 6 18 7 17 8 2 9 3 10 6 11 4 12REMARK SMILES IDX 5 13 33 14 16 15 1 16 7 17 8 18 9 19 14 20 10 21 13 22 11 23REMARK SMILES IDX 15 24 12 25 23 26 24 27 25 28 26 29 30 30 27 31 29 32 28 33REMARK H PARENT 28 34USER                              x       y       z     vdW  Elec       q    TypeUSER                           _______ _______ _______ _____ _____    ______ ____ROOTATOM      1  C   UNL     1      40.406  44.949  21.152 -0.33 -0.00    -0.071 C  ATOM      2  C   UNL     1      38.911  45.169  21.238 -0.37 +0.00    +0.046 C  ATOM      3  C   UNL     1      38.366  44.779  22.622 -0.33 +0.01    +0.089 C  ATOM      4  N   UNL     1      38.717  43.392  22.996 -0.11 -0.02    -0.301 NA ATOM      5  C   UNL     1      40.186  43.229  22.980 -0.26 +0.00    +0.089 C  ATOM      6  C   UNL     1      40.803  43.564  21.608 -0.27 +0.00    +0.046 C  ENDROOTBRANCH   1   7ATOM      7  C   UNL     1      41.240  45.920  20.727 -0.38 -0.00    -0.016 C  BRANCH   7   8ATOM      8  C   UNL     1      41.950  46.011  19.403 -0.41 +0.01    +0.061 C  ATOM      9  C   UNL     1      40.978  48.524  16.159 -0.49 -0.01    +0.107 A  ATOM     10  N   UNL     1      41.794  48.885  17.140 -0.78 -0.03    -0.234 NA ATOM     11  N   UNL     1      40.417  47.252  16.304 -0.25 +0.05    -0.324 N  ATOM     12  C   UNL     1      41.802  47.794  17.965 -0.43 -0.00    +0.085 A  ATOM     13  C   UNL     1      40.960  46.753  17.445 -0.43 -0.01    +0.065 A  ATOM     14  C   UNL     1      42.393  47.429  19.098 -0.56 +0.00    +0.015 C  ATOM     15  C   UNL     1      41.014  45.689  18.243 -0.53 -0.00    +0.013 C  ATOM     16  C   UNL     1      40.712  49.444  15.010 -0.60 -0.03    +0.088 C  BRANCH  11  17ATOM     17  C   UNL     1      39.621  46.518  15.348 -0.39 -0.03    +0.161 C  BRANCH  17  18ATOM     18  C   UNL     1      38.203  46.270  15.818 -0.38 +0.00    -0.009 A  ATOM     19  C   UNL     1      37.995  45.554  17.014 -0.37 -0.00    +0.008 A  ATOM     20  C   UNL     1      37.074  46.745  15.125 -0.37 -0.03    +0.047 A  ATOM     21  C   UNL     1      36.705  45.300  17.487 -0.33 -0.01    +0.021 A  ATOM     22  C   UNL     1      35.783  46.486  15.597 -0.31 -0.04    +0.041 A  ATOM     23  C   UNL     1      35.606  45.763  16.772 -0.32 -0.03    +0.042 A  ATOM     24  Cl  UNL     1      37.207  47.697  13.691 -0.79 +0.04    -0.084 Cl ATOM     25  Cl  UNL     1      34.017  45.449  17.355 -0.53 +0.06    -0.084 Cl ENDBRANCH  17  18ENDBRANCH  11  17ENDBRANCH   7   8ENDBRANCH   1   7BRANCH   4  26ATOM     26  C   UNL     1      38.143  43.067  24.320 -0.29 +0.00    +0.100 C  BRANCH  26  27ATOM     27  C   UNL     1      37.976  44.301  25.245 -0.25 +0.00    +0.100 C  BRANCH  27  28ATOM     28  N   UNL     1      36.666  44.480  25.888 -0.20 +0.02    -0.300 NA ATOM     29  C   UNL     1      36.651  45.444  26.999 -0.25 -0.02    +0.100 C  ATOM     30  C   UNL     1      35.988  43.217  26.215 -0.40 -0.01    +0.100 C  ATOM     31  C   UNL     1      36.419  44.809  28.389 -0.33 -0.02    +0.096 C  ATOM     32  C   UNL     1      34.812  43.418  27.196 -0.54 -0.02    +0.096 C  ATOM     33  N   UNL     1      35.199  43.994  28.493 -0.33 +0.10    -0.314 NA ATOM     34  H   UNL     1      35.358  43.249  29.170 -0.51 -0.09    +0.122 HD ENDBRANCH  27  28ENDBRANCH  26  27ENDBRANCH   4  26TORSDOF 7TERENDMDL