MODEL        8USER    Run = 8USERUSER    Estimated Free Energy of Binding    =  -9.84 kcal/mol  [=(1)+(2)+(3)-(4)]USERUSER    (1) Final Intermolecular Energy     = -11.03 kcal/molUSER        vdW + Hbond + desolv Energy     = -10.93 kcal/molUSER        Electrostatic Energy            =  -0.10 kcal/molUSER        Moving Ligand-Fixed Receptor    = -11.03 kcal/molUSER        Moving Ligand-Moving Receptor   =  +0.00 kcal/molUSER    (2) Final Total Internal Energy     =  -1.37 kcal/molUSER    (3) Torsional Free Energy           =  +1.19 kcal/molUSER    (4) Unbound System's Energy         =  -1.37 kcal/molUSERUSERREMARK SMILES C[C@@H]1CN(C2=NC=NC3=NC=C(c4cccc(C(F)(F)F)c4)[C@H]32)C[C@@H]1C(=O)N(C)CREMARK SMILES IDX 5 1 6 2 7 3 8 4 9 5 10 6 11 7 12 8 23 9 4 10 2 11 3 12 25 13REMARK SMILES IDX 24 14 1 15 26 16 28 17 27 18 29 19 30 20 13 21 14 22 22 23REMARK SMILES IDX 15 24 17 25 16 26 18 27 19 28 20 29 21 30REMARK H PARENTUSER                              x       y       z     vdW  Elec       q    TypeUSER                           _______ _______ _______ _____ _____    ______ ____ROOTATOM      1  C   UNL     1      36.201  46.149  14.485 -0.39 -0.07    +0.121 C  ATOM      2  N   UNL     1      35.339  46.345  13.526 -0.33 +0.15    -0.223 NA ATOM      3  C   UNL     1      35.784  46.843  12.324 -0.49 -0.13    +0.226 C  ATOM      4  N   UNL     1      36.921  47.422  12.119 -0.98 +0.07    -0.220 NA ATOM      5  C   UNL     1      37.714  47.510  13.217 -0.47 -0.04    +0.145 C  ATOM      6  N   UNL     1      38.468  48.532  13.473 -0.37 +0.06    -0.240 NA ATOM      7  C   UNL     1      38.984  48.248  14.710 -0.50 -0.05    +0.118 C  ATOM      8  C   UNL     1      38.570  47.081  15.229 -0.51 +0.00    -0.004 C  ATOM      9  C   UNL     1      37.682  46.405  14.227 -0.38 -0.06    +0.156 C  ENDROOTBRANCH   1  10ATOM     10  N   UNL     1      35.804  45.644  15.716 -0.11 +0.24    -0.358 N  ATOM     11  C   UNL     1      34.767  45.778  17.849 -0.47 -0.01    +0.019 C  ATOM     12  C   UNL     1      35.416  46.614  16.750 -0.26 -0.14    +0.122 C  ATOM     13  C   UNL     1      34.228  44.531  17.137 -0.29 -0.05    +0.102 C  ATOM     14  C   UNL     1      34.856  44.515  15.749 -0.29 -0.07    +0.131 C  ATOM     15  C   UNL     1      33.786  46.566  18.703 -0.53 -0.01    +0.010 C  BRANCH  13  16ATOM     16  C   UNL     1      32.730  44.229  17.184 -0.21 -0.08    +0.227 C  ATOM     17  N   UNL     1      32.216  43.010  17.594 -0.08 +0.09    -0.349 N  ATOM     18  O   UNL     1      31.969  45.130  16.802 -0.62 +0.09    -0.275 OA ATOM     19  C   UNL     1      30.765  42.865  17.610 -0.22 -0.03    +0.146 C  ATOM     20  C   UNL     1      32.930  41.957  18.296 -0.35 -0.03    +0.146 C  ENDBRANCH  13  16ENDBRANCH   1  10BRANCH   8  21ATOM     21  C   UNL     1      38.994  46.482  16.503 -0.41 +0.01    -0.019 A  ATOM     22  C   UNL     1      38.320  45.382  17.054 -0.37 -0.00    +0.008 A  ATOM     23  C   UNL     1      40.118  46.970  17.189 -0.48 -0.00    +0.021 A  ATOM     24  C   UNL     1      38.753  44.789  18.243 -0.39 -0.00    +0.001 A  ATOM     25  C   UNL     1      40.571  46.379  18.383 -0.45 -0.00    +0.056 A  ATOM     26  C   UNL     1      39.876  45.281  18.903 -0.43 -0.00    +0.013 A  BRANCH  25  27ATOM     27  C   UNL     1      41.810  46.914  19.057 -0.26 +0.02    +0.416 C  ATOM     28  F   UNL     1      42.942  46.272  18.656 -0.09 -0.04    -0.166 F  ATOM     29  F   UNL     1      41.759  46.771  20.410 -0.12 -0.02    -0.166 F  ATOM     30  F   UNL     1      42.028  48.238  18.825 -0.06 +0.00    -0.166 F  ENDBRANCH  25  27ENDBRANCH   8  21TORSDOF 4TERENDMDL