REMARK SMILES C[C@@H]1CN(C2=NC=NC3=NC=C(c4cccc(C(F)(F)F)c4)[C@H]32)C[C@@H]1C(=O)N(C)C
REMARK SMILES IDX 5 1 6 2 7 3 8 4 9 5 10 6 11 7 12 8 23 9 4 10 2 11 3 12 25 13
REMARK SMILES IDX 24 14 1 15 26 16 28 17 27 18 29 19 30 20 13 21 14 22 22 23
REMARK SMILES IDX 15 24 17 25 16 26 18 27 19 28 20 29 21 30
REMARK H PARENT
ROOT
ATOM      1  C   UNL     1       0.004  -1.627   1.207  1.00  0.00     0.121 C 
ATOM      2  N   UNL     1      -1.009  -2.281   1.702  1.00  0.00    -0.223 NA
ATOM      3  C   UNL     1      -0.785  -3.497   2.304  1.00  0.00     0.226 C 
ATOM      4  N   UNL     1       0.281  -4.217   2.181  1.00  0.00    -0.220 NA
ATOM      5  C   UNL     1       1.238  -3.674   1.387  1.00  0.00     0.145 C 
ATOM      6  N   UNL     1       1.985  -4.372   0.591  1.00  0.00    -0.240 NA
ATOM      7  C   UNL     1       2.706  -3.423  -0.085  1.00  0.00     0.118 C 
ATOM      8  C   UNL     1       2.426  -2.158   0.267  1.00  0.00    -0.004 C 
ATOM      9  C   UNL     1       1.413  -2.187   1.372  1.00  0.00     0.156 C 
ENDROOT
BRANCH   1  10
ATOM     10  N   UNL     1      -0.168  -0.393   0.593  1.00  0.00    -0.358 N 
ATOM     11  C   UNL     1      -0.841   1.039  -1.179  1.00  0.00     0.019 C 
ATOM     12  C   UNL     1      -0.408  -0.388  -0.857  1.00  0.00     0.122 C 
ATOM     13  C   UNL     1      -1.452   1.575   0.122  1.00  0.00     0.102 C 
ATOM     14  C   UNL     1      -1.063   0.596   1.222  1.00  0.00     0.131 C 
ATOM     15  C   UNL     1      -1.690   1.140  -2.436  1.00  0.00     0.010 C 
BRANCH  13  16
ATOM     16  C   UNL     1      -2.912   2.029   0.133  1.00  0.00     0.227 C 
ATOM     17  N   UNL     1      -3.977   1.157  -0.024  1.00  0.00    -0.349 N 
ATOM     18  O   UNL     1      -3.116   3.245   0.261  1.00  0.00    -0.275 OA
ATOM     19  C   UNL     1      -5.320   1.722   0.029  1.00  0.00     0.146 C 
ATOM     20  C   UNL     1      -3.934  -0.293   0.066  1.00  0.00     0.146 C 
ENDBRANCH  13  16
ENDBRANCH   1  10
BRANCH   8  21
ATOM     21  C   UNL     1       3.074  -0.938  -0.237  1.00  0.00    -0.019 A 
ATOM     22  C   UNL     1       3.731  -0.918  -1.476  1.00  0.00     0.008 A 
ATOM     23  C   UNL     1       3.017   0.261   0.492  1.00  0.00     0.021 A 
ATOM     24  C   UNL     1       4.308   0.255  -1.971  1.00  0.00     0.001 A 
ATOM     25  C   UNL     1       3.586   1.452   0.003  1.00  0.00     0.056 A 
ATOM     26  C   UNL     1       4.232   1.436  -1.238  1.00  0.00     0.013 A 
BRANCH  25  27
ATOM     27  C   UNL     1       3.458   2.723   0.805  1.00  0.00     0.416 C 
ATOM     28  F   UNL     1       3.819   2.559   2.108  1.00  0.00    -0.166 F 
ATOM     29  F   UNL     1       2.178   3.187   0.828  1.00  0.00    -0.166 F 
ATOM     30  F   UNL     1       4.221   3.747   0.331  1.00  0.00    -0.166 F 
ENDBRANCH  25  27
ENDBRANCH   8  21
TORSDOF 4
