REMARK SMILES Oc1nc2ccccc2n1C1CCN(Cc2ccc(N3CCOCC3)cc2)CC1
REMARK SMILES IDX 11 1 12 2 13 3 14 4 28 5 29 6 10 7 2 8 3 9 4 10 9 11 5 12
REMARK SMILES IDX 8 13 6 14 7 15 1 16 15 18 16 19 17 20 27 21 18 22 26 23
REMARK SMILES IDX 19 24 20 25 21 26 25 27 22 28 24 29 23 30
REMARK H PARENT 1 17
ROOT
ATOM      1  C   UNL     1      -3.203  -1.264  -0.390  1.00  0.00     0.095 C 
ATOM      2  C   UNL     1      -2.946  -1.078  -1.893  1.00  0.00     0.041 C 
ATOM      3  C   UNL     1      -2.030   0.089  -2.243  1.00  0.00     0.087 C 
ATOM      4  N   UNL     1      -0.828   0.183  -1.411  1.00  0.00    -0.299 NA
ATOM      5  C   UNL     1      -1.182   0.286   0.007  1.00  0.00     0.087 C 
ATOM      6  C   UNL     1      -2.042  -0.859   0.530  1.00  0.00     0.041 C 
ENDROOT
BRANCH   1   7
ATOM      7  N   UNL     1      -4.517  -0.803   0.056  1.00  0.00    -0.291 N 
ATOM      8  C   UNL     1      -5.506  -1.653   0.489  1.00  0.00     0.295 A 
ATOM      9  N   UNL     1      -6.603  -1.046   0.840  1.00  0.00    -0.195 NA
ATOM     10  C   UNL     1      -6.334   0.281   0.630  1.00  0.00     0.092 A 
ATOM     11  C   UNL     1      -5.036   0.473   0.139  1.00  0.00     0.072 A 
ATOM     12  C   UNL     1      -7.175   1.384   0.846  1.00  0.00     0.031 A 
ATOM     13  C   UNL     1      -4.554   1.757  -0.145  1.00  0.00     0.029 A 
ATOM     14  C   UNL     1      -6.699   2.666   0.564  1.00  0.00     0.002 A 
ATOM     15  C   UNL     1      -5.408   2.846   0.076  1.00  0.00     0.002 A 
BRANCH   8  16
ATOM     16  O   UNL     1      -5.399  -2.965   0.558  1.00  0.00    -0.480 OA
ATOM     17  H   UNL     1      -6.279  -3.208   0.900  1.00  0.00     0.296 HD
ENDBRANCH   8  16
ENDBRANCH   1   7
BRANCH   4  18
ATOM     18  C   UNL     1       0.138  -0.889  -1.708  1.00  0.00     0.120 C 
BRANCH  18  19
ATOM     19  C   UNL     1       1.507  -0.647  -1.109  1.00  0.00    -0.034 A 
ATOM     20  C   UNL     1       2.087  -1.578  -0.245  1.00  0.00     0.007 A 
ATOM     21  C   UNL     1       2.233   0.504  -1.429  1.00  0.00     0.007 A 
ATOM     22  C   UNL     1       3.359  -1.349   0.293  1.00  0.00     0.026 A 
ATOM     23  C   UNL     1       3.507   0.724  -0.888  1.00  0.00     0.026 A 
ATOM     24  C   UNL     1       4.095  -0.190  -0.004  1.00  0.00     0.037 A 
BRANCH  24  25
ATOM     25  N   UNL     1       5.371  -0.020   0.558  1.00  0.00    -0.367 N 
ATOM     26  C   UNL     1       5.365   0.038   2.041  1.00  0.00     0.145 C 
ATOM     27  C   UNL     1       6.254   1.014  -0.023  1.00  0.00     0.145 C 
ATOM     28  C   UNL     1       6.807  -0.020   2.574  1.00  0.00     0.181 C 
ATOM     29  C   UNL     1       7.661   0.899   0.584  1.00  0.00     0.181 C 
ATOM     30  O   UNL     1       7.625   1.021   2.015  1.00  0.00    -0.378 OA
ENDBRANCH  24  25
ENDBRANCH  18  19
ENDBRANCH   4  18
TORSDOF 5
