MODEL        7USER    Run = 7USERUSER    Estimated Free Energy of Binding    =  -9.45 kcal/mol  [=(1)+(2)+(3)-(4)]USERUSER    (1) Final Intermolecular Energy     = -10.94 kcal/molUSER        vdW + Hbond + desolv Energy     = -10.75 kcal/molUSER        Electrostatic Energy            =  -0.19 kcal/molUSER        Moving Ligand-Fixed Receptor    = -10.94 kcal/molUSER        Moving Ligand-Moving Receptor   =  +0.00 kcal/molUSER    (2) Final Total Internal Energy     =  -0.98 kcal/molUSER    (3) Torsional Free Energy           =  +1.49 kcal/molUSER    (4) Unbound System's Energy         =  -0.98 kcal/molUSERUSERREMARK SMILES Oc1nc2ccccc2n1C1CCN(Cc2ccc(N3CCOCC3)cc2)CC1REMARK SMILES IDX 11 1 12 2 13 3 14 4 28 5 29 6 10 7 2 8 3 9 4 10 9 11 5 12REMARK SMILES IDX 8 13 6 14 7 15 1 16 15 18 16 19 17 20 27 21 18 22 26 23REMARK SMILES IDX 19 24 20 25 21 26 25 27 22 28 24 29 23 30REMARK H PARENT 1 17USER                              x       y       z     vdW  Elec       q    TypeUSER                           _______ _______ _______ _____ _____    ______ ____ROOTATOM      1  C   UNL     1      36.554  46.838  15.439 -0.38 -0.07    +0.095 C  ATOM      2  C   UNL     1      36.437  45.657  14.465 -0.43 -0.02    +0.041 C  ATOM      3  C   UNL     1      36.456  44.283  15.124 -0.37 -0.03    +0.087 C  ATOM      4  N   UNL     1      35.603  44.171  16.310 -0.14 +0.13    -0.299 NA ATOM      5  C   UNL     1      35.976  45.169  17.316 -0.33 -0.04    +0.087 C  ATOM      6  C   UNL     1      35.932  46.611  16.825 -0.37 -0.04    +0.041 C  ENDROOTBRANCH   1   7ATOM      7  N   UNL     1      37.874  47.467  15.465 -0.22 +0.16    -0.291 N  ATOM      8  C   UNL     1      38.302  48.360  14.513 -0.28 -0.15    +0.295 A  ATOM      9  N   UNL     1      39.509  48.804  14.714 -0.36 +0.09    -0.195 NA ATOM     10  C   UNL     1      39.912  48.173  15.862 -0.47 -0.03    +0.092 A  ATOM     11  C   UNL     1      38.914  47.327  16.362 -0.39 -0.03    +0.072 A  ATOM     12  C   UNL     1      41.139  48.287  16.533 -0.48 -0.00    +0.031 A  ATOM     13  C   UNL     1      39.117  46.583  17.532 -0.40 -0.01    +0.029 A  ATOM     14  C   UNL     1      41.347  47.548  17.699 -0.50 -0.00    +0.002 A  ATOM     15  C   UNL     1      40.349  46.710  18.188 -0.47 -0.00    +0.002 A  BRANCH   8  16ATOM     16  O   UNL     1      37.591  48.758  13.477 -0.46 +0.18    -0.480 OA ATOM     17  H   UNL     1      37.647  49.727  13.571 -0.29 -0.17    +0.296 HD ENDBRANCH   8  16ENDBRANCH   1   7BRANCH   4  18ATOM     18  C   UNL     1      34.170  44.177  15.966 -0.29 -0.06    +0.120 C  BRANCH  18  19ATOM     19  C   UNL     1      33.400  43.027  16.579 -0.32 +0.02    -0.034 A  ATOM     20  C   UNL     1      34.042  42.078  17.376 -0.41 -0.00    +0.007 A  ATOM     21  C   UNL     1      32.022  42.905  16.381 -0.31 -0.00    +0.007 A  ATOM     22  C   UNL     1      33.317  41.025  17.948 -0.34 -0.01    +0.026 A  ATOM     23  C   UNL     1      31.303  41.850  16.959 -0.27 -0.01    +0.026 A  ATOM     24  C   UNL     1      31.935  40.878  17.745 -0.35 -0.01    +0.037 A  BRANCH  24  25ATOM     25  N   UNL     1      31.259  39.807  18.353 -0.15 -0.00    -0.367 N  ATOM     26  C   UNL     1      32.084  38.580  18.483 -0.42 +0.01    +0.145 C  ATOM     27  C   UNL     1      29.891  39.495  17.888 -0.32 +0.02    +0.145 C  ATOM     28  C   UNL     1      31.358  37.551  19.367 -0.44 +0.05    +0.181 C  ATOM     29  C   UNL     1      29.254  38.444  18.810 -0.29 +0.05    +0.181 C  ATOM     30  O   UNL     1      30.046  37.247  18.864 -0.47 -0.21    -0.378 OA ENDBRANCH  24  25ENDBRANCH  18  19ENDBRANCH   4  18TORSDOF 5TERENDMDL