REMARK SMILES Cc1nc2c(n1Cc1ccc(Cl)cc1Cl)=C[C@H](C=C1CCN(CCN3CCNCC3)CC1)C=2
REMARK SMILES IDX 19 1 20 2 21 3 22 4 31 5 32 6 18 7 17 8 2 9 3 10 6 11 4 12
REMARK SMILES IDX 5 13 33 14 16 15 1 16 7 17 8 18 9 19 14 20 10 21 13 22 11 23
REMARK SMILES IDX 15 24 12 25 23 26 24 27 25 28 26 29 30 30 27 31 29 32 28 33
REMARK H PARENT 28 34
ROOT
ATOM      1  C   UNL     1       0.389   1.014   0.068  1.00  0.00    -0.071 C 
ATOM      2  C   UNL     1       1.047   1.442  -1.227  1.00  0.00     0.046 C 
ATOM      3  C   UNL     1       2.438   0.805  -1.386  1.00  0.00     0.089 C 
ATOM      4  N   UNL     1       3.319   1.080  -0.230  1.00  0.00    -0.301 NA
ATOM      5  C   UNL     1       2.686   0.580   1.009  1.00  0.00     0.089 C 
ATOM      6  C   UNL     1       1.300   1.206   1.258  1.00  0.00     0.046 C 
ENDROOT
BRANCH   1   7
ATOM      7  C   UNL     1      -0.861   0.509   0.092  1.00  0.00    -0.016 C 
BRANCH   7   8
ATOM      8  C   UNL     1      -1.650   0.057   1.292  1.00  0.00     0.061 C 
ATOM      9  C   UNL     1      -5.381  -1.909   1.295  1.00  0.00     0.107 A 
ATOM     10  N   UNL     1      -4.221  -2.549   1.244  1.00  0.00    -0.234 NA
ATOM     11  N   UNL     1      -5.278  -0.515   1.298  1.00  0.00    -0.324 N 
ATOM     12  C   UNL     1      -3.299  -1.539   1.241  1.00  0.00     0.085 A 
ATOM     13  C   UNL     1      -3.945  -0.257   1.296  1.00  0.00     0.065 A 
ATOM     14  C   UNL     1      -1.975  -1.423   1.227  1.00  0.00     0.015 C 
ATOM     15  C   UNL     1      -3.028   0.708   1.332  1.00  0.00     0.013 C 
ATOM     16  C   UNL     1      -6.670  -2.666   1.343  1.00  0.00     0.088 C 
BRANCH  11  17
ATOM     17  C   UNL     1      -6.332   0.453   1.498  1.00  0.00     0.161 C 
BRANCH  17  18
ATOM     18  C   UNL     1      -7.320   0.505   0.351  1.00  0.00    -0.009 A 
ATOM     19  C   UNL     1      -8.633   0.037   0.560  1.00  0.00     0.008 A 
ATOM     20  C   UNL     1      -6.995   1.024  -0.915  1.00  0.00     0.047 A 
ATOM     21  C   UNL     1      -9.579   0.064  -0.468  1.00  0.00     0.021 A 
ATOM     22  C   UNL     1      -7.942   1.046  -1.945  1.00  0.00     0.041 A 
ATOM     23  C   UNL     1      -9.226   0.563  -1.717  1.00  0.00     0.042 A 
ATOM     24  Cl  UNL     1      -5.442   1.694  -1.265  1.00  0.00    -0.084 Cl
ATOM     25  Cl  UNL     1     -10.392   0.595  -2.983  1.00  0.00    -0.084 Cl
ENDBRANCH  17  18
ENDBRANCH  11  17
ENDBRANCH   7   8
ENDBRANCH   1   7
BRANCH   4  26
ATOM     26  C   UNL     1       4.647   0.468  -0.453  1.00  0.00     0.100 C 
BRANCH  26  27
ATOM     27  C   UNL     1       5.731   0.954   0.545  1.00  0.00     0.100 C 
BRANCH  27  28
ATOM     28  N   UNL     1       7.101   0.466   0.332  1.00  0.00    -0.300 NA
ATOM     29  C   UNL     1       7.711   0.876  -0.942  1.00  0.00     0.100 C 
ATOM     30  C   UNL     1       7.271  -0.967   0.614  1.00  0.00     0.100 C 
ATOM     31  C   UNL     1       7.934  -0.281  -1.942  1.00  0.00     0.096 C 
ATOM     32  C   UNL     1       8.595  -1.525   0.047  1.00  0.00     0.096 C 
ATOM     33  N   UNL     1       8.726  -1.403  -1.413  1.00  0.00    -0.314 NA
ATOM     34  H   UNL     1       8.417  -2.264  -1.862  1.00  0.00     0.122 HD
ENDBRANCH  27  28
ENDBRANCH  26  27
ENDBRANCH   4  26
TORSDOF 7
