MODEL        6USER    Run = 6USERUSER    Estimated Free Energy of Binding    =  -9.53 kcal/mol  [=(1)+(2)+(3)-(4)]USERUSER    (1) Final Intermolecular Energy     = -11.61 kcal/molUSER        vdW + Hbond + desolv Energy     = -11.55 kcal/molUSER        Electrostatic Energy            =  -0.06 kcal/molUSER        Moving Ligand-Fixed Receptor    = -11.61 kcal/molUSER        Moving Ligand-Moving Receptor   =  +0.00 kcal/molUSER    (2) Final Total Internal Energy     =  -1.74 kcal/molUSER    (3) Torsional Free Energy           =  +2.09 kcal/molUSER    (4) Unbound System's Energy         =  -1.74 kcal/molUSERUSERREMARK SMILES CCCN1CCC(=C[C@H]2C=c3nc(C)n(Cc4ccc(OC)cc4)c3=C2)CC1REMARK SMILES IDX 9 1 10 2 11 3 12 4 13 5 14 6 15 7 25 8 26 9 8 10 7 11 4 12REMARK SMILES IDX 5 13 28 14 6 15 27 16 3 17 2 18 1 19 16 20 17 21 18 22 24 23REMARK SMILES IDX 19 24 23 25 20 26 21 27 22 28REMARK H PARENTUSER                              x       y       z     vdW  Elec       q    TypeUSER                           _______ _______ _______ _____ _____    ______ ____ROOTATOM      1  C   UNL     1      39.868  47.924  14.585 -0.52 -0.01    +0.061 C  ATOM      2  C   UNL     1      40.736  48.824  15.441 -0.68 -0.00    +0.015 C  ATOM      3  C   UNL     1      41.048  48.139  16.537 -0.47 -0.01    +0.085 A  ATOM      4  N   UNL     1      41.772  48.340  17.680 -0.61 -0.00    -0.234 NA ATOM      5  C   UNL     1      41.615  47.206  18.349 -0.45 -0.00    +0.107 A  ATOM      6  C   UNL     1      42.242  46.999  19.691 -0.45 +0.01    +0.088 C  ATOM      7  N   UNL     1      40.816  46.260  17.705 -0.25 +0.02    -0.324 N  ATOM      8  C   UNL     1      40.440  46.834  16.537 -0.43 -0.01    +0.065 A  ATOM      9  C   UNL     1      39.730  46.661  15.424 -0.52 -0.00    +0.013 C  ENDROOTBRANCH   1  10ATOM     10  C   UNL     1      38.552  48.535  14.182 -0.51 +0.01    -0.016 C  BRANCH  10  11ATOM     11  C   UNL     1      37.306  48.019  14.137 -0.56 +0.04    -0.071 C  ATOM     12  N   UNL     1      35.733  45.730  13.354 -0.20 +0.16    -0.303 NA ATOM     13  C   UNL     1      35.649  46.185  14.752 -0.39 -0.07    +0.089 C  ATOM     14  C   UNL     1      35.802  46.896  12.440 -0.63 -0.05    +0.089 C  ATOM     15  C   UNL     1      36.836  47.056  15.214 -0.44 -0.03    +0.046 C  ATOM     16  C   UNL     1      36.270  48.231  13.060 -0.50 -0.02    +0.046 C  BRANCH  12  17ATOM     17  C   UNL     1      36.851  44.806  13.093 -0.44 -0.03    +0.084 C  BRANCH  17  18ATOM     18  C   UNL     1      37.194  44.656  11.605 -0.36 -0.00    +0.012 C  ATOM     19  C   UNL     1      37.292  43.190  11.208 -0.58 -0.00    +0.005 C  ENDBRANCH  17  18ENDBRANCH  12  17ENDBRANCH  10  11ENDBRANCH   1  10BRANCH   7  20ATOM     20  C   UNL     1      40.478  44.937  18.173 -0.33 -0.00    +0.159 C  BRANCH  20  21ATOM     21  C   UNL     1      38.988  44.746  18.363 -0.38 +0.00    -0.028 A  ATOM     22  C   UNL     1      38.152  44.587  17.248 -0.30 -0.00    +0.009 A  ATOM     23  C   UNL     1      38.405  44.775  19.636 -0.37 -0.00    +0.009 A  ATOM     24  C   UNL     1      36.767  44.443  17.402 -0.30 -0.01    +0.047 A  ATOM     25  C   UNL     1      37.024  44.626  19.787 -0.23 -0.00    +0.047 A  ATOM     26  C   UNL     1      36.198  44.459  18.674 -0.27 -0.03    +0.118 A  BRANCH  26  27ATOM     27  O   UNL     1      34.867  44.328  18.962 -0.08 +0.12    -0.497 OA ATOM     28  C   UNL     1      34.037  45.452  18.700 -0.32 -0.13    +0.278 C  ENDBRANCH  26  27ENDBRANCH  20  21ENDBRANCH   7  20TORSDOF 7TERENDMDL