REMARK SMILES CC(=O)Nc1ccc(-c2cnc3cccc(OC[C@H](O)CO)c3c2)c(Cl)c1N
REMARK SMILES IDX 17 1 16 2 9 3 10 4 24 5 11 6 23 7 12 8 13 9 15 10 14 11 8 12
REMARK SMILES IDX 5 13 6 14 27 15 7 16 25 17 26 18 4 19 2 20 1 21 3 22 28 24
REMARK SMILES IDX 18 27 19 28 20 29 21 31 22 32
REMARK H PARENT 4 23 28 25 28 26 20 30 22 33
ROOT
ATOM      1  O   UNL     1       3.264   0.478  -1.607  1.00  0.00    -0.490 OA
ENDROOT
BRANCH   1   2
ATOM      2  C   UNL     1       3.049  -0.755  -2.172  1.00  0.00     0.128 A 
ATOM      3  C   UNL     1      -0.412  -1.592  -0.986  1.00  0.00     0.002 A 
ATOM      4  C   UNL     1      -0.498  -2.829  -1.617  1.00  0.00     0.120 A 
ATOM      5  C   UNL     1       0.781  -0.889  -1.174  1.00  0.00     0.024 A 
ATOM      6  N   UNL     1       0.474  -3.375  -2.389  1.00  0.00    -0.255 NA
ATOM      7  C   UNL     1       1.820  -1.419  -1.964  1.00  0.00     0.043 A 
ATOM      8  C   UNL     1       1.609  -2.677  -2.561  1.00  0.00     0.074 A 
ATOM      9  C   UNL     1       2.616  -3.212  -3.355  1.00  0.00     0.029 A 
ATOM     10  C   UNL     1       4.037  -1.300  -2.988  1.00  0.00     0.047 A 
ATOM     11  C   UNL     1       3.821  -2.539  -3.579  1.00  0.00     0.006 A 
BRANCH   3  12
ATOM     12  C   UNL     1      -1.494  -1.060  -0.146  1.00  0.00     0.004 A 
ATOM     13  C   UNL     1      -3.493  -0.024   1.581  1.00  0.00     0.066 A 
ATOM     14  C   UNL     1      -2.238  -0.357   2.082  1.00  0.00     0.029 A 
ATOM     15  C   UNL     1      -3.778  -0.225   0.214  1.00  0.00     0.075 A 
ATOM     16  C   UNL     1      -1.256  -0.871   1.228  1.00  0.00     0.012 A 
ATOM     17  C   UNL     1      -2.764  -0.706  -0.645  1.00  0.00     0.074 A 
ATOM     18  Cl  UNL     1      -3.121  -0.822  -2.345  1.00  0.00    -0.081 Cl
BRANCH  13  19
ATOM     19  N   UNL     1      -4.546   0.499   2.361  1.00  0.00    -0.325 N 
ATOM     20  C   UNL     1      -4.550   0.787   3.708  1.00  0.00     0.221 C 
ATOM     21  C   UNL     1      -5.887   1.295   4.188  1.00  0.00     0.114 C 
ATOM     22  O   UNL     1      -3.615   0.650   4.489  1.00  0.00    -0.275 OA
ATOM     23  H   UNL     1      -5.403   0.628   1.828  1.00  0.00     0.169 HD
ENDBRANCH  13  19
BRANCH  15  24
ATOM     24  N   UNL     1      -5.019   0.283  -0.300  1.00  0.00    -0.396 N 
ATOM     25  H   UNL     1      -4.900   1.280  -0.489  1.00  0.00     0.156 HD
ATOM     26  H   UNL     1      -5.212  -0.170  -1.197  1.00  0.00     0.156 HD
ENDBRANCH  15  24
ENDBRANCH   3  12
ENDBRANCH   1   2
BRANCH   1  27
ATOM     27  C   UNL     1       4.069   0.355  -0.422  1.00  0.00     0.263 C 
BRANCH  27  28
ATOM     28  C   UNL     1       3.808   1.543   0.511  1.00  0.00     0.177 C 
BRANCH  28  29
ATOM     29  O   UNL     1       2.515   1.409   1.124  1.00  0.00    -0.387 OA
ATOM     30  H   UNL     1       2.269   2.308   1.421  1.00  0.00     0.211 HD
ENDBRANCH  28  29
BRANCH  28  31
ATOM     31  C   UNL     1       3.875   2.893  -0.207  1.00  0.00     0.191 C 
BRANCH  31  32
ATOM     32  O   UNL     1       3.670   3.936   0.754  1.00  0.00    -0.394 OA
ATOM     33  H   UNL     1       4.491   4.024   1.270  1.00  0.00     0.210 HD
ENDBRANCH  31  32
ENDBRANCH  28  31
ENDBRANCH  27  28
ENDBRANCH   1  27
TORSDOF 9
