REMARK SMILES CCCN1CCC(=C[C@H]2C=c3nc(C)n(Cc4ccc(OC)cc4)c3=C2)CC1
REMARK SMILES IDX 9 1 10 2 11 3 12 4 13 5 14 6 15 7 25 8 26 9 8 10 7 11 4 12
REMARK SMILES IDX 5 13 28 14 6 15 27 16 3 17 2 18 1 19 16 20 17 21 18 22 24 23
REMARK SMILES IDX 19 24 23 25 20 26 21 27 22 28
REMARK H PARENT
ROOT
ATOM      1  C   UNL     1      -1.423  -2.185   1.784  1.00  0.00     0.061 C 
ATOM      2  C   UNL     1      -1.392  -2.696   0.357  1.00  0.00     0.015 C 
ATOM      3  C   UNL     1      -0.116  -2.736  -0.016  1.00  0.00     0.085 A 
ATOM      4  N   UNL     1       0.598  -3.084  -1.129  1.00  0.00    -0.234 NA
ATOM      5  C   UNL     1       1.853  -2.835  -0.781  1.00  0.00     0.107 A 
ATOM      6  C   UNL     1       2.986  -3.067  -1.731  1.00  0.00     0.088 C 
ATOM      7  N   UNL     1       2.007  -2.333   0.512  1.00  0.00    -0.324 N 
ATOM      8  C   UNL     1       0.756  -2.262   1.027  1.00  0.00     0.065 A 
ATOM      9  C   UNL     1       0.043  -1.916   2.097  1.00  0.00     0.013 C 
ENDROOT
BRANCH   1  10
ATOM     10  C   UNL     1      -2.320  -0.994   1.995  1.00  0.00    -0.016 C 
BRANCH  10  11
ATOM     11  C   UNL     1      -2.319   0.233   1.434  1.00  0.00    -0.071 C 
ATOM     12  N   UNL     1      -3.454   1.868  -0.656  1.00  0.00    -0.303 NA
ATOM     13  C   UNL     1      -3.559   2.345   0.734  1.00  0.00     0.089 C 
ATOM     14  C   UNL     1      -2.131   1.237  -0.881  1.00  0.00     0.089 C 
ATOM     15  C   UNL     1      -3.391   1.245   1.803  1.00  0.00     0.046 C 
ATOM     16  C   UNL     1      -1.376   0.751   0.376  1.00  0.00     0.046 C 
BRANCH  12  17
ATOM     17  C   UNL     1      -4.536   0.950  -1.054  1.00  0.00     0.084 C 
BRANCH  17  18
ATOM     18  C   UNL     1      -5.934   1.580  -0.992  1.00  0.00     0.012 C 
ATOM     19  C   UNL     1      -6.989   0.633  -1.546  1.00  0.00     0.005 C 
ENDBRANCH  17  18
ENDBRANCH  12  17
ENDBRANCH  10  11
ENDBRANCH   1  10
BRANCH   7  20
ATOM     20  C   UNL     1       3.241  -1.984   1.173  1.00  0.00     0.159 C 
BRANCH  20  21
ATOM     21  C   UNL     1       3.890  -0.748   0.588  1.00  0.00    -0.028 A 
ATOM     22  C   UNL     1       5.268  -0.735   0.325  1.00  0.00     0.009 A 
ATOM     23  C   UNL     1       3.154   0.419   0.346  1.00  0.00     0.009 A 
ATOM     24  C   UNL     1       5.893   0.410  -0.184  1.00  0.00     0.047 A 
ATOM     25  C   UNL     1       3.779   1.558  -0.167  1.00  0.00     0.047 A 
ATOM     26  C   UNL     1       5.149   1.562  -0.435  1.00  0.00     0.118 A 
BRANCH  26  27
ATOM     27  O   UNL     1       5.633   2.741  -0.930  1.00  0.00    -0.497 OA
ATOM     28  C   UNL     1       7.027   2.803  -1.200  1.00  0.00     0.278 C 
ENDBRANCH  26  27
ENDBRANCH  20  21
ENDBRANCH   7  20
TORSDOF 7
