MODEL        6USER    Run = 6USERUSER    Estimated Free Energy of Binding    = -11.05 kcal/mol  [=(1)+(2)+(3)-(4)]USERUSER    (1) Final Intermolecular Energy     = -13.14 kcal/molUSER        vdW + Hbond + desolv Energy     = -13.21 kcal/molUSER        Electrostatic Energy            =  +0.07 kcal/molUSER        Moving Ligand-Fixed Receptor    = -13.14 kcal/molUSER        Moving Ligand-Moving Receptor   =  +0.00 kcal/molUSER    (2) Final Total Internal Energy     =  -2.41 kcal/molUSER    (3) Torsional Free Energy           =  +2.09 kcal/molUSER    (4) Unbound System's Energy         =  -2.41 kcal/molUSERUSERREMARK SMILES CN(C)c1ccc(-c2nc3ccccc3nc2-c2ccc(CN3CCC(n4c(O)nc5ccccc54)CC3)cc2)cc1REMARK SMILES IDX 18 1 19 2 20 3 21 4 39 5 40 6 17 7 8 8 9 9 10 10 16 11 11 12REMARK SMILES IDX 15 13 12 14 14 15 13 16 7 17 4 18 5 19 42 20 6 21 41 22 2 23REMARK SMILES IDX 1 24 3 25 22 26 23 27 24 28 38 29 25 30 37 31 26 32 27 33REMARK SMILES IDX 28 34 36 35 30 36 35 37 31 38 34 39 32 40 33 41 29 42REMARK H PARENT 29 43USER                              x       y       z     vdW  Elec       q    TypeUSER                           _______ _______ _______ _____ _____    ______ ____ROOTATOM      1  C   UNL     1      37.409  43.905  20.367 -0.38 -0.00    +0.002 A  ATOM      2  C   UNL     1      36.516  44.770  19.712 -0.10 -0.00    +0.011 A  ATOM      3  C   UNL     1      35.291  44.311  19.219 -0.38 -0.00    +0.006 A  ATOM      4  C   UNL     1      34.919  42.972  19.381 -0.39 +0.00    -0.034 A  ATOM      5  C   UNL     1      35.796  42.104  20.044 -0.44 -0.00    +0.006 A  ATOM      6  C   UNL     1      37.020  42.566  20.535 -0.32 -0.00    +0.011 A  ENDROOTBRANCH   1   7ATOM      7  C   UNL     1      38.696  44.409  20.878 -0.29 +0.00    +0.097 A  ATOM      8  C   UNL     1      39.077  44.428  22.230 -0.24 +0.00    +0.097 A  ATOM      9  N   UNL     1      40.257  44.987  22.619 -0.11 -0.01    -0.244 NA ATOM     10  C   UNL     1      41.052  45.495  21.661 -0.24 +0.01    +0.089 A  ATOM     11  N   UNL     1      39.515  44.908  19.908 -0.23 +0.00    -0.244 NA ATOM     12  C   UNL     1      42.266  46.074  22.013 -0.25 +0.01    +0.030 A  ATOM     13  C   UNL     1      40.681  45.452  20.299 -0.33 +0.00    +0.089 A  ATOM     14  C   UNL     1      43.120  46.613  21.050 -0.35 +0.00    +0.002 A  ATOM     15  C   UNL     1      41.539  45.992  19.348 -0.43 +0.00    +0.030 A  ATOM     16  C   UNL     1      42.755  46.573  19.711 -0.32 +0.00    +0.002 A  BRANCH   8  17ATOM     17  C   UNL     1      38.289  43.862  23.339 -0.30 +0.00    +0.003 A  ATOM     18  C   UNL     1      36.704  42.783  25.494 -0.37 -0.00    +0.036 A  ATOM     19  C   UNL     1      37.684  42.024  24.832 -0.24 +0.00    +0.026 A  ATOM     20  C   UNL     1      36.575  44.113  25.064 -0.25 +0.00    +0.026 A  ATOM     21  C   UNL     1      38.459  42.546  23.783 -0.24 +0.00    +0.012 A  ATOM     22  C   UNL     1      37.344  44.642  24.014 -0.29 +0.00    +0.012 A  BRANCH  18  23ATOM     23  N   UNL     1      35.943  42.257  26.544 -0.19 +0.07    -0.378 N  ATOM     24  C   UNL     1      35.235  43.183  27.426 -0.51 -0.03    +0.143 C  ATOM     25  C   UNL     1      36.345  40.989  27.152 -0.47 -0.05    +0.143 C  ENDBRANCH  18  23ENDBRANCH   8  17ENDBRANCH   1   7BRANCH   4  26ATOM     26  C   UNL     1      33.594  42.468  18.852 -0.37 -0.01    +0.120 C  BRANCH  26  27ATOM     27  N   UNL     1      33.526  42.387  17.383 -0.17 +0.11    -0.299 NA ATOM     28  C   UNL     1      32.872  43.535  16.747 -0.32 -0.04    +0.087 C  ATOM     29  C   UNL     1      34.841  42.071  16.803 -0.30 -0.04    +0.087 C  ATOM     30  C   UNL     1      33.726  44.803  16.743 -0.35 -0.02    +0.041 C  ATOM     31  C   UNL     1      35.354  43.090  15.782 -0.37 -0.02    +0.041 C  ATOM     32  C   UNL     1      35.178  44.511  16.333 -0.32 -0.05    +0.095 C  BRANCH  32  33ATOM     33  N   UNL     1      35.743  45.533  15.459 -0.16 +0.19    -0.291 N  ATOM     34  C   UNL     1      35.074  46.188  14.452 -0.16 -0.25    +0.295 A  ATOM     35  C   UNL     1      37.005  46.089  15.540 -0.32 -0.04    +0.072 A  ATOM     36  N   UNL     1      35.781  47.160  13.936 -0.32 +0.15    -0.195 NA ATOM     37  C   UNL     1      38.134  45.831  16.331 -0.35 -0.01    +0.029 A  ATOM     38  C   UNL     1      36.984  47.110  14.587 -0.37 -0.06    +0.092 A  ATOM     39  C   UNL     1      39.256  46.647  16.138 -0.44 -0.00    +0.002 A  ATOM     40  C   UNL     1      38.118  47.918  14.411 -0.50 -0.01    +0.031 A  ATOM     41  C   UNL     1      39.252  47.676  15.196 -0.51 -0.00    +0.002 A  BRANCH  34  42ATOM     42  O   UNL     1      33.850  45.913  14.034 +0.04 +0.41    -0.480 OA ATOM     43  H   UNL     1      33.750  46.283  13.145 -0.23 -0.26    +0.296 HD ENDBRANCH  34  42ENDBRANCH  32  33ENDBRANCH  26  27ENDBRANCH   4  26TORSDOF 7TERENDMDL