REMARK SMILES Oc1ccc(-c2nc3ccccc3nc2-c2ccc(CN3CCC(n4c(O)nc5ccccc54)CC3)cc2)cc1
REMARK SMILES IDX 16 1 17 2 18 3 19 4 37 5 38 6 15 7 6 8 7 9 8 10 14 11 9 12
REMARK SMILES IDX 13 13 10 14 12 15 11 16 5 17 2 18 3 19 40 20 4 21 39 22 1 23
REMARK SMILES IDX 20 25 21 26 22 27 36 28 23 29 35 30 24 31 25 32 26 33 34 34
REMARK SMILES IDX 28 35 33 36 29 37 32 38 30 39 31 40 27 41
REMARK H PARENT 1 24 27 42
ROOT
ATOM      1  C   UNL     1      -3.010   1.081   0.642  1.00  0.00     0.002 A 
ATOM      2  C   UNL     1      -2.634   1.395  -0.675  1.00  0.00     0.011 A 
ATOM      3  C   UNL     1      -1.310   1.716  -0.996  1.00  0.00     0.006 A 
ATOM      4  C   UNL     1      -0.326   1.765  -0.001  1.00  0.00    -0.034 A 
ATOM      5  C   UNL     1      -0.690   1.473   1.318  1.00  0.00     0.006 A 
ATOM      6  C   UNL     1      -2.010   1.136   1.632  1.00  0.00     0.011 A 
ENDROOT
BRANCH   1   7
ATOM      7  C   UNL     1      -4.397   0.730   1.008  1.00  0.00     0.097 A 
ATOM      8  C   UNL     1      -5.223  -0.174   0.321  1.00  0.00     0.097 A 
ATOM      9  N   UNL     1      -6.512  -0.389   0.712  1.00  0.00    -0.244 NA
ATOM     10  C   UNL     1      -6.951   0.266   1.801  1.00  0.00     0.089 A 
ATOM     11  N   UNL     1      -4.851   1.388   2.115  1.00  0.00    -0.244 NA
ATOM     12  C   UNL     1      -8.251   0.060   2.248  1.00  0.00     0.030 A 
ATOM     13  C   UNL     1      -6.115   1.156   2.508  1.00  0.00     0.089 A 
ATOM     14  C   UNL     1      -8.743   0.714   3.378  1.00  0.00     0.002 A 
ATOM     15  C   UNL     1      -6.614   1.804   3.633  1.00  0.00     0.030 A 
ATOM     16  C   UNL     1      -7.920   1.591   4.074  1.00  0.00     0.002 A 
BRANCH   8  17
ATOM     17  C   UNL     1      -4.821  -0.989  -0.839  1.00  0.00     0.003 A 
ATOM     18  C   UNL     1      -4.087  -2.529  -3.073  1.00  0.00     0.115 A 
ATOM     19  C   UNL     1      -3.329  -2.595  -1.912  1.00  0.00     0.047 A 
ATOM     20  C   UNL     1      -5.214  -1.717  -3.141  1.00  0.00     0.047 A 
ATOM     21  C   UNL     1      -3.696  -1.833  -0.800  1.00  0.00     0.014 A 
ATOM     22  C   UNL     1      -5.580  -0.957  -2.025  1.00  0.00     0.014 A 
BRANCH  18  23
ATOM     23  O   UNL     1      -3.694  -3.288  -4.135  1.00  0.00    -0.508 OA
ATOM     24  H   UNL     1      -4.299  -3.118  -4.878  1.00  0.00     0.293 HD
ENDBRANCH  18  23
ENDBRANCH   8  17
ENDBRANCH   1   7
BRANCH   4  25
ATOM     25  C   UNL     1       1.101   2.128  -0.353  1.00  0.00     0.120 C 
BRANCH  25  26
ATOM     26  N   UNL     1       1.847   1.023  -0.974  1.00  0.00    -0.299 NA
ATOM     27  C   UNL     1       2.053  -0.103  -0.048  1.00  0.00     0.087 C 
ATOM     28  C   UNL     1       3.074   1.484  -1.634  1.00  0.00     0.087 C 
ATOM     29  C   UNL     1       3.366  -0.849  -0.277  1.00  0.00     0.041 C 
ATOM     30  C   UNL     1       4.291   1.497  -0.715  1.00  0.00     0.041 C 
ATOM     31  C   UNL     1       4.547   0.114  -0.089  1.00  0.00     0.095 C 
BRANCH  31  32
ATOM     32  N   UNL     1       5.816  -0.474  -0.500  1.00  0.00    -0.291 N 
ATOM     33  C   UNL     1       6.189  -0.794  -1.774  1.00  0.00     0.295 A 
ATOM     34  C   UNL     1       6.883  -0.782   0.321  1.00  0.00     0.072 A 
ATOM     35  N   UNL     1       7.399  -1.275  -1.853  1.00  0.00    -0.195 NA
ATOM     36  C   UNL     1       7.106  -0.679   1.702  1.00  0.00     0.029 A 
ATOM     37  C   UNL     1       7.850  -1.278  -0.556  1.00  0.00     0.092 A 
ATOM     38  C   UNL     1       8.348  -1.107   2.183  1.00  0.00     0.002 A 
ATOM     39  C   UNL     1       9.091  -1.697  -0.053  1.00  0.00     0.031 A 
ATOM     40  C   UNL     1       9.328  -1.603   1.323  1.00  0.00     0.002 A 
BRANCH  33  41
ATOM     41  O   UNL     1       5.426  -0.659  -2.839  1.00  0.00    -0.480 OA
ATOM     42  H   UNL     1       6.009  -1.006  -3.539  1.00  0.00     0.296 HD
ENDBRANCH  33  41
ENDBRANCH  31  32
ENDBRANCH  25  26
ENDBRANCH   4  25
TORSDOF 7
