MODEL        8USER    Run = 8USERUSER    Estimated Free Energy of Binding    = -11.41 kcal/mol  [=(1)+(2)+(3)-(4)]USERUSER    (1) Final Intermolecular Energy     = -13.50 kcal/molUSER        vdW + Hbond + desolv Energy     = -13.37 kcal/molUSER        Electrostatic Energy            =  -0.13 kcal/molUSER        Moving Ligand-Fixed Receptor    = -13.50 kcal/molUSER        Moving Ligand-Moving Receptor   =  +0.00 kcal/molUSER    (2) Final Total Internal Energy     =  -1.59 kcal/molUSER    (3) Torsional Free Energy           =  +2.09 kcal/molUSER    (4) Unbound System's Energy         =  -1.59 kcal/molUSERUSERREMARK SMILES Oc1ccc(-c2nc3ccccc3nc2-c2ccc(CN3CCC(n4c(O)nc5ccccc54)CC3)cc2)cc1REMARK SMILES IDX 16 1 17 2 18 3 19 4 37 5 38 6 15 7 6 8 7 9 8 10 14 11 9 12REMARK SMILES IDX 13 13 10 14 12 15 11 16 5 17 2 18 3 19 40 20 4 21 39 22 1 23REMARK SMILES IDX 20 25 21 26 22 27 36 28 23 29 35 30 24 31 25 32 26 33 34 34REMARK SMILES IDX 28 35 33 36 29 37 32 38 30 39 31 40 27 41REMARK H PARENT 1 24 27 42USER                              x       y       z     vdW  Elec       q    TypeUSER                           _______ _______ _______ _____ _____    ______ ____ROOTATOM      1  C   UNL     1      39.029  45.117  19.283 -0.40 -0.00    +0.002 A  ATOM      2  C   UNL     1      40.213  44.850  19.991 -0.39 +0.00    +0.011 A  ATOM      3  C   UNL     1      40.202  44.083  21.162 -0.26 +0.00    +0.006 A  ATOM      4  C   UNL     1      38.999  43.587  21.680 -0.21 -0.00    -0.034 A  ATOM      5  C   UNL     1      37.810  43.862  20.995 -0.36 +0.00    +0.006 A  ATOM      6  C   UNL     1      37.827  44.613  19.817 -0.34 -0.00    +0.011 A  ENDROOTBRANCH   1   7ATOM      7  C   UNL     1      39.012  45.915  18.041 -0.35 -0.02    +0.097 A  ATOM      8  C   UNL     1      38.079  45.791  16.999 -0.32 -0.03    +0.097 A  ATOM      9  N   UNL     1      38.183  46.543  15.865 -0.21 +0.10    -0.244 NA ATOM     10  C   UNL     1      39.187  47.434  15.798 -0.42 -0.03    +0.089 A  ATOM     11  N   UNL     1      40.027  46.826  17.964 -0.31 +0.04    -0.244 NA ATOM     12  C   UNL     1      39.318  48.237  14.671 -0.51 -0.01    +0.030 A  ATOM     13  C   UNL     1      40.111  47.579  16.854 -0.43 -0.02    +0.089 A  ATOM     14  C   UNL     1      40.341  49.179  14.565 -0.46 -0.00    +0.002 A  ATOM     15  C   UNL     1      41.129  48.520  16.740 -0.49 -0.00    +0.030 A  ATOM     16  C   UNL     1      41.252  49.321  15.605 -0.62 -0.00    +0.002 A  BRANCH   8  17ATOM     17  C   UNL     1      36.908  44.896  17.001 -0.34 -0.00    +0.003 A  ATOM     18  C   UNL     1      34.654  43.218  17.026 -0.29 -0.04    +0.115 A  ATOM     19  C   UNL     1      35.820  42.794  16.405 -0.41 -0.02    +0.047 A  ATOM     20  C   UNL     1      34.590  44.460  17.647 -0.28 -0.02    +0.047 A  ATOM     21  C   UNL     1      36.943  43.626  16.396 -0.32 -0.00    +0.014 A  ATOM     22  C   UNL     1      35.716  45.290  17.638 -0.33 -0.01    +0.014 A  BRANCH  18  23ATOM     23  O   UNL     1      33.582  42.375  17.012 -0.09 +0.22    -0.508 OA ATOM     24  H   UNL     1      33.472  42.029  16.109 -0.37 -0.21    +0.293 HD ENDBRANCH  18  23ENDBRANCH   8  17ENDBRANCH   1   7BRANCH   4  25ATOM     25  C   UNL     1      38.993  42.771  22.955 -0.26 +0.01    +0.120 C  BRANCH  25  26ATOM     26  N   UNL     1      39.096  43.591  24.172 -0.07 -0.01    -0.299 NA ATOM     27  C   UNL     1      39.039  42.781  25.399 -0.22 +0.00    +0.087 C  ATOM     28  C   UNL     1      38.161  44.722  24.159 -0.28 +0.01    +0.087 C  ATOM     29  C   UNL     1      38.373  43.497  26.573 -0.25 -0.00    +0.041 C  ATOM     30  C   UNL     1      36.800  44.391  24.763 -0.25 +0.00    +0.041 C  ATOM     31  C   UNL     1      36.928  43.862  26.203 -0.34 -0.01    +0.095 C  BRANCH  31  32ATOM     32  N   UNL     1      36.303  44.732  27.191 -0.21 +0.07    -0.291 N  ATOM     33  C   UNL     1      35.364  44.372  28.114 -0.32 -0.08    +0.295 A  ATOM     34  C   UNL     1      36.573  46.072  27.394 -0.19 -0.02    +0.072 A  ATOM     35  N   UNL     1      35.006  45.352  28.897 -0.39 +0.05    -0.195 NA ATOM     36  C   UNL     1      37.433  46.992  26.777 -0.32 -0.00    +0.029 A  ATOM     37  C   UNL     1      35.748  46.423  28.464 -0.26 -0.03    +0.092 A  ATOM     38  C   UNL     1      37.429  48.301  27.270 -0.30 -0.00    +0.002 A  ATOM     39  C   UNL     1      35.763  47.740  28.946 -0.34 -0.01    +0.031 A  ATOM     40  C   UNL     1      36.614  48.671  28.340 -0.26 -0.00    +0.002 A  BRANCH  33  41ATOM     41  O   UNL     1      34.838  43.169  28.223 -0.27 +0.15    -0.480 OA ATOM     42  H   UNL     1      35.058  42.946  29.146 -0.32 -0.20    +0.296 HD ENDBRANCH  33  41ENDBRANCH  31  32ENDBRANCH  25  26ENDBRANCH   4  25TORSDOF 7TERENDMDL