MODEL        6USER    Run = 6USERUSER    Estimated Free Energy of Binding    = -12.59 kcal/mol  [=(1)+(2)+(3)-(4)]USERUSER    (1) Final Intermolecular Energy     = -14.38 kcal/molUSER        vdW + Hbond + desolv Energy     = -14.30 kcal/molUSER        Electrostatic Energy            =  -0.08 kcal/molUSER        Moving Ligand-Fixed Receptor    = -14.38 kcal/molUSER        Moving Ligand-Moving Receptor   =  +0.00 kcal/molUSER    (2) Final Total Internal Energy     =  -1.41 kcal/molUSER    (3) Torsional Free Energy           =  +1.79 kcal/molUSER    (4) Unbound System's Energy         =  -1.41 kcal/molUSERUSERREMARK SMILES Oc1nc2ccccc2n1C1CCN(Cc2ccc(-c3nc4ccc(F)cc4nc3-c3ccccc3)cc2)CC1REMARK SMILES IDX 11 1 12 2 13 3 14 4 39 5 40 6 10 7 2 8 3 9 4 10 9 11 5 12REMARK SMILES IDX 8 13 6 14 7 15 1 16 15 18 16 19 17 20 38 21 18 22 37 23REMARK SMILES IDX 19 24 20 25 21 26 30 27 22 28 29 29 23 30 28 31 24 32 27 33REMARK SMILES IDX 25 34 26 35 31 36 32 37 36 38 33 39 35 40 34 41REMARK H PARENT 1 17USER                              x       y       z     vdW  Elec       q    TypeUSER                           _______ _______ _______ _____ _____    ______ ____ROOTATOM      1  C   UNL     1      39.398  46.646  18.099 -0.33 -0.02    +0.095 C  ATOM      2  C   UNL     1      40.798  46.392  18.689 -0.51 -0.00    +0.041 C  ATOM      3  C   UNL     1      40.832  45.169  19.610 -0.41 +0.00    +0.087 C  ATOM      4  N   UNL     1      39.626  45.147  20.438 -0.19 -0.00    -0.299 NA ATOM      5  C   UNL     1      38.412  44.906  19.642 -0.36 -0.00    +0.087 C  ATOM      6  C   UNL     1      38.505  45.406  18.196 -0.43 -0.01    +0.041 C  ENDROOTBRANCH   1   7ATOM      7  N   UNL     1      39.439  47.196  16.750 -0.26 +0.08    -0.291 N  ATOM      8  C   UNL     1      40.408  48.036  16.272 -0.31 -0.06    +0.295 A  ATOM      9  N   UNL     1      40.211  48.404  15.036 -0.39 +0.05    -0.195 NA ATOM     10  C   UNL     1      39.047  47.772  14.675 -0.44 -0.03    +0.092 A  ATOM     11  C   UNL     1      38.533  47.008  15.726 -0.38 -0.03    +0.072 A  ATOM     12  C   UNL     1      38.365  47.807  13.448 -0.36 -0.01    +0.031 A  ATOM     13  C   UNL     1      37.350  46.267  15.601 -0.36 -0.01    +0.029 A  ATOM     14  C   UNL     1      37.182  47.072  13.308 -0.56 -0.00    +0.002 A  ATOM     15  C   UNL     1      36.686  46.315  14.368 -0.42 -0.00    +0.002 A  BRANCH   8  16ATOM     16  O   UNL     1      41.448  48.455  16.963 -0.67 +0.01    -0.480 OA ATOM     17  H   UNL     1      42.081  47.730  16.806 -0.31 -0.05    +0.296 HD ENDBRANCH   8  16ENDBRANCH   1   7BRANCH   4  18ATOM     18  C   UNL     1      39.712  44.185  21.548 -0.26 +0.00    +0.120 C  BRANCH  18  19ATOM     19  C   UNL     1      39.059  44.671  22.825 -0.26 -0.00    -0.034 A  ATOM     20  C   UNL     1      37.935  44.019  23.346 -0.32 +0.00    +0.006 A  ATOM     21  C   UNL     1      39.553  45.798  23.496 -0.25 +0.00    +0.006 A  ATOM     22  C   UNL     1      37.323  44.484  24.513 -0.32 +0.00    +0.011 A  ATOM     23  C   UNL     1      38.938  46.260  24.664 -0.25 +0.00    +0.011 A  ATOM     24  C   UNL     1      37.802  45.622  25.187 -0.30 +0.00    +0.002 A  BRANCH  24  25ATOM     25  C   UNL     1      37.134  46.099  26.410 -0.27 -0.01    +0.097 A  ATOM     26  N   UNL     1      37.056  47.459  26.497 -0.27 +0.02    -0.244 NA ATOM     27  C   UNL     1      36.591  45.276  27.411 -0.30 -0.02    +0.097 A  ATOM     28  C   UNL     1      36.407  47.980  27.551 -0.29 -0.02    +0.090 A  ATOM     29  N   UNL     1      35.925  45.813  28.474 -0.29 +0.06    -0.244 NA ATOM     30  C   UNL     1      36.290  49.361  27.668 -0.29 -0.00    +0.033 A  ATOM     31  C   UNL     1      35.833  47.152  28.543 -0.31 -0.02    +0.092 A  ATOM     32  C   UNL     1      35.613  49.937  28.742 -0.21 +0.00    +0.041 A  ATOM     33  C   UNL     1      35.163  47.732  29.608 -0.34 -0.01    +0.069 A  ATOM     34  C   UNL     1      35.055  49.113  29.704 -0.22 -0.01    +0.125 A  ATOM     35  F   UNL     1      34.400  49.654  30.738 -0.03 -0.00    -0.207 F  BRANCH  27  36ATOM     36  C   UNL     1      36.688  43.804  27.453 -0.41 -0.00    +0.002 A  ATOM     37  C   UNL     1      37.929  43.180  27.686 -0.34 -0.00    +0.010 A  ATOM     38  C   UNL     1      35.572  42.977  27.236 -0.52 -0.00    +0.010 A  ATOM     39  C   UNL     1      38.045  41.788  27.727 -0.42 -0.00    +0.001 A  ATOM     40  C   UNL     1      35.685  41.584  27.281 -0.61 -0.00    +0.001 A  ATOM     41  C   UNL     1      36.921  40.991  27.529 -0.52 -0.00    +0.000 A  ENDBRANCH  27  36ENDBRANCH  24  25ENDBRANCH  18  19ENDBRANCH   4  18TORSDOF 6TERENDMDL