REMARK SMILES CN(C)c1ccc(-c2nc3ccccc3nc2-c2ccc(CN3CCC(n4c(O)nc5ccccc54)CC3)cc2)cc1
REMARK SMILES IDX 18 1 19 2 20 3 21 4 39 5 40 6 17 7 8 8 9 9 10 10 16 11 11 12
REMARK SMILES IDX 15 13 12 14 14 15 13 16 7 17 4 18 5 19 42 20 6 21 41 22 2 23
REMARK SMILES IDX 1 24 3 25 22 26 23 27 24 28 38 29 25 30 37 31 26 32 27 33
REMARK SMILES IDX 28 34 36 35 30 36 35 37 31 38 34 39 32 40 33 41 29 42
REMARK H PARENT 29 43
ROOT
ATOM      1  C   UNL     1      -1.911   1.128  -0.622  1.00  0.00     0.002 A 
ATOM      2  C   UNL     1      -1.030   1.854   0.197  1.00  0.00     0.011 A 
ATOM      3  C   UNL     1       0.034   1.227   0.853  1.00  0.00     0.006 A 
ATOM      4  C   UNL     1       0.254  -0.146   0.695  1.00  0.00    -0.034 A 
ATOM      5  C   UNL     1      -0.611  -0.877  -0.130  1.00  0.00     0.006 A 
ATOM      6  C   UNL     1      -1.674  -0.247  -0.783  1.00  0.00     0.011 A 
ENDROOT
BRANCH   1   7
ATOM      7  C   UNL     1      -3.027   1.808  -1.303  1.00  0.00     0.097 A 
ATOM      8  C   UNL     1      -4.374   1.416  -1.234  1.00  0.00     0.097 A 
ATOM      9  N   UNL     1      -5.330   2.059  -1.962  1.00  0.00    -0.244 NA
ATOM     10  C   UNL     1      -4.941   3.094  -2.726  1.00  0.00     0.089 A 
ATOM     11  N   UNL     1      -2.640   2.872  -2.064  1.00  0.00    -0.244 NA
ATOM     12  C   UNL     1      -5.883   3.779  -3.484  1.00  0.00     0.030 A 
ATOM     13  C   UNL     1      -3.590   3.505  -2.774  1.00  0.00     0.089 A 
ATOM     14  C   UNL     1      -5.521   4.859  -4.291  1.00  0.00     0.002 A 
ATOM     15  C   UNL     1      -3.240   4.582  -3.581  1.00  0.00     0.030 A 
ATOM     16  C   UNL     1      -4.193   5.262  -4.340  1.00  0.00     0.002 A 
BRANCH   8  17
ATOM     17  C   UNL     1      -4.895   0.321  -0.397  1.00  0.00     0.003 A 
ATOM     18  C   UNL     1      -5.910  -1.856   1.200  1.00  0.00     0.036 A 
ATOM     19  C   UNL     1      -5.121  -0.830   1.747  1.00  0.00     0.026 A 
ATOM     20  C   UNL     1      -6.205  -1.730  -0.167  1.00  0.00     0.026 A 
ATOM     21  C   UNL     1      -4.626   0.233   0.973  1.00  0.00     0.012 A 
ATOM     22  C   UNL     1      -5.712  -0.672  -0.948  1.00  0.00     0.012 A 
BRANCH  18  23
ATOM     23  N   UNL     1      -6.406  -2.906   1.981  1.00  0.00    -0.378 N 
ATOM     24  C   UNL     1      -5.736  -3.214   3.244  1.00  0.00     0.143 C 
ATOM     25  C   UNL     1      -7.067  -4.033   1.326  1.00  0.00     0.143 C 
ENDBRANCH  18  23
ENDBRANCH   8  17
ENDBRANCH   1   7
BRANCH   4  26
ATOM     26  C   UNL     1       1.404  -0.831   1.400  1.00  0.00     0.120 C 
BRANCH  26  27
ATOM     27  N   UNL     1       2.384  -1.449   0.490  1.00  0.00    -0.299 NA
ATOM     28  C   UNL     1       3.033  -0.505  -0.425  1.00  0.00     0.087 C 
ATOM     29  C   UNL     1       3.337  -2.296   1.225  1.00  0.00     0.087 C 
ATOM     30  C   UNL     1       4.069   0.392   0.252  1.00  0.00     0.041 C 
ATOM     31  C   UNL     1       4.809  -1.920   1.036  1.00  0.00     0.041 C 
ATOM     32  C   UNL     1       4.983  -0.404   1.197  1.00  0.00     0.095 C 
BRANCH  32  33
ATOM     33  N   UNL     1       6.377   0.017   1.135  1.00  0.00    -0.291 N 
ATOM     34  C   UNL     1       7.097   0.569   2.169  1.00  0.00     0.295 A 
ATOM     35  C   UNL     1       7.246  -0.143   0.073  1.00  0.00     0.072 A 
ATOM     36  N   UNL     1       8.364   0.705   1.875  1.00  0.00    -0.195 NA
ATOM     37  C   UNL     1       7.102  -0.614  -1.240  1.00  0.00     0.029 A 
ATOM     38  C   UNL     1       8.477   0.281   0.578  1.00  0.00     0.092 A 
ATOM     39  C   UNL     1       8.251  -0.654  -2.040  1.00  0.00     0.002 A 
ATOM     40  C   UNL     1       9.617   0.231  -0.239  1.00  0.00     0.031 A 
ATOM     41  C   UNL     1       9.491  -0.241  -1.551  1.00  0.00     0.002 A 
BRANCH  34  42
ATOM     42  O   UNL     1       6.609   0.918   3.347  1.00  0.00    -0.480 OA
ATOM     43  H   UNL     1       5.739   1.317   3.201  1.00  0.00     0.296 HD
ENDBRANCH  34  42
ENDBRANCH  32  33
ENDBRANCH  26  27
ENDBRANCH   4  26
TORSDOF 7
