MODEL        1USER    Run = 1USERUSER    Estimated Free Energy of Binding    = -10.31 kcal/mol  [=(1)+(2)+(3)-(4)]USERUSER    (1) Final Intermolecular Energy     = -12.70 kcal/molUSER        vdW + Hbond + desolv Energy     = -12.36 kcal/molUSER        Electrostatic Energy            =  -0.33 kcal/molUSER        Moving Ligand-Fixed Receptor    = -12.70 kcal/molUSER        Moving Ligand-Moving Receptor   =  +0.00 kcal/molUSER    (2) Final Total Internal Energy     =  -2.25 kcal/molUSER    (3) Torsional Free Energy           =  +2.39 kcal/molUSER    (4) Unbound System's Energy         =  -2.25 kcal/molUSERUSERREMARK SMILES O=C(NCCN1CCOCC1)c1ccc(CN2CCC(n3c(O)nc4ccccc43)CC2)cc1REMARK SMILES IDX 12 1 13 2 14 3 15 4 33 5 34 6 2 7 3 8 1 9 4 11 5 12 6 13REMARK SMILES IDX 7 14 11 15 8 16 10 17 9 18 16 19 17 20 18 21 32 22 19 23REMARK SMILES IDX 31 24 20 25 21 26 22 27 30 28 24 29 29 30 25 31 28 32 26 33REMARK SMILES IDX 27 34 23 35REMARK H PARENT 3 10 23 36USER                              x       y       z     vdW  Elec       q    TypeUSER                           _______ _______ _______ _____ _____    ______ ____ROOTATOM      1  C   UNL     1      36.444  43.181  19.536 -0.32 -0.00    +0.039 A  ATOM      2  C   UNL     1      36.665  42.139  20.445 -0.38 -0.00    +0.014 A  ATOM      3  C   UNL     1      37.302  42.393  21.663 -0.43 +0.00    +0.006 A  ATOM      4  C   UNL     1      37.734  43.688  21.985 -0.35 -0.00    -0.034 A  ATOM      5  C   UNL     1      37.520  44.724  21.064 -0.26 +0.00    +0.006 A  ATOM      6  C   UNL     1      36.886  44.472  19.845 -0.31 -0.00    +0.014 A  ENDROOTBRANCH   1   7ATOM      7  C   UNL     1      35.770  42.957  18.226 -0.20 -0.06    +0.251 C  ATOM      8  N   UNL     1      35.919  43.957  17.285 -0.09 +0.12    -0.351 N  ATOM      9  O   UNL     1      35.154  41.918  18.019 -0.43 +0.08    -0.269 OA ATOM     10  H   UNL     1      36.683  44.606  17.421 +0.11 -0.05    +0.163 HD BRANCH   8  11ATOM     11  C   UNL     1      35.460  43.762  15.919 -0.34 -0.05    +0.131 C  BRANCH  11  12ATOM     12  C   UNL     1      36.471  44.310  14.895 -0.34 -0.04    +0.106 C  BRANCH  12  13ATOM     13  N   UNL     1      36.537  45.780  14.841 -0.16 +0.16    -0.297 NA ATOM     14  C   UNL     1      37.908  46.263  14.561 -0.39 -0.04    +0.113 C  ATOM     15  C   UNL     1      35.580  46.336  13.858 -0.45 -0.08    +0.113 C  ATOM     16  C   UNL     1      37.907  47.672  13.945 -0.45 -0.07    +0.175 C  ATOM     17  C   UNL     1      36.230  46.729  12.522 -0.58 -0.09    +0.175 C  ATOM     18  O   UNL     1      37.260  47.716  12.665 -0.94 +0.09    -0.379 OA ENDBRANCH  12  13ENDBRANCH  11  12ENDBRANCH   8  11ENDBRANCH   1   7BRANCH   4  19ATOM     19  C   UNL     1      38.415  43.969  23.309 -0.27 +0.01    +0.120 C  BRANCH  19  20ATOM     20  N   UNL     1      39.854  44.263  23.176 -0.07 -0.01    -0.299 NA ATOM     21  C   UNL     1      40.096  45.709  23.069 -0.24 +0.01    +0.087 C  ATOM     22  C   UNL     1      40.402  43.571  22.003 -0.26 +0.00    +0.087 C  ATOM     23  C   UNL     1      41.596  45.985  23.044 -0.21 +0.00    +0.041 C  ATOM     24  C   UNL     1      41.910  43.799  21.866 -0.34 +0.00    +0.041 C  ATOM     25  C   UNL     1      42.307  45.282  21.868 -0.25 +0.02    +0.095 C  BRANCH  25  26ATOM     26  N   UNL     1      42.207  46.036  20.618 -0.19 -0.06    -0.291 N  ATOM     27  C   UNL     1      43.172  46.948  20.244 -0.20 +0.10    +0.295 A  ATOM     28  C   UNL     1      41.300  45.999  19.574 -0.39 +0.01    +0.072 A  ATOM     29  N   UNL     1      42.901  47.585  19.143 -0.44 -0.02    -0.195 NA ATOM     30  C   UNL     1      40.171  45.228  19.248 -0.42 -0.00    +0.029 A  ATOM     31  C   UNL     1      41.742  47.008  18.703 -0.47 +0.00    +0.092 A  ATOM     32  C   UNL     1      39.475  45.526  18.068 -0.43 -0.00    +0.002 A  ATOM     33  C   UNL     1      41.027  47.295  17.528 -0.50 -0.00    +0.031 A  ATOM     34  C   UNL     1      39.888  46.550  17.223 -0.48 -0.00    +0.002 A  BRANCH  27  35ATOM     35  O   UNL     1      44.282  47.185  20.913 -0.45 -0.35    -0.480 OA ATOM     36  H   UNL     1      44.165  48.122  21.152 -0.42 +0.01    +0.296 HD ENDBRANCH  27  35ENDBRANCH  25  26ENDBRANCH  19  20ENDBRANCH   4  19TORSDOF 8TERENDMDL