REMARK SMILES O=C(NCCN1CCOCC1)c1ccc(CN2CCC(n3c(O)nc4ccccc43)CC2)cc1
REMARK SMILES IDX 12 1 13 2 14 3 15 4 33 5 34 6 2 7 3 8 1 9 4 11 5 12 6 13
REMARK SMILES IDX 7 14 11 15 8 16 10 17 9 18 16 19 17 20 18 21 32 22 19 23
REMARK SMILES IDX 31 24 20 25 21 26 22 27 30 28 24 29 29 30 25 31 28 32 26 33
REMARK SMILES IDX 27 34 23 35
REMARK H PARENT 3 10 23 36
ROOT
ATOM      1  C   UNL     1       1.987   0.088   1.247  1.00  0.00     0.039 A 
ATOM      2  C   UNL     1       1.457   0.769   0.144  1.00  0.00     0.014 A 
ATOM      3  C   UNL     1       0.117   1.169   0.143  1.00  0.00     0.006 A 
ATOM      4  C   UNL     1      -0.712   0.885   1.238  1.00  0.00    -0.034 A 
ATOM      5  C   UNL     1      -0.177   0.191   2.333  1.00  0.00     0.006 A 
ATOM      6  C   UNL     1       1.160  -0.211   2.336  1.00  0.00     0.014 A 
ENDROOT
BRANCH   1   7
ATOM      7  C   UNL     1       3.408  -0.357   1.292  1.00  0.00     0.251 C 
ATOM      8  N   UNL     1       4.305   0.394   0.557  1.00  0.00    -0.351 N 
ATOM      9  O   UNL     1       3.732  -1.319   1.978  1.00  0.00    -0.269 OA
ATOM     10  H   UNL     1       4.016   1.326   0.292  1.00  0.00     0.163 HD
BRANCH   8  11
ATOM     11  C   UNL     1       5.736   0.161   0.675  1.00  0.00     0.131 C 
BRANCH  11  12
ATOM     12  C   UNL     1       6.489   0.588  -0.598  1.00  0.00     0.106 C 
BRANCH  12  13
ATOM     13  N   UNL     1       7.955   0.543  -0.475  1.00  0.00    -0.297 NA
ATOM     14  C   UNL     1       8.444  -0.822  -0.174  1.00  0.00     0.113 C 
ATOM     15  C   UNL     1       8.624   1.079  -1.681  1.00  0.00     0.113 C 
ATOM     16  C   UNL     1       9.909  -1.015  -0.599  1.00  0.00     0.175 C 
ATOM     17  C   UNL     1       9.143  -0.011  -2.632  1.00  0.00     0.175 C 
ATOM     18  O   UNL     1      10.095  -0.889  -2.016  1.00  0.00    -0.379 OA
ENDBRANCH  12  13
ENDBRANCH  11  12
ENDBRANCH   8  11
ENDBRANCH   1   7
BRANCH   4  19
ATOM     19  C   UNL     1      -2.162   1.326   1.244  1.00  0.00     0.120 C 
BRANCH  19  20
ATOM     20  N   UNL     1      -3.112   0.211   1.421  1.00  0.00    -0.299 NA
ATOM     21  C   UNL     1      -3.148  -0.654   0.233  1.00  0.00     0.087 C 
ATOM     22  C   UNL     1      -4.453   0.735   1.705  1.00  0.00     0.087 C 
ATOM     23  C   UNL     1      -4.054  -1.854   0.491  1.00  0.00     0.041 C 
ATOM     24  C   UNL     1      -5.458  -0.393   1.960  1.00  0.00     0.041 C 
ATOM     25  C   UNL     1      -5.499  -1.440   0.838  1.00  0.00     0.095 C 
BRANCH  25  26
ATOM     26  N   UNL     1      -6.306  -1.161  -0.351  1.00  0.00    -0.291 N 
ATOM     27  C   UNL     1      -6.565  -2.134  -1.294  1.00  0.00     0.295 A 
ATOM     28  C   UNL     1      -7.001  -0.039  -0.767  1.00  0.00     0.072 A 
ATOM     29  N   UNL     1      -7.235  -1.708  -2.324  1.00  0.00    -0.195 NA
ATOM     30  C   UNL     1      -7.267   1.234  -0.236  1.00  0.00     0.029 A 
ATOM     31  C   UNL     1      -7.524  -0.407  -2.017  1.00  0.00     0.092 A 
ATOM     32  C   UNL     1      -8.017   2.136  -1.004  1.00  0.00     0.002 A 
ATOM     33  C   UNL     1      -8.268   0.513  -2.774  1.00  0.00     0.031 A 
ATOM     34  C   UNL     1      -8.504   1.788  -2.259  1.00  0.00     0.002 A 
BRANCH  27  35
ATOM     35  O   UNL     1      -6.185  -3.392  -1.200  1.00  0.00    -0.480 OA
ATOM     36  H   UNL     1      -6.548  -3.763  -2.025  1.00  0.00     0.296 HD
ENDBRANCH  27  35
ENDBRANCH  25  26
ENDBRANCH  19  20
ENDBRANCH   4  19
TORSDOF 8
