MODEL        10USER    Run = 10USERUSER    Estimated Free Energy of Binding    =  -9.47 kcal/mol  [=(1)+(2)+(3)-(4)]USERUSER    (1) Final Intermolecular Energy     = -10.67 kcal/molUSER        vdW + Hbond + desolv Energy     = -10.55 kcal/molUSER        Electrostatic Energy            =  -0.12 kcal/molUSER        Moving Ligand-Fixed Receptor    = -10.67 kcal/molUSER        Moving Ligand-Moving Receptor   =  +0.00 kcal/molUSER    (2) Final Total Internal Energy     =  -0.71 kcal/molUSER    (3) Torsional Free Energy           =  +1.19 kcal/molUSER    (4) Unbound System's Energy         =  -0.71 kcal/molUSERUSERREMARK SMILES Cc1cc(-c2n[nH]c3cnc(-c4cccnc4)cc23)ccc1C(=O)OREMARK SMILES IDX 1 1 2 2 3 3 4 4 20 5 21 6 22 7 23 8 24 9 25 10 5 12 6 13REMARK SMILES IDX 19 14 7 15 18 16 8 17 11 18 9 19 10 20 12 22 13 23 17 24REMARK SMILES IDX 14 25 16 26 15 27REMARK H PARENT 25 11 7 21USER                              x       y       z     vdW  Elec       q    TypeUSER                           _______ _______ _______ _____ _____    ______ ____ROOTATOM      1  C   UNL     1      36.822  46.402  15.798 -0.41 -0.03    +0.045 C  ATOM      2  C   UNL     1      38.148  47.110  15.726 -0.40 +0.02    -0.036 A  ATOM      3  C   UNL     1      39.036  46.972  16.812 -0.43 -0.00    +0.014 A  ATOM      4  C   UNL     1      40.289  47.602  16.823 -0.52 -0.00    +0.003 A  ATOM      5  C   UNL     1      40.668  48.367  15.718 -0.58 -0.00    +0.011 A  ATOM      6  C   UNL     1      39.800  48.513  14.630 -0.53 -0.01    +0.016 A  ATOM      7  C   UNL     1      38.537  47.894  14.621 -0.47 -0.03    +0.062 A  ENDROOTBRANCH   7   8ATOM      8  C   UNL     1      37.639  48.075  13.438 -0.26 -0.11    +0.335 C  ATOM      9  O   UNL     1      37.579  47.382  12.441 -1.04 +0.04    -0.246 OA BRANCH   8  10ATOM     10  O   UNL     1      36.829  49.144  13.564 -0.28 +0.26    -0.478 OA ATOM     11  H   UNL     1      37.406  49.819  13.982 -0.28 -0.23    +0.297 HD ENDBRANCH   8  10ENDBRANCH   7   8BRANCH   4  12ATOM     12  C   UNL     1      41.182  47.440  17.970 -0.45 -0.01    +0.100 A  ATOM     13  N   UNL     1      42.360  48.087  18.018 -0.45 -0.00    -0.174 NA ATOM     14  C   UNL     1      40.998  46.628  19.134 -0.39 +0.00    +0.031 A  ATOM     15  N   UNL     1      42.889  47.730  19.198 -0.39 -0.02    -0.276 N  ATOM     16  C   UNL     1      40.030  45.731  19.612 -0.37 -0.00    +0.041 A  ATOM     17  C   UNL     1      42.124  46.856  19.911 -0.34 +0.01    +0.084 A  ATOM     18  C   UNL     1      40.256  45.133  20.854 -0.30 +0.00    +0.073 A  ATOM     19  C   UNL     1      42.311  46.253  21.141 -0.26 +0.03    +0.140 A  ATOM     20  N   UNL     1      41.363  45.402  21.596 -0.15 -0.03    -0.254 NA ATOM     21  H   UNL     1      43.789  48.121  19.456 -0.50 -0.00    +0.190 HD BRANCH  18  22ATOM     22  C   UNL     1      39.312  44.174  21.458 -0.28 +0.00    +0.018 A  ATOM     23  C   UNL     1      38.013  43.959  20.971 -0.35 +0.00    +0.013 A  ATOM     24  C   UNL     1      39.672  43.407  22.569 -0.20 +0.01    +0.121 A  ATOM     25  C   UNL     1      37.162  43.043  21.589 -0.41 +0.00    +0.021 A  ATOM     26  N   UNL     1      38.867  42.511  23.199 -0.15 -0.03    -0.264 NA ATOM     27  C   UNL     1      37.629  42.351  22.691 -0.35 +0.01    +0.111 A  ENDBRANCH  18  22ENDBRANCH   4  12TORSDOF 4TERENDMDL