MODEL        4USER    Run = 4USERUSER    Estimated Free Energy of Binding    = -10.36 kcal/mol  [=(1)+(2)+(3)-(4)]USERUSER    (1) Final Intermolecular Energy     = -11.25 kcal/molUSER        vdW + Hbond + desolv Energy     = -10.97 kcal/molUSER        Electrostatic Energy            =  -0.29 kcal/molUSER        Moving Ligand-Fixed Receptor    = -11.25 kcal/molUSER        Moving Ligand-Moving Receptor   =  +0.00 kcal/molUSER    (2) Final Total Internal Energy     =  -0.50 kcal/molUSER    (3) Torsional Free Energy           =  +0.89 kcal/molUSER    (4) Unbound System's Energy         =  -0.50 kcal/molUSERUSERREMARK SMILES O=C1Nc2ccc(I)cc2/C1=C/N1C[C@@H](O)c2ccccc2O1REMARK SMILES IDX 13 1 14 2 15 3 17 4 18 5 19 6 20 7 21 8 22 9 23 10 12 11REMARK SMILES IDX 11 12 2 13 3 14 4 15 10 16 5 17 9 18 6 19 7 20 1 21 8 23REMARK SMILES IDX 16 24REMARK H PARENT 3 22 16 25USER                              x       y       z     vdW  Elec       q    TypeUSER                           _______ _______ _______ _____ _____    ______ ____ROOTATOM      1  N   UNL     1      36.055  45.425  16.019 -0.20 +0.12    -0.213 N  ATOM      2  C   UNL     1      35.395  46.554  16.697 -0.20 -0.22    +0.198 C  ATOM      3  C   UNL     1      34.948  46.099  18.094 -0.34 -0.11    +0.171 C  ATOM      4  C   UNL     1      34.376  44.704  18.046 -0.33 -0.01    +0.028 A  ATOM      5  C   UNL     1      33.748  44.137  19.165 -0.41 -0.00    +0.010 A  ATOM      6  C   UNL     1      33.229  42.843  19.102 -0.40 -0.00    +0.001 A  ATOM      7  C   UNL     1      33.336  42.103  17.924 -0.39 -0.00    +0.004 A  ATOM      8  C   UNL     1      33.971  42.653  16.810 -0.35 -0.02    +0.050 A  ATOM      9  C   UNL     1      34.503  43.940  16.878 -0.21 -0.07    +0.161 A  ATOM     10  O   UNL     1      35.094  44.427  15.731 -0.13 +0.19    -0.380 OA ENDROOTBRANCH   1  11ATOM     11  C   UNL     1      36.922  45.687  14.968 -0.34 -0.06    +0.138 C  BRANCH  11  12ATOM     12  C   UNL     1      37.788  46.688  14.761 -0.44 -0.03    +0.068 C  ATOM     13  C   UNL     1      37.761  47.688  13.635 -0.39 -0.09    +0.257 C  ATOM     14  N   UNL     1      38.869  48.496  13.855 -0.25 +0.11    -0.321 N  ATOM     15  C   UNL     1      39.561  48.114  14.999 -0.51 -0.02    +0.049 A  ATOM     16  C   UNL     1      38.945  47.013  15.601 -0.45 -0.00    +0.013 A  ATOM     17  C   UNL     1      40.698  48.704  15.514 -0.58 -0.01    +0.028 A  ATOM     18  C   UNL     1      39.464  46.462  16.760 -0.43 -0.01    +0.026 A  ATOM     19  C   UNL     1      41.230  48.156  16.685 -0.45 -0.00    +0.017 A  ATOM     20  C   UNL     1      40.616  47.047  17.297 -0.51 -0.00    +0.014 A  ATOM     21  O   UNL     1      36.952  47.810  12.737 -1.01 +0.09    -0.269 OA ATOM     22  H   UNL     1      39.103  49.267  13.249 -0.16 -0.06    +0.170 HD ATOM     23  I   UNL     1      41.442  46.259  19.040 -1.16 -0.00    -0.044 I  ENDBRANCH  11  12ENDBRANCH   1  11BRANCH   3  24ATOM     24  O   UNL     1      33.985  47.019  18.616 -0.94 +0.30    -0.386 OA ATOM     25  H   UNL     1      33.622  47.507  17.856 -0.40 -0.38    +0.211 HD ENDBRANCH   3  24TORSDOF 3TERENDMDL