MODEL        7USER    Run = 7USERUSER    Estimated Free Energy of Binding    = -10.22 kcal/mol  [=(1)+(2)+(3)-(4)]USERUSER    (1) Final Intermolecular Energy     = -11.71 kcal/molUSER        vdW + Hbond + desolv Energy     = -11.81 kcal/molUSER        Electrostatic Energy            =  +0.10 kcal/molUSER        Moving Ligand-Fixed Receptor    = -11.71 kcal/molUSER        Moving Ligand-Moving Receptor   =  +0.00 kcal/molUSER    (2) Final Total Internal Energy     =  -1.00 kcal/molUSER    (3) Torsional Free Energy           =  +1.49 kcal/molUSER    (4) Unbound System's Energy         =  -1.00 kcal/molUSERUSERREMARK SMILES C=Cc1cc(-n2cc(Cc3ccccc3)nn2)ccc1N1OCC[C@@H](C)[C@@H]1CREMARK SMILES IDX 3 1 4 2 5 3 18 4 19 5 20 6 2 7 1 8 21 9 22 10 27 11 23 12REMARK SMILES IDX 25 13 24 14 28 15 26 16 6 17 7 18 17 19 8 20 16 21 9 22REMARK SMILES IDX 10 23 11 24 15 25 12 26 14 27 13 28REMARK H PARENTUSER                              x       y       z     vdW  Elec       q    TypeUSER                           _______ _______ _______ _____ _____    ______ ____ROOTATOM      1  C   UNL     1      40.160  47.871  15.656 -0.54 -0.00    +0.002 A  ATOM      2  C   UNL     1      41.055  47.820  16.744 -0.46 -0.00    +0.038 A  ATOM      3  C   UNL     1      40.820  46.980  17.843 -0.47 -0.01    +0.067 A  ATOM      4  C   UNL     1      39.665  46.197  17.869 -0.43 -0.00    +0.031 A  ATOM      5  C   UNL     1      38.767  46.252  16.799 -0.39 -0.01    +0.031 A  ATOM      6  C   UNL     1      38.998  47.062  15.671 -0.41 -0.02    +0.071 A  ENDROOTBRANCH   1   7ATOM      7  C   UNL     1      40.393  48.864  14.590 -0.65 -0.00    +0.002 C  ATOM      8  C   UNL     1      41.446  49.689  14.537 -0.76 -0.00    +0.009 C  ENDBRANCH   1   7BRANCH   6   9ATOM      9  N   UNL     1      38.057  47.055  14.611 -0.24 +0.10    -0.251 N  ATOM     10  O   UNL     1      36.885  47.816  14.747 -0.32 +0.21    -0.273 OA ATOM     11  C   UNL     1      37.751  45.731  14.005 -0.40 -0.04    +0.112 C  ATOM     12  C   UNL     1      36.613  48.386  13.459 -0.41 -0.10    +0.194 C  ATOM     13  C   UNL     1      36.720  45.941  12.857 -0.62 -0.01    +0.013 C  ATOM     14  C   UNL     1      36.813  47.377  12.322 -0.72 -0.01    +0.037 C  ATOM     15  C   UNL     1      37.203  44.738  15.037 -0.39 -0.01    +0.034 C  ATOM     16  C   UNL     1      36.921  44.930  11.728 -0.58 -0.00    +0.010 C  ENDBRANCH   6   9BRANCH   3  17ATOM     17  N   UNL     1      41.749  46.949  18.914 -0.38 -0.01    -0.220 N  ATOM     18  C   UNL     1      41.624  46.358  20.150 -0.28 +0.02    +0.141 A  ATOM     19  N   UNL     1      42.961  47.552  18.830 -0.55 -0.01    -0.062 NA ATOM     20  C   UNL     1      42.821  46.603  20.790 -0.32 +0.03    +0.088 A  ATOM     21  N   UNL     1      43.618  47.346  19.964 -0.38 -0.05    -0.135 NA BRANCH  20  22ATOM     22  C   UNL     1      43.282  46.219  22.146 -0.26 +0.03    +0.095 C  BRANCH  22  23ATOM     23  C   UNL     1      42.764  47.277  23.090 -0.25 -0.01    -0.042 A  ATOM     24  C   UNL     1      41.386  47.424  23.312 -0.25 +0.00    +0.004 A  ATOM     25  C   UNL     1      43.652  48.131  23.762 -0.30 +0.00    +0.004 A  ATOM     26  C   UNL     1      40.907  48.403  24.185 -0.34 +0.00    +0.000 A  ATOM     27  C   UNL     1      43.171  49.108  24.636 -0.33 +0.00    +0.000 A  ATOM     28  C   UNL     1      41.799  49.244  24.846 -0.36 +0.00    +0.000 A  ENDBRANCH  22  23ENDBRANCH  20  22ENDBRANCH   3  17TORSDOF 5TERENDMDL