MODEL        3USER    Run = 3USERUSER    Estimated Free Energy of Binding    =  -7.68 kcal/mol  [=(1)+(2)+(3)-(4)]USERUSER    (1) Final Intermolecular Energy     = -10.37 kcal/molUSER        vdW + Hbond + desolv Energy     = -10.46 kcal/molUSER        Electrostatic Energy            =  -0.22 kcal/molUSER        Moving Ligand-Fixed Receptor    = -10.68 kcal/molUSER        Moving Ligand-Moving Receptor   =  +0.31 kcal/molUSER    (2) Final Total Internal Energy     =  -1.54 kcal/molUSER    (3) Torsional Free Energy           =  +2.68 kcal/molUSER    (4) Unbound System's Energy         =  -1.54 kcal/molUSERUSERREMARK SMILES O=[N+]([O-])C1=CN=CN(c2ccc3c(c2)COO3)N=C1NC1CCCCC1REMARK SMILES IDX 18 1 19 2 20 3 4 5 2 7 1 8 3 9 21 10 22 11 26 12 23 13 25 14REMARK SMILES IDX 24 15 8 16 7 17 6 18 5 19 9 21 10 22 14 23 11 24 13 25 12 26REMARK SMILES IDX 15 27 17 28 16 29REMARK H PARENT 20 4REMARK Flexibility Score:   31.900USER                              x       y       z     vdW  Elec       q    TypeUSER                           _______ _______ _______ _____ _____    ______ ____ROOTATOM      1  N   UNL     1      37.979  46.639  17.575 -0.22 +0.05    -0.141 NA ENDROOTBRANCH   1   2ATOM      2  C   UNL     1      38.753  47.034  16.592 -0.32 -0.08    +0.227 C  ATOM      3  N   UNL     1      38.111  47.328  15.391 -0.16 +0.18    -0.360 N  ATOM      4  H   UNL     1      38.716  47.436  14.573 +0.12 -0.06    +0.162 HD BRANCH   2   5ATOM      5  C   UNL     1      40.246  47.152  16.703 -0.32 -0.06    +0.331 CG0ATOM      6  G   UNL     1      41.010  46.624  17.672 +0.00 +0.00    +0.000 G0 BRANCH   5   7ATOM      7  N   UNL     1      40.955  47.918  15.692 -0.48 -0.01    +0.068 N  ATOM      8  O   UNL     1      41.607  48.907  16.056 -0.93 -0.02    -0.258 OA ATOM      9  O   UNL     1      40.874  47.534  14.514 -0.29 +0.01    -0.258 OA ENDBRANCH   5   7ENDBRANCH   2   5BRANCH   3  10ATOM     10  C   UNL     1      36.729  46.975  15.082 -0.41 -0.06    +0.081 C  ATOM     11  C   UNL     1      36.575  45.453  14.963 -0.42 -0.01    +0.025 C  ATOM     12  C   UNL     1      36.291  47.685  13.793 -0.52 -0.02    +0.025 C  ATOM     13  C   UNL     1      37.229  44.885  13.704 -0.44 -0.00    +0.002 C  ATOM     14  C   UNL     1      36.925  47.099  12.530 -0.73 -0.00    +0.002 C  ATOM     15  C   UNL     1      36.732  45.589  12.447 -0.65 -0.00    +0.000 C  ENDBRANCH   3  10ENDBRANCH   1   2BRANCH   1  16ATOM     16  N   UNL     1      38.382  45.668  18.458 -0.26 +0.04    -0.220 N  BRANCH  16  17ATOM     17  C   UNL     1      39.541  45.798  19.218 -0.31 -0.01    +0.224 C  BRANCH  17  18ATOM     18  N   UNL     1      40.680  46.365  18.981 -0.29 +0.00    -0.237 NA BRANCH  18  19ATOM     19  C   UNL     1      41.007  46.627  17.676 -0.41 -0.02    +0.202 CG0ATOM     20  G   UNL     1      40.246  47.152  16.704 +0.00 +0.00    +0.000 G0 ENDBRANCH  18  19ENDBRANCH  17  18ENDBRANCH  16  17BRANCH  16  21ATOM     21  C   UNL     1      37.317  44.820  18.926 -0.29 -0.01    +0.067 A  ATOM     22  C   UNL     1      37.599  43.638  19.659 -0.24 -0.00    +0.032 A  ATOM     23  C   UNL     1      35.966  45.106  18.632 -0.28 -0.01    +0.038 A  ATOM     24  C   UNL     1      36.580  42.788  20.106 -0.35 -0.00    +0.053 A  ATOM     25  C   UNL     1      34.970  44.255  19.089 -0.36 -0.01    +0.030 A  ATOM     26  C   UNL     1      35.279  43.129  19.809 -0.31 -0.01    +0.171 A  ATOM     27  C   UNL     1      33.512  44.323  18.916 -0.28 -0.06    +0.256 C  ATOM     28  O   UNL     1      34.176  42.409  20.153 -0.48 -0.05    -0.337 OA ATOM     29  O   UNL     1      33.013  43.240  19.728 -0.82 -0.01    -0.183 OA ENDBRANCH  16  21ENDBRANCH   1  16TORSDOF 3TERENDMDL