REMARK SMILES C=Cc1cc(-n2cc(Cc3ccccc3)nn2)ccc1N1OCC[C@@H](C)[C@@H]1C
REMARK SMILES IDX 3 1 4 2 5 3 18 4 19 5 20 6 2 7 1 8 21 9 22 10 27 11 23 12
REMARK SMILES IDX 25 13 24 14 28 15 26 16 6 17 7 18 17 19 8 20 16 21 9 22
REMARK SMILES IDX 10 23 11 24 15 25 12 26 14 27 13 28
REMARK H PARENT
ROOT
ATOM      1  C   UNL     1      -1.425  -1.326   0.166  1.00  0.00     0.002 A 
ATOM      2  C   UNL     1      -0.045  -1.604   0.236  1.00  0.00     0.038 A 
ATOM      3  C   UNL     1       0.889  -0.842  -0.482  1.00  0.00     0.067 A 
ATOM      4  C   UNL     1       0.440   0.197  -1.298  1.00  0.00     0.031 A 
ATOM      5  C   UNL     1      -0.928   0.471  -1.381  1.00  0.00     0.031 A 
ATOM      6  C   UNL     1      -1.881  -0.259  -0.645  1.00  0.00     0.071 A 
ENDROOT
BRANCH   1   7
ATOM      7  C   UNL     1      -2.369  -2.238   0.841  1.00  0.00     0.002 C 
ATOM      8  C   UNL     1      -2.205  -2.721   2.079  1.00  0.00     0.009 C 
ENDBRANCH   1   7
BRANCH   6   9
ATOM      9  N   UNL     1      -3.252   0.084  -0.758  1.00  0.00    -0.251 N 
ATOM     10  O   UNL     1      -3.671   0.817  -1.880  1.00  0.00    -0.273 OA
ATOM     11  C   UNL     1      -3.911   0.596   0.474  1.00  0.00     0.112 C 
ATOM     12  C   UNL     1      -4.951   0.292  -2.259  1.00  0.00     0.194 C 
ATOM     13  C   UNL     1      -5.404   0.894   0.146  1.00  0.00     0.013 C 
ATOM     14  C   UNL     1      -5.860   0.046  -1.049  1.00  0.00     0.037 C 
ATOM     15  C   UNL     1      -3.223   1.855   1.015  1.00  0.00     0.034 C 
ATOM     16  C   UNL     1      -6.305   0.651   1.357  1.00  0.00     0.010 C 
ENDBRANCH   6   9
BRANCH   3  17
ATOM     17  N   UNL     1       2.271  -1.147  -0.379  1.00  0.00    -0.220 N 
ATOM     18  C   UNL     1       3.337  -0.549  -1.010  1.00  0.00     0.141 A 
ATOM     19  N   UNL     1       2.728  -2.146   0.417  1.00  0.00    -0.062 NA
ATOM     20  C   UNL     1       4.452  -1.208  -0.536  1.00  0.00     0.088 A 
ATOM     21  N   UNL     1       4.050  -2.189   0.328  1.00  0.00    -0.135 NA
BRANCH  20  22
ATOM     22  C   UNL     1       5.889  -1.014  -0.849  1.00  0.00     0.095 C 
BRANCH  22  23
ATOM     23  C   UNL     1       6.294   0.291  -0.206  1.00  0.00    -0.042 A 
ATOM     24  C   UNL     1       6.502   0.371   1.180  1.00  0.00     0.004 A 
ATOM     25  C   UNL     1       6.471   1.445  -0.984  1.00  0.00     0.004 A 
ATOM     26  C   UNL     1       6.876   1.577   1.774  1.00  0.00     0.000 A 
ATOM     27  C   UNL     1       6.847   2.651  -0.388  1.00  0.00     0.000 A 
ATOM     28  C   UNL     1       7.048   2.716   0.990  1.00  0.00     0.000 A 
ENDBRANCH  22  23
ENDBRANCH  20  22
ENDBRANCH   3  17
TORSDOF 5
