REMARK SMILES NCc1cc(Cl)cc(F)c1Nc1ncc(C[C@@H](CCO)C(=O)O)s1
REMARK SMILES IDX 12 1 13 2 14 3 15 4 24 5 11 6 10 8 3 9 4 10 5 11 8 12 7 13
REMARK SMILES IDX 6 14 9 15 2 16 1 17 16 20 17 21 18 22 19 23 20 24 21 26
REMARK SMILES IDX 22 27 23 28
REMARK H PARENT 11 7 1 18 1 19 20 25 23 29
ROOT
ATOM      1  C   UNL     1       0.968  -0.748   0.531  1.00  0.00     0.187 A 
ATOM      2  N   UNL     1       0.572   0.374   1.090  1.00  0.00    -0.228 NA
ATOM      3  C   UNL     1      -0.794   0.364   1.281  1.00  0.00     0.129 A 
ATOM      4  C   UNL     1      -1.451  -0.768   0.846  1.00  0.00     0.027 A 
ATOM      5  S   UNL     1      -0.305  -1.871   0.209  1.00  0.00    -0.102 S 
ENDROOT
BRANCH   1   6
ATOM      6  N   UNL     1       2.248  -1.089   0.213  1.00  0.00    -0.329 N 
ATOM      7  H   UNL     1       2.389  -2.098   0.235  1.00  0.00     0.169 HD
BRANCH   6   8
ATOM      8  C   UNL     1       3.352  -0.421   0.804  1.00  0.00     0.081 A 
ATOM      9  C   UNL     1       3.715   0.902   0.477  1.00  0.00    -0.006 A 
ATOM     10  C   UNL     1       4.788   1.502   1.169  1.00  0.00     0.028 A 
ATOM     11  C   UNL     1       5.474   0.814   2.171  1.00  0.00     0.044 A 
ATOM     12  C   UNL     1       4.070  -1.086   1.818  1.00  0.00     0.148 A 
ATOM     13  C   UNL     1       5.121  -0.487   2.499  1.00  0.00     0.062 A 
ATOM     14  Cl  UNL     1       6.778   1.577   2.994  1.00  0.00    -0.084 Cl
ATOM     15  F   UNL     1       3.732  -2.347   2.135  1.00  0.00    -0.205 F 
BRANCH   9  16
ATOM     16  C   UNL     1       3.073   1.675  -0.651  1.00  0.00     0.115 C 
BRANCH  16  17
ATOM     17  N   UNL     1       3.773   1.444  -1.914  1.00  0.00    -0.326 NA
ATOM     18  H   UNL     1       3.708   0.450  -2.132  1.00  0.00     0.119 HD
ATOM     19  H   UNL     1       4.764   1.644  -1.791  1.00  0.00     0.119 HD
ENDBRANCH  16  17
ENDBRANCH   9  16
ENDBRANCH   6   8
ENDBRANCH   1   6
BRANCH   4  20
ATOM     20  C   UNL     1      -2.911  -1.097   0.894  1.00  0.00     0.063 C 
BRANCH  20  21
ATOM     21  C   UNL     1      -3.752  -0.210  -0.038  1.00  0.00     0.106 C 
BRANCH  21  22
ATOM     22  C   UNL     1      -3.529  -0.524  -1.525  1.00  0.00     0.044 C 
BRANCH  22  23
ATOM     23  C   UNL     1      -4.304   0.412  -2.447  1.00  0.00     0.157 C 
BRANCH  23  24
ATOM     24  O   UNL     1      -4.042   0.067  -3.800  1.00  0.00    -0.396 OA
ATOM     25  H   UNL     1      -3.093   0.205  -3.964  1.00  0.00     0.210 HD
ENDBRANCH  23  24
ENDBRANCH  22  23
ENDBRANCH  21  22
BRANCH  21  26
ATOM     26  C   UNL     1      -5.203  -0.375   0.343  1.00  0.00     0.306 C 
ATOM     27  O   UNL     1      -5.913   0.494   0.821  1.00  0.00    -0.252 OA
BRANCH  26  28
ATOM     28  O   UNL     1      -5.686  -1.609   0.118  1.00  0.00    -0.481 OA
ATOM     29  H   UNL     1      -6.627  -1.561   0.394  1.00  0.00     0.296 HD
ENDBRANCH  26  28
ENDBRANCH  21  26
ENDBRANCH  20  21
ENDBRANCH   4  20
TORSDOF 11
