REMARK SMILES Cc1cc(-c2n[nH]c3cnc(-c4cccnc4)cc23)ccc1C(=O)O
REMARK SMILES IDX 1 1 2 2 3 3 4 4 20 5 21 6 22 7 23 8 24 9 25 10 5 12 6 13
REMARK SMILES IDX 19 14 7 15 18 16 8 17 11 18 9 19 10 20 12 22 13 23 17 24
REMARK SMILES IDX 14 25 16 26 15 27
REMARK H PARENT 25 11 7 21
ROOT
ATOM      1  C   UNL     1      -5.224   0.073  -1.149  1.00  0.00     0.045 C 
ATOM      2  C   UNL     1      -3.969  -0.161  -0.353  1.00  0.00    -0.036 A 
ATOM      3  C   UNL     1      -2.970   0.834  -0.377  1.00  0.00     0.014 A 
ATOM      4  C   UNL     1      -1.770   0.690   0.335  1.00  0.00     0.003 A 
ATOM      5  C   UNL     1      -1.576  -0.461   1.101  1.00  0.00     0.011 A 
ATOM      6  C   UNL     1      -2.557  -1.458   1.139  1.00  0.00     0.016 A 
ATOM      7  C   UNL     1      -3.756  -1.324   0.415  1.00  0.00     0.062 A 
ENDROOT
BRANCH   7   8
ATOM      8  C   UNL     1      -4.780  -2.412   0.482  1.00  0.00     0.335 C 
ATOM      9  O   UNL     1      -5.880  -2.427  -0.036  1.00  0.00    -0.246 OA
BRANCH   8  10
ATOM     10  O   UNL     1      -4.366  -3.466   1.212  1.00  0.00    -0.478 OA
ATOM     11  H   UNL     1      -5.126  -4.085   1.169  1.00  0.00     0.297 HD
ENDBRANCH   8  10
ENDBRANCH   7   8
BRANCH   4  12
ATOM     12  C   UNL     1      -0.754   1.741   0.282  1.00  0.00     0.100 A 
ATOM     13  N   UNL     1      -1.106   3.038   0.329  1.00  0.00    -0.174 NA
ATOM     14  C   UNL     1       0.665   1.602   0.163  1.00  0.00     0.031 A 
ATOM     15  N   UNL     1       0.058   3.702   0.285  1.00  0.00    -0.276 N 
ATOM     16  C   UNL     1       1.582   0.546   0.033  1.00  0.00     0.041 A 
ATOM     17  C   UNL     1       1.155   2.899   0.181  1.00  0.00     0.084 A 
ATOM     18  C   UNL     1       2.938   0.871  -0.055  1.00  0.00     0.073 A 
ATOM     19  C   UNL     1       2.505   3.184   0.101  1.00  0.00     0.140 A 
ATOM     20  N   UNL     1       3.379   2.156  -0.009  1.00  0.00    -0.254 NA
ATOM     21  H   UNL     1       0.032   4.715   0.325  1.00  0.00     0.190 HD
BRANCH  18  22
ATOM     22  C   UNL     1       3.992  -0.151  -0.195  1.00  0.00     0.018 A 
ATOM     23  C   UNL     1       3.787  -1.390  -0.822  1.00  0.00     0.013 A 
ATOM     24  C   UNL     1       5.282   0.069   0.295  1.00  0.00     0.121 A 
ATOM     25  C   UNL     1       4.822  -2.321  -0.918  1.00  0.00     0.021 A 
ATOM     26  N   UNL     1       6.311  -0.817   0.224  1.00  0.00    -0.264 NA
ATOM     27  C   UNL     1       6.054  -1.992  -0.383  1.00  0.00     0.111 A 
ENDBRANCH  18  22
ENDBRANCH   4  12
TORSDOF 4
