MODEL        10USER    Run = 10USERUSER    Estimated Free Energy of Binding    =  -9.17 kcal/mol  [=(1)+(2)+(3)-(4)]USERUSER    (1) Final Intermolecular Energy     = -11.55 kcal/molUSER        vdW + Hbond + desolv Energy     = -11.46 kcal/molUSER        Electrostatic Energy            =  -0.09 kcal/molUSER        Moving Ligand-Fixed Receptor    = -11.55 kcal/molUSER        Moving Ligand-Moving Receptor   =  +0.00 kcal/molUSER    (2) Final Total Internal Energy     =  -2.70 kcal/molUSER    (3) Torsional Free Energy           =  +2.39 kcal/molUSER    (4) Unbound System's Energy         =  -2.70 kcal/molUSERUSERREMARK SMILES C[C@@H]1[C@@H](C(=O)NCCc2ccccc2[CH]O)O[C@H]1n1cnc2c(N)ncnc21REMARK SMILES IDX 7 1 6 2 4 3 5 4 3 6 2 7 18 8 17 9 1 10 19 11 20 12 28 13REMARK SMILES IDX 21 14 27 15 22 16 26 17 23 18 25 19 24 20 8 23 9 24 10 25REMARK SMILES IDX 14 26 11 27 13 28 12 29 15 30 16 31REMARK H PARENT 6 5 24 21 24 22 16 32USER                              x       y       z     vdW  Elec       q    TypeUSER                           _______ _______ _______ _____ _____    ______ ____ROOTATOM      1  C   UNL     1      36.896  43.913  17.607 -0.23 -0.03    +0.120 C  ENDROOTBRANCH   1   2ATOM      2  N   UNL     1      36.828  45.223  16.996 -0.11 +0.14    -0.354 N  ATOM      3  C   UNL     1      36.479  45.366  15.662 -0.24 -0.12    +0.249 C  ATOM      4  O   UNL     1      36.050  44.422  14.990 -0.25 +0.11    -0.272 OA ATOM      5  H   UNL     1      37.433  45.953  17.356 +0.10 -0.06    +0.163 HD BRANCH   3   6ATOM      6  C   UNL     1      36.752  46.809  15.115 -0.30 -0.15    +0.217 C  ATOM      7  C   UNL     1      38.099  47.071  14.421 -0.47 -0.03    +0.075 C  ATOM      8  C   UNL     1      38.201  48.280  15.368 -0.39 -0.14    +0.228 C  ATOM      9  O   UNL     1      37.092  47.773  16.170 -0.17 +0.32    -0.344 OA ATOM     10  C   UNL     1      38.052  47.377  12.941 -0.45 -0.00    +0.016 C  BRANCH   8  11ATOM     11  N   UNL     1      39.527  48.368  15.998 -0.29 +0.11    -0.287 N  ATOM     12  C   UNL     1      40.509  49.262  15.681 -0.45 -0.06    +0.204 A  ATOM     13  C   UNL     1      39.962  47.579  17.020 -0.33 -0.04    +0.167 A  ATOM     14  N   UNL     1      41.569  49.100  16.448 -0.93 -0.02    -0.231 NA ATOM     15  N   UNL     1      39.308  46.586  17.641 -0.30 +0.05    -0.216 NA ATOM     16  C   UNL     1      41.242  48.043  17.281 -0.37 -0.01    +0.150 A  ATOM     17  C   UNL     1      40.078  46.043  18.608 -0.30 -0.02    +0.226 A  ATOM     18  C   UNL     1      41.944  47.394  18.310 -0.40 -0.00    +0.155 A  ATOM     19  N   UNL     1      41.330  46.389  18.976 -0.33 -0.01    -0.217 NA BRANCH  18  20ATOM     20  N   UNL     1      43.226  47.746  18.692 -0.27 -0.03    -0.382 N  ATOM     21  H   UNL     1      43.272  48.669  19.091 -0.53 -0.03    +0.158 HD ATOM     22  H   UNL     1      43.945  47.479  18.032 -0.36 +0.02    +0.158 HD ENDBRANCH  18  20ENDBRANCH   8  11ENDBRANCH   3   6ENDBRANCH   1   2BRANCH   1  23ATOM     23  C   UNL     1      36.062  43.844  18.887 -0.37 -0.01    +0.057 C  BRANCH  23  24ATOM     24  C   UNL     1      34.585  43.729  18.584 -0.32 +0.01    -0.040 A  ATOM     25  C   UNL     1      33.997  42.454  18.639 -0.40 -0.00    +0.004 A  ATOM     26  C   UNL     1      33.772  44.843  18.308 -0.38 +0.01    -0.013 A  ATOM     27  C   UNL     1      32.636  42.285  18.413 -0.37 -0.00    +0.000 A  ATOM     28  C   UNL     1      32.400  44.657  18.081 -0.22 -0.00    +0.007 A  ATOM     29  C   UNL     1      31.835  43.384  18.130 -0.31 -0.00    +0.000 A  BRANCH  26  30ATOM     30  C   UNL     1      34.317  46.186  18.231 -0.43 -0.13    +0.178 C  BRANCH  30  31ATOM     31  O   UNL     1      33.774  47.186  18.982 -0.88 +0.24    -0.385 OA ATOM     32  H   UNL     1      32.846  47.367  18.747 -0.40 -0.20    +0.211 HD ENDBRANCH  30  31ENDBRANCH  26  30ENDBRANCH  23  24ENDBRANCH   1  23TORSDOF 8TERENDMDL