MODEL        1USER    Run = 1USERUSER    Estimated Free Energy of Binding    =  -6.48 kcal/mol  [=(1)+(2)+(3)-(4)]USERUSER    (1) Final Intermolecular Energy     = -11.25 kcal/molUSER        vdW + Hbond + desolv Energy     = -11.03 kcal/molUSER        Electrostatic Energy            =  -0.22 kcal/molUSER        Moving Ligand-Fixed Receptor    = -11.25 kcal/molUSER        Moving Ligand-Moving Receptor   =  +0.00 kcal/molUSER    (2) Final Total Internal Energy     =  -6.55 kcal/molUSER    (3) Torsional Free Energy           =  +4.77 kcal/molUSER    (4) Unbound System's Energy         =  -6.55 kcal/molUSERUSERREMARK SMILES CC[CH]CC(=O)c1ccccc1OC[C@@H](O)[C@@H](O)CNCc1cc(O)cc(OC)c1REMARK SMILES IDX 14 1 13 2 12 3 7 4 8 5 9 6 11 7 10 8 5 9 6 10 4 11 3 12 2 13REMARK SMILES IDX 1 14 15 15 16 16 17 18 18 19 19 21 20 22 21 24 22 25 23 26REMARK SMILES IDX 30 27 24 28 27 29 26 30 25 31 28 33 29 34REMARK H PARENT 16 17 18 20 20 23 25 32USER                              x       y       z     vdW  Elec       q    TypeUSER                           _______ _______ _______ _____ _____    ______ ____ROOTATOM      1  C   UNL     1      33.176  42.285  18.204 -0.25 -0.06    +0.264 C  ENDROOTBRANCH   1   2ATOM      2  O   UNL     1      34.543  42.241  18.656 -0.11 +0.08    -0.490 OA BRANCH   2   3ATOM      3  C   UNL     1      35.478  42.761  17.802 -0.26 -0.04    +0.130 A  ATOM      4  C   UNL     1      36.365  43.735  18.278 -0.26 -0.01    +0.060 A  ATOM      5  C   UNL     1      37.256  44.359  17.388 -0.32 -0.00    +0.016 A  ATOM      6  C   UNL     1      37.277  44.009  16.041 -0.32 -0.00    +0.001 A  ATOM      7  C   UNL     1      35.484  42.437  16.437 -0.39 -0.02    +0.047 A  ATOM      8  C   UNL     1      36.391  43.047  15.566 -0.34 -0.00    +0.004 A  BRANCH   4   9ATOM      9  C   UNL     1      36.425  44.182  19.702 -0.33 -0.02    +0.166 C  ATOM     10  O   UNL     1      35.437  44.742  20.188 -0.26 +0.04    -0.294 OA BRANCH   9  11ATOM     11  C   UNL     1      37.701  43.994  20.514 -0.37 -0.00    +0.085 C  BRANCH  11  12ATOM     12  C   UNL     1      38.703  45.077  20.268 -0.41 +0.00    -0.000 C  BRANCH  12  13ATOM     13  C   UNL     1      39.889  44.846  19.394 -0.47 -0.00    +0.001 C  ATOM     14  C   UNL     1      40.115  45.995  18.426 -0.52 -0.00    +0.004 C  ENDBRANCH  12  13ENDBRANCH  11  12ENDBRANCH   9  11ENDBRANCH   4   9ENDBRANCH   2   3ENDBRANCH   1   2BRANCH   1  15ATOM     15  C   UNL     1      32.471  43.443  18.920 -0.32 -0.02    +0.182 C  BRANCH  15  16ATOM     16  O   UNL     1      33.047  43.621  20.233 -0.83 -0.03    -0.387 OA ATOM     17  H   UNL     1      33.966  43.904  20.072 +0.10 -0.01    +0.211 HD ENDBRANCH  15  16BRANCH  15  18ATOM     18  C   UNL     1      32.526  44.758  18.111 -0.18 -0.04    +0.160 C  BRANCH  18  19ATOM     19  O   UNL     1      33.389  45.673  18.801 -0.26 +0.18    -0.389 OA ATOM     20  H   UNL     1      33.425  45.402  19.744 -0.26 -0.10    +0.211 HD ENDBRANCH  18  19BRANCH  18  21ATOM     21  C   UNL     1      32.921  44.622  16.614 -0.30 -0.06    +0.115 C  BRANCH  21  22ATOM     22  N   UNL     1      34.163  45.307  16.243 -0.12 +0.25    -0.310 NA ATOM     23  H   UNL     1      34.378  46.029  16.940 -0.00 -0.13    +0.123 HD BRANCH  22  24ATOM     24  C   UNL     1      34.176  45.877  14.901 -0.23 -0.12    +0.117 C  BRANCH  24  25ATOM     25  C   UNL     1      35.471  46.570  14.550 -0.36 +0.02    -0.027 A  ATOM     26  C   UNL     1      35.795  46.833  13.210 -0.53 -0.03    +0.051 A  ATOM     27  C   UNL     1      36.362  46.972  15.564 -0.33 -0.05    +0.051 A  ATOM     28  C   UNL     1      36.985  47.484  12.900 -0.52 -0.04    +0.119 A  ATOM     29  C   UNL     1      37.546  47.652  15.245 -0.37 -0.08    +0.122 A  ATOM     30  C   UNL     1      37.859  47.895  13.904 -0.46 -0.04    +0.092 A  BRANCH  28  31ATOM     31  O   UNL     1      37.269  47.713  11.583 -0.78 +0.07    -0.508 OA ATOM     32  H   UNL     1      36.628  48.364  11.248 -0.15 -0.15    +0.293 HD ENDBRANCH  28  31BRANCH  29  33ATOM     33  O   UNL     1      38.474  48.119  16.144 -0.13 +0.29    -0.497 OA ATOM     34  C   UNL     1      39.649  48.715  15.593 -0.39 -0.11    +0.278 C  ENDBRANCH  29  33ENDBRANCH  24  25ENDBRANCH  22  24ENDBRANCH  21  22ENDBRANCH  18  21ENDBRANCH  15  18ENDBRANCH   1  15TORSDOF 16TERENDMDL