MODEL        6USER    Run = 6USERUSER    Estimated Free Energy of Binding    =  -6.53 kcal/mol  [=(1)+(2)+(3)-(4)]USERUSER    (1) Final Intermolecular Energy     =  -8.62 kcal/molUSER        vdW + Hbond + desolv Energy     =  -9.41 kcal/molUSER        Electrostatic Energy            =  -0.03 kcal/molUSER        Moving Ligand-Fixed Receptor    =  -9.44 kcal/molUSER        Moving Ligand-Moving Receptor   =  +0.82 kcal/molUSER    (2) Final Total Internal Energy     =  -0.89 kcal/molUSER    (3) Torsional Free Energy           =  +2.09 kcal/molUSER    (4) Unbound System's Energy         =  -0.89 kcal/molUSERUSERREMARK SMILES CC1=C2OC(Sc3ccnc4ccccc34)=NC=CC2=CC1REMARK SMILES IDX 5 1 4 2 3 3 2 4 22 5 20 6 21 7 1 8 6 10 7 11 8 12 16 13 9 14REMARK SMILES IDX 15 15 11 16 10 17 14 18 12 19 13 20 17 21 18 22 19 23REMARK H PARENTREMARK Flexibility Score:   35.900USER                              x       y       z     vdW  Elec       q    TypeUSER                           _______ _______ _______ _____ _____    ______ ____ROOTATOM      1  C   UNL     1      35.527  44.497  16.261 -0.21 -0.12    +0.260 C  ENDROOTBRANCH   1   2ATOM      2  O   UNL     1      34.823  43.480  16.833 -0.10 +0.17    -0.433 OA BRANCH   2   3ATOM      3  C   UNL     1      33.931  43.507  17.900 -0.28 -0.04    +0.136 C  ATOM      4  C   UNL     1      33.223  42.454  18.334 -0.42 +0.01    -0.026 C  ATOM      5  C   UNL     1      32.380  42.892  19.497 -0.39 +0.00    +0.062 C  ATOM      6  C   UNL     1      33.647  44.683  18.675 -0.46 -0.00    +0.015 CG0ATOM      7  C   UNL     1      32.752  44.342  19.622 -0.47 +0.00    -0.011 C  ATOM      8  C   UNL     1      33.205  41.062  17.824 -0.41 -0.01    +0.044 C  ATOM      9  G   UNL     1      34.193  45.994  18.540 +0.00 +0.00    +0.000 G0 ENDBRANCH   2   3ENDBRANCH   1   2BRANCH   1  10ATOM     10  S   UNL     1      36.527  43.963  14.893 -0.43 +0.01    -0.030 SA BRANCH  10  11ATOM     11  C   UNL     1      36.933  45.575  14.209 -0.40 -0.01    +0.028 A  ATOM     12  C   UNL     1      36.194  45.989  13.101 -0.51 -0.02    +0.036 A  ATOM     13  C   UNL     1      37.949  46.412  14.741 -0.41 -0.01    +0.014 A  ATOM     14  C   UNL     1      36.486  47.217  12.548 -0.58 -0.05    +0.113 A  ATOM     15  C   UNL     1      38.758  46.094  15.864 -0.39 -0.00    +0.011 A  ATOM     16  C   UNL     1      38.157  47.649  14.088 -0.46 -0.03    +0.071 A  ATOM     17  N   UNL     1      37.441  48.043  13.022 -0.85 +0.06    -0.256 NA ATOM     18  C   UNL     1      39.747  46.969  16.318 -0.48 -0.00    +0.001 A  ATOM     19  C   UNL     1      39.144  48.503  14.564 -0.50 -0.01    +0.029 A  ATOM     20  C   UNL     1      39.939  48.176  15.665 -0.55 -0.00    +0.002 A  ENDBRANCH  10  11ENDBRANCH   1  10BRANCH   1  21ATOM     21  N   UNL     1      35.598  45.759  16.537 -0.21 +0.15    -0.215 NA BRANCH  21  22ATOM     22  C   UNL     1      35.001  46.408  17.568 -0.37 -0.10    +0.116 C  BRANCH  22  23ATOM     23  C   UNL     1      34.193  45.990  18.547 -0.53 -0.02    +0.032 CG0ATOM     24  G   UNL     1      33.649  44.678  18.682 +0.00 +0.00    +0.000 G0 ENDBRANCH  22  23ENDBRANCH  21  22ENDBRANCH   1  21TORSDOF 2TERENDMDL