REMARK SMILES COc1ccc(CNC(=O)Nc2cc(Oc3ccc(Cl)cc3)c(C#N)cn2)cc1O
REMARK SMILES IDX 8 1 9 2 10 3 11 4 7 7 6 8 3 9 4 10 29 11 5 12 28 13 2 14
REMARK SMILES IDX 1 15 30 16 12 18 13 19 27 20 14 21 26 22 23 23 15 24 16 25
REMARK SMILES IDX 17 26 22 27 18 28 21 29 19 30 20 31 24 32 25 33
REMARK H PARENT 8 5 11 6 30 17
ROOT
ATOM      1  N   UNL     1       1.682  -1.118   1.525  1.00  0.00    -0.334 N 
ATOM      2  C   UNL     1       0.744  -1.347   0.534  1.00  0.00     0.320 C 
ATOM      3  O   UNL     1       0.842  -2.272  -0.261  1.00  0.00    -0.248 OA
ATOM      4  N   UNL     1      -0.279  -0.430   0.621  1.00  0.00    -0.292 N 
ATOM      5  H   UNL     1       1.781  -0.161   1.824  1.00  0.00     0.165 HD
ATOM      6  H   UNL     1      -0.323   0.105   1.471  1.00  0.00     0.173 HD
ENDROOT
BRANCH   1   7
ATOM      7  C   UNL     1       2.895  -1.909   1.584  1.00  0.00     0.153 C 
BRANCH   7   8
ATOM      8  C   UNL     1       4.078  -1.114   1.093  1.00  0.00    -0.025 A 
ATOM      9  C   UNL     1       6.271   0.406   0.179  1.00  0.00     0.160 A 
ATOM     10  C   UNL     1       6.105   0.170   1.542  1.00  0.00     0.051 A 
ATOM     11  C   UNL     1       5.331  -0.120  -0.714  1.00  0.00     0.157 A 
ATOM     12  C   UNL     1       5.013  -0.583   1.996  1.00  0.00     0.009 A 
ATOM     13  C   UNL     1       4.246  -0.870  -0.275  1.00  0.00     0.055 A 
BRANCH   9  14
ATOM     14  O   UNL     1       7.286   1.123  -0.402  1.00  0.00    -0.493 OA
ATOM     15  C   UNL     1       8.284   1.637   0.472  1.00  0.00     0.278 C 
ENDBRANCH   9  14
BRANCH  11  16
ATOM     16  O   UNL     1       5.464   0.100  -2.058  1.00  0.00    -0.504 OA
ATOM     17  H   UNL     1       6.281   0.626  -2.149  1.00  0.00     0.293 HD
ENDBRANCH  11  16
ENDBRANCH   7   8
ENDBRANCH   1   7
BRANCH   4  18
ATOM     18  C   UNL     1      -1.342  -0.312  -0.281  1.00  0.00     0.137 A 
ATOM     19  C   UNL     1      -2.367   0.563   0.050  1.00  0.00     0.095 A 
ATOM     20  N   UNL     1      -1.352  -1.002  -1.434  1.00  0.00    -0.237 NA
ATOM     21  C   UNL     1      -3.444   0.699  -0.830  1.00  0.00     0.150 A 
ATOM     22  C   UNL     1      -2.389  -0.829  -2.288  1.00  0.00     0.137 A 
ATOM     23  C   UNL     1      -3.456   0.014  -2.041  1.00  0.00     0.113 A 
BRANCH  21  24
ATOM     24  O   UNL     1      -4.431   1.590  -0.477  1.00  0.00    -0.456 OA
BRANCH  24  25
ATOM     25  C   UNL     1      -5.656   1.065  -0.122  1.00  0.00     0.127 A 
ATOM     26  C   UNL     1      -6.767   1.861  -0.416  1.00  0.00     0.048 A 
ATOM     27  C   UNL     1      -5.828  -0.157   0.536  1.00  0.00     0.048 A 
ATOM     28  C   UNL     1      -8.050   1.426  -0.080  1.00  0.00     0.024 A 
ATOM     29  C   UNL     1      -7.113  -0.591   0.873  1.00  0.00     0.024 A 
ATOM     30  C   UNL     1      -8.218   0.201   0.561  1.00  0.00     0.041 A 
ATOM     31  Cl  UNL     1      -9.798  -0.336   0.982  1.00  0.00    -0.084 Cl
ENDBRANCH  24  25
ENDBRANCH  21  24
BRANCH  23  32
ATOM     32  C   UNL     1      -4.488   0.166  -3.015  1.00  0.00     0.105 C 
ATOM     33  N   UNL     1      -5.318   0.282  -3.818  1.00  0.00    -0.192 NA
ENDBRANCH  23  32
ENDBRANCH   4  18
TORSDOF 8
