REMARK SMILES C[C@@H]1[C@@H](C(=O)NCCc2ccccc2[CH]O)O[C@H]1n1cnc2c(N)ncnc21
REMARK SMILES IDX 7 1 6 2 4 3 5 4 3 6 2 7 18 8 17 9 1 10 19 11 20 12 28 13
REMARK SMILES IDX 21 14 27 15 22 16 26 17 23 18 25 19 24 20 8 23 9 24 10 25
REMARK SMILES IDX 14 26 11 27 13 28 12 29 15 30 16 31
REMARK H PARENT 6 5 24 21 24 22 16 32
ROOT
ATOM      1  C   UNL     1      -2.512   0.206   0.331  1.00  0.00     0.120 C 
ENDROOT
BRANCH   1   2
ATOM      2  N   UNL     1      -1.380   0.059   1.222  1.00  0.00    -0.354 N 
ATOM      3  C   UNL     1      -0.480   1.097   1.402  1.00  0.00     0.249 C 
ATOM      4  O   UNL     1      -0.688   2.232   0.959  1.00  0.00    -0.272 OA
ATOM      5  H   UNL     1      -0.989  -0.868   1.352  1.00  0.00     0.163 HD
BRANCH   3   6
ATOM      6  C   UNL     1       0.820   0.649   2.154  1.00  0.00     0.217 C 
ATOM      7  C   UNL     1       2.157   1.262   1.703  1.00  0.00     0.075 C 
ATOM      8  C   UNL     1       2.653  -0.194   1.647  1.00  0.00     0.228 C 
ATOM      9  O   UNL     1       1.285  -0.688   1.760  1.00  0.00    -0.344 OA
ATOM     10  C   UNL     1       2.853   2.172   2.690  1.00  0.00     0.016 C 
BRANCH   8  11
ATOM     11  N   UNL     1       3.388  -0.471   0.403  1.00  0.00    -0.287 N 
ATOM     12  C   UNL     1       2.853  -0.956  -0.755  1.00  0.00     0.204 A 
ATOM     13  C   UNL     1       4.720  -0.255   0.217  1.00  0.00     0.167 A 
ATOM     14  N   UNL     1       3.769  -1.067  -1.696  1.00  0.00    -0.231 NA
ATOM     15  N   UNL     1       5.616   0.227   1.092  1.00  0.00    -0.216 NA
ATOM     16  C   UNL     1       4.943  -0.642  -1.095  1.00  0.00     0.150 A 
ATOM     17  C   UNL     1       6.840   0.296   0.528  1.00  0.00     0.226 A 
ATOM     18  C   UNL     1       6.261  -0.526  -1.566  1.00  0.00     0.155 A 
ATOM     19  N   UNL     1       7.205  -0.039  -0.728  1.00  0.00    -0.217 NA
BRANCH  18  20
ATOM     20  N   UNL     1       6.639  -0.866  -2.853  1.00  0.00    -0.382 N 
ATOM     21  H   UNL     1       7.498  -0.423  -3.134  1.00  0.00     0.158 HD
ATOM     22  H   UNL     1       5.878  -0.888  -3.518  1.00  0.00     0.158 HD
ENDBRANCH  18  20
ENDBRANCH   8  11
ENDBRANCH   3   6
ENDBRANCH   1   2
BRANCH   1  23
ATOM     23  C   UNL     1      -3.683  -0.680   0.758  1.00  0.00     0.057 C 
BRANCH  23  24
ATOM     24  C   UNL     1      -4.852  -0.556  -0.193  1.00  0.00    -0.040 A 
ATOM     25  C   UNL     1      -5.821   0.425   0.076  1.00  0.00     0.004 A 
ATOM     26  C   UNL     1      -4.977  -1.337  -1.356  1.00  0.00    -0.013 A 
ATOM     27  C   UNL     1      -6.898   0.619  -0.782  1.00  0.00     0.000 A 
ATOM     28  C   UNL     1      -6.069  -1.131  -2.212  1.00  0.00     0.007 A 
ATOM     29  C   UNL     1      -7.026  -0.160  -1.925  1.00  0.00     0.000 A 
BRANCH  26  30
ATOM     30  C   UNL     1      -4.014  -2.371  -1.689  1.00  0.00     0.178 C 
BRANCH  30  31
ATOM     31  O   UNL     1      -3.399  -2.363  -2.906  1.00  0.00    -0.385 OA
ATOM     32  H   UNL     1      -3.660  -1.598  -3.450  1.00  0.00     0.211 HD
ENDBRANCH  30  31
ENDBRANCH  26  30
ENDBRANCH  23  24
ENDBRANCH   1  23
TORSDOF 8
