MODEL        8USER    Run = 8USERUSER    Estimated Free Energy of Binding    =  -7.45 kcal/mol  [=(1)+(2)+(3)-(4)]USERUSER    (1) Final Intermolecular Energy     =  -9.24 kcal/molUSER        vdW + Hbond + desolv Energy     =  -8.71 kcal/molUSER        Electrostatic Energy            =  -0.53 kcal/molUSER        Moving Ligand-Fixed Receptor    =  -9.24 kcal/molUSER        Moving Ligand-Moving Receptor   =  +0.00 kcal/molUSER    (2) Final Total Internal Energy     =  -1.21 kcal/molUSER    (3) Torsional Free Energy           =  +1.79 kcal/molUSER    (4) Unbound System's Energy         =  -1.21 kcal/molUSERUSERREMARK SMILES Cc1cc(O)ccc1C(=O)c1c(O)cccc1C(=O)OREMARK SMILES IDX 11 1 12 2 14 3 15 4 16 5 17 6 9 7 10 8 8 9 2 10 3 11 4 12REMARK SMILES IDX 7 13 6 14 1 15 5 16 13 18 18 20 19 21 20 22REMARK H PARENT 5 17 13 19 20 23USER                              x       y       z     vdW  Elec       q    TypeUSER                           _______ _______ _______ _____ _____    ______ ____ROOTATOM      1  C   UNL     1      39.105  61.174   7.625 -0.33 -0.06    +0.079 A  ATOM      2  C   UNL     1      40.068  60.813   8.582 -0.24 -0.10    +0.127 A  ATOM      3  C   UNL     1      41.042  61.718   8.998 -0.23 -0.04    +0.047 A  ATOM      4  C   UNL     1      41.054  63.012   8.483 -0.29 -0.01    +0.005 A  ATOM      5  C   UNL     1      40.078  63.403   7.566 -0.27 -0.02    +0.017 A  ATOM      6  C   UNL     1      39.095  62.490   7.143 -0.41 -0.07    +0.074 A  ENDROOTBRANCH   1   7ATOM      7  C   UNL     1      38.182  60.115   7.145 -0.34 -0.14    +0.197 C  ATOM      8  O   UNL     1      37.289  59.743   7.906 -0.97 +0.17    -0.288 OA BRANCH   7   9ATOM      9  C   UNL     1      38.410  59.406   5.859 -0.35 -0.02    +0.026 A  ATOM     10  C   UNL     1      38.547  58.004   5.815 -0.34 +0.02    -0.036 A  ATOM     11  C   UNL     1      38.795  57.392   4.576 -0.36 -0.03    +0.050 A  ATOM     12  C   UNL     1      38.897  58.156   3.417 -0.41 -0.05    +0.115 A  ATOM     13  C   UNL     1      38.531  60.165   4.682 -0.43 -0.01    +0.016 A  ATOM     14  C   UNL     1      38.768  59.538   3.459 -0.36 -0.02    +0.047 A  ATOM     15  C   UNL     1      38.452  57.148   7.048 -0.44 -0.02    +0.045 C  BRANCH  12  16ATOM     16  O   UNL     1      39.135  57.499   2.246 -0.84 +0.20    -0.508 OA ATOM     17  H   UNL     1      39.548  56.643   2.443 -0.36 -0.46    +0.293 HD ENDBRANCH  12  16ENDBRANCH   7   9ENDBRANCH   1   7BRANCH   2  18ATOM     18  O   UNL     1      40.116  59.567   9.150 -0.10 +0.32    -0.507 OA ATOM     19  H   UNL     1      39.235  59.144   9.026 +0.18 -0.14    +0.293 HD ENDBRANCH   2  18BRANCH   6  20ATOM     20  C   UNL     1      38.016  62.986   6.272 -0.30 -0.24    +0.336 C  ATOM     21  O   UNL     1      38.043  63.993   5.595 -0.97 +0.17    -0.246 OA BRANCH  20  22ATOM     22  O   UNL     1      36.939  62.183   6.320 -0.25 +0.34    -0.478 OA ATOM     23  H   UNL     1      36.949  61.823   7.233 -0.30 -0.33    +0.297 HD ENDBRANCH  20  22ENDBRANCH   6  20TORSDOF 6TERENDMDL