REMARK SMILES CC1=C2OC(Sc3ccnc4ccccc34)=NC=CC2=CC1
REMARK SMILES IDX 5 1 4 2 3 3 2 4 22 5 20 6 21 7 1 8 6 10 7 11 8 12 16 13 9 14
REMARK SMILES IDX 15 15 11 16 10 17 14 18 12 19 13 20 17 21 18 22 19 23
REMARK H PARENT
REMARK Flexibility Score:   35.900
ROOT
ATOM      1  C   UNL     1      -0.621   1.823   0.158  1.00  0.00     0.260 C 
ENDROOT
BRANCH   1   2
ATOM      2  O   UNL     1      -1.354   0.813   0.707  1.00  0.00    -0.433 OA
BRANCH   2   3
ATOM      3  C   UNL     1      -2.326   0.005   0.128  1.00  0.00     0.136 C 
ATOM      4  C   UNL     1      -2.904  -1.047   0.726  1.00  0.00    -0.026 C 
ATOM      5  C   UNL     1      -3.894  -1.654  -0.226  1.00  0.00     0.062 C 
ATOM      6  C   UNL     1      -2.834   0.193  -1.203  1.00  0.00     0.015 CG0
ATOM      7  C   UNL     1      -3.760  -0.759  -1.425  1.00  0.00    -0.011 C 
ATOM      8  C   UNL     1      -2.675  -1.595   2.085  1.00  0.00     0.044 C 
ATOM      9  G   UNL     1      -2.486   1.194  -2.158  1.00  0.00     0.000 G0
ENDBRANCH   2   3
ENDBRANCH   1   2
BRANCH   1  10
ATOM     10  S   UNL     1       0.630   2.446   1.254  1.00  0.00    -0.030 SA
BRANCH  10  11
ATOM     11  C   UNL     1       2.074   1.751   0.440  1.00  0.00     0.028 A 
ATOM     12  C   UNL     1       2.782   2.600  -0.411  1.00  0.00     0.036 A 
ATOM     13  C   UNL     1       2.502   0.411   0.626  1.00  0.00     0.014 A 
ATOM     14  C   UNL     1       3.890   2.096  -1.056  1.00  0.00     0.113 A 
ATOM     15  C   UNL     1       1.862  -0.537   1.468  1.00  0.00     0.011 A 
ATOM     16  C   UNL     1       3.653   0.008  -0.090  1.00  0.00     0.071 A 
ATOM     17  N   UNL     1       4.332   0.830  -0.907  1.00  0.00    -0.256 NA
ATOM     18  C   UNL     1       2.340  -1.843   1.587  1.00  0.00     0.001 A 
ATOM     19  C   UNL     1       4.111  -1.296   0.051  1.00  0.00     0.029 A 
ATOM     20  C   UNL     1       3.468  -2.222   0.876  1.00  0.00     0.002 A 
ENDBRANCH  10  11
ENDBRANCH   1  10
BRANCH   1  21
ATOM     21  N   UNL     1      -0.679   2.401  -0.998  1.00  0.00    -0.215 NA
BRANCH  21  22
ATOM     22  C   UNL     1      -1.540   2.126  -2.011  1.00  0.00     0.116 C 
BRANCH  22  23
ATOM     23  C   UNL     1      -2.486   1.194  -2.158  1.00  0.00     0.032 CG0
ATOM     24  G   UNL     1      -2.834   0.193  -1.203  1.00  0.00     0.000 G0
ENDBRANCH  22  23
ENDBRANCH  21  22
ENDBRANCH   1  21
TORSDOF 2
