REMARK SMILES C#Cc1cccc(N2C=CC(Nc3ccccc3)=NC3=CC=N[C@H]32)c1O
REMARK SMILES IDX 20 1 21 2 22 3 23 4 24 5 8 6 7 7 3 8 4 9 25 10 5 11 6 12
REMARK SMILES IDX 2 13 1 14 26 15 9 17 19 19 11 20 12 21 10 23 13 25 14 26
REMARK SMILES IDX 18 27 15 28 17 29 16 30
REMARK H PARENT 26 16 12 22
REMARK Flexibility Score:   48.900
ROOT
ATOM      1  C   UNL     1      -0.500  -0.476  -1.296  1.00  0.00     0.089 C 
ATOM      2  C   UNL     1      -0.485  -0.494  -2.628  1.00  0.00     0.048 C 
ATOM      3  C   UNL     1       0.786  -1.132  -2.915  1.00  0.00     0.110 C 
ATOM      4  N   UNL     1       1.524  -1.519  -1.925  1.00  0.00    -0.262 NA
ATOM      5  C   UNL     1       0.783  -1.048  -0.718  1.00  0.00     0.254 C 
ENDROOT
BRANCH   5   6
ATOM      6  N   UNL     1       1.494  -0.013   0.053  1.00  0.00    -0.317 N 
BRANCH   6   7
ATOM      7  C   UNL     1       2.877  -0.293   0.254  1.00  0.00     0.086 A 
ATOM      8  C   UNL     1       5.210   0.444   0.111  1.00  0.00     0.068 A 
ATOM      9  C   UNL     1       5.616  -0.756   0.702  1.00  0.00     0.021 A 
ATOM     10  C   UNL     1       3.848   0.664  -0.113  1.00  0.00     0.154 A 
ATOM     11  C   UNL     1       4.673  -1.720   1.062  1.00  0.00     0.004 A 
ATOM     12  C   UNL     1       3.312  -1.490   0.841  1.00  0.00     0.030 A 
BRANCH   8  13
ATOM     13  C   UNL     1       6.200   1.413  -0.257  1.00  0.00    -0.067 C 
ATOM     14  C   UNL     1       7.032   2.222  -0.565  1.00  0.00     0.010 C 
ENDBRANCH   8  13
BRANCH  10  15
ATOM     15  O   UNL     1       3.431   1.821  -0.729  1.00  0.00    -0.505 OA
ATOM     16  H   UNL     1       2.486   1.666  -0.922  1.00  0.00     0.293 HD
ENDBRANCH  10  15
ENDBRANCH   6   7
BRANCH   6  17
ATOM     17  C   UNL     1       0.862   0.860   0.922  1.00  0.00     0.092 CG0
ATOM     18  G   UNL     1      -0.431   1.108   1.148  1.00  0.00     0.000 G0
ENDBRANCH   6  17
ENDBRANCH   5   6
BRANCH   1  19
ATOM     19  N   UNL     1      -1.637  -0.219  -0.588  1.00  0.00    -0.231 NA
BRANCH  19  20
ATOM     20  C   UNL     1      -1.639   0.460   0.522  1.00  0.00     0.132 C 
ATOM     21  N   UNL     1      -2.819   0.656   1.228  1.00  0.00    -0.340 N 
ATOM     22  H   UNL     1      -2.735   1.070   2.146  1.00  0.00     0.168 HD
BRANCH  20  23
ATOM     23  C   UNL     1      -0.431   1.108   1.148  1.00  0.00     0.065 CG0
ATOM     24  G   UNL     1       0.862   0.860   0.922  1.00  0.00     0.000 G0
ENDBRANCH  20  23
BRANCH  21  25
ATOM     25  C   UNL     1      -4.154   0.353   0.890  1.00  0.00     0.040 A 
ATOM     26  C   UNL     1      -4.581  -0.021  -0.388  1.00  0.00     0.026 A 
ATOM     27  C   UNL     1      -5.123   0.399   1.909  1.00  0.00     0.026 A 
ATOM     28  C   UNL     1      -5.923  -0.327  -0.646  1.00  0.00     0.002 A 
ATOM     29  C   UNL     1      -6.465   0.094   1.657  1.00  0.00     0.002 A 
ATOM     30  C   UNL     1      -6.865  -0.269   0.376  1.00  0.00     0.000 A 
ENDBRANCH  21  25
ENDBRANCH  19  20
ENDBRANCH   1  19
TORSDOF 4
