MODEL        4USER    Run = 4USERUSER    Estimated Free Energy of Binding    = -12.78 kcal/mol  [=(1)+(2)+(3)-(4)]USERUSER    (1) Final Intermolecular Energy     = -14.87 kcal/molUSER        vdW + Hbond + desolv Energy     = -14.70 kcal/molUSER        Electrostatic Energy            =  -0.17 kcal/molUSER        Moving Ligand-Fixed Receptor    = -14.87 kcal/molUSER        Moving Ligand-Moving Receptor   =  +0.00 kcal/molUSER    (2) Final Total Internal Energy     =  -2.08 kcal/molUSER    (3) Torsional Free Energy           =  +2.09 kcal/molUSER    (4) Unbound System's Energy         =  -2.08 kcal/molUSERUSERREMARK SMILES Oc1nc2ccccc2n1C1CCN(CCc2ccc(-c3nc4cc(F)ccc4nc3-c3ccc(F)cc3)cc2)CC1REMARK SMILES IDX 15 1 14 2 11 3 12 4 42 5 13 6 41 7 10 8 2 9 3 10 4 11 9 12REMARK SMILES IDX 5 13 8 14 6 15 7 16 1 17 16 19 17 20 18 21 40 22 19 23 39 24REMARK SMILES IDX 20 25 21 26 22 27 31 28 23 29 30 30 24 31 29 32 25 33 28 34REMARK SMILES IDX 27 35 26 36 32 37 33 38 38 39 34 40 37 41 35 42 36 43REMARK H PARENT 1 18USER                              x       y       z     vdW  Elec       q    TypeUSER                           _______ _______ _______ _____ _____    ______ ____ROOTATOM      1  C   UNL     1      36.273  47.236  13.690 -0.53 -0.06    +0.089 C  ENDROOTBRANCH   1   2ATOM      2  N   UNL     1      37.369  48.225  13.661 -0.53 +0.13    -0.303 NA ATOM      3  C   UNL     1      39.042  47.809  15.997 -0.47 -0.04    +0.095 C  ATOM      4  C   UNL     1      39.196  46.911  14.757 -0.49 -0.01    +0.041 C  ATOM      5  C   UNL     1      38.590  49.228  15.634 -0.22 -0.03    +0.041 C  ATOM      6  C   UNL     1      38.683  47.597  13.493 -0.25 -0.02    +0.086 C  ATOM      7  C   UNL     1      37.314  49.167  14.791 -0.43 -0.08    +0.086 C  BRANCH   3   8ATOM      8  N   UNL     1      40.220  47.799  16.853 -0.31 +0.06    -0.291 N  ATOM      9  C   UNL     1      41.246  48.700  16.829 -0.16 -0.01    +0.295 A  ATOM     10  N   UNL     1      42.169  48.457  17.718 -0.50 -0.02    -0.195 NA ATOM     11  C   UNL     1      41.730  47.329  18.365 -0.47 -0.00    +0.092 A  ATOM     12  C   UNL     1      40.510  46.886  17.846 -0.45 -0.01    +0.072 A  ATOM     13  C   UNL     1      42.329  46.620  19.418 -0.45 +0.01    +0.031 A  ATOM     14  C   UNL     1      39.853  45.750  18.338 -0.43 -0.00    +0.029 A  ATOM     15  C   UNL     1      41.685  45.485  19.923 -0.37 +0.00    +0.002 A  ATOM     16  C   UNL     1      40.468  45.059  19.390 -0.43 +0.00    +0.002 A  BRANCH   9  17ATOM     17  O   UNL     1      41.326  49.730  16.009 -0.80 +0.05    -0.480 OA ATOM     18  H   UNL     1      41.434  50.466  16.640 -0.08 -0.05    +0.296 HD ENDBRANCH   9  17ENDBRANCH   3   8ENDBRANCH   1   2BRANCH   1  19ATOM     19  C   UNL     1      36.760  45.773  13.698 -0.49 -0.02    +0.051 C  BRANCH  19  20ATOM     20  C   UNL     1      35.984  44.891  14.647 -0.29 +0.02    -0.047 A  ATOM     21  C   UNL     1      34.725  45.287  15.112 -0.30 -0.00    +0.004 A  ATOM     22  C   UNL     1      36.518  43.681  15.102 -0.27 -0.00    +0.004 A  ATOM     23  C   UNL     1      34.013  44.481  16.006 -0.31 -0.01    +0.011 A  ATOM     24  C   UNL     1      35.804  42.878  15.998 -0.45 -0.00    +0.011 A  ATOM     25  C   UNL     1      34.532  43.255  16.457 -0.39 -0.00    +0.002 A  BRANCH  25  26ATOM     26  C   UNL     1      33.762  42.429  17.404 -0.32 -0.04    +0.097 A  ATOM     27  N   UNL     1      32.681  41.815  16.845 +0.05 +0.13    -0.244 NA ATOM     28  C   UNL     1      34.062  42.262  18.766 -0.34 -0.01    +0.097 A  ATOM     29  C   UNL     1      31.897  41.074  17.645 -0.30 -0.03    +0.092 A  ATOM     30  N   UNL     1      33.256  41.520  19.578 -0.25 -0.03    -0.244 NA ATOM     31  C   UNL     1      30.785  40.441  17.111 -0.28 -0.01    +0.069 A  ATOM     32  C   UNL     1      32.185  40.928  19.022 -0.31 +0.00    +0.090 A  ATOM     33  C   UNL     1      29.962  39.668  17.919 -0.27 +0.01    +0.125 A  ATOM     34  C   UNL     1      31.346  40.151  19.813 -0.22 +0.00    +0.033 A  ATOM     35  C   UNL     1      30.231  39.515  19.269 -0.26 +0.00    +0.041 A  ATOM     36  F   UNL     1      28.893  39.062  17.386 -0.06 -0.10    -0.207 F  BRANCH  28  37ATOM     37  C   UNL     1      35.246  42.809  19.453 -0.43 -0.00    +0.003 A  ATOM     38  C   UNL     1      35.765  44.065  19.081 -0.36 -0.00    +0.013 A  ATOM     39  C   UNL     1      35.869  42.126  20.515 -0.48 -0.00    +0.013 A  ATOM     40  C   UNL     1      36.876  44.609  19.730 -0.24 -0.00    +0.040 A  ATOM     41  C   UNL     1      36.982  42.669  21.166 -0.41 +0.00    +0.040 A  ATOM     42  C   UNL     1      37.473  43.904  20.768 -0.30 -0.00    +0.123 A  ATOM     43  F   UNL     1      38.536  44.426  21.394 -0.07 -0.01    -0.207 F  ENDBRANCH  28  37ENDBRANCH  25  26ENDBRANCH  19  20ENDBRANCH   1  19TORSDOF 7TERENDMDL