MODEL        2USER    Run = 2USERUSER    Estimated Free Energy of Binding    = -13.26 kcal/mol  [=(1)+(2)+(3)-(4)]USERUSER    (1) Final Intermolecular Energy     = -15.35 kcal/molUSER        vdW + Hbond + desolv Energy     = -15.24 kcal/molUSER        Electrostatic Energy            =  -0.11 kcal/molUSER        Moving Ligand-Fixed Receptor    = -15.35 kcal/molUSER        Moving Ligand-Moving Receptor   =  +0.00 kcal/molUSER    (2) Final Total Internal Energy     =  -2.77 kcal/molUSER    (3) Torsional Free Energy           =  +2.09 kcal/molUSER    (4) Unbound System's Energy         =  -2.77 kcal/molUSERUSERREMARK SMILES Oc1nc2ccccc2n1C1CCN(Cc2ccc(-c3nc4cc(F)ccc4nc3-c3ccc(N4CCOCC4)cc3)cc2)CC1REMARK SMILES IDX 15 1 14 2 11 3 12 4 46 5 13 6 45 7 10 8 2 9 3 10 4 11 9 12REMARK SMILES IDX 5 13 8 14 6 15 7 16 1 17 16 19 17 20 44 21 18 22 43 23 19 24REMARK SMILES IDX 20 25 21 26 30 27 22 28 29 29 23 30 28 31 24 32 27 33 26 34REMARK SMILES IDX 25 35 31 36 32 37 42 38 33 39 41 40 34 41 35 42 36 43 40 44REMARK SMILES IDX 37 45 39 46 38 47REMARK H PARENT 1 18USER                              x       y       z     vdW  Elec       q    TypeUSER                           _______ _______ _______ _____ _____    ______ ____ROOTATOM      1  C   UNL     1      37.078  45.680  13.853 -0.42 -0.05    +0.120 C  ENDROOTBRANCH   1   2ATOM      2  N   UNL     1      36.926  47.130  14.070 -0.23 +0.16    -0.299 NA ATOM      3  C   UNL     1      38.995  48.118  15.912 -0.47 -0.04    +0.095 C  ATOM      4  C   UNL     1      39.327  47.759  14.457 -0.51 -0.01    +0.041 C  ATOM      5  C   UNL     1      37.774  47.347  16.425 -0.32 -0.02    +0.041 C  ATOM      6  C   UNL     1      38.084  47.885  13.576 -0.48 -0.03    +0.087 C  ATOM      7  C   UNL     1      36.601  47.493  15.456 -0.35 -0.08    +0.087 C  BRANCH   3   8ATOM      8  N   UNL     1      40.142  48.013  16.806 -0.29 +0.07    -0.291 N  ATOM      9  C   UNL     1      41.230  48.856  16.814 -0.11 -0.01    +0.295 A  ATOM     10  N   UNL     1      42.160  48.457  17.641 -0.50 -0.02    -0.195 NA ATOM     11  C   UNL     1      41.648  47.341  18.245 -0.45 -0.00    +0.092 A  ATOM     12  C   UNL     1      40.377  47.036  17.754 -0.44 -0.01    +0.072 A  ATOM     13  C   UNL     1      42.224  46.531  19.235 -0.46 +0.00    +0.031 A  ATOM     14  C   UNL     1      39.645  45.937  18.227 -0.42 -0.00    +0.029 A  ATOM     15  C   UNL     1      41.506  45.430  19.714 -0.39 +0.00    +0.002 A  ATOM     16  C   UNL     1      40.236  45.142  19.217 -0.43 -0.00    +0.002 A  BRANCH   9  17ATOM     17  O   UNL     1      41.368  49.947  16.080 -0.84 +0.05    -0.480 OA ATOM     18  H   UNL     1      41.447  50.703  16.678 -0.30 -0.07    +0.296 HD ENDBRANCH   9  17ENDBRANCH   3   8ENDBRANCH   1   2BRANCH   1  19ATOM     19  C   UNL     1      36.262  44.835  14.810 -0.35 +0.01    -0.034 A  ATOM     20  C   UNL     1      34.907  45.111  15.028 -0.27 -0.00    +0.006 A  ATOM     21  C   UNL     1      36.854  43.778  15.512 -0.27 -0.00    +0.006 A  ATOM     22  C   UNL     1      34.157  44.328  15.911 -0.30 -0.01    +0.011 A  ATOM     23  C   UNL     1      36.100  42.995  16.393 -0.41 -0.00    +0.011 A  ATOM     24  C   UNL     1      34.733  43.244  16.595 -0.39 -0.00    +0.002 A  BRANCH  24  25ATOM     25  C   UNL     1      33.918  42.416  17.502 -0.33 -0.03    +0.097 A  ATOM     26  N   UNL     1      32.843  41.832  16.898 +0.01 +0.13    -0.244 NA ATOM     27  C   UNL     1      34.169  42.229  18.871 -0.34 -0.01    +0.097 A  ATOM     28  C   UNL     1      32.018  41.100  17.666 -0.30 -0.03    +0.092 A  ATOM     29  N   UNL     1      33.322  41.496  19.647 -0.18 -0.04    -0.244 NA ATOM     30  C   UNL     1      30.907  40.500  17.094 -0.27 -0.01    +0.069 A  ATOM     31  C   UNL     1      32.258  40.935  19.051 -0.30 +0.00    +0.090 A  ATOM     32  C   UNL     1      30.039  39.743  17.868 -0.27 +0.01    +0.125 A  ATOM     33  C   UNL     1      31.376  40.172  19.807 -0.22 +0.00    +0.033 A  ATOM     34  C   UNL     1      30.261  39.571  19.224 -0.24 +0.00    +0.041 A  ATOM     35  F   UNL     1      28.972  39.170  17.297 -0.08 -0.09    -0.207 F  BRANCH  27  36ATOM     36  C   UNL     1      35.336  42.756  19.600 -0.43 -0.00    +0.003 A  ATOM     37  C   UNL     1      36.075  41.928  20.455 -0.45 -0.00    +0.012 A  ATOM     38  C   UNL     1      35.767  44.081  19.465 -0.38 -0.00    +0.012 A  ATOM     39  C   UNL     1      37.186  42.411  21.163 -0.36 +0.00    +0.026 A  ATOM     40  C   UNL     1      36.880  44.555  20.175 -0.21 -0.00    +0.026 A  ATOM     41  C   UNL     1      37.629  43.733  21.031 -0.35 +0.00    +0.037 A  BRANCH  41  42ATOM     42  N   UNL     1      38.720  44.257  21.725 -0.11 -0.01    -0.367 N  ATOM     43  C   UNL     1      39.543  43.296  22.500 -0.24 +0.01    +0.145 C  ATOM     44  C   UNL     1      38.621  45.560  22.420 -0.29 +0.01    +0.145 C  ATOM     45  C   UNL     1      39.017  43.184  23.941 -0.19 +0.01    +0.181 C  ATOM     46  C   UNL     1      38.150  45.379  23.873 -0.24 +0.02    +0.181 C  ATOM     47  O   UNL     1      38.997  44.467  24.593 -0.04 -0.01    -0.378 OA ENDBRANCH  41  42ENDBRANCH  27  36ENDBRANCH  24  25ENDBRANCH   1  19TORSDOF 7TERENDMDL