REMARK SMILES Oc1nc2ccccc2n1C1CCN(CCc2ccc(-c3nc4cc(F)ccc4nc3-c3ccc(F)cc3)cc2)CC1
REMARK SMILES IDX 15 1 14 2 11 3 12 4 42 5 13 6 41 7 10 8 2 9 3 10 4 11 9 12
REMARK SMILES IDX 5 13 8 14 6 15 7 16 1 17 16 19 17 20 18 21 40 22 19 23 39 24
REMARK SMILES IDX 20 25 21 26 22 27 31 28 23 29 30 30 24 31 29 32 25 33 28 34
REMARK SMILES IDX 27 35 26 36 32 37 33 38 38 39 34 40 37 41 35 42 36 43
REMARK H PARENT 1 18
ROOT
ATOM      1  C   UNL     1       1.581   0.696  -1.320  1.00  0.00     0.089 C 
ENDROOT
BRANCH   1   2
ATOM      2  N   UNL     1       2.021  -0.112  -0.165  1.00  0.00    -0.303 NA
ATOM      3  C   UNL     1       4.921  -0.032  -0.041  1.00  0.00     0.095 C 
ATOM      4  C   UNL     1       4.084   1.138   0.504  1.00  0.00     0.041 C 
ATOM      5  C   UNL     1       4.195  -1.376   0.092  1.00  0.00     0.041 C 
ATOM      6  C   UNL     1       2.667   0.701   0.870  1.00  0.00     0.086 C 
ATOM      7  C   UNL     1       2.814  -1.287  -0.562  1.00  0.00     0.086 C 
BRANCH   3   8
ATOM      8  N   UNL     1       6.269  -0.068   0.508  1.00  0.00    -0.291 N 
ATOM      9  C   UNL     1       6.606  -0.281   1.815  1.00  0.00     0.295 A 
ATOM     10  N   UNL     1       7.893  -0.274   2.025  1.00  0.00    -0.195 NA
ATOM     11  C   UNL     1       8.439  -0.040   0.787  1.00  0.00     0.092 A 
ATOM     12  C   UNL     1       7.448   0.097  -0.189  1.00  0.00     0.072 A 
ATOM     13  C   UNL     1       9.789   0.069   0.419  1.00  0.00     0.031 A 
ATOM     14  C   UNL     1       7.750   0.343  -1.536  1.00  0.00     0.029 A 
ATOM     15  C   UNL     1      10.108   0.311  -0.922  1.00  0.00     0.002 A 
ATOM     16  C   UNL     1       9.103   0.446  -1.881  1.00  0.00     0.002 A 
BRANCH   9  17
ATOM     17  O   UNL     1       5.744  -0.485   2.792  1.00  0.00    -0.480 OA
ATOM     18  H   UNL     1       6.345  -0.631   3.546  1.00  0.00     0.296 HD
ENDBRANCH   9  17
ENDBRANCH   3   8
ENDBRANCH   1   2
BRANCH   1  19
ATOM     19  C   UNL     1       0.489   0.016  -2.171  1.00  0.00     0.051 C 
BRANCH  19  20
ATOM     20  C   UNL     1      -0.901   0.187  -1.604  1.00  0.00    -0.047 A 
ATOM     21  C   UNL     1      -1.777   1.132  -2.149  1.00  0.00     0.004 A 
ATOM     22  C   UNL     1      -1.327  -0.572  -0.510  1.00  0.00     0.004 A 
ATOM     23  C   UNL     1      -3.057   1.305  -1.613  1.00  0.00     0.011 A 
ATOM     24  C   UNL     1      -2.608  -0.395   0.025  1.00  0.00     0.011 A 
ATOM     25  C   UNL     1      -3.503   0.537  -0.524  1.00  0.00     0.002 A 
BRANCH  25  26
ATOM     26  C   UNL     1      -4.855   0.744   0.024  1.00  0.00     0.097 A 
ATOM     27  N   UNL     1      -5.136   2.046   0.317  1.00  0.00    -0.244 NA
ATOM     28  C   UNL     1      -5.801  -0.268   0.255  1.00  0.00     0.097 A 
ATOM     29  C   UNL     1      -6.333   2.322   0.860  1.00  0.00     0.092 A 
ATOM     30  N   UNL     1      -7.010   0.015   0.820  1.00  0.00    -0.244 NA
ATOM     31  C   UNL     1      -6.650   3.634   1.177  1.00  0.00     0.069 A 
ATOM     32  C   UNL     1      -7.275   1.298   1.117  1.00  0.00     0.090 A 
ATOM     33  C   UNL     1      -7.882   3.943   1.738  1.00  0.00     0.125 A 
ATOM     34  C   UNL     1      -8.502   1.630   1.681  1.00  0.00     0.033 A 
ATOM     35  C   UNL     1      -8.815   2.952   1.994  1.00  0.00     0.041 A 
ATOM     36  F   UNL     1      -8.172   5.216   2.035  1.00  0.00    -0.207 F 
BRANCH  28  37
ATOM     37  C   UNL     1      -5.635  -1.689  -0.099  1.00  0.00     0.003 A 
ATOM     38  C   UNL     1      -5.879  -2.692   0.860  1.00  0.00     0.013 A 
ATOM     39  C   UNL     1      -5.271  -2.093  -1.398  1.00  0.00     0.013 A 
ATOM     40  C   UNL     1      -5.744  -4.045   0.541  1.00  0.00     0.040 A 
ATOM     41  C   UNL     1      -5.135  -3.447  -1.719  1.00  0.00     0.040 A 
ATOM     42  C   UNL     1      -5.373  -4.409  -0.748  1.00  0.00     0.123 A 
ATOM     43  F   UNL     1      -5.247  -5.706  -1.057  1.00  0.00    -0.207 F 
ENDBRANCH  28  37
ENDBRANCH  25  26
ENDBRANCH  19  20
ENDBRANCH   1  19
TORSDOF 7
