MODEL        8USER    Run = 8USERUSER    Estimated Free Energy of Binding    = -10.23 kcal/mol  [=(1)+(2)+(3)-(4)]USERUSER    (1) Final Intermolecular Energy     = -12.02 kcal/molUSER        vdW + Hbond + desolv Energy     = -11.80 kcal/molUSER        Electrostatic Energy            =  -0.22 kcal/molUSER        Moving Ligand-Fixed Receptor    = -12.02 kcal/molUSER        Moving Ligand-Moving Receptor   =  +0.00 kcal/molUSER    (2) Final Total Internal Energy     =  -2.28 kcal/molUSER    (3) Torsional Free Energy           =  +1.79 kcal/molUSER    (4) Unbound System's Energy         =  -2.28 kcal/molUSERUSERREMARK SMILES Nc1nonc1-n1nnc(-c2n[nH]c(-c3ccncc3)n2)c1CN1CCCC1REMARK SMILES IDX 2 1 3 2 4 3 5 4 6 5 1 6 7 9 8 10 22 11 9 12 10 13 23 14REMARK SMILES IDX 24 15 25 16 28 17 26 18 27 19 11 20 12 21 21 22 13 23 14 24REMARK SMILES IDX 15 26 16 27 20 28 17 29 19 30 18 31REMARK H PARENT 1 7 1 8 13 25USER                              x       y       z     vdW  Elec       q    TypeUSER                           _______ _______ _______ _____ _____    ______ ____ROOTATOM      1  C   UNL     1      40.322  49.083  15.051 -0.39 -0.07    +0.215 A  ATOM      2  N   UNL     1      41.129  50.140  15.129 -0.74 +0.01    -0.030 NA ATOM      3  O   UNL     1      41.787  50.015  16.347 -1.05 -0.02    -0.240 OA ATOM      4  N   UNL     1      41.362  48.883  17.039 -1.00 +0.00    -0.027 NA ATOM      5  C   UNL     1      40.471  48.316  16.224 -0.36 -0.05    +0.243 A  ENDROOTBRANCH   1   6ATOM      6  N   UNL     1      39.510  48.823  14.007 -0.11 +0.14    -0.378 N  ATOM      7  H   UNL     1      38.604  49.277  13.963 -0.37 -0.10    +0.158 HD ATOM      8  H   UNL     1      39.563  47.932  13.515 +0.11 -0.02    +0.158 HD ENDBRANCH   1   6BRANCH   5   9ATOM      9  N   UNL     1      39.774  47.131  16.584 -0.35 +0.04    -0.190 N  ATOM     10  N   UNL     1      40.395  46.153  17.311 -0.41 +0.01    -0.060 NA ATOM     11  C   UNL     1      38.478  46.713  16.288 -0.35 -0.03    +0.092 A  ATOM     12  N   UNL     1      39.569  45.132  17.458 -0.24 +0.01    -0.126 NA ATOM     13  C   UNL     1      38.391  45.451  16.849 -0.26 -0.04    +0.157 A  BRANCH  11  14ATOM     14  C   UNL     1      37.475  47.520  15.551 -0.39 -0.10    +0.143 C  BRANCH  14  15ATOM     15  N   UNL     1      37.537  47.238  14.118 -0.25 +0.13    -0.297 NA ATOM     16  C   UNL     1      36.614  48.047  13.318 -0.60 -0.04    +0.085 C  ATOM     17  C   UNL     1      37.167  45.853  13.819 -0.45 -0.03    +0.085 C  ATOM     18  C   UNL     1      36.598  47.319  11.982 -0.72 -0.01    +0.017 C  ATOM     19  C   UNL     1      36.940  45.872  12.314 -0.65 -0.01    +0.017 C  ENDBRANCH  14  15ENDBRANCH  11  14BRANCH  13  20ATOM     20  C   UNL     1      37.271  44.505  16.878 -0.21 -0.06    +0.204 A  ATOM     21  N   UNL     1      37.053  43.551  15.966 -0.27 +0.05    -0.151 NA ATOM     22  N   UNL     1      36.340  44.538  17.888 -0.19 +0.06    -0.205 NA ATOM     23  N   UNL     1      35.943  42.969  16.439 -0.28 +0.09    -0.259 N  ATOM     24  C   UNL     1      35.508  43.555  17.598 -0.22 -0.05    +0.156 A  ATOM     25  H   UNL     1      35.544  42.191  15.928 +0.05 -0.08    +0.192 HD BRANCH  24  26ATOM     26  C   UNL     1      34.331  43.154  18.370 -0.34 -0.01    +0.022 A  ATOM     27  C   UNL     1      33.708  44.096  19.193 -0.40 -0.01    +0.032 A  ATOM     28  C   UNL     1      33.797  41.864  18.322 -0.39 -0.01    +0.032 A  ATOM     29  C   UNL     1      32.595  43.717  19.924 -0.35 +0.00    +0.111 A  ATOM     30  C   UNL     1      32.678  41.579  19.092 -0.30 +0.00    +0.111 A  ATOM     31  N   UNL     1      32.068  42.477  19.890 -0.35 -0.03    -0.265 NA ENDBRANCH  24  26ENDBRANCH  13  20ENDBRANCH   5   9TORSDOF 6TERENDMDL