MODEL        3USER    Run = 3USERUSER    Estimated Free Energy of Binding    =  -9.36 kcal/mol  [=(1)+(2)+(3)-(4)]USERUSER    (1) Final Intermolecular Energy     = -12.34 kcal/molUSER        vdW + Hbond + desolv Energy     = -11.98 kcal/molUSER        Electrostatic Energy            =  -0.37 kcal/molUSER        Moving Ligand-Fixed Receptor    = -12.34 kcal/molUSER        Moving Ligand-Moving Receptor   =  +0.00 kcal/molUSER    (2) Final Total Internal Energy     =  -2.37 kcal/molUSER    (3) Torsional Free Energy           =  +2.98 kcal/molUSER    (4) Unbound System's Energy         =  -2.37 kcal/molUSERUSERREMARK SMILES CCN(CC)Cc1c(C(=O)N/N=C/c2ccncc2)nnn1-c1nonc1NREMARK SMILES IDX 7 1 8 2 20 3 21 4 22 5 6 6 3 7 2 8 1 9 4 10 5 11 9 12 11 13REMARK SMILES IDX 10 14 12 16 13 17 14 18 15 19 19 20 16 21 18 22 17 23 23 24REMARK SMILES IDX 24 25 27 26 25 27 26 28 28 29REMARK H PARENT 11 15 28 30 28 31USER                              x       y       z     vdW  Elec       q    TypeUSER                           _______ _______ _______ _____ _____    ______ ____ROOTATOM      1  C   UNL     1      39.844  47.203  16.539 -0.43 -0.02    +0.094 A  ATOM      2  C   UNL     1      40.914  47.771  17.230 -0.38 -0.02    +0.177 A  ATOM      3  N   UNL     1      41.274  48.942  16.630 -0.96 +0.00    -0.124 NA ATOM      4  N   UNL     1      40.489  49.124  15.588 -0.60 +0.02    -0.060 NA ATOM      5  N   UNL     1      39.571  48.110  15.507 -0.37 +0.07    -0.190 N  ENDROOTBRANCH   1   6ATOM      6  C   UNL     1      39.221  45.869  16.753 -0.35 -0.03    +0.143 C  BRANCH   6   7ATOM      7  N   UNL     1      38.114  45.867  17.738 -0.20 +0.08    -0.298 NA BRANCH   7   8ATOM      8  C   UNL     1      36.819  45.696  17.026 -0.36 -0.04    +0.081 C  ATOM      9  C   UNL     1      36.169  46.944  16.430 -0.35 -0.02    +0.021 C  ENDBRANCH   7   8BRANCH   7  10ATOM     10  C   UNL     1      38.301  44.867  18.810 -0.38 -0.01    +0.081 C  ATOM     11  C   UNL     1      36.991  44.359  19.406 -0.42 -0.00    +0.021 C  ENDBRANCH   7  10ENDBRANCH   6   7ENDBRANCH   1   6BRANCH   2  12ATOM     12  C   UNL     1      41.645  47.260  18.389 -0.37 -0.01    +0.293 C  ATOM     13  N   UNL     1      40.850  46.461  19.209 -0.28 -0.00    -0.242 N  ATOM     14  O   UNL     1      42.826  47.528  18.592 -0.48 -0.01    -0.265 OA ATOM     15  H   UNL     1      39.846  46.501  19.027 +0.10 -0.01    +0.194 HD BRANCH  13  16ATOM     16  N   UNL     1      41.175  46.089  20.491 -0.25 -0.02    -0.180 NA BRANCH  16  17ATOM     17  C   UNL     1      40.496  45.123  21.027 -0.30 +0.01    +0.141 C  BRANCH  17  18ATOM     18  C   UNL     1      39.566  45.369  22.148 -0.31 -0.00    -0.002 A  ATOM     19  C   UNL     1      38.545  44.465  22.443 -0.31 +0.00    +0.030 A  ATOM     20  C   UNL     1      39.714  46.532  22.900 -0.21 +0.00    +0.030 A  ATOM     21  C   UNL     1      37.703  44.771  23.495 -0.25 +0.01    +0.111 A  ATOM     22  C   UNL     1      38.821  46.738  23.936 -0.28 +0.01    +0.111 A  ATOM     23  N   UNL     1      37.820  45.886  24.248 -0.47 -0.05    -0.265 NA ENDBRANCH  17  18ENDBRANCH  16  17ENDBRANCH  13  16ENDBRANCH   2  12BRANCH   5  24ATOM     24  C   UNL     1      38.598  48.128  14.464 -0.33 -0.10    +0.243 A  ATOM     25  N   UNL     1      38.784  47.264  13.456 -0.44 +0.01    -0.027 NA ATOM     26  C   UNL     1      37.434  48.882  14.218 -0.29 -0.14    +0.215 A  ATOM     27  O   UNL     1      37.703  47.453  12.612 -1.01 +0.04    -0.240 OA ATOM     28  N   UNL     1      36.869  48.448  13.091 -1.00 +0.01    -0.030 NA BRANCH  26  29ATOM     29  N   UNL     1      36.926  49.918  14.906 -0.08 +0.43    -0.378 N  ATOM     30  H   UNL     1      36.191  49.770  15.605 -0.19 -0.38    +0.158 HD ATOM     31  H   UNL     1      37.576  50.649  15.183 -0.43 -0.18    +0.158 HD ENDBRANCH  26  29ENDBRANCH   5  24TORSDOF 10TERENDMDL