MODEL        10USER    Run = 10USERUSER    Estimated Free Energy of Binding    =  -9.53 kcal/mol  [=(1)+(2)+(3)-(4)]USERUSER    (1) Final Intermolecular Energy     = -11.32 kcal/molUSER        vdW + Hbond + desolv Energy     = -10.96 kcal/molUSER        Electrostatic Energy            =  -0.36 kcal/molUSER        Moving Ligand-Fixed Receptor    = -11.32 kcal/molUSER        Moving Ligand-Moving Receptor   =  +0.00 kcal/molUSER    (2) Final Total Internal Energy     =  -2.43 kcal/molUSER    (3) Torsional Free Energy           =  +1.79 kcal/molUSER    (4) Unbound System's Energy         =  -2.43 kcal/molUSERUSERREMARK SMILES NNC(=O)c1nnn(-c2nonc2N)c1CN1CCCCC1REMARK SMILES IDX 5 1 6 2 7 3 8 4 15 5 3 6 2 7 4 9 1 10 16 13 17 14 18 15REMARK SMILES IDX 22 16 19 17 21 18 20 19 9 20 10 21 13 22 11 23 12 24 14 25REMARK H PARENT 2 8 1 11 1 12 14 26 14 27USER                              x       y       z     vdW  Elec       q    TypeUSER                           _______ _______ _______ _____ _____    ______ ____ROOTATOM      1  C   UNL     1      40.730  47.726  16.990 -0.39 -0.03    +0.176 A  ATOM      2  N   UNL     1      41.367  48.571  16.121 -0.87 +0.00    -0.124 NA ATOM      3  N   UNL     1      40.586  48.747  15.071 -0.56 +0.01    -0.060 NA ATOM      4  N   UNL     1      39.434  48.029  15.237 -0.37 +0.07    -0.190 N  ATOM      5  C   UNL     1      39.491  47.380  16.468 -0.41 -0.03    +0.094 A  ENDROOTBRANCH   1   6ATOM      6  C   UNL     1      41.336  47.306  18.249 -0.36 -0.02    +0.287 C  ATOM      7  N   UNL     1      42.681  47.654  18.356 -0.34 -0.00    -0.289 N  ATOM      8  H   UNL     1      43.141  48.104  17.564 -0.27 -0.00    +0.185 HD ATOM      9  O   UNL     1      40.745  46.678  19.125 -0.32 +0.00    -0.266 OA BRANCH   7  10ATOM     10  N   UNL     1      43.439  47.265  19.485 -0.34 -0.08    -0.248 NA ATOM     11  H   UNL     1      43.682  48.119  19.998 -0.51 -0.02    +0.143 HD ATOM     12  H   UNL     1      42.799  46.779  20.126 +0.06 +0.04    +0.143 HD ENDBRANCH   7  10ENDBRANCH   1   6BRANCH   5  13ATOM     13  C   UNL     1      38.432  46.528  17.069 -0.35 -0.05    +0.143 C  BRANCH  13  14ATOM     14  N   UNL     1      37.349  46.302  16.106 -0.16 +0.15    -0.297 NA ATOM     15  C   UNL     1      37.419  45.005  15.433 -0.35 -0.03    +0.085 C  ATOM     16  C   UNL     1      36.037  46.501  16.751 -0.34 -0.07    +0.085 C  ATOM     17  C   UNL     1      36.436  44.965  14.257 -0.44 -0.01    +0.016 C  ATOM     18  C   UNL     1      34.871  45.807  16.032 -0.36 -0.02    +0.016 C  ATOM     19  C   UNL     1      35.124  45.702  14.537 -0.41 -0.00    +0.003 C  ENDBRANCH  13  14ENDBRANCH   5  13BRANCH   4  20ATOM     20  C   UNL     1      38.433  48.027  14.231 -0.32 -0.10    +0.243 A  ATOM     21  N   UNL     1      38.477  47.179  13.203 -0.53 +0.00    -0.027 NA ATOM     22  C   UNL     1      37.303  48.863  14.130 -0.32 -0.14    +0.215 A  ATOM     23  O   UNL     1      37.353  47.498  12.445 -1.07 +0.05    -0.240 OA ATOM     24  N   UNL     1      36.637  48.542  13.021 -0.91 +0.01    -0.030 NA BRANCH  22  25ATOM     25  N   UNL     1      36.924  49.829  14.987 -0.12 +0.44    -0.378 N  ATOM     26  H   UNL     1      36.176  49.674  15.661 -0.16 -0.40    +0.158 HD ATOM     27  H   UNL     1      37.588  50.549  15.249 -0.44 -0.17    +0.158 HD ENDBRANCH  22  25ENDBRANCH   4  20TORSDOF 6TERENDMDL