MODEL        2USER    Run = 2USERUSER    Estimated Free Energy of Binding    =  -9.93 kcal/mol  [=(1)+(2)+(3)-(4)]USERUSER    (1) Final Intermolecular Energy     = -12.32 kcal/molUSER        vdW + Hbond + desolv Energy     = -12.02 kcal/molUSER        Electrostatic Energy            =  -0.30 kcal/molUSER        Moving Ligand-Fixed Receptor    = -12.32 kcal/molUSER        Moving Ligand-Moving Receptor   =  +0.00 kcal/molUSER    (2) Final Total Internal Energy     =  -2.90 kcal/molUSER    (3) Torsional Free Energy           =  +2.39 kcal/molUSER    (4) Unbound System's Energy         =  -2.90 kcal/molUSERUSERREMARK SMILES Nc1nonc1-n1nnc(C(=O)N/N=C/c2ccncc2)c1CN1CCCCC1REMARK SMILES IDX 7 1 8 2 9 3 10 4 22 5 6 6 2 7 3 8 4 9 5 10 1 11 23 14 24 15REMARK SMILES IDX 25 16 29 17 26 18 28 19 27 20 11 21 13 22 12 23 14 25 15 26REMARK SMILES IDX 16 27 17 28 21 29 18 30 20 31 19 32REMARK H PARENT 1 12 1 13 13 24USER                              x       y       z     vdW  Elec       q    TypeUSER                           _______ _______ _______ _____ _____    ______ ____ROOTATOM      1  N   UNL     1      38.920  47.479  15.339 -0.32 +0.07    -0.190 N  ATOM      2  N   UNL     1      39.875  48.391  15.699 -0.49 +0.02    -0.060 NA ATOM      3  N   UNL     1      40.445  48.007  16.825 -0.47 +0.02    -0.124 NA ATOM      4  C   UNL     1      39.890  46.814  17.202 -0.35 -0.03    +0.177 A  ATOM      5  C   UNL     1      38.932  46.441  16.271 -0.36 -0.03    +0.094 A  ENDROOTBRANCH   1   6ATOM      6  C   UNL     1      38.113  47.685  14.188 -0.32 -0.10    +0.243 A  ATOM      7  C   UNL     1      37.213  48.741  13.940 -0.32 -0.13    +0.215 A  ATOM      8  N   UNL     1      36.665  48.558  12.739 -0.96 +0.01    -0.030 NA ATOM      9  O   UNL     1      37.218  47.377  12.256 -1.09 +0.06    -0.240 OA ATOM     10  N   UNL     1      38.113  46.826  13.169 -0.52 +0.01    -0.027 NA BRANCH   7  11ATOM     11  N   UNL     1      36.925  49.777  14.752 -0.10 +0.40    -0.378 N  ATOM     12  H   UNL     1      36.074  49.789  15.311 -0.12 -0.35    +0.158 HD ATOM     13  H   UNL     1      37.682  50.346  15.114 -0.46 -0.18    +0.158 HD ENDBRANCH   7  11ENDBRANCH   1   6BRANCH   5  14ATOM     14  C   UNL     1      38.078  45.226  16.201 -0.28 -0.04    +0.143 C  BRANCH  14  15ATOM     15  N   UNL     1      36.956  45.315  17.143 -0.15 +0.11    -0.297 NA ATOM     16  C   UNL     1      36.368  43.979  17.362 -0.32 -0.03    +0.085 C  ATOM     17  C   UNL     1      35.931  46.277  16.734 -0.37 -0.07    +0.085 C  ATOM     18  C   UNL     1      34.922  44.005  17.878 -0.35 -0.01    +0.016 C  ATOM     19  C   UNL     1      34.944  46.515  17.884 -0.43 -0.01    +0.016 C  ATOM     20  C   UNL     1      34.646  45.255  18.698 -0.49 -0.00    +0.003 C  ENDBRANCH  14  15ENDBRANCH   5  14BRANCH   4  21ATOM     21  C   UNL     1      40.321  46.110  18.409 -0.33 -0.02    +0.293 C  ATOM     22  N   UNL     1      39.243  45.642  19.156 -0.26 +0.02    -0.242 N  ATOM     23  O   UNL     1      41.506  45.958  18.692 -0.34 -0.01    -0.265 OA ATOM     24  H   UNL     1      38.330  45.680  18.705 +0.11 -0.03    +0.194 HD BRANCH  22  25ATOM     25  N   UNL     1      39.299  44.803  20.240 -0.26 +0.00    -0.180 NA BRANCH  25  26ATOM     26  C   UNL     1      38.334  44.843  21.104 -0.30 +0.00    +0.141 C  BRANCH  26  27ATOM     27  C   UNL     1      37.583  43.627  21.475 -0.39 -0.00    -0.002 A  ATOM     28  C   UNL     1      37.649  43.172  22.790 -0.36 +0.00    +0.030 A  ATOM     29  C   UNL     1      36.822  42.940  20.532 -0.39 -0.00    +0.030 A  ATOM     30  C   UNL     1      36.934  42.032  23.108 -0.40 +0.01    +0.111 A  ATOM     31  C   UNL     1      36.146  41.811  20.954 -0.43 +0.00    +0.111 A  ATOM     32  N   UNL     1      36.185  41.343  22.221 -0.38 -0.01    -0.265 NA ENDBRANCH  26  27ENDBRANCH  25  26ENDBRANCH  22  25ENDBRANCH   4  21TORSDOF 8TERENDMDL