REMARK SMILES CN(C)Cc1c(-c2n[nH]c(-c3ccncc3)n2)nnn1-c1nonc1N
REMARK SMILES IDX 5 1 6 2 18 3 19 4 20 5 4 6 2 7 1 8 3 9 7 10 8 11 17 12 9 13
REMARK SMILES IDX 10 14 11 16 12 17 16 18 13 19 15 20 14 21 21 22 22 23 25 24
REMARK SMILES IDX 23 25 24 26 26 27
REMARK H PARENT 9 15 26 28 26 29
ROOT
ATOM      1  C   UNL     1      -1.572   0.476  -0.223  1.00  0.00     0.092 A 
ATOM      2  C   UNL     1      -0.249   0.816  -0.001  1.00  0.00     0.157 A 
ATOM      3  N   UNL     1      -0.179   2.041   0.593  1.00  0.00    -0.126 NA
ATOM      4  N   UNL     1      -1.411   2.491   0.751  1.00  0.00    -0.060 NA
ATOM      5  N   UNL     1      -2.290   1.581   0.233  1.00  0.00    -0.190 N 
ENDROOT
BRANCH   1   6
ATOM      6  C   UNL     1      -2.177  -0.753  -0.797  1.00  0.00     0.142 C 
BRANCH   6   7
ATOM      7  N   UNL     1      -2.779  -1.591   0.251  1.00  0.00    -0.303 NA
ATOM      8  C   UNL     1      -3.695  -2.563  -0.352  1.00  0.00     0.105 C 
ATOM      9  C   UNL     1      -1.763  -2.298   1.036  1.00  0.00     0.105 C 
ENDBRANCH   6   7
ENDBRANCH   1   6
BRANCH   2  10
ATOM     10  C   UNL     1       0.984   0.074  -0.286  1.00  0.00     0.204 A 
ATOM     11  N   UNL     1       1.045  -1.129  -0.873  1.00  0.00    -0.151 NA
ATOM     12  N   UNL     1       2.208   0.597   0.047  1.00  0.00    -0.205 NA
ATOM     13  N   UNL     1       2.369  -1.348  -0.900  1.00  0.00    -0.259 N 
ATOM     14  C   UNL     1       3.076  -0.314  -0.348  1.00  0.00     0.156 A 
ATOM     15  H   UNL     1       2.716  -2.209  -1.304  1.00  0.00     0.192 HD
BRANCH  14  16
ATOM     16  C   UNL     1       4.532  -0.244  -0.223  1.00  0.00     0.022 A 
ATOM     17  C   UNL     1       5.383  -1.257  -0.671  1.00  0.00     0.032 A 
ATOM     18  C   UNL     1       5.106   0.885   0.371  1.00  0.00     0.032 A 
ATOM     19  C   UNL     1       6.751  -1.097  -0.507  1.00  0.00     0.111 A 
ATOM     20  C   UNL     1       6.484   0.954   0.490  1.00  0.00     0.111 A 
ATOM     21  N   UNL     1       7.319  -0.015   0.063  1.00  0.00    -0.265 NA
ENDBRANCH  14  16
ENDBRANCH   2  10
BRANCH   5  22
ATOM     22  C   UNL     1      -3.685   1.852   0.215  1.00  0.00     0.243 A 
ATOM     23  N   UNL     1      -4.558   1.012  -0.343  1.00  0.00    -0.027 NA
ATOM     24  C   UNL     1      -4.352   2.985   0.722  1.00  0.00     0.215 A 
ATOM     25  O   UNL     1      -5.794   1.621  -0.148  1.00  0.00    -0.240 OA
ATOM     26  N   UNL     1      -5.659   2.839   0.509  1.00  0.00    -0.030 NA
BRANCH  24  27
ATOM     27  N   UNL     1      -3.797   4.054   1.325  1.00  0.00    -0.378 N 
ATOM     28  H   UNL     1      -4.389   4.704   1.830  1.00  0.00     0.158 HD
ATOM     29  H   UNL     1      -2.821   4.047   1.616  1.00  0.00     0.158 HD
ENDBRANCH  24  27
ENDBRANCH   5  22
TORSDOF 6
