MODEL        10USER    Run = 10USERUSER    Estimated Free Energy of Binding    = -11.79 kcal/mol  [=(1)+(2)+(3)-(4)]USERUSER    (1) Final Intermolecular Energy     = -12.39 kcal/molUSER        vdW + Hbond + desolv Energy     = -12.28 kcal/molUSER        Electrostatic Energy            =  -0.11 kcal/molUSER        Moving Ligand-Fixed Receptor    = -12.39 kcal/molUSER        Moving Ligand-Moving Receptor   =  +0.00 kcal/molUSER    (2) Final Total Internal Energy     =  -0.79 kcal/molUSER    (3) Torsional Free Energy           =  +0.60 kcal/molUSER    (4) Unbound System's Energy         =  -0.79 kcal/molUSERUSERREMARK SMILES CN[C@@H]1C[C@H]2O[C@@](C)([C@@H]1OC)n1c3ccccc3c3c4c(c5c6ccccc6n2c5c31)C(=O)NC4REMARK SMILES IDX 3 1 4 2 5 3 6 4 7 5 8 6 9 7 12 8 13 9 14 10 15 11 16 12REMARK SMILES IDX 17 13 18 14 19 15 20 16 21 17 22 18 23 19 24 20 25 21 26 22REMARK SMILES IDX 27 23 28 24 29 25 30 26 31 27 32 28 33 29 34 30 35 31 2 33REMARK SMILES IDX 1 34 10 36 11 37REMARK H PARENT 34 32 2 35USER                              x       y       z     vdW  Elec       q    TypeUSER                           _______ _______ _______ _____ _____    ______ ____ROOTATOM      1  C   UNL     1      34.718  43.877  19.127 -0.38 -0.02    +0.091 C  ATOM      2  C   UNL     1      36.050  43.909  19.889 -0.41 -0.01    +0.077 C  ATOM      3  C   UNL     1      37.248  43.685  18.957 -0.07 -0.03    +0.224 C  ATOM      4  O   UNL     1      36.901  43.363  17.612 +0.04 +0.08    -0.329 OA ATOM      5  C   UNL     1      35.937  44.212  16.942 -0.27 -0.06    +0.173 C  ATOM      6  C   UNL     1      35.280  43.173  16.003 -0.41 -0.03    +0.071 C  ATOM      7  C   UNL     1      34.855  44.814  17.901 -0.27 -0.08    +0.188 C  ATOM      8  N   UNL     1      36.663  45.261  16.202 -0.13 +0.14    -0.307 N  ATOM      9  C   UNL     1      36.279  45.926  15.038 -0.35 -0.03    +0.052 A  ATOM     10  C   UNL     1      35.126  45.851  14.234 -0.33 -0.02    +0.027 A  ATOM     11  C   UNL     1      35.048  46.635  13.078 -0.39 -0.00    +0.002 A  ATOM     12  C   UNL     1      36.080  47.490  12.724 -0.65 -0.00    +0.001 A  ATOM     13  C   UNL     1      37.210  47.599  13.536 -0.56 -0.00    +0.011 A  ATOM     14  C   UNL     1      37.315  46.823  14.711 -0.42 -0.00    +0.008 A  ATOM     15  C   UNL     1      38.276  46.776  15.759 -0.40 -0.01    +0.016 A  ATOM     16  C   UNL     1      39.463  47.445  16.094 -0.49 +0.00    -0.005 A  ATOM     17  C   UNL     1      40.150  47.198  17.325 -0.45 -0.01    +0.055 A  ATOM     18  C   UNL     1      39.737  46.283  18.306 -0.43 -0.00    +0.023 A  ATOM     19  C   UNL     1      40.142  45.826  19.597 -0.39 -0.00    +0.008 A  ATOM     20  C   UNL     1      41.205  46.145  20.469 -0.32 +0.00    +0.011 A  ATOM     21  C   UNL     1      41.325  45.497  21.702 -0.28 +0.00    +0.001 A  ATOM     22  C   UNL     1      40.401  44.533  22.086 -0.25 +0.00    +0.002 A  ATOM     23  C   UNL     1      39.337  44.191  21.248 -0.27 +0.00    +0.027 A  ATOM     24  C   UNL     1      39.221  44.848  20.009 -0.35 -0.00    +0.052 A  ATOM     25  N   UNL     1      38.290  44.705  18.991 -0.18 +0.03    -0.312 N  ATOM     26  C   UNL     1      38.586  45.578  17.992 -0.35 -0.01    +0.077 A  ATOM     27  C   UNL     1      37.823  45.834  16.658 -0.32 -0.03    +0.077 A  ATOM     28  C   UNL     1      41.323  48.084  17.348 -0.35 -0.02    +0.252 C  ATOM     29  O   UNL     1      42.170  48.185  18.212 -0.57 -0.00    -0.269 OA ATOM     30  N   UNL     1      41.309  48.814  16.179 -0.29 +0.01    -0.348 N  ATOM     31  C   UNL     1      40.194  48.509  15.328 -0.52 -0.04    +0.153 C  ATOM     32  H   UNL     1      42.028  49.497  15.987 +0.11 +0.05    +0.164 HD ENDROOTBRANCH   1  33ATOM     33  N   UNL     1      33.579  44.266  19.989 -0.25 +0.04    -0.314 NA ATOM     34  C   UNL     1      32.320  43.647  19.597 -0.43 -0.00    +0.101 C  ATOM     35  H   UNL     1      33.465  45.279  19.975 -0.37 -0.06    +0.122 HD ENDBRANCH   1  33BRANCH   7  36ATOM     36  O   UNL     1      35.261  46.111  18.383 -0.23 +0.19    -0.375 OA ATOM     37  C   UNL     1      34.225  47.080  18.345 -0.31 -0.18    +0.195 C  ENDBRANCH   7  36TORSDOF 2TERENDMDL