REMARK SMILES O=C1NC(=O)C(c2ccccc2[N+](=O)[O-])=C1Nc1ccc(O)c(Cl)c1
REMARK SMILES IDX 1 1 2 2 3 3 4 4 5 5 6 6 16 7 17 9 18 11 19 12 25 13 20 14
REMARK SMILES IDX 23 15 21 16 24 17 22 18 7 20 8 21 12 22 9 23 11 24 10 25
REMARK SMILES IDX 13 26 14 27 15 28
REMARK H PARENT 3 8 17 10 22 19
ROOT
ATOM      1  O   UNL     1      -1.212  -1.517   2.838  1.00  0.00    -0.267 OA
ATOM      2  C   UNL     1      -0.181  -1.466   2.194  1.00  0.00     0.275 C 
ATOM      3  N   UNL     1       0.921  -2.211   2.425  1.00  0.00    -0.287 N 
ATOM      4  C   UNL     1       1.938  -1.812   1.641  1.00  0.00     0.261 C 
ATOM      5  O   UNL     1       3.082  -2.226   1.647  1.00  0.00    -0.269 OA
ATOM      6  C   UNL     1       1.422  -0.757   0.748  1.00  0.00     0.083 C 
ATOM      7  C   UNL     1       0.123  -0.562   1.038  1.00  0.00     0.119 C 
ATOM      8  H   UNL     1       1.009  -2.865   3.184  1.00  0.00     0.173 HD
ENDROOT
BRANCH   7   9
ATOM      9  N   UNL     1      -0.755   0.362   0.517  1.00  0.00    -0.350 N 
ATOM     10  H   UNL     1      -0.316   1.091  -0.039  1.00  0.00     0.167 HD
BRANCH   9  11
ATOM     11  C   UNL     1      -2.130   0.226   0.237  1.00  0.00     0.040 A 
ATOM     12  C   UNL     1      -2.823  -0.990   0.293  1.00  0.00     0.030 A 
ATOM     13  C   UNL     1      -2.861   1.389  -0.059  1.00  0.00     0.050 A 
ATOM     14  C   UNL     1      -4.197  -1.055   0.033  1.00  0.00     0.050 A 
ATOM     15  C   UNL     1      -4.232   1.328  -0.316  1.00  0.00     0.084 A 
ATOM     16  C   UNL     1      -4.896   0.104  -0.272  1.00  0.00     0.134 A 
ATOM     17  Cl  UNL     1      -5.092   2.776  -0.687  1.00  0.00    -0.080 Cl
BRANCH  16  18
ATOM     18  O   UNL     1      -6.235  -0.010  -0.520  1.00  0.00    -0.506 OA
ATOM     19  H   UNL     1      -6.576   0.889  -0.679  1.00  0.00     0.293 HD
ENDBRANCH  16  18
ENDBRANCH   9  11
ENDBRANCH   7   9
BRANCH   6  20
ATOM     20  C   UNL     1       2.227  -0.073  -0.269  1.00  0.00     0.067 A 
ATOM     21  C   UNL     1       1.823  -0.191  -1.612  1.00  0.00     0.016 A 
ATOM     22  C   UNL     1       3.405   0.652  -0.002  1.00  0.00     0.277 A 
ATOM     23  C   UNL     1       2.565   0.393  -2.644  1.00  0.00     0.001 A 
ATOM     24  C   UNL     1       4.154   1.236  -1.039  1.00  0.00     0.086 A 
ATOM     25  C   UNL     1       3.729   1.102  -2.359  1.00  0.00     0.007 A 
BRANCH  22  26
ATOM     26  N   UNL     1       3.867   0.885   1.367  1.00  0.00     0.063 N 
ATOM     27  O   UNL     1       3.005   1.107   2.229  1.00  0.00    -0.258 OA
ATOM     28  O   UNL     1       5.090   0.896   1.563  1.00  0.00    -0.258 OA
ENDBRANCH  22  26
ENDBRANCH   6  20
TORSDOF 5
