REMARK SMILES CCN(CC)Cc1c(C(=O)N/N=C/c2ccncc2)nnn1-c1nonc1N
REMARK SMILES IDX 7 1 8 2 20 3 21 4 22 5 6 6 3 7 2 8 1 9 4 10 5 11 9 12 11 13
REMARK SMILES IDX 10 14 12 16 13 17 14 18 15 19 19 20 16 21 18 22 17 23 23 24
REMARK SMILES IDX 24 25 27 26 25 27 26 28 28 29
REMARK H PARENT 11 15 28 30 28 31
ROOT
ATOM      1  C   UNL     1      -1.222   1.566  -0.596  1.00  0.00     0.094 A 
ATOM      2  C   UNL     1       0.124   1.837  -0.355  1.00  0.00     0.177 A 
ATOM      3  N   UNL     1       0.308   3.185  -0.261  1.00  0.00    -0.124 NA
ATOM      4  N   UNL     1      -0.857   3.769  -0.447  1.00  0.00    -0.060 NA
ATOM      5  N   UNL     1      -1.836   2.825  -0.619  1.00  0.00    -0.190 N 
ENDROOT
BRANCH   1   6
ATOM      6  C   UNL     1      -1.851   0.253  -0.904  1.00  0.00     0.143 C 
BRANCH   6   7
ATOM      7  N   UNL     1      -2.587  -0.349   0.232  1.00  0.00    -0.298 NA
BRANCH   7   8
ATOM      8  C   UNL     1      -3.246  -1.606  -0.215  1.00  0.00     0.081 C 
ATOM      9  C   UNL     1      -2.351  -2.813  -0.493  1.00  0.00     0.021 C 
ENDBRANCH   7   8
BRANCH   7  10
ATOM     10  C   UNL     1      -1.736  -0.555   1.423  1.00  0.00     0.081 C 
ATOM     11  C   UNL     1      -2.500  -1.081   2.635  1.00  0.00     0.021 C 
ENDBRANCH   7  10
ENDBRANCH   6   7
ENDBRANCH   1   6
BRANCH   2  12
ATOM     12  C   UNL     1       1.252   0.911  -0.252  1.00  0.00     0.293 C 
ATOM     13  N   UNL     1       2.471   1.571  -0.106  1.00  0.00    -0.242 N 
ATOM     14  O   UNL     1       1.108  -0.308  -0.298  1.00  0.00    -0.265 OA
ATOM     15  H   UNL     1       2.456   2.575  -0.295  1.00  0.00     0.194 HD
BRANCH  13  16
ATOM     16  N   UNL     1       3.702   0.986  -0.272  1.00  0.00    -0.180 NA
BRANCH  16  17
ATOM     17  C   UNL     1       3.886  -0.187   0.248  1.00  0.00     0.141 C 
BRANCH  17  18
ATOM     18  C   UNL     1       5.156  -0.918   0.063  1.00  0.00    -0.002 A 
ATOM     19  C   UNL     1       6.125  -0.456  -0.829  1.00  0.00     0.030 A 
ATOM     20  C   UNL     1       5.367  -2.091   0.784  1.00  0.00     0.030 A 
ATOM     21  C   UNL     1       7.281  -1.202  -0.962  1.00  0.00     0.111 A 
ATOM     22  C   UNL     1       6.562  -2.757   0.580  1.00  0.00     0.111 A 
ATOM     23  N   UNL     1       7.520  -2.341  -0.276  1.00  0.00    -0.265 NA
ENDBRANCH  17  18
ENDBRANCH  16  17
ENDBRANCH  13  16
ENDBRANCH   2  12
BRANCH   5  24
ATOM     24  C   UNL     1      -3.187   3.243  -0.805  1.00  0.00     0.243 A 
ATOM     25  N   UNL     1      -3.383   4.549  -1.037  1.00  0.00    -0.027 NA
ATOM     26  C   UNL     1      -4.431   2.583  -0.793  1.00  0.00     0.215 A 
ATOM     27  O   UNL     1      -4.749   4.684  -1.217  1.00  0.00    -0.240 OA
ATOM     28  N   UNL     1      -5.390   3.466  -1.072  1.00  0.00    -0.030 NA
BRANCH  26  29
ATOM     29  N   UNL     1      -4.716   1.303  -0.504  1.00  0.00    -0.378 N 
ATOM     30  H   UNL     1      -4.078   0.744   0.072  1.00  0.00     0.158 HD
ATOM     31  H   UNL     1      -5.691   1.078  -0.324  1.00  0.00     0.158 HD
ENDBRANCH  26  29
ENDBRANCH   5  24
TORSDOF 10
