MODEL        7USER    Run = 7USERUSER    Estimated Free Energy of Binding    =  -9.40 kcal/mol  [=(1)+(2)+(3)-(4)]USERUSER    (1) Final Intermolecular Energy     = -11.19 kcal/molUSER        vdW + Hbond + desolv Energy     = -11.03 kcal/molUSER        Electrostatic Energy            =  -0.16 kcal/molUSER        Moving Ligand-Fixed Receptor    = -11.19 kcal/molUSER        Moving Ligand-Moving Receptor   =  +0.00 kcal/molUSER    (2) Final Total Internal Energy     =  -1.72 kcal/molUSER    (3) Torsional Free Energy           =  +1.79 kcal/molUSER    (4) Unbound System's Energy         =  -1.72 kcal/molUSERUSERREMARK SMILES CN(C)Cc1c(-c2n[nH]c(-c3ccncc3)n2)nnn1-c1nonc1NREMARK SMILES IDX 5 1 6 2 18 3 19 4 20 5 4 6 2 7 1 8 3 9 7 10 8 11 17 12 9 13REMARK SMILES IDX 10 14 11 16 12 17 16 18 13 19 15 20 14 21 21 22 22 23 25 24REMARK SMILES IDX 23 25 24 26 26 27REMARK H PARENT 9 15 26 28 26 29USER                              x       y       z     vdW  Elec       q    TypeUSER                           _______ _______ _______ _____ _____    ______ ____ROOTATOM      1  C   UNL     1      39.635  47.519  15.545 -0.44 -0.03    +0.092 A  ATOM      2  C   UNL     1      39.729  47.223  16.894 -0.36 -0.04    +0.157 A  ATOM      3  N   UNL     1      38.548  46.706  17.337 -0.32 +0.04    -0.126 NA ATOM      4  N   UNL     1      37.708  46.668  16.318 -0.35 +0.03    -0.060 NA ATOM      5  N   UNL     1      38.322  47.190  15.213 -0.29 +0.08    -0.190 N  ENDROOTBRANCH   1   6ATOM      6  C   UNL     1      40.643  48.055  14.595 -0.41 -0.02    +0.142 C  BRANCH   6   7ATOM      7  N   UNL     1      41.319  49.239  15.146 -0.54 +0.04    -0.303 NA ATOM      8  C   UNL     1      42.110  49.895  14.101 -0.65 -0.02    +0.105 C  ATOM      9  C   UNL     1      40.366  50.199  15.712 -0.35 -0.05    +0.105 C  ENDBRANCH   6   7ENDBRANCH   1   6BRANCH   2  10ATOM     10  C   UNL     1      40.855  47.367  17.823 -0.35 -0.02    +0.204 A  ATOM     11  N   UNL     1      41.823  48.289  17.728 -0.66 -0.00    -0.151 NA ATOM     12  N   UNL     1      40.987  46.525  18.898 -0.34 +0.00    -0.205 NA ATOM     13  N   UNL     1      42.579  47.995  18.798 -0.39 -0.00    -0.259 N  ATOM     14  C   UNL     1      42.083  46.935  19.507 -0.35 +0.02    +0.156 A  ATOM     15  H   UNL     1      43.406  48.550  18.982 -0.46 -0.02    +0.192 HD BRANCH  14  16ATOM     16  C   UNL     1      42.672  46.367  20.720 -0.33 +0.01    +0.022 A  ATOM     17  C   UNL     1      42.209  45.188  21.309 -0.27 +0.01    +0.032 A  ATOM     18  C   UNL     1      43.747  47.027  21.323 -0.33 +0.01    +0.032 A  ATOM     19  C   UNL     1      42.834  44.730  22.459 -0.17 +0.02    +0.111 A  ATOM     20  C   UNL     1      44.307  46.491  22.470 -0.20 +0.06    +0.111 A  ATOM     21  N   UNL     1      43.872  45.355  23.052 -0.07 -0.08    -0.265 NA ENDBRANCH  14  16ENDBRANCH   2  10BRANCH   5  22ATOM     22  C   UNL     1      37.612  47.328  13.990 -0.31 -0.10    +0.243 A  ATOM     23  N   UNL     1      38.208  47.751  12.874 -0.84 +0.00    -0.027 NA ATOM     24  C   UNL     1      36.244  47.087  13.752 -0.34 -0.13    +0.215 A  ATOM     25  O   UNL     1      37.197  47.740  11.918 -1.12 +0.04    -0.240 OA ATOM     26  N   UNL     1      35.987  47.330  12.468 -0.71 +0.02    -0.030 NA BRANCH  24  27ATOM     27  N   UNL     1      35.322  46.681  14.646 -0.10 +0.38    -0.378 N  ATOM     28  H   UNL     1      35.618  46.396  15.573 +0.11 -0.15    +0.158 HD ATOM     29  H   UNL     1      34.353  46.989  14.581 -0.11 -0.25    +0.158 HD ENDBRANCH  24  27ENDBRANCH   5  22TORSDOF 6TERENDMDL