REMARK SMILES Nc1nonc1-n1nnc(C(=O)NCc2ccncc2)c1CN1CCCCC1
REMARK SMILES IDX 7 1 8 2 9 3 10 4 21 5 6 6 2 7 3 8 4 9 5 10 1 11 22 14 23 15
REMARK SMILES IDX 24 16 28 17 25 18 27 19 26 20 11 21 13 22 12 23 14 25 15 26
REMARK SMILES IDX 16 27 20 28 17 29 19 30 18 31
REMARK H PARENT 1 12 1 13 13 24
ROOT
ATOM      1  N   UNL     1      -1.361   2.494  -0.726  1.00  0.00    -0.190 N 
ATOM      2  N   UNL     1      -0.700   3.540  -0.154  1.00  0.00    -0.060 NA
ATOM      3  N   UNL     1       0.599   3.322  -0.226  1.00  0.00    -0.124 NA
ATOM      4  C   UNL     1       0.806   2.081  -0.764  1.00  0.00     0.175 A 
ATOM      5  C   UNL     1      -0.428   1.509  -1.066  1.00  0.00     0.094 A 
ENDROOT
BRANCH   1   6
ATOM      6  C   UNL     1      -2.767   2.553  -0.925  1.00  0.00     0.243 A 
ATOM      7  C   UNL     1      -3.662   3.544  -0.477  1.00  0.00     0.215 A 
ATOM      8  N   UNL     1      -4.882   3.247  -0.922  1.00  0.00    -0.030 NA
ATOM      9  O   UNL     1      -4.738   2.064  -1.639  1.00  0.00    -0.240 OA
ATOM     10  N   UNL     1      -3.410   1.642  -1.656  1.00  0.00    -0.027 NA
BRANCH   7  11
ATOM     11  N   UNL     1      -3.372   4.623   0.276  1.00  0.00    -0.378 N 
ATOM     12  H   UNL     1      -2.405   4.925   0.395  1.00  0.00     0.158 HD
ATOM     13  H   UNL     1      -4.051   5.375   0.334  1.00  0.00     0.158 HD
ENDBRANCH   7  11
ENDBRANCH   1   6
BRANCH   5  14
ATOM     14  C   UNL     1      -0.796   0.196  -1.658  1.00  0.00     0.143 C 
BRANCH  14  15
ATOM     15  N   UNL     1      -1.508  -0.653  -0.700  1.00  0.00    -0.297 NA
ATOM     16  C   UNL     1      -2.201  -1.754  -1.394  1.00  0.00     0.085 C 
ATOM     17  C   UNL     1      -0.728  -1.133   0.436  1.00  0.00     0.085 C 
ATOM     18  C   UNL     1      -2.563  -2.938  -0.488  1.00  0.00     0.016 C 
ATOM     19  C   UNL     1      -1.657  -1.715   1.510  1.00  0.00     0.016 C 
ATOM     20  C   UNL     1      -2.849  -2.480   0.933  1.00  0.00     0.003 C 
ENDBRANCH  14  15
ENDBRANCH   5  14
BRANCH   4  21
ATOM     21  C   UNL     1       2.171   1.585  -0.947  1.00  0.00     0.274 C 
ATOM     22  N   UNL     1       2.326   0.215  -0.927  1.00  0.00    -0.347 N 
ATOM     23  O   UNL     1       3.126   2.345  -1.074  1.00  0.00    -0.267 OA
ATOM     24  H   UNL     1       1.570  -0.339  -0.560  1.00  0.00     0.164 HD
BRANCH  22  25
ATOM     25  C   UNL     1       3.637  -0.394  -0.905  1.00  0.00     0.152 C 
BRANCH  25  26
ATOM     26  C   UNL     1       4.003  -0.797   0.497  1.00  0.00    -0.026 A 
ATOM     27  C   UNL     1       3.848  -2.116   0.933  1.00  0.00     0.025 A 
ATOM     28  C   UNL     1       4.468   0.156   1.410  1.00  0.00     0.025 A 
ATOM     29  C   UNL     1       4.172  -2.423   2.245  1.00  0.00     0.111 A 
ATOM     30  C   UNL     1       4.762  -0.249   2.702  1.00  0.00     0.111 A 
ATOM     31  N   UNL     1       4.623  -1.519   3.139  1.00  0.00    -0.265 NA
ENDBRANCH  25  26
ENDBRANCH  22  25
ENDBRANCH   4  21
TORSDOF 7
