MODEL        4USER    Run = 4USERUSER    Estimated Free Energy of Binding    =  -9.88 kcal/mol  [=(1)+(2)+(3)-(4)]USERUSER    (1) Final Intermolecular Energy     = -12.26 kcal/molUSER        vdW + Hbond + desolv Energy     = -11.88 kcal/molUSER        Electrostatic Energy            =  -0.38 kcal/molUSER        Moving Ligand-Fixed Receptor    = -12.26 kcal/molUSER        Moving Ligand-Moving Receptor   =  +0.00 kcal/molUSER    (2) Final Total Internal Energy     =  -2.82 kcal/molUSER    (3) Torsional Free Energy           =  +2.39 kcal/molUSER    (4) Unbound System's Energy         =  -2.82 kcal/molUSERUSERREMARK SMILES Nc1nonc1-n1nnc(C(=O)NCCc2ccncc2)c1CN1CCCC1REMARK SMILES IDX 7 1 8 2 9 3 10 4 22 5 6 6 2 7 3 8 4 9 5 10 1 11 23 14 24 15REMARK SMILES IDX 25 16 28 17 26 18 27 19 11 20 13 21 12 22 14 24 15 25 16 26REMARK SMILES IDX 17 27 21 28 18 29 20 30 19 31REMARK H PARENT 1 12 1 13 13 23USER                              x       y       z     vdW  Elec       q    TypeUSER                           _______ _______ _______ _____ _____    ______ ____ROOTATOM      1  N   UNL     1      39.161  46.913  16.544 -0.31 +0.06    -0.190 N  ATOM      2  N   UNL     1      39.376  45.772  17.268 -0.37 +0.01    -0.060 NA ATOM      3  N   UNL     1      38.340  44.966  17.130 -0.28 +0.03    -0.124 NA ATOM      4  C   UNL     1      37.427  45.579  16.314 -0.24 -0.07    +0.175 A  ATOM      5  C   UNL     1      37.903  46.832  15.954 -0.34 -0.05    +0.094 A  ENDROOTBRANCH   1   6ATOM      6  C   UNL     1      40.155  47.925  16.480 -0.33 -0.06    +0.243 A  ATOM      7  C   UNL     1      40.422  48.812  15.419 -0.42 -0.06    +0.215 A  ATOM      8  N   UNL     1      41.417  49.620  15.783 -1.17 +0.00    -0.030 NA ATOM      9  O   UNL     1      41.768  49.223  17.067 -0.97 -0.04    -0.240 OA ATOM     10  N   UNL     1      40.974  48.164  17.504 -0.57 +0.00    -0.027 NA BRANCH   7  11ATOM     11  N   UNL     1      39.804  48.862  14.224 -0.19 +0.14    -0.378 N  ATOM     12  H   UNL     1      38.997  49.468  14.111 -0.30 -0.12    +0.158 HD ATOM     13  H   UNL     1      39.826  48.066  13.587 +0.12 -0.02    +0.158 HD ENDBRANCH   7  11ENDBRANCH   1   6BRANCH   5  14ATOM     14  C   UNL     1      37.234  47.884  15.141 -0.43 -0.11    +0.143 C  BRANCH  14  15ATOM     15  N   UNL     1      37.654  47.769  13.735 -0.44 +0.12    -0.297 NA ATOM     16  C   UNL     1      36.554  48.120  12.822 -0.62 -0.04    +0.085 C  ATOM     17  C   UNL     1      37.998  46.394  13.345 -0.35 -0.02    +0.085 C  ATOM     18  C   UNL     1      35.721  46.856  12.677 -0.66 -0.01    +0.017 C  ATOM     19  C   UNL     1      36.688  45.716  12.966 -0.60 -0.01    +0.017 C  ENDBRANCH  14  15ENDBRANCH   5  14BRANCH   4  20ATOM     20  C   UNL     1      36.168  44.943  15.939 -0.21 -0.13    +0.273 C  ATOM     21  N   UNL     1      35.106  45.822  15.893 -0.11 +0.31    -0.350 N  ATOM     22  O   UNL     1      36.049  43.744  15.703 -0.29 +0.10    -0.267 OA ATOM     23  H   UNL     1      35.298  46.801  16.075 +0.06 -0.23    +0.163 HD BRANCH  21  24ATOM     24  C   UNL     1      33.777  45.406  15.498 -0.28 -0.11    +0.121 C  BRANCH  24  25ATOM     25  C   UNL     1      32.779  45.488  16.655 -0.30 -0.04    +0.057 C  BRANCH  25  26ATOM     26  C   UNL     1      33.169  44.583  17.795 -0.30 +0.02    -0.043 A  ATOM     27  C   UNL     1      34.108  44.988  18.746 -0.41 -0.01    +0.024 A  ATOM     28  C   UNL     1      32.614  43.305  17.907 -0.30 -0.01    +0.024 A  ATOM     29  C   UNL     1      34.444  44.106  19.763 -0.29 -0.02    +0.111 A  ATOM     30  C   UNL     1      33.016  42.497  18.959 -0.31 -0.01    +0.111 A  ATOM     31  N   UNL     1      33.920  42.869  19.891 -0.66 -0.02    -0.265 NA ENDBRANCH  25  26ENDBRANCH  24  25ENDBRANCH  21  24ENDBRANCH   4  20TORSDOF 8TERENDMDL