MODEL        6USER    Run = 6USERUSER    Estimated Free Energy of Binding    =  -9.39 kcal/mol  [=(1)+(2)+(3)-(4)]USERUSER    (1) Final Intermolecular Energy     = -10.88 kcal/molUSER        vdW + Hbond + desolv Energy     = -10.86 kcal/molUSER        Electrostatic Energy            =  -0.02 kcal/molUSER        Moving Ligand-Fixed Receptor    = -10.88 kcal/molUSER        Moving Ligand-Moving Receptor   =  +0.00 kcal/molUSER    (2) Final Total Internal Energy     =  -1.50 kcal/molUSER    (3) Torsional Free Energy           =  +1.49 kcal/molUSER    (4) Unbound System's Energy         =  -1.50 kcal/molUSERUSERREMARK SMILES O=C1NC(=O)C(c2ccccc2[N+](=O)[O-])=C1Nc1ccc(O)c(Cl)c1REMARK SMILES IDX 1 1 2 2 3 3 4 4 5 5 6 6 16 7 17 9 18 11 19 12 25 13 20 14REMARK SMILES IDX 23 15 21 16 24 17 22 18 7 20 8 21 12 22 9 23 11 24 10 25REMARK SMILES IDX 13 26 14 27 15 28REMARK H PARENT 3 8 17 10 22 19USER                              x       y       z     vdW  Elec       q    TypeUSER                           _______ _______ _______ _____ _____    ______ ____ROOTATOM      1  O   UNL     1      37.219  47.828  12.427 -1.07 +0.05    -0.267 OA ATOM      2  C   UNL     1      36.522  47.098  13.106 -0.45 -0.13    +0.275 C  ATOM      3  N   UNL     1      35.180  46.988  13.009 -0.29 +0.21    -0.287 N  ATOM      4  C   UNL     1      34.692  46.217  13.996 -0.19 -0.22    +0.261 C  ATOM      5  O   UNL     1      33.524  45.973  14.236 -0.27 +0.25    -0.269 OA ATOM      6  C   UNL     1      35.841  45.702  14.765 -0.39 -0.05    +0.083 C  ATOM      7  C   UNL     1      36.966  46.191  14.213 -0.40 -0.06    +0.119 C  ATOM      8  H   UNL     1      34.615  47.532  12.379 -0.13 -0.17    +0.173 HD ENDROOTBRANCH   7   9ATOM      9  N   UNL     1      38.272  46.042  14.624 -0.15 +0.11    -0.350 N  ATOM     10  H   UNL     1      38.749  45.237  14.226 +0.11 -0.04    +0.167 HD BRANCH   9  11ATOM     11  C   UNL     1      39.171  47.015  15.107 -0.43 -0.01    +0.040 A  ATOM     12  C   UNL     1      39.388  48.254  14.489 -0.48 -0.01    +0.030 A  ATOM     13  C   UNL     1      39.846  46.751  16.310 -0.44 -0.01    +0.050 A  ATOM     14  C   UNL     1      40.273  49.191  15.035 -0.51 -0.02    +0.050 A  ATOM     15  C   UNL     1      40.727  47.685  16.859 -0.47 -0.01    +0.084 A  ATOM     16  C   UNL     1      40.940  48.903  16.216 -0.46 -0.02    +0.134 A  ATOM     17  Cl  UNL     1      41.545  47.319  18.332 -0.72 +0.00    -0.080 Cl BRANCH  16  18ATOM     18  O   UNL     1      41.795  49.849  16.709 -0.75 -0.08    -0.506 OA ATOM     19  H   UNL     1      41.414  50.720  16.496 -0.30 -0.08    +0.293 HD ENDBRANCH  16  18ENDBRANCH   9  11ENDBRANCH   7   9BRANCH   6  20ATOM     20  C   UNL     1      35.724  44.808  15.922 -0.29 -0.03    +0.067 A  ATOM     21  C   UNL     1      35.916  43.431  15.707 -0.41 -0.01    +0.016 A  ATOM     22  C   UNL     1      35.382  45.226  17.223 -0.14 -0.15    +0.277 A  ATOM     23  C   UNL     1      35.775  42.510  16.750 -0.39 -0.00    +0.001 A  ATOM     24  C   UNL     1      35.235  44.300  18.272 -0.27 -0.03    +0.086 A  ATOM     25  C   UNL     1      35.432  42.943  18.029 -0.36 -0.00    +0.007 A  BRANCH  22  26ATOM     26  N   UNL     1      35.228  46.642  17.557 -0.40 -0.06    +0.063 N  ATOM     27  O   UNL     1      35.807  47.464  16.834 +0.04 +0.36    -0.258 OA ATOM     28  O   UNL     1      34.572  46.922  18.570 -0.86 +0.18    -0.258 OA ENDBRANCH  22  26ENDBRANCH   6  20TORSDOF 5TERENDMDL