MODEL        8USER    Run = 8USERUSER    Estimated Free Energy of Binding    = -10.09 kcal/mol  [=(1)+(2)+(3)-(4)]USERUSER    (1) Final Intermolecular Energy     = -12.48 kcal/molUSER        vdW + Hbond + desolv Energy     = -12.19 kcal/molUSER        Electrostatic Energy            =  -0.29 kcal/molUSER        Moving Ligand-Fixed Receptor    = -12.48 kcal/molUSER        Moving Ligand-Moving Receptor   =  +0.00 kcal/molUSER    (2) Final Total Internal Energy     =  -2.91 kcal/molUSER    (3) Torsional Free Energy           =  +2.39 kcal/molUSER    (4) Unbound System's Energy         =  -2.91 kcal/molUSERUSERREMARK SMILES Nc1nonc1-n1nnc(C(=O)NCCc2ccncc2)c1CN1CCCCC1REMARK SMILES IDX 7 1 8 2 9 3 10 4 22 5 6 6 2 7 3 8 4 9 5 10 1 11 23 14 24 15REMARK SMILES IDX 25 16 29 17 26 18 28 19 27 20 11 21 13 22 12 23 14 25 15 26REMARK SMILES IDX 16 27 17 28 21 29 18 30 20 31 19 32REMARK H PARENT 1 12 1 13 13 24USER                              x       y       z     vdW  Elec       q    TypeUSER                           _______ _______ _______ _____ _____    ______ ____ROOTATOM      1  N   UNL     1      39.050  47.521  15.299 -0.33 +0.07    -0.190 N  ATOM      2  N   UNL     1      39.965  48.469  15.675 -0.50 +0.02    -0.060 NA ATOM      3  N   UNL     1      40.529  48.103  16.811 -0.48 +0.02    -0.124 NA ATOM      4  C   UNL     1      40.009  46.891  17.178 -0.36 -0.03    +0.175 A  ATOM      5  C   UNL     1      39.078  46.487  16.233 -0.36 -0.03    +0.094 A  ENDROOTBRANCH   1   6ATOM      6  C   UNL     1      38.243  47.709  14.146 -0.32 -0.09    +0.243 A  ATOM      7  C   UNL     1      37.269  48.702  13.923 -0.33 -0.12    +0.215 A  ATOM      8  N   UNL     1      36.712  48.492  12.732 -1.03 +0.01    -0.030 NA ATOM      9  O   UNL     1      37.355  47.373  12.215 -1.11 +0.05    -0.240 OA ATOM     10  N   UNL     1      38.300  46.873  13.108 -0.47 +0.01    -0.027 NA BRANCH   7  11ATOM     11  N   UNL     1      36.928  49.709  14.751 -0.13 +0.40    -0.378 N  ATOM     12  H   UNL     1      37.587  50.457  14.960 -0.46 -0.18    +0.158 HD ATOM     13  H   UNL     1      36.245  49.534  15.480 -0.13 -0.34    +0.158 HD ENDBRANCH   7  11ENDBRANCH   1   6BRANCH   5  14ATOM     14  C   UNL     1      38.271  45.241  16.147 -0.24 -0.04    +0.143 C  BRANCH  14  15ATOM     15  N   UNL     1      37.081  45.326  17.002 -0.15 +0.11    -0.297 NA ATOM     16  C   UNL     1      36.109  46.320  16.540 -0.37 -0.06    +0.085 C  ATOM     17  C   UNL     1      36.453  43.997  17.134 -0.33 -0.03    +0.085 C  ATOM     18  C   UNL     1      35.038  46.547  17.617 -0.43 -0.01    +0.016 C  ATOM     19  C   UNL     1      34.972  44.038  17.537 -0.35 -0.01    +0.016 C  ATOM     20  C   UNL     1      34.655  45.271  18.368 -0.47 -0.00    +0.003 C  ENDBRANCH  14  15ENDBRANCH   5  14BRANCH   4  21ATOM     21  C   UNL     1      40.448  46.194  18.382 -0.35 -0.02    +0.273 C  ATOM     22  N   UNL     1      39.444  45.474  18.996 -0.19 +0.02    -0.350 N  ATOM     23  O   UNL     1      41.592  46.248  18.818 -0.35 -0.01    -0.267 OA ATOM     24  H   UNL     1      38.515  45.525  18.592 +0.09 -0.02    +0.163 HD BRANCH  22  25ATOM     25  C   UNL     1      39.655  44.751  20.232 -0.35 +0.00    +0.121 C  BRANCH  25  26ATOM     26  C   UNL     1      38.494  44.935  21.213 -0.36 +0.00    +0.057 C  BRANCH  26  27ATOM     27  C   UNL     1      37.686  43.674  21.366 -0.35 -0.00    -0.043 A  ATOM     28  C   UNL     1      37.799  42.882  22.511 -0.36 +0.00    +0.024 A  ATOM     29  C   UNL     1      36.783  43.285  20.372 -0.39 -0.00    +0.024 A  ATOM     30  C   UNL     1      37.016  41.740  22.607 -0.44 +0.01    +0.111 A  ATOM     31  C   UNL     1      36.044  42.127  20.561 -0.41 -0.00    +0.111 A  ATOM     32  N   UNL     1      36.141  41.346  21.658 -0.37 -0.00    -0.265 NA ENDBRANCH  26  27ENDBRANCH  25  26ENDBRANCH  22  25ENDBRANCH   4  21TORSDOF 8TERENDMDL