MODEL        6USER    Run = 6USERUSER    Estimated Free Energy of Binding    = -10.22 kcal/mol  [=(1)+(2)+(3)-(4)]USERUSER    (1) Final Intermolecular Energy     = -12.31 kcal/molUSER        vdW + Hbond + desolv Energy     = -12.05 kcal/molUSER        Electrostatic Energy            =  -0.26 kcal/molUSER        Moving Ligand-Fixed Receptor    = -12.31 kcal/molUSER        Moving Ligand-Moving Receptor   =  +0.00 kcal/molUSER    (2) Final Total Internal Energy     =  -2.55 kcal/molUSER    (3) Torsional Free Energy           =  +2.09 kcal/molUSER    (4) Unbound System's Energy         =  -2.55 kcal/molUSERUSERREMARK SMILES Nc1nonc1-n1nnc(C(=O)NCc2ccncc2)c1CN1CCCCC1REMARK SMILES IDX 7 1 8 2 9 3 10 4 21 5 6 6 2 7 3 8 4 9 5 10 1 11 22 14 23 15REMARK SMILES IDX 24 16 28 17 25 18 27 19 26 20 11 21 13 22 12 23 14 25 15 26REMARK SMILES IDX 16 27 20 28 17 29 19 30 18 31REMARK H PARENT 1 12 1 13 13 24USER                              x       y       z     vdW  Elec       q    TypeUSER                           _______ _______ _______ _____ _____    ______ ____ROOTATOM      1  N   UNL     1      39.767  47.083  16.799 -0.35 +0.04    -0.190 N  ATOM      2  N   UNL     1      40.418  46.138  17.535 -0.42 +0.01    -0.060 NA ATOM      3  N   UNL     1      39.629  45.093  17.693 -0.29 +0.01    -0.124 NA ATOM      4  C   UNL     1      38.410  45.377  17.140 -0.26 -0.04    +0.175 A  ATOM      5  C   UNL     1      38.452  46.655  16.588 -0.34 -0.03    +0.094 A  ENDROOTBRANCH   1   6ATOM      6  C   UNL     1      40.453  48.243  16.348 -0.35 -0.05    +0.243 A  ATOM      7  C   UNL     1      40.233  48.969  15.161 -0.39 -0.07    +0.215 A  ATOM      8  N   UNL     1      41.055  50.017  15.147 -0.73 +0.01    -0.030 NA ATOM      9  O   UNL     1      41.789  49.930  16.325 -1.06 -0.03    -0.240 OA ATOM     10  N   UNL     1      41.396  48.830  17.084 -1.01 +0.00    -0.027 NA BRANCH   7  11ATOM     11  N   UNL     1      39.352  48.683  14.183 -0.17 +0.15    -0.378 N  ATOM     12  H   UNL     1      38.948  47.750  14.108 +0.11 -0.05    +0.158 HD ATOM     13  H   UNL     1      38.752  49.424  13.834 -0.33 -0.11    +0.158 HD ENDBRANCH   7  11ENDBRANCH   1   6BRANCH   5  14ATOM     14  C   UNL     1      37.429  47.462  15.872 -0.35 -0.10    +0.143 C  BRANCH  14  15ATOM     15  N   UNL     1      37.018  46.831  14.616 -0.18 +0.17    -0.297 NA ATOM     16  C   UNL     1      36.562  47.845  13.648 -0.56 -0.05    +0.085 C  ATOM     17  C   UNL     1      37.974  45.903  14.021 -0.42 -0.03    +0.085 C  ATOM     18  C   UNL     1      36.567  47.368  12.190 -0.74 -0.01    +0.016 C  ATOM     19  C   UNL     1      37.296  45.078  12.918 -0.51 -0.01    +0.016 C  ATOM     20  C   UNL     1      36.286  45.877  12.095 -0.68 -0.00    +0.003 C  ENDBRANCH  14  15ENDBRANCH   5  14BRANCH   4  21ATOM     21  C   UNL     1      37.339  44.380  17.187 -0.21 -0.07    +0.274 C  ATOM     22  N   UNL     1      36.498  44.341  16.095 -0.13 +0.13    -0.347 N  ATOM     23  O   UNL     1      37.177  43.647  18.158 -0.13 +0.05    -0.267 OA ATOM     24  H   UNL     1      36.511  45.125  15.463 +0.12 -0.08    +0.164 HD BRANCH  22  25ATOM     25  C   UNL     1      35.295  43.540  16.099 -0.35 -0.06    +0.152 C  BRANCH  25  26ATOM     26  C   UNL     1      34.652  43.570  17.458 -0.31 +0.01    -0.026 A  ATOM     27  C   UNL     1      34.192  44.767  18.013 -0.34 -0.01    +0.025 A  ATOM     28  C   UNL     1      34.539  42.398  18.215 -0.39 -0.01    +0.025 A  ATOM     29  C   UNL     1      33.636  44.739  19.282 -0.29 -0.03    +0.111 A  ATOM     30  C   UNL     1      33.971  42.473  19.476 -0.32 -0.00    +0.111 A  ATOM     31  N   UNL     1      33.517  43.620  20.026 -0.68 -0.01    -0.265 NA ENDBRANCH  25  26ENDBRANCH  22  25ENDBRANCH   4  21TORSDOF 7TERENDMDL