REMARK SMILES NNC(=O)c1nnn(-c2nonc2N)c1CN1CCCCC1
REMARK SMILES IDX 5 1 6 2 7 3 8 4 15 5 3 6 2 7 4 9 1 10 16 13 17 14 18 15
REMARK SMILES IDX 22 16 19 17 21 18 20 19 9 20 10 21 13 22 11 23 12 24 14 25
REMARK H PARENT 2 8 1 11 1 12 14 26 14 27
ROOT
ATOM      1  C   UNL     1      -1.726   1.319  -0.242  1.00  0.00     0.176 A 
ATOM      2  N   UNL     1      -2.717   1.402   0.699  1.00  0.00    -0.124 NA
ATOM      3  N   UNL     1      -2.910   0.197   1.202  1.00  0.00    -0.060 NA
ATOM      4  N   UNL     1      -2.052  -0.686   0.606  1.00  0.00    -0.190 N 
ATOM      5  C   UNL     1      -1.268   0.010  -0.310  1.00  0.00     0.094 A 
ENDROOT
BRANCH   1   6
ATOM      6  C   UNL     1      -1.283   2.479  -1.008  1.00  0.00     0.287 C 
ATOM      7  N   UNL     1      -1.816   3.680  -0.546  1.00  0.00    -0.289 N 
ATOM      8  H   UNL     1      -2.490   3.661   0.220  1.00  0.00     0.185 HD
ATOM      9  O   UNL     1      -0.540   2.419  -1.986  1.00  0.00    -0.266 OA
BRANCH   7  10
ATOM     10  N   UNL     1      -1.542   4.896  -1.215  1.00  0.00    -0.248 NA
ATOM     11  H   UNL     1      -0.602   5.193  -0.935  1.00  0.00     0.143 HD
ATOM     12  H   UNL     1      -1.433   4.673  -2.213  1.00  0.00     0.143 HD
ENDBRANCH   7  10
ENDBRANCH   1   6
BRANCH   5  13
ATOM     13  C   UNL     1      -0.175  -0.552  -1.147  1.00  0.00     0.143 C 
BRANCH  13  14
ATOM     14  N   UNL     1       1.133  -0.165  -0.608  1.00  0.00    -0.297 NA
ATOM     15  C   UNL     1       1.567  -0.979   0.528  1.00  0.00     0.085 C 
ATOM     16  C   UNL     1       2.148  -0.153  -1.678  1.00  0.00     0.085 C 
ATOM     17  C   UNL     1       2.787  -0.339   1.202  1.00  0.00     0.016 C 
ATOM     18  C   UNL     1       3.593  -0.281  -1.176  1.00  0.00     0.016 C 
ATOM     19  C   UNL     1       3.754   0.316   0.213  1.00  0.00     0.003 C 
ENDBRANCH  13  14
ENDBRANCH   5  13
BRANCH   4  20
ATOM     20  C   UNL     1      -2.076  -2.062   0.952  1.00  0.00     0.243 A 
ATOM     21  N   UNL     1      -1.294  -2.951   0.338  1.00  0.00    -0.027 NA
ATOM     22  C   UNL     1      -2.877  -2.699   1.920  1.00  0.00     0.215 A 
ATOM     23  O   UNL     1      -1.620  -4.166   0.936  1.00  0.00    -0.240 OA
ATOM     24  N   UNL     1      -2.602  -4.003   1.907  1.00  0.00    -0.030 NA
BRANCH  22  25
ATOM     25  N   UNL     1      -3.776  -2.124   2.741  1.00  0.00    -0.378 N 
ATOM     26  H   UNL     1      -4.088  -1.165   2.594  1.00  0.00     0.158 HD
ATOM     27  H   UNL     1      -4.429  -2.709   3.251  1.00  0.00     0.158 HD
ENDBRANCH  22  25
ENDBRANCH   4  20
TORSDOF 6
