REMARK SMILES CN[C@@H]1C[C@H]2O[C@@](C)([C@@H]1OC)n1c3ccccc3c3c4c(c5c6ccccc6n2c5c31)C(=O)NC4
REMARK SMILES IDX 3 1 4 2 5 3 6 4 7 5 8 6 9 7 12 8 13 9 14 10 15 11 16 12
REMARK SMILES IDX 17 13 18 14 19 15 20 16 21 17 22 18 23 19 24 20 25 21 26 22
REMARK SMILES IDX 27 23 28 24 29 25 30 26 31 27 32 28 33 29 34 30 35 31 2 33
REMARK SMILES IDX 1 34 10 36 11 37
REMARK H PARENT 34 32 2 35
ROOT
ATOM      1  C   UNL     1       3.051  -0.271   1.127  1.00  0.00     0.091 C 
ATOM      2  C   UNL     1       2.023  -1.271   1.672  1.00  0.00     0.077 C 
ATOM      3  C   UNL     1       0.700  -0.588   2.043  1.00  0.00     0.224 C 
ATOM      4  O   UNL     1       0.718   0.834   1.940  1.00  0.00    -0.329 OA
ATOM      5  C   UNL     1       1.219   1.415   0.711  1.00  0.00     0.173 C 
ATOM      6  C   UNL     1       1.811   2.732   1.266  1.00  0.00     0.071 C 
ATOM      7  C   UNL     1       2.351   0.573   0.032  1.00  0.00     0.188 C 
ATOM      8  N   UNL     1       0.083   1.648  -0.200  1.00  0.00    -0.307 N 
ATOM      9  C   UNL     1      -0.051   2.622  -1.189  1.00  0.00     0.052 A 
ATOM     10  C   UNL     1       0.809   3.637  -1.650  1.00  0.00     0.027 A 
ATOM     11  C   UNL     1       0.365   4.504  -2.654  1.00  0.00     0.002 A 
ATOM     12  C   UNL     1      -0.899   4.369  -3.207  1.00  0.00     0.001 A 
ATOM     13  C   UNL     1      -1.744   3.342  -2.783  1.00  0.00     0.011 A 
ATOM     14  C   UNL     1      -1.321   2.449  -1.774  1.00  0.00     0.008 A 
ATOM     15  C   UNL     1      -1.904   1.282  -1.206  1.00  0.00     0.016 A 
ATOM     16  C   UNL     1      -3.072   0.525  -1.388  1.00  0.00    -0.005 A 
ATOM     17  C   UNL     1      -3.301  -0.696  -0.679  1.00  0.00     0.055 A 
ATOM     18  C   UNL     1      -2.419  -1.259   0.257  1.00  0.00     0.023 A 
ATOM     19  C   UNL     1      -2.319  -2.417   1.088  1.00  0.00     0.008 A 
ATOM     20  C   UNL     1      -3.135  -3.547   1.310  1.00  0.00     0.011 A 
ATOM     21  C   UNL     1      -2.740  -4.535   2.217  1.00  0.00     0.001 A 
ATOM     22  C   UNL     1      -1.542  -4.418   2.911  1.00  0.00     0.002 A 
ATOM     23  C   UNL     1      -0.710  -3.313   2.718  1.00  0.00     0.027 A 
ATOM     24  C   UNL     1      -1.112  -2.323   1.802  1.00  0.00     0.052 A 
ATOM     25  N   UNL     1      -0.502  -1.136   1.425  1.00  0.00    -0.312 N 
ATOM     26  C   UNL     1      -1.271  -0.519   0.488  1.00  0.00     0.077 A 
ATOM     27  C   UNL     1      -1.002   0.812  -0.275  1.00  0.00     0.077 A 
ATOM     28  C   UNL     1      -4.596  -1.222  -1.135  1.00  0.00     0.252 C 
ATOM     29  O   UNL     1      -5.161  -2.236  -0.779  1.00  0.00    -0.269 OA
ATOM     30  N   UNL     1      -5.090  -0.340  -2.071  1.00  0.00    -0.348 N 
ATOM     31  C   UNL     1      -4.223   0.777  -2.317  1.00  0.00     0.153 C 
ATOM     32  H   UNL     1      -5.976  -0.511  -2.526  1.00  0.00     0.164 HD
ENDROOT
BRANCH   1  33
ATOM     33  N   UNL     1       4.259  -0.949   0.606  1.00  0.00    -0.314 NA
ATOM     34  C   UNL     1       5.064  -1.575   1.647  1.00  0.00     0.101 C 
ATOM     35  H   UNL     1       4.839  -0.282   0.099  1.00  0.00     0.122 HD
ENDBRANCH   1  33
BRANCH   7  36
ATOM     36  O   UNL     1       1.799  -0.340  -0.939  1.00  0.00    -0.375 OA
ATOM     37  C   UNL     1       2.441  -0.279  -2.203  1.00  0.00     0.195 C 
ENDBRANCH   7  36
TORSDOF 2
