REMARK SMILES Nc1nonc1-n1nnc(C(=O)NCCc2ccncc2)c1CN1CCCC1
REMARK SMILES IDX 7 1 8 2 9 3 10 4 22 5 6 6 2 7 3 8 4 9 5 10 1 11 23 14 24 15
REMARK SMILES IDX 25 16 28 17 26 18 27 19 11 20 13 21 12 22 14 24 15 25 16 26
REMARK SMILES IDX 17 27 21 28 18 29 20 30 19 31
REMARK H PARENT 1 12 1 13 13 23
ROOT
ATOM      1  N   UNL     1      -2.403   2.140  -0.431  1.00  0.00    -0.190 N 
ATOM      2  N   UNL     1      -1.560   3.183  -0.160  1.00  0.00    -0.060 NA
ATOM      3  N   UNL     1      -0.310   2.772  -0.264  1.00  0.00    -0.124 NA
ATOM      4  C   UNL     1      -0.323   1.445  -0.600  1.00  0.00     0.175 A 
ATOM      5  C   UNL     1      -1.637   1.005  -0.679  1.00  0.00     0.094 A 
ENDROOT
BRANCH   1   6
ATOM      6  C   UNL     1      -3.809   2.333  -0.441  1.00  0.00     0.243 A 
ATOM      7  C   UNL     1      -4.526   3.507  -0.134  1.00  0.00     0.215 A 
ATOM      8  N   UNL     1      -5.825   3.265  -0.298  1.00  0.00    -0.030 NA
ATOM      9  O   UNL     1      -5.909   1.937  -0.698  1.00  0.00    -0.240 OA
ATOM     10  N   UNL     1      -4.646   1.356  -0.791  1.00  0.00    -0.027 NA
BRANCH   7  11
ATOM     11  N   UNL     1      -4.019   4.689   0.266  1.00  0.00    -0.378 N 
ATOM     12  H   UNL     1      -4.615   5.511   0.251  1.00  0.00     0.158 HD
ATOM     13  H   UNL     1      -3.023   4.888   0.185  1.00  0.00     0.158 HD
ENDBRANCH   7  11
ENDBRANCH   1   6
BRANCH   5  14
ATOM     14  C   UNL     1      -2.144  -0.369  -0.943  1.00  0.00     0.143 C 
BRANCH  14  15
ATOM     15  N   UNL     1      -1.943  -1.211   0.247  1.00  0.00    -0.297 NA
ATOM     16  C   UNL     1      -1.974  -2.641  -0.102  1.00  0.00     0.085 C 
ATOM     17  C   UNL     1      -3.020  -1.077   1.239  1.00  0.00     0.085 C 
ATOM     18  C   UNL     1      -3.445  -3.026  -0.127  1.00  0.00     0.017 C 
ATOM     19  C   UNL     1      -4.125  -2.030   0.802  1.00  0.00     0.017 C 
ENDBRANCH  14  15
ENDBRANCH   5  14
BRANCH   4  20
ATOM     20  C   UNL     1       0.905   0.685  -0.814  1.00  0.00     0.273 C 
ATOM     21  N   UNL     1       2.042   1.369  -0.436  1.00  0.00    -0.350 N 
ATOM     22  O   UNL     1       0.938  -0.443  -1.297  1.00  0.00    -0.267 OA
ATOM     23  H   UNL     1       1.922   2.286  -0.020  1.00  0.00     0.163 HD
BRANCH  21  24
ATOM     24  C   UNL     1       3.361   0.779  -0.521  1.00  0.00     0.121 C 
BRANCH  24  25
ATOM     25  C   UNL     1       3.633  -0.193   0.629  1.00  0.00     0.057 C 
BRANCH  25  26
ATOM     26  C   UNL     1       5.009  -0.800   0.535  1.00  0.00    -0.043 A 
ATOM     27  C   UNL     1       6.090  -0.239   1.218  1.00  0.00     0.024 A 
ATOM     28  C   UNL     1       5.235  -1.925  -0.262  1.00  0.00     0.024 A 
ATOM     29  C   UNL     1       7.339  -0.827   1.080  1.00  0.00     0.111 A 
ATOM     30  C   UNL     1       6.520  -2.439  -0.336  1.00  0.00     0.111 A 
ATOM     31  N   UNL     1       7.579  -1.914   0.317  1.00  0.00    -0.265 NA
ENDBRANCH  25  26
ENDBRANCH  24  25
ENDBRANCH  21  24
ENDBRANCH   4  20
TORSDOF 8
