REMARK SMILES Nc1nonc1-n1nnc(-c2n[nH]c(-c3ccncc3)n2)c1CN1CCCC1
REMARK SMILES IDX 2 1 3 2 4 3 5 4 6 5 1 6 7 9 8 10 22 11 9 12 10 13 23 14
REMARK SMILES IDX 24 15 25 16 28 17 26 18 27 19 11 20 12 21 21 22 13 23 14 24
REMARK SMILES IDX 15 26 16 27 20 28 17 29 19 30 18 31
REMARK H PARENT 1 7 1 8 13 25
ROOT
ATOM      1  C   UNL     1      -4.405  -3.286  -0.058  1.00  0.00     0.215 A 
ATOM      2  N   UNL     1      -5.477  -3.013   0.684  1.00  0.00    -0.030 NA
ATOM      3  O   UNL     1      -5.094  -1.971   1.521  1.00  0.00    -0.240 OA
ATOM      4  N   UNL     1      -3.763  -1.616   1.311  1.00  0.00    -0.027 NA
ATOM      5  C   UNL     1      -3.359  -2.425   0.331  1.00  0.00     0.243 A 
ENDROOT
BRANCH   1   6
ATOM      6  N   UNL     1      -4.364  -4.236  -1.012  1.00  0.00    -0.378 N 
ATOM      7  H   UNL     1      -5.103  -4.930  -1.048  1.00  0.00     0.158 HD
ATOM      8  H   UNL     1      -3.475  -4.542  -1.405  1.00  0.00     0.158 HD
ENDBRANCH   1   6
BRANCH   5   9
ATOM      9  N   UNL     1      -2.027  -2.395  -0.163  1.00  0.00    -0.190 N 
ATOM     10  N   UNL     1      -1.593  -3.341  -1.050  1.00  0.00    -0.060 NA
ATOM     11  C   UNL     1      -0.968  -1.537   0.129  1.00  0.00     0.092 A 
ATOM     12  N   UNL     1      -0.311  -3.141  -1.304  1.00  0.00    -0.126 NA
ATOM     13  C   UNL     1       0.092  -2.043  -0.603  1.00  0.00     0.157 A 
BRANCH  11  14
ATOM     14  C   UNL     1      -1.058  -0.353   1.019  1.00  0.00     0.143 C 
BRANCH  14  15
ATOM     15  N   UNL     1      -1.758   0.743   0.351  1.00  0.00    -0.297 NA
ATOM     16  C   UNL     1      -0.949   1.429  -0.659  1.00  0.00     0.085 C 
ATOM     17  C   UNL     1      -2.145   1.796   1.292  1.00  0.00     0.085 C 
ATOM     18  C   UNL     1      -1.736   2.707  -0.911  1.00  0.00     0.017 C 
ATOM     19  C   UNL     1      -2.505   2.960   0.380  1.00  0.00     0.017 C 
ENDBRANCH  14  15
ENDBRANCH  11  14
BRANCH  13  20
ATOM     20  C   UNL     1       1.474  -1.567  -0.716  1.00  0.00     0.204 A 
ATOM     21  N   UNL     1       2.430  -2.161  -1.439  1.00  0.00    -0.151 NA
ATOM     22  N   UNL     1       1.890  -0.432  -0.063  1.00  0.00    -0.205 NA
ATOM     23  N   UNL     1       3.477  -1.353  -1.226  1.00  0.00    -0.259 N 
ATOM     24  C   UNL     1       3.160  -0.307  -0.401  1.00  0.00     0.156 A 
ATOM     25  H   UNL     1       4.361  -1.572  -1.668  1.00  0.00     0.192 HD
BRANCH  24  26
ATOM     26  C   UNL     1       4.073   0.755   0.023  1.00  0.00     0.022 A 
ATOM     27  C   UNL     1       3.601   1.752   0.882  1.00  0.00     0.032 A 
ATOM     28  C   UNL     1       5.405   0.821  -0.394  1.00  0.00     0.032 A 
ATOM     29  C   UNL     1       4.464   2.757   1.283  1.00  0.00     0.111 A 
ATOM     30  C   UNL     1       6.193   1.868   0.062  1.00  0.00     0.111 A 
ATOM     31  N   UNL     1       5.751   2.835   0.890  1.00  0.00    -0.265 NA
ENDBRANCH  24  26
ENDBRANCH  13  20
ENDBRANCH   5   9
TORSDOF 6
