REMARK SMILES Nc1nonc1-n1nnc(C(=O)N/N=C/c2ccncc2)c1CN1CCCCC1
REMARK SMILES IDX 7 1 8 2 9 3 10 4 22 5 6 6 2 7 3 8 4 9 5 10 1 11 23 14 24 15
REMARK SMILES IDX 25 16 29 17 26 18 28 19 27 20 11 21 13 22 12 23 14 25 15 26
REMARK SMILES IDX 16 27 17 28 21 29 18 30 20 31 19 32
REMARK H PARENT 1 12 1 13 13 24
ROOT
ATOM      1  N   UNL     1      -1.657   2.174   1.415  1.00  0.00    -0.190 N 
ATOM      2  N   UNL     1      -0.913   3.244   0.996  1.00  0.00    -0.060 NA
ATOM      3  N   UNL     1       0.268   2.821   0.586  1.00  0.00    -0.124 NA
ATOM      4  C   UNL     1       0.300   1.458   0.700  1.00  0.00     0.177 A 
ATOM      5  C   UNL     1      -0.913   1.013   1.205  1.00  0.00     0.094 A 
ENDROOT
BRANCH   1   6
ATOM      6  C   UNL     1      -2.955   2.360   1.962  1.00  0.00     0.243 A 
ATOM      7  C   UNL     1      -3.663   3.568   2.118  1.00  0.00     0.215 A 
ATOM      8  N   UNL     1      -4.847   3.298   2.667  1.00  0.00    -0.030 NA
ATOM      9  O   UNL     1      -4.859   1.922   2.864  1.00  0.00    -0.240 OA
ATOM     10  N   UNL     1      -3.670   1.339   2.435  1.00  0.00    -0.027 NA
BRANCH   7  11
ATOM     11  N   UNL     1      -3.250   4.806   1.784  1.00  0.00    -0.378 N 
ATOM     12  H   UNL     1      -2.422   4.949   1.209  1.00  0.00     0.158 HD
ATOM     13  H   UNL     1      -3.925   5.562   1.755  1.00  0.00     0.158 HD
ENDBRANCH   7  11
ENDBRANCH   1   6
BRANCH   5  14
ATOM     14  C   UNL     1      -1.395  -0.367   1.480  1.00  0.00     0.143 C 
BRANCH  14  15
ATOM     15  N   UNL     1      -2.332  -0.814   0.443  1.00  0.00    -0.297 NA
ATOM     16  C   UNL     1      -3.163  -1.923   0.952  1.00  0.00     0.085 C 
ATOM     17  C   UNL     1      -1.674  -1.187  -0.811  1.00  0.00     0.085 C 
ATOM     18  C   UNL     1      -3.781  -2.802  -0.145  1.00  0.00     0.016 C 
ATOM     19  C   UNL     1      -2.720  -1.376  -1.918  1.00  0.00     0.016 C 
ATOM     20  C   UNL     1      -4.019  -2.012  -1.422  1.00  0.00     0.003 C 
ENDBRANCH  14  15
ENDBRANCH   5  14
BRANCH   4  21
ATOM     21  C   UNL     1       1.473   0.678   0.308  1.00  0.00     0.293 C 
ATOM     22  N   UNL     1       2.497   1.482  -0.185  1.00  0.00    -0.242 N 
ATOM     23  O   UNL     1       1.518  -0.543   0.427  1.00  0.00    -0.265 OA
ATOM     24  H   UNL     1       2.388   2.486  -0.050  1.00  0.00     0.194 HD
BRANCH  22  25
ATOM     25  N   UNL     1       3.780   1.091  -0.475  1.00  0.00    -0.180 NA
BRANCH  25  26
ATOM     26  C   UNL     1       3.974  -0.107  -0.929  1.00  0.00     0.141 C 
BRANCH  26  27
ATOM     27  C   UNL     1       5.333  -0.610  -1.215  1.00  0.00    -0.002 A 
ATOM     28  C   UNL     1       5.480  -1.909  -1.695  1.00  0.00     0.030 A 
ATOM     29  C   UNL     1       6.452   0.193  -1.009  1.00  0.00     0.030 A 
ATOM     30  C   UNL     1       6.764  -2.353  -1.955  1.00  0.00     0.111 A 
ATOM     31  C   UNL     1       7.690  -0.347  -1.300  1.00  0.00     0.111 A 
ATOM     32  N   UNL     1       7.870  -1.601  -1.769  1.00  0.00    -0.265 NA
ENDBRANCH  26  27
ENDBRANCH  25  26
ENDBRANCH  22  25
ENDBRANCH   4  21
TORSDOF 8
