MODEL        4USER    Run = 4USERUSER    Estimated Free Energy of Binding    = -12.55 kcal/mol  [=(1)+(2)+(3)-(4)]USERUSER    (1) Final Intermolecular Energy     = -14.34 kcal/molUSER        vdW + Hbond + desolv Energy     = -14.22 kcal/molUSER        Electrostatic Energy            =  -0.12 kcal/molUSER        Moving Ligand-Fixed Receptor    = -14.34 kcal/molUSER        Moving Ligand-Moving Receptor   =  +0.00 kcal/molUSER    (2) Final Total Internal Energy     =  -1.88 kcal/molUSER    (3) Torsional Free Energy           =  +1.79 kcal/molUSER    (4) Unbound System's Energy         =  -1.88 kcal/molUSERUSERREMARK SMILES Oc1nc2ccccc2n1C1CCN(Cc2ccc(-c3cc4ccccc4nc3-c3ccccc3)cc2)CC1REMARK SMILES IDX 11 1 12 2 13 3 14 4 38 5 39 6 10 7 2 8 3 9 4 10 9 11 5 12REMARK SMILES IDX 8 13 6 14 7 15 1 16 15 18 16 19 17 20 37 21 18 22 36 23REMARK SMILES IDX 19 24 20 25 21 26 29 27 22 28 28 29 23 30 27 31 24 32 26 33REMARK SMILES IDX 25 34 30 35 31 36 35 37 32 38 34 39 33 40REMARK H PARENT 1 17USER                              x       y       z     vdW  Elec       q    TypeUSER                           _______ _______ _______ _____ _____    ______ ____ROOTATOM      1  C   UNL     1      31.577  40.009  17.475 -0.29 -0.02    +0.095 C  ATOM      2  C   UNL     1      32.781  40.801  18.004 -0.45 -0.01    +0.041 C  ATOM      3  C   UNL     1      32.446  42.196  18.523 -0.36 -0.01    +0.087 C  ATOM      4  N   UNL     1      31.561  42.965  17.645 -0.11 +0.07    -0.299 NA ATOM      5  C   UNL     1      30.300  42.252  17.427 -0.25 -0.02    +0.087 C  ATOM      6  C   UNL     1      30.460  40.852  16.840 -0.39 -0.01    +0.041 C  ENDROOTBRANCH   1   7ATOM      7  N   UNL     1      31.104  38.963  18.380 -0.23 -0.04    -0.291 N  ATOM      8  C   UNL     1      31.867  37.882  18.749 -0.29 +0.06    +0.295 A  ATOM      9  N   UNL     1      31.252  37.050  19.540 -0.71 -0.07    -0.195 NA ATOM     10  C   UNL     1      30.013  37.608  19.714 -0.32 +0.02    +0.092 A  ATOM     11  C   UNL     1      29.885  38.814  19.010 -0.32 +0.01    +0.072 A  ATOM     12  C   UNL     1      28.939  37.121  20.477 -0.29 -0.00    +0.031 A  ATOM     13  C   UNL     1      28.699  39.557  19.061 -0.20 +0.00    +0.029 A  ATOM     14  C   UNL     1      27.752  37.856  20.526 -0.29 -0.00    +0.002 A  ATOM     15  C   UNL     1      27.639  39.056  19.829 -0.26 -0.00    +0.002 A  BRANCH   8  16ATOM     16  O   UNL     1      33.109  37.666  18.365 -0.04 -0.00    -0.480 OA ATOM     17  H   UNL     1      33.286  38.473  17.847 +0.14 -0.07    +0.296 HD ENDBRANCH   8  16ENDBRANCH   1   7BRANCH   4  18ATOM     18  C   UNL     1      32.234  43.382  16.403 -0.30 -0.05    +0.120 C  BRANCH  18  19ATOM     19  C   UNL     1      33.612  43.962  16.637 -0.30 +0.02    -0.034 A  ATOM     20  C   UNL     1      33.771  45.246  17.172 -0.34 -0.00    +0.006 A  ATOM     21  C   UNL     1      34.755  43.217  16.317 -0.40 -0.00    +0.006 A  ATOM     22  C   UNL     1      35.048  45.774  17.382 -0.37 -0.01    +0.009 A  ATOM     23  C   UNL     1      36.030  43.751  16.520 -0.37 -0.00    +0.009 A  ATOM     24  C   UNL     1      36.196  45.038  17.049 -0.32 +0.01    -0.016 A  BRANCH  24  25ATOM     25  C   UNL     1      37.539  45.594  17.270 -0.36 -0.00    +0.009 A  ATOM     26  C   UNL     1      38.202  45.322  18.477 -0.36 -0.00    +0.021 A  ATOM     27  C   UNL     1      38.233  46.364  16.323 -0.34 -0.03    +0.079 A  ATOM     28  C   UNL     1      39.500  45.794  18.707 -0.43 -0.00    +0.001 A  ATOM     29  N   UNL     1      39.503  46.818  16.529 -0.27 +0.06    -0.247 NA ATOM     30  C   UNL     1      40.183  45.531  19.907 -0.39 +0.00    +0.010 A  ATOM     31  C   UNL     1      40.117  46.543  17.690 -0.43 -0.01    +0.071 A  ATOM     32  C   UNL     1      41.477  46.010  20.102 -0.40 +0.00    +0.001 A  ATOM     33  C   UNL     1      41.407  47.008  17.907 -0.47 -0.00    +0.029 A  ATOM     34  C   UNL     1      42.092  46.751  19.099 -0.52 +0.00    +0.002 A  BRANCH  27  35ATOM     35  C   UNL     1      37.674  46.766  15.018 -0.42 -0.00    +0.001 A  ATOM     36  C   UNL     1      37.376  45.798  14.042 -0.42 -0.00    +0.010 A  ATOM     37  C   UNL     1      37.443  48.115  14.696 -0.52 -0.01    +0.010 A  ATOM     38  C   UNL     1      36.843  46.162  12.803 -0.58 -0.00    +0.001 A  ATOM     39  C   UNL     1      36.911  48.481  13.456 -0.56 -0.00    +0.001 A  ATOM     40  C   UNL     1      36.607  47.503  12.511 -0.68 -0.00    +0.000 A  ENDBRANCH  27  35ENDBRANCH  24  25ENDBRANCH  18  19ENDBRANCH   4  18TORSDOF 6TERENDMDL