MODEL        4USER    Run = 4USERUSER    Estimated Free Energy of Binding    =  -6.45 kcal/mol  [=(1)+(2)+(3)-(4)]USERUSER    (1) Final Intermolecular Energy     = -10.92 kcal/molUSER        vdW + Hbond + desolv Energy     = -11.04 kcal/molUSER        Electrostatic Energy            =  -0.27 kcal/molUSER        Moving Ligand-Fixed Receptor    = -11.31 kcal/molUSER        Moving Ligand-Moving Receptor   =  +0.39 kcal/molUSER    (2) Final Total Internal Energy     =  -1.38 kcal/molUSER    (3) Torsional Free Energy           =  +4.47 kcal/molUSER    (4) Unbound System's Energy         =  -1.38 kcal/molUSERUSERREMARK SMILES COc1ccc(O)c(C(=O)c2ccc(NC[C@@H]3CCCNC[C@@H]3NC(=O)c3ccncc3)cc2)c1FREMARK SMILES IDX 16 1 15 2 14 4 11 5 12 6 34 7 13 8 33 9 9 10 10 11 8 12 3 13REMARK SMILES IDX 4 14 35 15 5 16 6 17 36 18 2 19 1 20 7 21 17 23 18 24 23 26REMARK SMILES IDX 22 27 21 28 20 30 19 31 24 33 25 34 26 36 27 37 28 38 32 39REMARK SMILES IDX 29 40 31 41 30 42REMARK H PARENT 15 3 7 22 21 29 24 35REMARK Flexibility Score:   99.900USER                              x       y       z     vdW  Elec       q    TypeUSER                           _______ _______ _______ _____ _____    ______ ____ROOTATOM      1  C   UNL     1      39.461  47.032  24.339 -0.27 +0.01    +0.118 C  ENDROOTBRANCH   1   2ATOM      2  N   UNL     1      40.481  46.170  23.736 -0.03 -0.03    -0.385 N  ATOM      3  H   UNL     1      41.367  46.188  24.232 +0.06 +0.01    +0.160 HD BRANCH   2   4ATOM      4  C   UNL     1      40.615  46.016  22.359 -0.23 +0.00    +0.034 A  ATOM      5  C   UNL     1      40.721  45.766  19.541 -0.42 +0.00    +0.023 A  ATOM      6  C   UNL     1      41.814  46.272  20.249 -0.39 +0.00    +0.014 A  ATOM      7  C   UNL     1      39.554  45.437  20.230 -0.36 +0.00    +0.014 A  ATOM      8  C   UNL     1      41.754  46.402  21.642 -0.27 +0.00    +0.026 A  ATOM      9  C   UNL     1      39.508  45.570  21.624 -0.30 +0.00    +0.026 A  BRANCH   5  10ATOM     10  C   UNL     1      40.815  45.677  18.064 -0.39 -0.01    +0.199 C  ATOM     11  O   UNL     1      41.453  44.752  17.559 -0.19 -0.02    -0.288 OA BRANCH  10  12ATOM     12  C   UNL     1      40.224  46.680  17.152 -0.41 -0.02    +0.104 A  ATOM     13  C   UNL     1      38.514  47.386  15.561 -0.34 -0.07    +0.155 A  ATOM     14  C   UNL     1      39.140  48.629  15.446 -0.48 -0.03    +0.053 A  ATOM     15  C   UNL     1      39.070  46.417  16.411 -0.30 -0.05    +0.179 A  ATOM     16  C   UNL     1      40.314  48.891  16.156 -0.49 -0.01    +0.051 A  ATOM     17  C   UNL     1      40.857  47.918  16.990 -0.42 -0.02    +0.130 A  ATOM     18  F   UNL     1      38.484  45.211  16.481 -0.07 +0.05    -0.202 F  BRANCH  13  19ATOM     19  O   UNL     1      37.374  47.008  14.904 -0.07 +0.27    -0.494 OA ATOM     20  C   UNL     1      36.155  47.053  15.634 -0.16 -0.28    +0.278 C  ENDBRANCH  13  19BRANCH  17  21ATOM     21  O   UNL     1      42.027  48.244  17.624 -0.43 -0.01    -0.507 OA ATOM     22  H   UNL     1      42.670  47.517  17.463 -0.37 -0.07    +0.293 HD ENDBRANCH  17  21ENDBRANCH  10  12ENDBRANCH   5  10ENDBRANCH   2   4ENDBRANCH   1   2BRANCH   1  23ATOM     23  C   UNL     1      39.980  48.474  24.566 -0.36 +0.00    +0.032 C  BRANCH  23  24ATOM     24  C   UNL     1      41.192  48.751  23.653 -0.27 +0.00    +0.009 CG0ATOM     25  G   UNL     1      42.595  48.474  24.193 +0.00 +0.00    +0.000 G0 ENDBRANCH  23  24BRANCH  23  26ATOM     26  C   UNL     1      40.212  48.731  26.073 -0.26 +0.01    +0.101 C  BRANCH  26  27ATOM     27  C   UNL     1      41.471  47.996  26.588 -0.18 +0.01    +0.106 C  BRANCH  27  28ATOM     28  N   UNL     1      42.691  48.812  26.642 -0.11 -0.01    -0.315 NA ATOM     29  H   UNL     1      42.505  49.598  27.269 -0.41 -0.01    +0.122 HD BRANCH  28  30ATOM     30  C   UNL     1      43.071  49.358  25.338 -0.28 +0.01    +0.081 C  BRANCH  30  31ATOM     31  C   UNL     1      42.597  48.473  24.192 -0.39 +0.00    +0.016 CG0ATOM     32  G   UNL     1      41.193  48.745  23.652 +0.00 +0.00    +0.000 G0 ENDBRANCH  30  31ENDBRANCH  28  30ENDBRANCH  27  28ENDBRANCH  26  27BRANCH  26  33ATOM     33  N   UNL     1      39.063  48.371  26.900 -0.11 -0.01    -0.348 N  ATOM     34  C   UNL     1      37.765  48.658  26.555 -0.23 +0.01    +0.251 C  ATOM     35  H   UNL     1      39.297  47.997  27.812 -0.08 -0.01    +0.164 HD ATOM     36  O   UNL     1      37.463  49.247  25.523 -0.30 -0.02    -0.269 OA BRANCH  34  37ATOM     37  C   UNL     1      36.707  48.239  27.512 -0.32 -0.01    +0.042 A  ATOM     38  C   UNL     1      35.832  49.216  27.992 -0.29 -0.00    +0.034 A  ATOM     39  C   UNL     1      36.544  46.914  27.918 -0.31 -0.01    +0.034 A  ATOM     40  C   UNL     1      34.844  48.829  28.878 -0.25 -0.01    +0.112 A  ATOM     41  C   UNL     1      35.523  46.630  28.807 -0.28 -0.03    +0.112 A  ATOM     42  N   UNL     1      34.675  47.557  29.299 -0.29 +0.04    -0.265 NA ENDBRANCH  34  37ENDBRANCH  26  33ENDBRANCH  23  26ENDBRANCH   1  23TORSDOF 9TERENDMDL