MODEL        7USER    Run = 7USERUSER    Estimated Free Energy of Binding    =  -8.02 kcal/mol  [=(1)+(2)+(3)-(4)]USERUSER    (1) Final Intermolecular Energy     = -12.50 kcal/molUSER        vdW + Hbond + desolv Energy     = -12.91 kcal/molUSER        Electrostatic Energy            =  -0.11 kcal/molUSER        Moving Ligand-Fixed Receptor    = -13.02 kcal/molUSER        Moving Ligand-Moving Receptor   =  +0.53 kcal/molUSER    (2) Final Total Internal Energy     =  -1.97 kcal/molUSER    (3) Torsional Free Energy           =  +4.47 kcal/molUSER    (4) Unbound System's Energy         =  -1.97 kcal/molUSERUSERREMARK SMILES COc1ccc(O)c(C(=O)c2ccc(/C=C/[C@@H]3CCCNC[C@H]3NC(=O)c3ccncc3)cc2)c1FREMARK SMILES IDX 16 1 15 2 14 3 11 4 12 5 34 6 13 7 33 8 9 9 10 10 8 11 3 12REMARK SMILES IDX 4 13 35 14 5 15 6 16 36 17 2 18 1 19 7 20 17 22 18 23 23 25REMARK SMILES IDX 22 26 21 27 20 29 19 30 24 32 25 33 26 35 27 36 28 37 32 38REMARK SMILES IDX 29 39 31 40 30 41REMARK H PARENT 7 21 21 28 24 34REMARK Flexibility Score:   99.900USER                              x       y       z     vdW  Elec       q    TypeUSER                           _______ _______ _______ _____ _____    ______ ____ROOTATOM      1  C   UNL     1      36.691  44.282  19.436 -0.42 +0.00    -0.021 C  ENDROOTBRANCH   1   2ATOM      2  C   UNL     1      37.168  43.153  19.984 -0.32 -0.00    +0.004 C  BRANCH   2   3ATOM      3  C   UNL     1      37.209  42.910  21.431 -0.40 -0.00    -0.026 A  ATOM      4  C   UNL     1      37.296  42.366  24.184 -0.38 +0.00    +0.023 A  ATOM      5  C   UNL     1      36.677  41.464  23.314 -0.39 +0.00    +0.013 A  ATOM      6  C   UNL     1      37.906  43.518  23.679 -0.31 +0.00    +0.013 A  ATOM      7  C   UNL     1      36.640  41.737  21.941 -0.55 +0.00    +0.009 A  ATOM      8  C   UNL     1      37.854  43.791  22.310 -0.36 +0.00    +0.009 A  BRANCH   4   9ATOM      9  C   UNL     1      37.382  42.097  25.635 -0.29 -0.01    +0.199 C  ATOM     10  O   UNL     1      38.129  41.201  26.029 -0.19 +0.01    -0.288 OA BRANCH   9  11ATOM     11  C   UNL     1      36.570  42.823  26.637 -0.34 -0.02    +0.104 A  ATOM     12  C   UNL     1      36.080  44.821  27.948 -0.33 -0.04    +0.155 A  ATOM     13  C   UNL     1      35.002  44.161  28.542 -0.52 -0.02    +0.053 A  ATOM     14  C   UNL     1      36.858  44.141  26.999 -0.26 -0.03    +0.179 A  ATOM     15  C   UNL     1      34.724  42.833  28.208 -0.38 -0.02    +0.051 A  ATOM     16  C   UNL     1      35.510  42.168  27.274 -0.46 -0.04    +0.130 A  ATOM     17  F   UNL     1      37.915  44.773  26.463 -0.04 +0.01    -0.202 F  BRANCH  12  18ATOM     18  O   UNL     1      36.462  46.109  28.208 -0.17 +0.12    -0.494 OA ATOM     19  C   UNL     1      35.568  46.914  28.967 -0.22 -0.06    +0.278 C  ENDBRANCH  12  18BRANCH  16  20ATOM     20  O   UNL     1      35.186  40.860  27.028 -0.28 +0.23    -0.507 OA ATOM     21  H   UNL     1      35.958  40.436  26.589 -0.23 -0.15    +0.293 HD ENDBRANCH  16  20ENDBRANCH   9  11ENDBRANCH   4   9ENDBRANCH   2   3ENDBRANCH   1   2BRANCH   1  22ATOM     22  C   UNL     1      35.382  44.424  18.665 -0.39 -0.01    +0.035 C  BRANCH  22  23ATOM     23  C   UNL     1      34.271  43.841  19.561 -0.47 -0.00    +0.011 CG0ATOM     24  G   UNL     1      32.863  44.413  19.434 +0.00 +0.00    +0.000 G0 ENDBRANCH  22  23BRANCH  22  25ATOM     25  C   UNL     1      35.372  43.885  17.202 -0.31 -0.04    +0.103 C  BRANCH  25  26ATOM     26  C   UNL     1      33.991  43.267  16.839 -0.34 -0.04    +0.106 C  BRANCH  26  27ATOM     27  N   UNL     1      32.805  44.104  16.977 -0.10 +0.13    -0.315 NA ATOM     28  H   UNL     1      32.190  43.953  16.176 +0.08 -0.05    +0.122 HD BRANCH  27  29ATOM     29  C   UNL     1      32.070  43.938  18.221 -0.31 -0.01    +0.081 C  BRANCH  29  30ATOM     30  C   UNL     1      32.864  44.413  19.428 -0.47 -0.00    +0.016 CG0ATOM     31  G   UNL     1      34.271  43.841  19.556 +0.00 +0.00    +0.000 G0 ENDBRANCH  29  30ENDBRANCH  27  29ENDBRANCH  26  27ENDBRANCH  25  26BRANCH  25  32ATOM     32  N   UNL     1      35.671  44.953  16.237 -0.09 +0.18    -0.347 N  ATOM     33  C   UNL     1      36.270  44.691  15.025 -0.25 -0.11    +0.251 C  ATOM     34  H   UNL     1      35.255  45.861  16.398 +0.11 -0.14    +0.164 HD ATOM     35  O   UNL     1      36.600  43.570  14.660 -0.20 +0.09    -0.269 OA BRANCH  33  36ATOM     36  C   UNL     1      36.477  45.860  14.133 -0.40 -0.02    +0.042 A  ATOM     37  C   UNL     1      36.307  45.767  12.751 -0.52 -0.01    +0.034 A  ATOM     38  C   UNL     1      36.817  47.082  14.709 -0.41 -0.02    +0.034 A  ATOM     39  C   UNL     1      36.514  46.909  12.000 -0.60 -0.05    +0.112 A  ATOM     40  C   UNL     1      37.004  48.163  13.870 -0.47 -0.06    +0.112 A  ATOM     41  N   UNL     1      36.869  48.100  12.527 -0.95 +0.07    -0.265 NA ENDBRANCH  33  36ENDBRANCH  25  32ENDBRANCH  22  25ENDBRANCH   1  22TORSDOF 9TERENDMDL