MODEL        10USER    Run = 10USERUSER    Estimated Free Energy of Binding    = -12.27 kcal/mol  [=(1)+(2)+(3)-(4)]USERUSER    (1) Final Intermolecular Energy     = -14.06 kcal/molUSER        vdW + Hbond + desolv Energy     = -14.04 kcal/molUSER        Electrostatic Energy            =  -0.02 kcal/molUSER        Moving Ligand-Fixed Receptor    = -14.06 kcal/molUSER        Moving Ligand-Moving Receptor   =  +0.00 kcal/molUSER    (2) Final Total Internal Energy     =  -0.89 kcal/molUSER    (3) Torsional Free Energy           =  +1.79 kcal/molUSER    (4) Unbound System's Energy         =  -0.89 kcal/molUSERUSERREMARK SMILES Cn1ccc2ccc3c4[nH]c5c(CCCN[C@H]6CC[C@H](O)CC6)cccc5c4c4c(c3c21)C(=O)NC4=OREMARK SMILES IDX 15 1 14 2 13 3 12 4 2 5 3 6 32 7 4 8 31 9 5 10 30 11 8 12REMARK SMILES IDX 6 13 29 14 33 15 7 16 9 17 28 18 36 19 35 20 10 21 27 22REMARK SMILES IDX 11 23 26 24 25 25 24 26 1 27 34 28 37 29 16 32 17 34 23 35REMARK SMILES IDX 18 36 22 37 19 38 20 39 21 40REMARK H PARENT 35 30 10 31 16 33 21 41USER                              x       y       z     vdW  Elec       q    TypeUSER                           _______ _______ _______ _____ _____    ______ ____ROOTATOM      1  C   UNL     1      38.277  45.619  25.629 -0.26 +0.00    +0.081 C  ENDROOTBRANCH   1   2ATOM      2  C   UNL     1      38.304  45.790  24.108 -0.32 +0.00    +0.020 C  BRANCH   2   3ATOM      3  C   UNL     1      38.919  44.589  23.380 -0.28 +0.00    +0.039 C  BRANCH   3   4ATOM      4  C   UNL     1      37.955  43.851  22.484 -0.34 -0.00    -0.024 A  ATOM      5  N   UNL     1      37.574  46.780  14.329 -0.16 +0.15    -0.350 N  ATOM      6  C   UNL     1      38.424  47.591  13.614 -0.37 -0.02    +0.086 A  ATOM      7  C   UNL     1      38.139  46.438  15.553 -0.36 -0.02    +0.057 A  ATOM      8  C   UNL     1      39.444  47.964  14.447 -0.46 -0.01    +0.028 A  ATOM      9  C   UNL     1      37.778  45.515  16.604 -0.35 -0.01    +0.022 A  ATOM     10  C   UNL     1      39.235  47.311  15.689 -0.48 -0.00    +0.000 A  ATOM     11  C   UNL     1      36.880  44.437  16.554 -0.30 -0.02    +0.063 A  ATOM     12  C   UNL     1      38.435  45.722  17.857 -0.39 -0.00    +0.009 A  ATOM     13  C   UNL     1      39.914  47.399  16.915 -0.48 -0.00    +0.011 A  ATOM     14  C   UNL     1      36.521  43.701  17.690 -0.23 -0.02    +0.063 A  ATOM     15  C   UNL     1      36.257  43.730  15.422 -0.26 -0.09    +0.259 C  ATOM     16  C   UNL     1      39.480  46.647  18.003 -0.38 -0.00    +0.012 A  ATOM     17  C   UNL     1      38.040  44.956  18.999 -0.33 -0.01    +0.055 A  ATOM     18  C   UNL     1      37.066  43.951  18.952 -0.30 -0.00    +0.022 A  ATOM     19  C   UNL     1      35.589  42.654  17.273 -0.23 -0.09    +0.259 C  ATOM     20  N   UNL     1      35.393  42.822  15.943 -0.27 +0.11    -0.288 N  ATOM     21  N   UNL     1      38.477  45.004  20.305 -0.15 +0.00    -0.354 N  ATOM     22  C   UNL     1      36.920  43.420  20.278 -0.39 -0.00    +0.008 A  ATOM     23  C   UNL     1      37.815  44.102  21.103 -0.34 +0.00    +0.050 A  ATOM     24  C   UNL     1      36.112  42.423  20.863 -0.48 +0.00    +0.011 A  ATOM     25  C   UNL     1      36.225  42.146  22.229 -0.45 +0.00    +0.001 A  ATOM     26  C   UNL     1      37.129  42.847  23.020 -0.41 +0.00    +0.006 A  ATOM     27  C   UNL     1      36.204  46.592  13.898 -0.43 -0.09    +0.149 C  ATOM     28  O   UNL     1      36.533  43.837  14.245 -0.21 +0.09    -0.269 OA ATOM     29  O   UNL     1      35.121  41.763  17.951 -0.49 +0.09    -0.269 OA ATOM     30  H   UNL     1      34.946  42.116  15.378 -0.00 -0.07    +0.173 HD ATOM     31  H   UNL     1      39.179  45.640  20.649 +0.08 +0.00    +0.167 HD ENDBRANCH   3   4ENDBRANCH   2   3ENDBRANCH   1   2BRANCH   1  32ATOM     32  N   UNL     1      36.921  45.263  26.050 -0.24 +0.03    -0.314 NA ATOM     33  H   UNL     1      36.401  46.102  26.303 -0.38 -0.03    +0.122 HD BRANCH  32  34ATOM     34  C   UNL     1      36.903  44.307  27.166 -0.40 -0.01    +0.053 C  ATOM     35  C   UNL     1      35.493  43.756  27.468 -0.58 -0.01    +0.021 C  ATOM     36  C   UNL     1      37.900  43.184  26.813 -0.32 -0.00    +0.021 C  ATOM     37  C   UNL     1      35.220  42.434  26.753 -0.55 -0.01    +0.033 C  ATOM     38  C   UNL     1      37.585  41.907  27.580 -0.47 -0.01    +0.033 C  ATOM     39  C   UNL     1      36.212  41.350  27.191 -0.55 -0.04    +0.114 C  BRANCH  39  40ATOM     40  O   UNL     1      35.693  40.648  28.320 -0.38 +0.21    -0.393 OA ATOM     41  H   UNL     1      35.435  41.310  28.985 -0.36 -0.16    +0.210 HD ENDBRANCH  39  40ENDBRANCH  32  34ENDBRANCH   1  32TORSDOF 6TERENDMDL