MODEL        9USER    Run = 9USERUSER    Estimated Free Energy of Binding    =  -7.03 kcal/mol  [=(1)+(2)+(3)-(4)]USERUSER    (1) Final Intermolecular Energy     = -11.21 kcal/molUSER        vdW + Hbond + desolv Energy     = -11.09 kcal/molUSER        Electrostatic Energy            =  -0.22 kcal/molUSER        Moving Ligand-Fixed Receptor    = -11.31 kcal/molUSER        Moving Ligand-Moving Receptor   =  +0.10 kcal/molUSER    (2) Final Total Internal Energy     =  -2.81 kcal/molUSER    (3) Torsional Free Energy           =  +4.18 kcal/molUSER    (4) Unbound System's Energy         =  -2.81 kcal/molUSERUSERREMARK SMILES COc1ccc(O)c(C(=O)c2ccc(C(=O)N[C@@H]3CCCNC[C@H]3NC(=O)c3ccncc3)cc2)c1FREMARK SMILES IDX 15 1 16 2 17 3 14 5 11 6 12 7 35 8 13 9 34 10 9 11 10 12REMARK SMILES IDX 8 13 3 14 4 15 36 16 5 17 6 18 37 19 2 20 1 21 7 22 18 24REMARK SMILES IDX 19 25 24 27 23 28 22 29 21 31 20 32 25 34 26 35 27 37 28 38REMARK SMILES IDX 29 39 33 40 30 41 32 42 31 43REMARK H PARENT 17 4 7 23 22 30 25 36REMARK Flexibility Score:   88.900USER                              x       y       z     vdW  Elec       q    TypeUSER                           _______ _______ _______ _____ _____    ______ ____ROOTATOM      1  C   UNL     1      39.846  46.932  17.150 -0.36 -0.05    +0.251 C  ATOM      2  O   UNL     1      39.503  48.033  16.733 -0.33 +0.10    -0.269 OA ATOM      3  N   UNL     1      39.308  45.747  16.691 -0.13 +0.07    -0.347 N  ATOM      4  H   UNL     1      39.488  44.907  17.223 +0.11 -0.02    +0.164 HD ENDROOTBRANCH   1   5ATOM      5  C   UNL     1      40.835  46.823  18.259 -0.47 -0.00    +0.039 A  ATOM      6  C   UNL     1      42.712  46.756  20.340 -0.39 +0.01    +0.023 A  ATOM      7  C   UNL     1      42.876  47.651  19.277 -0.44 +0.00    +0.013 A  ATOM      8  C   UNL     1      41.610  45.894  20.362 -0.37 +0.00    +0.013 A  ATOM      9  C   UNL     1      41.946  47.675  18.234 -0.48 -0.00    +0.014 A  ATOM     10  C   UNL     1      40.677  45.918  19.316 -0.43 +0.00    +0.014 A  BRANCH   6  11ATOM     11  C   UNL     1      43.678  46.824  21.458 -0.28 +0.09    +0.199 C  ATOM     12  O   UNL     1      44.736  46.201  21.348 -0.46 -0.40    -0.288 OA BRANCH  11  13ATOM     13  C   UNL     1      43.475  47.632  22.683 -0.28 +0.02    +0.104 A  ATOM     14  C   UNL     1      42.039  48.619  24.393 -0.29 +0.03    +0.155 A  ATOM     15  C   UNL     1      43.161  49.167  25.020 -0.31 +0.01    +0.053 A  ATOM     16  C   UNL     1      42.209  47.851  23.228 -0.23 +0.03    +0.179 A  ATOM     17  C   UNL     1      44.436  48.932  24.501 -0.24 +0.01    +0.051 A  ATOM     18  C   UNL     1      44.589  48.159  23.352 -0.20 +0.04    +0.130 A  ATOM     19  F   UNL     1      41.124  47.301  22.658 -0.03 -0.02    -0.202 F  BRANCH  14  20ATOM     20  O   UNL     1      40.745  48.766  24.815 -0.14 -0.08    -0.494 OA ATOM     21  C   UNL     1      40.176  47.691  25.556 -0.14 +0.02    +0.278 C  ENDBRANCH  14  20BRANCH  18  22ATOM     22  O   UNL     1      45.878  47.956  22.933 -0.10 -0.23    -0.507 OA ATOM     23  H   UNL     1      46.022  46.981  22.884 +0.08 +0.19    +0.293 HD ENDBRANCH  18  22ENDBRANCH  11  13ENDBRANCH   6  11ENDBRANCH   1   5BRANCH   3  24ATOM     24  C   UNL     1      38.136  45.745  15.807 -0.35 -0.03    +0.106 C  BRANCH  24  25ATOM     25  C   UNL     1      38.457  46.508  14.516 -0.48 -0.01    +0.028 CG0ATOM     26  G   UNL     1      37.679  46.062  13.267 +0.00 +0.00    +0.000 G0 ENDBRANCH  24  25BRANCH  24  27ATOM     27  C   UNL     1      36.887  46.281  16.564 -0.35 -0.07    +0.118 C  BRANCH  27  28ATOM     28  C   UNL     1      35.567  46.237  15.758 -0.33 -0.10    +0.108 C  BRANCH  28  29ATOM     29  N   UNL     1      35.566  45.454  14.517 -0.16 +0.19    -0.315 NA ATOM     30  H   UNL     1      36.013  44.554  14.676 +0.08 -0.05    +0.122 HD BRANCH  29  31ATOM     31  C   UNL     1      36.157  46.098  13.349 -0.52 -0.04    +0.081 C  BRANCH  31  32ATOM     32  C   UNL     1      37.680  46.061  13.266 -0.47 -0.01    +0.017 CG0ATOM     33  G   UNL     1      38.457  46.508  14.516 +0.00 +0.00    +0.000 G0 ENDBRANCH  31  32ENDBRANCH  29  31ENDBRANCH  28  29ENDBRANCH  27  28BRANCH  27  34ATOM     34  N   UNL     1      36.741  45.591  17.852 -0.13 +0.12    -0.346 N  ATOM     35  C   UNL     1      36.499  44.239  17.922 -0.21 -0.07    +0.251 C  ATOM     36  H   UNL     1      37.093  46.065  18.669 +0.09 -0.04    +0.164 HD ATOM     37  O   UNL     1      36.299  43.533  16.941 -0.23 +0.08    -0.269 OA BRANCH  35  38ATOM     38  C   UNL     1      36.519  43.635  19.277 -0.33 -0.01    +0.042 A  ATOM     39  C   UNL     1      37.384  44.176  20.229 -0.36 -0.00    +0.034 A  ATOM     40  C   UNL     1      35.725  42.536  19.608 -0.41 -0.00    +0.034 A  ATOM     41  C   UNL     1      37.401  43.607  21.487 -0.32 +0.00    +0.112 A  ATOM     42  C   UNL     1      35.817  42.039  20.896 -0.40 +0.00    +0.112 A  ATOM     43  N   UNL     1      36.633  42.554  21.843 -0.28 -0.02    -0.265 NA ENDBRANCH  35  38ENDBRANCH  27  34ENDBRANCH  24  27ENDBRANCH   3  24TORSDOF 8TERENDMDL