MODEL        10USER    Run = 10USERUSER    Estimated Free Energy of Binding    =  -5.94 kcal/mol  [=(1)+(2)+(3)-(4)]USERUSER    (1) Final Intermolecular Energy     = -10.42 kcal/molUSER        vdW + Hbond + desolv Energy     = -10.56 kcal/molUSER        Electrostatic Energy            =  -0.15 kcal/molUSER        Moving Ligand-Fixed Receptor    = -10.71 kcal/molUSER        Moving Ligand-Moving Receptor   =  +0.30 kcal/molUSER    (2) Final Total Internal Energy     =  -2.65 kcal/molUSER    (3) Torsional Free Energy           =  +4.47 kcal/molUSER    (4) Unbound System's Energy         =  -2.65 kcal/molUSERUSERREMARK SMILES COc1ccc(O)c(C(=O)c2ccc(CO[C@@H]3CCCNC[C@@H]3NC(=O)c3ccncc3)cc2)c1FREMARK SMILES IDX 16 1 15 2 14 3 11 4 12 5 34 6 13 7 33 8 9 9 10 10 8 11 3 12REMARK SMILES IDX 4 13 35 14 5 15 6 16 36 17 2 18 1 19 7 20 17 22 18 23 23 25REMARK SMILES IDX 22 26 21 27 20 29 19 30 24 32 25 33 26 35 27 36 28 37 32 38REMARK SMILES IDX 29 39 31 40 30 41REMARK H PARENT 7 21 21 28 24 34REMARK Flexibility Score:   99.900USER                              x       y       z     vdW  Elec       q    TypeUSER                           _______ _______ _______ _____ _____    ______ ____ROOTATOM      1  O   UNL     1      42.525  48.670  24.301 -0.35 -0.08    -0.371 OA ENDROOTBRANCH   1   2ATOM      2  C   UNL     1      43.464  47.761  23.727 -0.22 +0.04    +0.196 C  BRANCH   2   3ATOM      3  C   UNL     1      42.860  47.192  22.469 -0.29 -0.00    -0.022 A  ATOM      4  C   UNL     1      41.730  46.102  20.139 -0.39 +0.00    +0.023 A  ATOM      5  C   UNL     1      41.013  46.083  21.339 -0.25 +0.00    +0.012 A  ATOM      6  C   UNL     1      42.997  46.695  20.096 -0.33 +0.00    +0.012 A  ATOM      7  C   UNL     1      41.580  46.620  22.497 -0.24 +0.00    +0.007 A  ATOM      8  C   UNL     1      43.561  47.232  21.256 -0.31 +0.00    +0.007 A  BRANCH   4   9ATOM      9  C   UNL     1      41.156  45.576  18.877 -0.38 +0.01    +0.199 C  ATOM     10  O   UNL     1      41.172  44.360  18.674 -0.27 -0.02    -0.288 OA BRANCH   9  11ATOM     11  C   UNL     1      40.616  46.443  17.809 -0.42 -0.01    +0.104 A  ATOM     12  C   UNL     1      40.759  48.399  16.361 -0.43 -0.03    +0.155 A  ATOM     13  C   UNL     1      39.548  48.043  15.762 -0.49 -0.02    +0.053 A  ATOM     14  C   UNL     1      41.278  47.597  17.386 -0.31 -0.02    +0.179 A  ATOM     15  C   UNL     1      38.859  46.908  16.200 -0.40 -0.02    +0.051 A  ATOM     16  C   UNL     1      39.384  46.124  17.225 -0.35 -0.02    +0.130 A  ATOM     17  F   UNL     1      42.425  47.969  17.978 -0.19 +0.00    -0.202 F  BRANCH  12  18ATOM     18  O   UNL     1      41.513  49.493  16.029 -0.84 -0.00    -0.494 OA ATOM     19  C   UNL     1      41.544  49.874  14.660 -0.50 -0.06    +0.278 C  ENDBRANCH  12  18BRANCH  16  20ATOM     20  O   UNL     1      38.631  45.049  17.614 -0.09 +0.09    -0.507 OA ATOM     21  H   UNL     1      39.248  44.342  17.915 +0.20 -0.03    +0.293 HD ENDBRANCH  16  20ENDBRANCH   9  11ENDBRANCH   4   9ENDBRANCH   2   3ENDBRANCH   1   2BRANCH   1  22ATOM     22  C   UNL     1      41.675  48.063  25.299 -0.22 +0.02    +0.142 C  BRANCH  22  23ATOM     23  C   UNL     1      40.293  48.687  25.061 -0.30 +0.01    +0.035 CG0ATOM     24  G   UNL     1      39.063  48.029  25.677 +0.00 +0.00    +0.000 G0 ENDBRANCH  22  23BRANCH  22  25ATOM     25  C   UNL     1      42.290  48.291  26.701 -0.17 +0.01    +0.125 C  BRANCH  25  26ATOM     26  C   UNL     1      41.214  48.773  27.706 -0.23 +0.01    +0.108 C  BRANCH  26  27ATOM     27  N   UNL     1      40.078  47.882  27.932 -0.37 -0.01    -0.315 NA ATOM     28  H   UNL     1      39.880  47.862  28.934 -0.54 -0.02    +0.122 HD BRANCH  27  29ATOM     29  C   UNL     1      38.882  48.223  27.177 -0.24 -0.00    +0.081 C  BRANCH  29  30ATOM     30  C   UNL     1      39.061  48.033  25.678 -0.32 +0.00    +0.018 CG0ATOM     31  G   UNL     1      40.293  48.685  25.061 +0.00 +0.00    +0.000 G0 ENDBRANCH  29  30ENDBRANCH  27  29ENDBRANCH  26  27ENDBRANCH  25  26BRANCH  25  32ATOM     32  N   UNL     1      43.477  49.155  26.627 -0.08 +0.00    -0.345 N  ATOM     33  C   UNL     1      44.747  48.644  26.800 -0.08 +0.01    +0.251 C  ATOM     34  H   UNL     1      43.396  49.924  25.973 -0.46 -0.01    +0.164 HD ATOM     35  O   UNL     1      44.976  47.487  27.126 -0.02 -0.01    -0.269 OA BRANCH  33  36ATOM     36  C   UNL     1      45.873  49.576  26.525 -0.14 +0.00    +0.042 A  ATOM     37  C   UNL     1      45.574  50.855  26.054 -0.24 +0.00    +0.034 A  ATOM     38  C   UNL     1      47.205  49.198  26.691 -0.05 +0.00    +0.034 A  ATOM     39  C   UNL     1      46.625  51.711  25.784 -0.19 +0.01    +0.112 A  ATOM     40  C   UNL     1      48.184  50.128  26.390 -0.04 +0.00    +0.112 A  ATOM     41  N   UNL     1      47.923  51.376  25.946 -0.05 -0.01    -0.265 NA ENDBRANCH  33  36ENDBRANCH  25  32ENDBRANCH  22  25ENDBRANCH   1  22TORSDOF 9TERENDMDL