MODEL        1USER    Run = 1USERUSER    Estimated Free Energy of Binding    = -12.80 kcal/mol  [=(1)+(2)+(3)-(4)]USERUSER    (1) Final Intermolecular Energy     = -15.18 kcal/molUSER        vdW + Hbond + desolv Energy     = -15.05 kcal/molUSER        Electrostatic Energy            =  -0.13 kcal/molUSER        Moving Ligand-Fixed Receptor    = -15.18 kcal/molUSER        Moving Ligand-Moving Receptor   =  +0.00 kcal/molUSER    (2) Final Total Internal Energy     =  -2.57 kcal/molUSER    (3) Torsional Free Energy           =  +2.39 kcal/molUSER    (4) Unbound System's Energy         =  -2.57 kcal/molUSERUSERREMARK SMILES N#Cc1cnc(-c2ccc(CNCc3ccc(-c4csnn4)cc3)cc2)c(-c2ccccc2)c1REMARK SMILES IDX 11 1 10 2 7 3 8 4 26 5 9 6 25 7 6 8 3 9 4 10 34 11 5 12REMARK SMILES IDX 27 13 2 14 1 15 28 16 29 17 33 18 30 19 32 20 31 21 12 22REMARK SMILES IDX 13 24 14 25 15 26 24 27 16 28 23 29 17 30 18 31 19 32 22 33REMARK SMILES IDX 20 34 21 35REMARK H PARENT 12 23USER                              x       y       z     vdW  Elec       q    TypeUSER                           _______ _______ _______ _____ _____    ______ ____ROOTATOM      1  C   UNL     1      35.974  43.650  20.509 -0.39 -0.00    +0.117 C  ENDROOTBRANCH   1   2ATOM      2  C   UNL     1      35.144  44.125  19.340 -0.37 +0.01    -0.034 A  ATOM      3  C   UNL     1      33.561  45.041  17.167 -0.33 -0.00    +0.001 A  ATOM      4  C   UNL     1      33.674  43.670  17.460 -0.31 -0.00    +0.011 A  ATOM      5  C   UNL     1      34.272  45.941  17.976 -0.46 -0.01    +0.011 A  ATOM      6  C   UNL     1      34.448  43.217  18.534 -0.35 -0.00    +0.006 A  ATOM      7  C   UNL     1      35.045  45.492  19.052 -0.19 -0.00    +0.006 A  BRANCH   3   8ATOM      8  C   UNL     1      32.735  45.493  16.029 -0.23 -0.07    +0.078 A  ATOM      9  C   UNL     1      30.949  46.259  14.060 -0.53 -0.04    +0.071 A  ATOM     10  C   UNL     1      30.544  45.892  15.329 -0.37 -0.05    +0.131 A  ATOM     11  C   UNL     1      32.314  46.249  13.783 -0.20 -0.03    +0.032 A  ATOM     12  N   UNL     1      31.399  45.519  16.308 -0.73 +0.08    -0.254 NA ATOM     13  C   UNL     1      33.247  45.867  14.768 -0.16 -0.01    +0.009 A  BRANCH   9  14ATOM     14  C   UNL     1      29.991  46.645  13.074 -0.55 -0.06    +0.101 C  ATOM     15  N   UNL     1      29.213  46.960  12.275 -0.69 +0.10    -0.192 NA ENDBRANCH   9  14BRANCH  13  16ATOM     16  C   UNL     1      34.683  45.916  14.442 -0.30 +0.01    -0.016 A  ATOM     17  C   UNL     1      35.570  44.958  14.963 -0.32 -0.00    +0.009 A  ATOM     18  C   UNL     1      35.200  46.905  13.590 -0.38 -0.01    +0.009 A  ATOM     19  C   UNL     1      36.932  44.996  14.652 -0.39 -0.00    +0.001 A  ATOM     20  C   UNL     1      36.562  46.944  13.280 -0.58 -0.00    +0.001 A  ATOM     21  C   UNL     1      37.427  45.991  13.811 -0.45 -0.00    +0.000 A  ENDBRANCH  13  16ENDBRANCH   3   8ENDBRANCH   1   2BRANCH   1  22ATOM     22  N   UNL     1      37.196  44.446  20.626 -0.19 +0.00    -0.309 NA ATOM     23  H   UNL     1      37.510  44.405  21.594 +0.06 +0.01    +0.123 HD BRANCH  22  24ATOM     24  C   UNL     1      38.264  43.950  19.758 -0.23 -0.01    +0.117 C  BRANCH  24  25ATOM     25  C   UNL     1      38.867  45.018  18.876 -0.38 +0.00    -0.034 A  ATOM     26  C   UNL     1      40.103  45.596  19.193 -0.43 -0.00    +0.006 A  ATOM     27  C   UNL     1      38.190  45.465  17.735 -0.38 -0.00    +0.006 A  ATOM     28  C   UNL     1      40.654  46.592  18.380 -0.48 -0.00    +0.011 A  ATOM     29  C   UNL     1      38.740  46.461  16.923 -0.41 -0.00    +0.011 A  ATOM     30  C   UNL     1      39.983  47.034  17.230 -0.49 -0.00    +0.003 A  BRANCH  30  31ATOM     31  C   UNL     1      40.531  48.070  16.360 -0.47 -0.02    +0.105 A  ATOM     32  C   UNL     1      40.245  48.199  15.011 -0.46 -0.03    +0.118 A  ATOM     33  N   UNL     1      41.392  49.046  16.858 -0.98 -0.00    -0.138 NA ATOM     34  S   UNL     1      41.109  49.563  14.428 -0.85 +0.01    -0.020 S  ATOM     35  N   UNL     1      41.775  49.897  15.923 -1.05 -0.00    -0.091 NA ENDBRANCH  30  31ENDBRANCH  24  25ENDBRANCH  22  24ENDBRANCH   1  22TORSDOF 8TERENDMDL