MODEL        1USER    Run = 1USERUSER    Estimated Free Energy of Binding    =  -7.33 kcal/mol  [=(1)+(2)+(3)-(4)]USERUSER    (1) Final Intermolecular Energy     = -11.80 kcal/molUSER        vdW + Hbond + desolv Energy     = -11.71 kcal/molUSER        Electrostatic Energy            =  -0.24 kcal/molUSER        Moving Ligand-Fixed Receptor    = -11.95 kcal/molUSER        Moving Ligand-Moving Receptor   =  +0.15 kcal/molUSER    (2) Final Total Internal Energy     =  -2.39 kcal/molUSER    (3) Torsional Free Energy           =  +4.47 kcal/molUSER    (4) Unbound System's Energy         =  -2.39 kcal/molUSERUSERREMARK SMILES COc1ccc(O)c(C(=O)c2ccc(C(=O)O[C@@H]3CCCNC[C@H]3NC(=O)c3ccncc3)cc2)c1FREMARK SMILES IDX 17 1 15 2 16 3 14 4 11 5 12 6 35 7 13 8 34 9 9 10 10 11 8 12REMARK SMILES IDX 3 13 4 14 36 15 5 16 6 17 37 18 2 19 1 20 7 21 18 23 24 25REMARK SMILES IDX 23 26 22 27 21 29 20 30 19 31 25 33 26 34 27 36 28 37 29 38REMARK SMILES IDX 33 39 30 40 32 41 31 42REMARK H PARENT 7 22 22 28 25 35REMARK Flexibility Score:   99.900USER                              x       y       z     vdW  Elec       q    TypeUSER                           _______ _______ _______ _____ _____    ______ ____ROOTATOM      1  O   UNL     1      35.571  44.064  19.084 -0.10 +0.09    -0.457 OA ENDROOTBRANCH   1   2ATOM      2  C   UNL     1      35.863  42.785  19.433 -0.21 -0.03    +0.338 C  ATOM      3  O   UNL     1      35.713  41.785  18.746 -0.44 +0.04    -0.246 OA BRANCH   2   4ATOM      4  C   UNL     1      36.453  42.763  20.794 -0.42 +0.00    +0.060 A  ATOM      5  C   UNL     1      37.512  42.670  23.393 -0.38 +0.00    +0.023 A  ATOM      6  C   UNL     1      37.965  43.634  22.482 -0.34 +0.00    +0.013 A  ATOM      7  C   UNL     1      36.524  41.756  22.997 -0.50 +0.00    +0.013 A  ATOM      8  C   UNL     1      37.437  43.680  21.187 -0.38 +0.00    +0.016 A  ATOM      9  C   UNL     1      35.989  41.808  21.707 -0.47 +0.00    +0.016 A  BRANCH   5  10ATOM     10  C   UNL     1      38.060  42.560  24.773 -0.23 +0.01    +0.199 C  ATOM     11  O   UNL     1      39.260  42.688  24.987 -0.14 -0.01    -0.288 OA BRANCH  10  12ATOM     12  C   UNL     1      37.172  42.291  25.910 -0.31 -0.01    +0.104 A  ATOM     13  C   UNL     1      35.207  42.903  27.192 -0.43 -0.03    +0.155 A  ATOM     14  C   UNL     1      35.485  41.862  28.088 -0.30 -0.02    +0.053 A  ATOM     15  C   UNL     1      36.065  43.113  26.107 -0.27 -0.02    +0.179 A  ATOM     16  C   UNL     1      36.590  41.026  27.881 -0.48 -0.02    +0.051 A  ATOM     17  C   UNL     1      37.427  41.237  26.787 -0.29 -0.02    +0.130 A  ATOM     18  F   UNL     1      35.790  44.086  25.224 +0.04 -0.02    -0.202 F  BRANCH  13  19ATOM     19  O   UNL     1      34.130  43.747  27.265 -0.22 +0.06    -0.494 OA ATOM     20  C   UNL     1      33.967  44.496  28.463 -0.37 -0.04    +0.278 C  ENDBRANCH  13  19BRANCH  17  21ATOM     21  O   UNL     1      38.493  40.412  26.568 -0.06 +0.01    -0.507 OA ATOM     22  H   UNL     1      39.260  40.929  26.274 +0.10 +0.00    +0.293 HD ENDBRANCH  17  21ENDBRANCH  10  12ENDBRANCH   5  10ENDBRANCH   2   4ENDBRANCH   1   2BRANCH   1  23ATOM     23  C   UNL     1      34.290  44.285  18.437 -0.27 -0.06    +0.200 CG0ATOM     24  G   UNL     1      33.246  43.494  19.226 +0.00 +0.00    +0.000 G0 BRANCH  23  25ATOM     25  C   UNL     1      34.442  43.847  16.966 -0.28 -0.06    +0.137 C  BRANCH  25  26ATOM     26  C   UNL     1      33.159  43.271  16.333 -0.32 -0.05    +0.109 C  BRANCH  26  27ATOM     27  N   UNL     1      31.968  44.102  16.522 -0.15 +0.12    -0.315 NA ATOM     28  H   UNL     1      31.384  44.014  15.690 +0.08 -0.06    +0.122 HD BRANCH  27  29ATOM     29  C   UNL     1      31.152  43.795  17.700 -0.23 -0.01    +0.081 C  BRANCH  29  30ATOM     30  C   UNL     1      31.791  43.956  19.085 -0.22 -0.00    +0.019 C  BRANCH  30  31ATOM     31  C   UNL     1      33.247  43.494  19.226 -0.44 -0.00    +0.049 CG0ATOM     32  G   UNL     1      34.289  44.284  18.435 +0.00 +0.00    +0.000 G0 ENDBRANCH  30  31ENDBRANCH  29  30ENDBRANCH  27  29ENDBRANCH  26  27ENDBRANCH  25  26BRANCH  25  33ATOM     33  N   UNL     1      34.931  44.983  16.174 -0.10 +0.21    -0.344 N  ATOM     34  C   UNL     1      35.902  44.843  15.213 -0.23 -0.12    +0.251 C  ATOM     35  H   UNL     1      34.323  45.790  16.140 +0.06 -0.17    +0.164 HD ATOM     36  O   UNL     1      36.473  43.789  14.966 -0.30 +0.09    -0.269 OA BRANCH  34  37ATOM     37  C   UNL     1      36.234  46.068  14.447 -0.39 -0.02    +0.042 A  ATOM     38  C   UNL     1      36.937  47.086  15.088 -0.39 -0.02    +0.034 A  ATOM     39  C   UNL     1      35.825  46.229  13.124 -0.51 -0.02    +0.034 A  ATOM     40  C   UNL     1      37.227  48.226  14.362 -0.45 -0.07    +0.112 A  ATOM     41  C   UNL     1      36.159  47.410  12.489 -0.58 -0.06    +0.112 A  ATOM     42  N   UNL     1      36.857  48.408  13.076 -0.78 +0.10    -0.265 NA ENDBRANCH  34  37ENDBRANCH  25  33ENDBRANCH  23  25ENDBRANCH   1  23TORSDOF 9TERENDMDL