MODEL        8USER    Run = 8USERUSER    Estimated Free Energy of Binding    =  -6.39 kcal/mol  [=(1)+(2)+(3)-(4)]USERUSER    (1) Final Intermolecular Energy     = -10.87 kcal/molUSER        vdW + Hbond + desolv Energy     = -11.25 kcal/molUSER        Electrostatic Energy            =  -0.10 kcal/molUSER        Moving Ligand-Fixed Receptor    = -11.36 kcal/molUSER        Moving Ligand-Moving Receptor   =  +0.49 kcal/molUSER    (2) Final Total Internal Energy     =  -2.48 kcal/molUSER    (3) Torsional Free Energy           =  +4.47 kcal/molUSER    (4) Unbound System's Energy         =  -2.48 kcal/molUSERUSERREMARK SMILES COc1ccc(O)c(C(=O)c2ccc(CN[C@@H]3CCCNC[C@H]3NC(=O)c3ccncc3)cc2)c1FREMARK SMILES IDX 16 1 15 3 14 4 11 5 12 6 34 7 13 8 33 9 9 10 10 11 8 12 3 13REMARK SMILES IDX 4 14 35 15 5 16 6 17 36 18 2 19 1 20 7 21 17 23 18 24 23 26REMARK SMILES IDX 22 27 21 28 20 30 19 31 24 33 25 34 26 36 27 37 28 38 32 39REMARK SMILES IDX 29 40 31 41 30 42REMARK H PARENT 16 2 7 22 21 29 24 35REMARK Flexibility Score:   99.900USER                              x       y       z     vdW  Elec       q    TypeUSER                           _______ _______ _______ _____ _____    ______ ____ROOTATOM      1  N   UNL     1      39.565  43.680  23.894 -0.07 -0.01    -0.308 NA ATOM      2  H   UNL     1      39.157  43.223  23.076 +0.07 +0.01    +0.123 HD ENDROOTBRANCH   1   3ATOM      3  C   UNL     1      39.957  45.042  23.524 -0.18 +0.01    +0.117 C  BRANCH   3   4ATOM      4  C   UNL     1      40.181  45.226  22.043 -0.26 -0.00    -0.034 A  ATOM      5  C   UNL     1      40.621  45.564  19.286 -0.43 +0.00    +0.023 A  ATOM      6  C   UNL     1      41.697  45.615  20.177 -0.36 +0.00    +0.012 A  ATOM      7  C   UNL     1      39.324  45.370  19.775 -0.38 -0.00    +0.012 A  ATOM      8  C   UNL     1      41.477  45.438  21.546 -0.29 +0.00    +0.006 A  ATOM      9  C   UNL     1      39.107  45.196  21.144 -0.35 +0.00    +0.006 A  BRANCH   5  10ATOM     10  C   UNL     1      40.798  45.786  17.831 -0.39 -0.01    +0.199 C  ATOM     11  O   UNL     1      41.720  45.214  17.246 -0.21 -0.01    -0.288 OA BRANCH  10  12ATOM     12  C   UNL     1      39.883  46.618  17.019 -0.40 -0.02    +0.104 A  ATOM     13  C   UNL     1      37.732  47.004  15.937 -0.30 -0.08    +0.155 A  ATOM     14  C   UNL     1      38.193  48.233  15.465 -0.45 -0.03    +0.053 A  ATOM     15  C   UNL     1      38.583  46.208  16.719 -0.28 -0.05    +0.179 A  ATOM     16  C   UNL     1      39.481  48.670  15.789 -0.48 -0.02    +0.051 A  ATOM     17  C   UNL     1      40.311  47.874  16.574 -0.43 -0.03    +0.130 A  ATOM     18  F   UNL     1      38.114  45.044  17.201 -0.08 +0.05    -0.202 F  BRANCH  13  19ATOM     19  O   UNL     1      36.487  46.482  15.705 -0.08 +0.36    -0.494 OA ATOM     20  C   UNL     1      35.892  46.755  14.443 -0.26 -0.22    +0.278 C  ENDBRANCH  13  19BRANCH  17  21ATOM     21  O   UNL     1      41.543  48.391  16.876 -0.61 +0.00    -0.507 OA ATOM     22  H   UNL     1      42.165  47.636  16.988 -0.34 -0.06    +0.293 HD ENDBRANCH  17  21ENDBRANCH  10  12ENDBRANCH   5  10ENDBRANCH   3   4ENDBRANCH   1   3BRANCH   1  23ATOM     23  C   UNL     1      38.574  43.622  25.003 -0.22 +0.00    +0.077 C  BRANCH  23  24ATOM     24  C   UNL     1      39.306  43.081  26.239 -0.23 -0.00    +0.022 CG0ATOM     25  G   UNL     1      38.597  41.943  26.971 +0.00 +0.00    +0.000 G0 ENDBRANCH  23  24BRANCH  23  26ATOM     26  C   UNL     1      37.349  42.754  24.576 -0.35 +0.00    +0.113 C  BRANCH  26  27ATOM     27  C   UNL     1      36.166  42.899  25.565 -0.34 -0.00    +0.107 C  BRANCH  27  28ATOM     28  N   UNL     1      36.448  43.269  26.948 -0.18 +0.05    -0.315 NA ATOM     29  H   UNL     1      35.565  43.349  27.458 +0.07 -0.03    +0.122 HD BRANCH  28  30ATOM     30  C   UNL     1      37.340  42.405  27.709 -0.39 -0.02    +0.081 C  BRANCH  30  31ATOM     31  C   UNL     1      38.598  41.945  26.978 -0.39 -0.00    +0.017 CG0ATOM     32  G   UNL     1      39.307  43.081  26.241 +0.00 +0.00    +0.000 G0 ENDBRANCH  30  31ENDBRANCH  28  30ENDBRANCH  27  28ENDBRANCH  26  27BRANCH  26  33ATOM     33  N   UNL     1      36.913  43.149  23.222 -0.18 -0.04    -0.346 N  ATOM     34  C   UNL     1      36.842  42.235  22.194 -0.38 +0.02    +0.251 C  ATOM     35  H   UNL     1      36.583  44.095  23.096 +0.08 +0.03    +0.164 HD ATOM     36  O   UNL     1      37.219  41.074  22.298 -0.45 -0.02    -0.269 OA BRANCH  34  37ATOM     37  C   UNL     1      36.303  42.725  20.899 -0.44 +0.00    +0.042 A  ATOM     38  C   UNL     1      36.257  44.104  20.687 -0.35 -0.00    +0.034 A  ATOM     39  C   UNL     1      35.878  41.858  19.892 -0.27 -0.00    +0.034 A  ATOM     40  C   UNL     1      35.757  44.561  19.483 -0.27 -0.02    +0.112 A  ATOM     41  C   UNL     1      35.396  42.416  18.721 -0.31 -0.02    +0.112 A  ATOM     42  N   UNL     1      35.318  43.745  18.500 -0.15 +0.06    -0.265 NA ENDBRANCH  34  37ENDBRANCH  26  33ENDBRANCH  23  26ENDBRANCH   1  23TORSDOF 9TERENDMDL