
     RDKit          2D

 37 39  0  0  0  0  0  0  0  0999 V2000
    6.1093    0.0000    0.0000 Cl  0  0  0  0  0  0  0  0  0  0  0  0
    3.8700    0.3311    0.0000 C   0  0  0  0  0  0  0  0  0  0  0  0
    3.1555   -0.0814    0.0000 O   0  0  0  0  0  0  0  0  0  0  0  0
    3.1555   -0.9064    0.0000 C   0  0  0  0  0  0  0  0  0  0  0  0
    3.8700   -1.3189    0.0000 C   0  0  0  0  0  0  0  0  0  0  0  0
    3.8700   -2.1439    0.0000 C   0  0  0  0  0  0  0  0  0  0  0  0
    3.1555   -2.5564    0.0000 C   0  0  0  0  0  0  0  0  0  0  0  0
    3.1555   -3.3814    0.0000 O   0  0  0  0  0  0  0  0  0  0  0  0
    2.4411   -2.1439    0.0000 C   0  0  0  0  0  0  0  0  0  0  0  0
    1.7266   -2.5564    0.0000 C   0  0  0  0  0  0  0  0  0  0  0  0
    1.7266   -3.3814    0.0000 O   0  0  0  0  0  0  0  0  0  0  0  0
    1.0121   -2.1439    0.0000 C   0  0  0  0  0  0  0  0  0  0  0  0
    0.2977   -2.5564    0.0000 C   0  0  0  0  0  0  0  0  0  0  0  0
   -0.4168   -2.1439    0.0000 C   0  0  0  0  0  0  0  0  0  0  0  0
   -0.4168   -1.3189    0.0000 C   0  0  0  0  0  0  0  0  0  0  0  0
   -1.1313   -0.9064    0.0000 N   0  0  0  0  0  0  0  0  0  0  0  0
   -1.1313   -0.0814    0.0000 C   0  0  0  0  0  0  0  0  0  0  0  0
   -1.8458    0.3311    0.0000 C   0  0  0  0  0  0  0  0  0  0  0  0
   -2.5274   -0.1337    0.0000 C   0  0  0  0  0  0  0  0  0  0  0  0
   -3.3158    0.1095    0.0000 C   0  0  0  0  0  0  0  0  0  0  0  0
   -3.6172    0.8775    0.0000 C   0  0  0  0  0  0  0  0  0  0  0  0
   -3.2047    1.5919    0.0000 N   0  0  0  0  0  0  0  0  0  0  0  0
   -2.3889    1.7149    0.0000 C   0  0  0  0  0  0  0  0  0  0  0  0
   -1.7841    1.1537    0.0000 C   0  0  0  0  0  0  0  0  0  0  0  0
   -1.0161    1.4552    0.0000 N   0  0  0  0  0  0  0  0  0  0  0  0
   -0.8932    2.2709    0.0000 C   0  0  0  0  0  0  0  0  0  0  0  0
   -0.1252    2.5723    0.0000 O   0  0  0  0  0  0  0  0  0  0  0  0
   -1.5382    2.7853    0.0000 C   0  0  0  0  0  0  0  0  0  0  0  0
   -2.3062    2.4839    0.0000 C   0  0  0  0  0  0  0  0  0  0  0  0
   -2.9512    2.9983    0.0000 C   0  0  0  0  0  0  0  0  0  0  0  0
   -2.8282    3.8141    0.0000 N   0  0  0  0  0  0  0  0  0  0  0  0
   -2.0602    4.1155    0.0000 C   0  0  0  0  0  0  0  0  0  0  0  0
   -1.4152    3.6011    0.0000 C   0  0  0  0  0  0  0  0  0  0  0  0
    0.2977   -0.9064    0.0000 C   0  0  0  0  0  0  0  0  0  0  0  0
    1.0121   -1.3189    0.0000 C   0  0  0  0  0  0  0  0  0  0  0  0
    2.4411   -1.3189    0.0000 C   0  0  0  0  0  0  0  0  0  0  0  0
    1.7266   -0.9064    0.0000 F   0  0  0  0  0  0  0  0  0  0  0  0
  2  3  1  0
  3  4  1  0
  4  5  2  0
  5  6  1  0
  6  7  2  0
  7  8  1  0
  7  9  1  0
  9 10  1  0
 10 11  2  0
 10 12  1  0
 12 13  2  0
 13 14  1  0
 14 15  2  0
 15 16  1  0
 16 17  1  0
 18 17  1  6
 18 19  1  0
 19 20  1  0
 20 21  1  0
 21 22  1  0
 22 23  1  0
 23 24  1  0
 18 24  1  0
 24 25  1  0
 25 26  1  0
 26 27  2  0
 26 28  1  0
 28 29  2  0
 29 30  1  0
 30 31  2  0
 31 32  1  0
 32 33  2  0
 28 33  1  0
 15 34  1  0
 34 35  2  0
 12 35  1  0
  9 36  2  0
  4 36  1  0
 36 37  1  0
M  END
> <chembl_id>
CHEMBL1204097

> <chembl_pref_name>
None