MODEL        7USER    Run = 7USERUSER    Estimated Free Energy of Binding    =  -8.85 kcal/mol  [=(1)+(2)+(3)-(4)]USERUSER    (1) Final Intermolecular Energy     = -10.34 kcal/molUSER        vdW + Hbond + desolv Energy     = -10.00 kcal/molUSER        Electrostatic Energy            =  -0.34 kcal/molUSER        Moving Ligand-Fixed Receptor    = -10.34 kcal/molUSER        Moving Ligand-Moving Receptor   =  +0.00 kcal/molUSER    (2) Final Total Internal Energy     =  -0.66 kcal/molUSER    (3) Torsional Free Energy           =  +1.49 kcal/molUSER    (4) Unbound System's Energy         =  -0.66 kcal/molUSERUSERREMARK SMILES C[C@@H]1CC(c2ccc(C(=O)c3cccc(C(=O)O)c3)cc2F)=CCN1REMARK SMILES IDX 11 1 12 2 13 3 14 4 15 5 19 6 9 7 10 8 8 9 5 10 6 11 21 12REMARK SMILES IDX 7 13 20 14 22 15 4 16 2 17 3 18 25 19 24 20 23 21 1 22 16 24REMARK SMILES IDX 17 25 18 26REMARK H PARENT 25 23 18 27USER                              x       y       z     vdW  Elec       q    TypeUSER                           _______ _______ _______ _____ _____    ______ ____ROOTATOM      1  C   UNL     1      32.384  43.619  17.624 -0.29 -0.01    +0.023 A  ATOM      2  C   UNL     1      31.869  42.366  17.273 -0.31 -0.00    +0.012 A  ATOM      3  C   UNL     1      30.938  42.253  16.240 -0.32 -0.00    +0.002 A  ATOM      4  C   UNL     1      30.509  43.396  15.564 -0.31 -0.01    +0.016 A  ATOM      5  C   UNL     1      31.003  44.656  15.924 -0.31 -0.02    +0.060 A  ATOM      6  C   UNL     1      31.939  44.770  16.962 -0.21 -0.01    +0.027 A  ENDROOTBRANCH   1   7ATOM      7  C   UNL     1      33.361  43.692  18.739 -0.30 -0.04    +0.193 C  ATOM      8  O   UNL     1      33.037  43.266  19.844 -0.84 -0.02    -0.289 OA BRANCH   7   9ATOM      9  C   UNL     1      34.718  44.267  18.556 -0.33 -0.01    +0.025 A  ATOM     10  C   UNL     1      37.337  45.271  18.252 -0.33 -0.00    +0.013 A  ATOM     11  C   UNL     1      37.041  44.343  19.259 -0.36 -0.00    +0.012 A  ATOM     12  C   UNL     1      36.297  45.671  17.398 -0.26 -0.06    +0.131 A  ATOM     13  C   UNL     1      35.743  43.839  19.408 -0.38 -0.00    +0.013 A  ATOM     14  C   UNL     1      35.001  45.175  17.535 -0.31 -0.03    +0.052 A  ATOM     15  F   UNL     1      36.529  46.543  16.404 -0.09 +0.15    -0.206 F  BRANCH  10  16ATOM     16  C   UNL     1      38.706  45.794  18.096 -0.43 +0.01    -0.039 C  ATOM     17  C   UNL     1      40.919  46.542  19.089 -0.45 -0.00    +0.055 C  ATOM     18  C   UNL     1      39.686  45.621  19.235 -0.44 -0.00    +0.054 C  ATOM     19  N   UNL     1      41.452  46.483  17.723 -0.21 +0.02    -0.310 NA ATOM     20  C   UNL     1      40.469  46.966  16.753 -0.48 -0.02    +0.109 C  ATOM     21  C   UNL     1      39.083  46.434  16.974 -0.48 +0.00    -0.007 C  ATOM     22  C   UNL     1      42.009  46.136  20.080 -0.43 +0.00    +0.024 C  ATOM     23  H   UNL     1      42.296  47.048  17.651 -0.46 -0.02    +0.123 HD ENDBRANCH  10  16ENDBRANCH   7   9ENDBRANCH   1   7BRANCH   5  24ATOM     24  C   UNL     1      30.505  45.842  15.185 -0.28 -0.15    +0.335 C  ATOM     25  O   UNL     1      29.810  45.821  14.187 -0.36 +0.19    -0.246 OA BRANCH  24  26ATOM     26  O   UNL     1      30.911  47.001  15.732 -0.69 +0.18    -0.478 OA ATOM     27  H   UNL     1      31.878  47.011  15.568 -0.35 -0.49    +0.297 HD ENDBRANCH  24  26ENDBRANCH   5  24TORSDOF 5TERENDMDL