REMARK SMILES CC[C@H]1CC(c2ccc(C(=O)c3cccc(C(=O)O)c3)cc2)=CCN1
REMARK SMILES IDX 10 1 11 2 9 3 6 4 7 5 22 6 8 7 21 8 5 9 3 10 4 11 25 12
REMARK SMILES IDX 24 13 23 14 2 16 1 17 12 18 13 19 20 20 14 21 16 22 15 23
REMARK SMILES IDX 17 24 18 25 19 26
REMARK H PARENT 25 15 19 27
ROOT
ATOM      1  C   UNL     1       3.106   0.385  -1.487  1.00  0.00     0.193 C 
ATOM      2  O   UNL     1       3.466   0.959  -2.510  1.00  0.00    -0.289 OA
ENDROOT
BRANCH   1   3
ATOM      3  C   UNL     1       1.656   0.183  -1.235  1.00  0.00     0.023 A 
ATOM      4  C   UNL     1      -1.112  -0.183  -0.841  1.00  0.00    -0.023 A 
ATOM      5  C   UNL     1      -0.255   0.035   0.247  1.00  0.00     0.009 A 
ATOM      6  C   UNL     1      -0.563  -0.190  -2.132  1.00  0.00     0.009 A 
ATOM      7  C   UNL     1       1.120   0.220   0.056  1.00  0.00     0.013 A 
ATOM      8  C   UNL     1       0.808  -0.004  -2.330  1.00  0.00     0.013 A 
BRANCH   4   9
ATOM      9  C   UNL     1      -2.563  -0.363  -0.633  1.00  0.00    -0.042 C 
ATOM     10  C   UNL     1      -4.799   0.546   0.141  1.00  0.00     0.058 C 
ATOM     11  C   UNL     1      -3.268   0.541   0.355  1.00  0.00     0.054 C 
ATOM     12  N   UNL     1      -5.303  -0.833   0.060  1.00  0.00    -0.310 NA
ATOM     13  C   UNL     1      -4.734  -1.536  -1.091  1.00  0.00     0.109 C 
ATOM     14  C   UNL     1      -3.262  -1.311  -1.286  1.00  0.00    -0.008 C 
ATOM     15  H   UNL     1      -6.318  -0.828  -0.024  1.00  0.00     0.123 HD
BRANCH  10  16
ATOM     16  C   UNL     1      -5.542   1.342   1.231  1.00  0.00     0.016 C 
ATOM     17  C   UNL     1      -5.444   0.775   2.643  1.00  0.00     0.005 C 
ENDBRANCH  10  16
ENDBRANCH   4   9
ENDBRANCH   1   3
BRANCH   1  18
ATOM     18  C   UNL     1       4.134  -0.097  -0.532  1.00  0.00     0.023 A 
ATOM     19  C   UNL     1       3.992  -1.317   0.141  1.00  0.00     0.012 A 
ATOM     20  C   UNL     1       5.289   0.673  -0.351  1.00  0.00     0.027 A 
ATOM     21  C   UNL     1       4.988  -1.750   1.017  1.00  0.00     0.002 A 
ATOM     22  C   UNL     1       6.288   0.238   0.528  1.00  0.00     0.060 A 
ATOM     23  C   UNL     1       6.132  -0.974   1.214  1.00  0.00     0.016 A 
BRANCH  22  24
ATOM     24  C   UNL     1       7.489   1.090   0.704  1.00  0.00     0.335 C 
ATOM     25  O   UNL     1       7.679   2.174   0.184  1.00  0.00    -0.246 OA
BRANCH  24  26
ATOM     26  O   UNL     1       8.399   0.544   1.530  1.00  0.00    -0.478 OA
ATOM     27  H   UNL     1       9.125   1.203   1.544  1.00  0.00     0.297 HD
ENDBRANCH  24  26
ENDBRANCH  22  24
ENDBRANCH   1  18
TORSDOF 6
