MODEL        6USER    Run = 6USERUSER    Estimated Free Energy of Binding    =  -9.67 kcal/mol  [=(1)+(2)+(3)-(4)]USERUSER    (1) Final Intermolecular Energy     = -11.46 kcal/molUSER        vdW + Hbond + desolv Energy     = -11.21 kcal/molUSER        Electrostatic Energy            =  -0.25 kcal/molUSER        Moving Ligand-Fixed Receptor    = -11.46 kcal/molUSER        Moving Ligand-Moving Receptor   =  +0.00 kcal/molUSER    (2) Final Total Internal Energy     =  -1.03 kcal/molUSER    (3) Torsional Free Energy           =  +1.79 kcal/molUSER    (4) Unbound System's Energy         =  -1.03 kcal/molUSERUSERREMARK SMILES CN[C@H]1C[C@@H]1S(=O)(=O)Nc1cc(-c2ccncc2)cc(-c2nccs2)c1REMARK SMILES IDX 6 1 7 2 8 3 5 4 3 5 4 6 2 7 1 8 9 10 10 12 11 13 26 14 12 15REMARK SMILES IDX 20 16 19 17 13 18 14 19 18 20 15 21 17 22 16 23 21 24 22 25REMARK SMILES IDX 25 26 23 27 24 28REMARK H PARENT 2 9 9 11USER                              x       y       z     vdW  Elec       q    TypeUSER                           _______ _______ _______ _____ _____    ______ ____ROOTATOM      1  S   UNL     1      31.411  43.888  16.134 -0.34 -0.10    +0.237 S  ATOM      2  O   UNL     1      31.642  45.039  16.979 -0.68 +0.04    -0.206 OA ATOM      3  O   UNL     1      30.502  42.846  16.568 -0.22 +0.07    -0.206 OA ENDROOTBRANCH   1   4ATOM      4  C   UNL     1      30.683  44.525  14.608 -0.30 -0.12    +0.148 C  ATOM      5  C   UNL     1      31.152  45.890  14.195 -0.57 -0.05    +0.074 C  ATOM      6  C   UNL     1      29.763  45.702  14.754 -0.39 -0.03    +0.043 C  BRANCH   5   7ATOM      7  N   UNL     1      31.286  46.241  12.771 -0.55 +0.18    -0.316 NA ATOM      8  C   UNL     1      30.012  46.639  12.185 -0.62 -0.06    +0.101 C  ATOM      9  H   UNL     1      31.967  46.986  12.624 -0.39 -0.09    +0.122 HD ENDBRANCH   5   7ENDBRANCH   1   4BRANCH   1  10ATOM     10  N   UNL     1      32.876  43.087  15.858 -0.16 +0.15    -0.283 N  ATOM     11  H   UNL     1      32.801  42.133  16.221 -0.42 -0.12    +0.180 HD BRANCH  10  12ATOM     12  C   UNL     1      34.116  43.719  16.173 -0.31 -0.02    +0.050 A  ATOM     13  C   UNL     1      34.703  44.666  15.336 -0.22 -0.02    +0.035 A  ATOM     14  C   UNL     1      34.658  43.481  17.436 -0.31 -0.01    +0.038 A  ATOM     15  C   UNL     1      35.880  45.331  15.716 -0.34 +0.01    -0.016 A  ATOM     16  C   UNL     1      35.835  44.119  17.856 -0.31 -0.00    +0.013 A  ATOM     17  C   UNL     1      36.434  45.038  16.978 -0.32 -0.01    +0.020 A  BRANCH  15  18ATOM     18  C   UNL     1      36.515  46.315  14.824 -0.39 +0.01    -0.015 A  ATOM     19  C   UNL     1      36.189  46.376  13.464 -0.50 -0.02    +0.029 A  ATOM     20  C   UNL     1      37.466  47.223  15.305 -0.41 -0.02    +0.029 A  ATOM     21  C   UNL     1      36.817  47.318  12.662 -0.56 -0.04    +0.111 A  ATOM     22  C   UNL     1      38.040  48.127  14.426 -0.45 -0.06    +0.111 A  ATOM     23  N   UNL     1      37.739  48.193  13.113 -0.71 +0.05    -0.265 NA ENDBRANCH  15  18BRANCH  16  24ATOM     24  C   UNL     1      36.370  43.806  19.197 -0.28 -0.02    +0.123 A  ATOM     25  N   UNL     1      37.343  44.488  19.773 -0.22 +0.02    -0.245 NA ATOM     26  S   UNL     1      35.743  42.517  20.161 -0.57 +0.00    -0.122 S  ATOM     27  C   UNL     1      37.620  43.976  21.025 -0.30 +0.00    +0.123 A  ATOM     28  C   UNL     1      36.851  42.901  21.407 -0.38 +0.00    +0.087 A  ENDBRANCH  16  24ENDBRANCH  10  12ENDBRANCH   1  10TORSDOF 6TERENDMDL