MODEL        10USER    Run = 10USERUSER    Estimated Free Energy of Binding    =  -9.90 kcal/mol  [=(1)+(2)+(3)-(4)]USERUSER    (1) Final Intermolecular Energy     = -11.69 kcal/molUSER        vdW + Hbond + desolv Energy     = -11.12 kcal/molUSER        Electrostatic Energy            =  -0.57 kcal/molUSER        Moving Ligand-Fixed Receptor    = -11.69 kcal/molUSER        Moving Ligand-Moving Receptor   =  +0.00 kcal/molUSER    (2) Final Total Internal Energy     =  -0.67 kcal/molUSER    (3) Torsional Free Energy           =  +1.79 kcal/molUSER    (4) Unbound System's Energy         =  -0.67 kcal/molUSERUSERREMARK SMILES CC[C@H]1CC(c2ccc(C(=O)c3cccc(C(=O)O)c3)cc2)=CCN1REMARK SMILES IDX 10 1 11 2 9 3 6 4 7 5 22 6 8 7 21 8 5 9 3 10 4 11 25 12REMARK SMILES IDX 24 13 23 14 2 16 1 17 12 18 13 19 20 20 14 21 16 22 15 23REMARK SMILES IDX 17 24 18 25 19 26REMARK H PARENT 25 15 19 27USER                              x       y       z     vdW  Elec       q    TypeUSER                           _______ _______ _______ _____ _____    ______ ____ROOTATOM      1  C   UNL     1      33.361  43.662  18.752 -0.30 -0.04    +0.193 C  ATOM      2  O   UNL     1      32.973  43.241  19.837 -0.84 -0.02    -0.289 OA ENDROOTBRANCH   1   3ATOM      3  C   UNL     1      34.752  44.167  18.620 -0.34 -0.01    +0.023 A  ATOM      4  C   UNL     1      37.368  45.170  18.300 -0.33 +0.01    -0.023 A  ATOM      5  C   UNL     1      37.125  44.041  19.094 -0.33 -0.00    +0.009 A  ATOM      6  C   UNL     1      36.282  45.774  17.648 -0.33 -0.00    +0.009 A  ATOM      7  C   UNL     1      35.828  43.537  19.254 -0.37 -0.00    +0.013 A  ATOM      8  C   UNL     1      34.985  45.276  17.802 -0.36 -0.01    +0.013 A  BRANCH   4   9ATOM      9  C   UNL     1      38.740  45.687  18.124 -0.43 +0.01    -0.042 C  ATOM     10  C   UNL     1      40.323  47.454  17.231 -0.52 -0.01    +0.058 C  ATOM     11  C   UNL     1      38.999  46.685  17.016 -0.45 -0.02    +0.054 C  ATOM     12  N   UNL     1      41.416  46.512  17.514 -0.17 +0.03    -0.310 NA ATOM     13  C   UNL     1      41.168  45.775  18.754 -0.46 +0.00    +0.109 C  ATOM     14  C   UNL     1      39.757  45.285  18.911 -0.48 +0.00    -0.008 C  ATOM     15  H   UNL     1      42.296  47.016  17.599 -0.48 -0.03    +0.123 HD BRANCH  10  16ATOM     16  C   UNL     1      40.674  48.364  16.038 -0.65 -0.00    +0.016 C  ATOM     17  C   UNL     1      39.579  48.527  14.989 -0.62 -0.00    +0.005 C  ENDBRANCH  10  16ENDBRANCH   4   9ENDBRANCH   1   3BRANCH   1  18ATOM     18  C   UNL     1      32.428  43.650  17.599 -0.29 -0.01    +0.023 A  ATOM     19  C   UNL     1      31.594  42.554  17.346 -0.29 -0.00    +0.012 A  ATOM     20  C   UNL     1      32.357  44.787  16.786 -0.29 -0.01    +0.027 A  ATOM     21  C   UNL     1      30.713  42.583  16.264 -0.32 -0.00    +0.002 A  ATOM     22  C   UNL     1      31.473  44.816  15.701 -0.33 -0.03    +0.060 A  ATOM     23  C   UNL     1      30.654  43.709  15.441 -0.32 -0.01    +0.016 A  BRANCH  22  24ATOM     24  C   UNL     1      31.438  46.034  14.855 -0.29 -0.23    +0.335 C  ATOM     25  O   UNL     1      31.849  46.123  13.713 -0.50 +0.17    -0.246 OA BRANCH  24  26ATOM     26  O   UNL     1      30.885  47.088  15.481 -0.71 +0.18    -0.478 OA ATOM     27  H   UNL     1      31.655  47.648  15.717 -0.30 -0.54    +0.297 HD ENDBRANCH  24  26ENDBRANCH  22  24ENDBRANCH   1  18TORSDOF 6TERENDMDL