REMARK SMILES N[C@]1(O)C[C@@H]1S(=O)(=O)Nc1cc(-c2ccncc2)cc(-c2nccs2)c1
REMARK SMILES IDX 6 1 7 2 8 3 5 4 2 5 4 6 1 7 3 10 9 12 10 14 11 15 26 16
REMARK SMILES IDX 12 17 20 18 19 19 13 20 14 21 18 22 15 23 17 24 16 25 21 26
REMARK SMILES IDX 22 27 25 28 23 29 24 30
REMARK H PARENT 1 8 1 9 3 11 9 13
ROOT
ATOM      1  S   UNL     1       2.519  -0.199   2.514  1.00  0.00     0.240 S 
ATOM      2  O   UNL     1       3.272   0.114   3.711  1.00  0.00    -0.206 OA
ATOM      3  O   UNL     1       2.609  -1.511   1.905  1.00  0.00    -0.206 OA
ENDROOT
BRANCH   1   4
ATOM      4  C   UNL     1       3.024   1.038   1.308  1.00  0.00     0.180 C 
ATOM      5  C   UNL     1       2.955   0.698  -0.143  1.00  0.00     0.133 C 
ATOM      6  C   UNL     1       4.280   0.679   0.557  1.00  0.00     0.079 C 
BRANCH   5   7
ATOM      7  N   UNL     1       2.437  -0.507  -0.738  1.00  0.00    -0.302 NA
ATOM      8  H   UNL     1       3.057  -0.825  -1.482  1.00  0.00     0.121 HD
ATOM      9  H   UNL     1       2.435  -1.282  -0.061  1.00  0.00     0.121 HD
ENDBRANCH   5   7
BRANCH   5  10
ATOM     10  O   UNL     1       2.744   1.811  -1.005  1.00  0.00    -0.375 OA
ATOM     11  H   UNL     1       2.006   1.599  -1.603  1.00  0.00     0.213 HD
ENDBRANCH   5  10
ENDBRANCH   1   4
BRANCH   1  12
ATOM     12  N   UNL     1       0.899   0.115   2.914  1.00  0.00    -0.283 N 
ATOM     13  H   UNL     1       0.841   0.892   3.573  1.00  0.00     0.180 HD
BRANCH  12  14
ATOM     14  C   UNL     1      -0.035   0.127   1.837  1.00  0.00     0.050 A 
ATOM     15  C   UNL     1      -0.443  -1.075   1.261  1.00  0.00     0.035 A 
ATOM     16  C   UNL     1      -0.464   1.347   1.314  1.00  0.00     0.038 A 
ATOM     17  C   UNL     1      -1.293  -1.083   0.147  1.00  0.00    -0.016 A 
ATOM     18  C   UNL     1      -1.318   1.382   0.203  1.00  0.00     0.013 A 
ATOM     19  C   UNL     1      -1.717   0.157  -0.365  1.00  0.00     0.020 A 
BRANCH  17  20
ATOM     20  C   UNL     1      -1.715  -2.348  -0.477  1.00  0.00    -0.015 A 
ATOM     21  C   UNL     1      -2.260  -3.389   0.284  1.00  0.00     0.029 A 
ATOM     22  C   UNL     1      -1.582  -2.555  -1.856  1.00  0.00     0.029 A 
ATOM     23  C   UNL     1      -2.643  -4.561  -0.351  1.00  0.00     0.111 A 
ATOM     24  C   UNL     1      -1.992  -3.762  -2.400  1.00  0.00     0.111 A 
ATOM     25  N   UNL     1      -2.522  -4.770  -1.677  1.00  0.00    -0.265 NA
ENDBRANCH  17  20
BRANCH  18  26
ATOM     26  C   UNL     1      -1.789   2.636  -0.416  1.00  0.00     0.123 A 
ATOM     27  N   UNL     1      -2.273   2.712  -1.642  1.00  0.00    -0.245 NA
ATOM     28  S   UNL     1      -1.776   4.139   0.437  1.00  0.00    -0.122 S 
ATOM     29  C   UNL     1      -2.643   4.009  -1.936  1.00  0.00     0.123 A 
ATOM     30  C   UNL     1      -2.445   4.924  -0.928  1.00  0.00     0.087 A 
ENDBRANCH  18  26
ENDBRANCH  12  14
ENDBRANCH   1  12
TORSDOF 7
