MODEL        5USER    Run = 5USERUSER    Estimated Free Energy of Binding    =  -9.67 kcal/mol  [=(1)+(2)+(3)-(4)]USERUSER    (1) Final Intermolecular Energy     = -11.76 kcal/molUSER        vdW + Hbond + desolv Energy     = -11.71 kcal/molUSER        Electrostatic Energy            =  -0.04 kcal/molUSER        Moving Ligand-Fixed Receptor    = -11.76 kcal/molUSER        Moving Ligand-Moving Receptor   =  +0.00 kcal/molUSER    (2) Final Total Internal Energy     =  -1.46 kcal/molUSER    (3) Torsional Free Energy           =  +2.09 kcal/molUSER    (4) Unbound System's Energy         =  -1.46 kcal/molUSERUSERREMARK SMILES N[C@]1(O)C[C@@H]1S(=O)(=O)Nc1cc(-c2ccncc2)cc(-c2nccs2)c1REMARK SMILES IDX 6 1 7 2 8 3 5 4 2 5 4 6 1 7 3 10 9 12 10 14 11 15 26 16REMARK SMILES IDX 12 17 20 18 19 19 13 20 14 21 18 22 15 23 17 24 16 25 21 26REMARK SMILES IDX 22 27 25 28 23 29 24 30REMARK H PARENT 1 8 1 9 3 11 9 13USER                              x       y       z     vdW  Elec       q    TypeUSER                           _______ _______ _______ _____ _____    ______ ____ROOTATOM      1  S   UNL     1      38.405  47.723  14.505 -0.52 -0.10    +0.240 S  ATOM      2  O   UNL     1      38.423  47.802  13.059 -0.74 +0.02    -0.206 OA ATOM      3  O   UNL     1      37.557  48.604  15.283 -0.44 +0.17    -0.206 OA ENDROOTBRANCH   1   4ATOM      4  C   UNL     1      40.115  47.968  15.008 -0.46 -0.04    +0.180 C  ATOM      5  C   UNL     1      40.492  49.248  15.676 -0.59 -0.04    +0.133 C  ATOM      6  C   UNL     1      40.830  49.043  14.230 -0.48 -0.02    +0.079 C  BRANCH   5   7ATOM      7  N   UNL     1      39.619  50.324  16.066 +0.09 +0.19    -0.302 NA ATOM      8  H   UNL     1      39.927  51.197  15.640 -0.50 -0.09    +0.121 HD ATOM      9  H   UNL     1      38.669  50.182  15.696 -0.43 -0.10    +0.121 HD ENDBRANCH   5   7BRANCH   5  10ATOM     10  O   UNL     1      41.593  49.148  16.573 -0.92 -0.04    -0.375 OA ATOM     11  H   UNL     1      42.086  48.336  16.363 -0.16 +0.03    +0.213 HD ENDBRANCH   5  10ENDBRANCH   1   4BRANCH   1  12ATOM     12  N   UNL     1      37.999  46.112  14.857 -0.19 +0.10    -0.283 N  ATOM     13  H   UNL     1      38.443  45.481  14.189 +0.13 -0.05    +0.180 HD BRANCH  12  14ATOM     14  C   UNL     1      38.052  45.724  16.227 -0.33 -0.02    +0.050 A  ATOM     15  C   UNL     1      36.928  45.165  16.833 -0.32 -0.01    +0.035 A  ATOM     16  C   UNL     1      39.203  45.987  16.971 -0.39 -0.01    +0.038 A  ATOM     17  C   UNL     1      36.930  44.855  18.200 -0.34 +0.00    -0.016 A  ATOM     18  C   UNL     1      39.247  45.688  18.340 -0.42 -0.00    +0.013 A  ATOM     19  C   UNL     1      38.100  45.126  18.933 -0.35 -0.00    +0.020 A  BRANCH  17  20ATOM     20  C   UNL     1      35.741  44.281  18.850 -0.35 +0.00    -0.015 A  ATOM     21  C   UNL     1      35.811  43.078  19.563 -0.40 -0.00    +0.029 A  ATOM     22  C   UNL     1      34.496  44.917  18.774 -0.39 -0.01    +0.029 A  ATOM     23  C   UNL     1      34.662  42.578  20.158 -0.25 +0.01    +0.111 A  ATOM     24  C   UNL     1      33.403  44.339  19.401 -0.36 -0.02    +0.111 A  ATOM     25  N   UNL     1      33.460  43.183  20.094 -0.74 -0.04    -0.265 NA ENDBRANCH  17  20BRANCH  18  26ATOM     26  C   UNL     1      40.421  45.964  19.191 -0.35 -0.00    +0.123 A  ATOM     27  N   UNL     1      40.608  45.422  20.380 -0.22 -0.01    -0.245 NA ATOM     28  S   UNL     1      41.692  47.019  18.682 -0.64 -0.00    -0.122 S  ATOM     29  C   UNL     1      41.798  45.858  20.927 -0.26 +0.02    +0.123 A  ATOM     30  C   UNL     1      42.522  46.732  20.150 -0.37 +0.02    +0.087 A  ENDBRANCH  18  26ENDBRANCH  12  14ENDBRANCH   1  12TORSDOF 7TERENDMDL