REMARK SMILES C[C@@H]1CC(c2ccc(C(=O)c3cccc(C(=O)O)c3)cc2F)=CCN1
REMARK SMILES IDX 11 1 12 2 13 3 14 4 15 5 19 6 9 7 10 8 8 9 5 10 6 11 21 12
REMARK SMILES IDX 7 13 20 14 22 15 4 16 2 17 3 18 25 19 24 20 23 21 1 22 16 24
REMARK SMILES IDX 17 25 18 26
REMARK H PARENT 25 23 18 27
ROOT
ATOM      1  C   UNL     1       3.762   1.373   1.003  1.00  0.00     0.023 A 
ATOM      2  C   UNL     1       4.793   2.304   0.830  1.00  0.00     0.012 A 
ATOM      3  C   UNL     1       6.057   1.884   0.416  1.00  0.00     0.002 A 
ATOM      4  C   UNL     1       6.298   0.528   0.186  1.00  0.00     0.016 A 
ATOM      5  C   UNL     1       5.277  -0.412   0.378  1.00  0.00     0.060 A 
ATOM      6  C   UNL     1       4.007   0.010   0.794  1.00  0.00     0.027 A 
ENDROOT
BRANCH   1   7
ATOM      7  C   UNL     1       2.438   1.864   1.459  1.00  0.00     0.193 C 
ATOM      8  O   UNL     1       2.390   2.806   2.246  1.00  0.00    -0.289 OA
BRANCH   7   9
ATOM      9  C   UNL     1       1.170   1.249   0.992  1.00  0.00     0.025 A 
ATOM     10  C   UNL     1      -1.292   0.141   0.173  1.00  0.00     0.013 A 
ATOM     11  C   UNL     1      -1.143   0.677   1.459  1.00  0.00     0.012 A 
ATOM     12  C   UNL     1      -0.187   0.186  -0.692  1.00  0.00     0.131 A 
ATOM     13  C   UNL     1       0.076   1.232   1.865  1.00  0.00     0.013 A 
ATOM     14  C   UNL     1       1.032   0.738  -0.299  1.00  0.00     0.052 A 
ATOM     15  F   UNL     1      -0.280  -0.295  -1.942  1.00  0.00    -0.206 F 
BRANCH  10  16
ATOM     16  C   UNL     1      -2.580  -0.437  -0.252  1.00  0.00    -0.039 C 
ATOM     17  C   UNL     1      -5.117  -0.459  -0.218  1.00  0.00     0.055 C 
ATOM     18  C   UNL     1      -3.834   0.396  -0.110  1.00  0.00     0.054 C 
ATOM     19  N   UNL     1      -5.038  -1.373  -1.364  1.00  0.00    -0.310 NA
ATOM     20  C   UNL     1      -3.933  -2.319  -1.207  1.00  0.00     0.109 C 
ATOM     21  C   UNL     1      -2.654  -1.690  -0.739  1.00  0.00    -0.007 C 
ATOM     22  C   UNL     1      -6.346   0.438  -0.365  1.00  0.00     0.024 C 
ATOM     23  H   UNL     1      -5.909  -1.891  -1.461  1.00  0.00     0.123 HD
ENDBRANCH  10  16
ENDBRANCH   7   9
ENDBRANCH   1   7
BRANCH   5  24
ATOM     24  C   UNL     1       5.587  -1.842   0.134  1.00  0.00     0.335 C 
ATOM     25  O   UNL     1       6.665  -2.291  -0.204  1.00  0.00    -0.246 OA
BRANCH  24  26
ATOM     26  O   UNL     1       4.522  -2.641   0.321  1.00  0.00    -0.478 OA
ATOM     27  H   UNL     1       4.866  -3.539   0.127  1.00  0.00     0.297 HD
ENDBRANCH  24  26
ENDBRANCH   5  24
TORSDOF 5
