REMARK SMILES CN[C@H]1C[C@@H]1S(=O)(=O)Nc1cc(-c2ccncc2)cc(-c2nccs2)c1
REMARK SMILES IDX 6 1 7 2 8 3 5 4 3 5 4 6 2 7 1 8 9 10 10 12 11 13 26 14 12 15
REMARK SMILES IDX 20 16 19 17 13 18 14 19 18 20 15 21 17 22 16 23 21 24 22 25
REMARK SMILES IDX 25 26 23 27 24 28
REMARK H PARENT 2 9 9 11
ROOT
ATOM      1  S   UNL     1       2.558  -0.019   1.801  1.00  0.00     0.237 S 
ATOM      2  O   UNL     1       1.844  -0.958   2.638  1.00  0.00    -0.206 OA
ATOM      3  O   UNL     1       3.578   0.833   2.379  1.00  0.00    -0.206 OA
ENDROOT
BRANCH   1   4
ATOM      4  C   UNL     1       3.433  -1.011   0.570  1.00  0.00     0.148 C 
ATOM      5  C   UNL     1       3.421  -0.458  -0.826  1.00  0.00     0.074 C 
ATOM      6  C   UNL     1       2.582  -1.664  -0.480  1.00  0.00     0.043 C 
BRANCH   5   7
ATOM      7  N   UNL     1       4.575  -0.648  -1.721  1.00  0.00    -0.316 NA
ATOM      8  C   UNL     1       5.560   0.417  -1.575  1.00  0.00     0.101 C 
ATOM      9  H   UNL     1       5.032  -1.547  -1.569  1.00  0.00     0.122 HD
ENDBRANCH   5   7
ENDBRANCH   1   4
BRANCH   1  10
ATOM     10  N   UNL     1       1.459   1.055   1.092  1.00  0.00    -0.283 N 
ATOM     11  H   UNL     1       1.423   1.907   1.657  1.00  0.00     0.180 HD
BRANCH  10  12
ATOM     12  C   UNL     1       0.174   0.600   0.668  1.00  0.00     0.050 A 
ATOM     13  C   UNL     1      -0.752   0.054   1.555  1.00  0.00     0.035 A 
ATOM     14  C   UNL     1      -0.202   0.867  -0.648  1.00  0.00     0.038 A 
ATOM     15  C   UNL     1      -2.038  -0.305   1.121  1.00  0.00    -0.016 A 
ATOM     16  C   UNL     1      -1.475   0.521  -1.127  1.00  0.00     0.013 A 
ATOM     17  C   UNL     1      -2.378  -0.069  -0.226  1.00  0.00     0.020 A 
BRANCH  15  18
ATOM     18  C   UNL     1      -3.011  -0.904   2.049  1.00  0.00    -0.015 A 
ATOM     19  C   UNL     1      -3.649  -2.114   1.748  1.00  0.00     0.029 A 
ATOM     20  C   UNL     1      -3.332  -0.286   3.264  1.00  0.00     0.029 A 
ATOM     21  C   UNL     1      -4.561  -2.638   2.652  1.00  0.00     0.111 A 
ATOM     22  C   UNL     1      -4.258  -0.886   4.102  1.00  0.00     0.111 A 
ATOM     23  N   UNL     1      -4.883  -2.048   3.821  1.00  0.00    -0.265 NA
ENDBRANCH  15  18
BRANCH  16  24
ATOM     24  C   UNL     1      -1.802   0.809  -2.538  1.00  0.00     0.123 A 
ATOM     25  N   UNL     1      -1.054   1.565  -3.322  1.00  0.00    -0.245 NA
ATOM     26  S   UNL     1      -3.198   0.151  -3.314  1.00  0.00    -0.122 S 
ATOM     27  C   UNL     1      -1.600   1.642  -4.587  1.00  0.00     0.123 A 
ATOM     28  C   UNL     1      -2.768   0.938  -4.771  1.00  0.00     0.087 A 
ENDBRANCH  16  24
ENDBRANCH  10  12
ENDBRANCH   1  10
TORSDOF 6
