REMARK SMILES O=C(c1ccc(-c2nc3ccccc3nc2-c2ccc(CN3CCC(n4c(O)nc5cc(O)ccc54)CC3)cc2)cc1)N1CCOCC1
REMARK SMILES IDX 17 1 18 2 19 3 20 4 39 5 40 6 16 7 7 8 8 9 9 10 15 11 10 12
REMARK SMILES IDX 14 13 11 14 13 15 12 16 6 17 3 18 4 19 42 20 5 21 41 22 2 23
REMARK SMILES IDX 43 24 44 25 48 26 45 27 47 28 46 29 1 30 21 31 22 32 23 33
REMARK SMILES IDX 38 34 24 35 37 36 25 37 26 38 27 39 36 40 29 41 35 42 30 43
REMARK SMILES IDX 34 44 31 45 32 46 28 47 33 49
REMARK H PARENT 28 48 33 50
ROOT
ATOM      1  C   UNL     1      -0.641  -1.398   0.013  1.00  0.00     0.002 A 
ATOM      2  C   UNL     1       0.466  -1.234   0.863  1.00  0.00     0.011 A 
ATOM      3  C   UNL     1       1.204  -0.048   0.869  1.00  0.00     0.006 A 
ATOM      4  C   UNL     1       0.862   1.009   0.013  1.00  0.00    -0.034 A 
ATOM      5  C   UNL     1      -0.212   0.838  -0.865  1.00  0.00     0.006 A 
ATOM      6  C   UNL     1      -0.948  -0.352  -0.871  1.00  0.00     0.011 A 
ENDROOT
BRANCH   1   7
ATOM      7  C   UNL     1      -1.442  -2.635   0.069  1.00  0.00     0.097 A 
ATOM      8  C   UNL     1      -2.834  -2.685   0.257  1.00  0.00     0.097 A 
ATOM      9  N   UNL     1      -3.498  -3.873   0.265  1.00  0.00    -0.244 NA
ATOM     10  C   UNL     1      -2.773  -4.994   0.107  1.00  0.00     0.089 A 
ATOM     11  N   UNL     1      -0.710  -3.775  -0.081  1.00  0.00    -0.244 NA
ATOM     12  C   UNL     1      -3.411  -6.228   0.119  1.00  0.00     0.030 A 
ATOM     13  C   UNL     1      -1.372  -4.946  -0.064  1.00  0.00     0.089 A 
ATOM     14  C   UNL     1      -2.697  -7.415  -0.038  1.00  0.00     0.002 A 
ATOM     15  C   UNL     1      -0.672  -6.134  -0.222  1.00  0.00     0.030 A 
ATOM     16  C   UNL     1      -1.320  -7.369  -0.209  1.00  0.00     0.002 A 
BRANCH   8  17
ATOM     17  C   UNL     1      -3.710  -1.516   0.474  1.00  0.00     0.002 A 
ATOM     18  C   UNL     1      -5.372   0.733   0.798  1.00  0.00     0.040 A 
ATOM     19  C   UNL     1      -5.713  -0.249  -0.139  1.00  0.00     0.014 A 
ATOM     20  C   UNL     1      -4.251   0.575   1.616  1.00  0.00     0.014 A 
ATOM     21  C   UNL     1      -4.881  -1.360  -0.298  1.00  0.00     0.011 A 
ATOM     22  C   UNL     1      -3.431  -0.544   1.458  1.00  0.00     0.011 A 
BRANCH  18  23
ATOM     23  C   UNL     1      -6.234   1.923   0.978  1.00  0.00     0.254 C 
ATOM     24  N   UNL     1      -6.541   2.696  -0.143  1.00  0.00    -0.334 N 
ATOM     25  C   UNL     1      -5.602   2.857  -1.262  1.00  0.00     0.148 C 
ATOM     26  C   UNL     1      -7.414   3.855   0.064  1.00  0.00     0.148 C 
ATOM     27  C   UNL     1      -6.302   3.378  -2.522  1.00  0.00     0.181 C 
ATOM     28  C   UNL     1      -8.070   4.273  -1.249  1.00  0.00     0.181 C 
ATOM     29  O   UNL     1      -7.078   4.551  -2.253  1.00  0.00    -0.378 OA
ATOM     30  O   UNL     1      -6.659   2.161   2.106  1.00  0.00    -0.269 OA
ENDBRANCH  18  23
ENDBRANCH   8  17
ENDBRANCH   1   7
BRANCH   4  31
ATOM     31  C   UNL     1       1.612   2.325   0.078  1.00  0.00     0.120 C 
BRANCH  31  32
ATOM     32  N   UNL     1       3.065   2.181  -0.064  1.00  0.00    -0.299 NA
ATOM     33  C   UNL     1       3.453   1.745  -1.407  1.00  0.00     0.087 C 
ATOM     34  C   UNL     1       3.755   3.416   0.299  1.00  0.00     0.087 C 
ATOM     35  C   UNL     1       4.950   1.923  -1.722  1.00  0.00     0.041 C 
ATOM     36  C   UNL     1       5.205   3.064   0.584  1.00  0.00     0.041 C 
ATOM     37  C   UNL     1       5.877   2.250  -0.534  1.00  0.00     0.095 C 
BRANCH  37  38
ATOM     38  N   UNL     1       6.684   1.169   0.034  1.00  0.00    -0.291 N 
ATOM     39  C   UNL     1       7.877   1.411   0.679  1.00  0.00     0.295 A 
ATOM     40  C   UNL     1       6.447  -0.185   0.157  1.00  0.00     0.072 A 
ATOM     41  N   UNL     1       8.415   0.353   1.212  1.00  0.00    -0.195 NA
ATOM     42  C   UNL     1       5.429  -1.053  -0.269  1.00  0.00     0.032 A 
ATOM     43  C   UNL     1       7.542  -0.657   0.899  1.00  0.00     0.096 A 
ATOM     44  C   UNL     1       5.540  -2.410   0.057  1.00  0.00     0.048 A 
ATOM     45  C   UNL     1       7.631  -2.016   1.235  1.00  0.00     0.076 A 
ATOM     46  C   UNL     1       6.623  -2.873   0.801  1.00  0.00     0.117 A 
BRANCH  39  47
ATOM     47  O   UNL     1       8.435   2.600   0.809  1.00  0.00    -0.480 OA
ATOM     48  H   UNL     1       9.230   2.378   1.337  1.00  0.00     0.296 HD
ENDBRANCH  39  47
BRANCH  46  49
ATOM     49  O   UNL     1       6.739  -4.191   1.133  1.00  0.00    -0.508 OA
ATOM     50  H   UNL     1       5.979  -4.668   0.755  1.00  0.00     0.293 HD
ENDBRANCH  46  49
ENDBRANCH  37  38
ENDBRANCH  31  32
ENDBRANCH   4  31
TORSDOF 8
