MODEL        1USER    Run = 1USERUSER    Estimated Free Energy of Binding    = -14.90 kcal/mol  [=(1)+(2)+(3)-(4)]USERUSER    (1) Final Intermolecular Energy     = -16.69 kcal/molUSER        vdW + Hbond + desolv Energy     = -16.60 kcal/molUSER        Electrostatic Energy            =  -0.10 kcal/molUSER        Moving Ligand-Fixed Receptor    = -16.69 kcal/molUSER        Moving Ligand-Moving Receptor   =  +0.00 kcal/molUSER    (2) Final Total Internal Energy     =  -1.38 kcal/molUSER    (3) Torsional Free Energy           =  +1.79 kcal/molUSER    (4) Unbound System's Energy         =  -1.38 kcal/molUSERUSERREMARK SMILES CN1CCN(C(=O)c2ccc(-c3nc4ccccc4nc3-c3ccc(C(=O)N4CCC(n5c(O)nc6ccccc65)CC4)cc3)cc2)CC1REMARK SMILES IDX 22 1 23 2 24 3 25 4 44 5 45 6 21 7 12 8 13 9 14 10 20 11REMARK SMILES IDX 15 12 19 13 16 14 18 15 17 16 11 17 8 18 9 19 47 20 10 21REMARK SMILES IDX 46 22 6 23 2 24 3 25 49 26 4 27 48 28 5 29 1 30 7 31 26 32REMARK SMILES IDX 28 33 29 34 43 35 30 36 42 37 31 38 27 39 32 40 33 41 41 42REMARK SMILES IDX 35 43 40 44 36 45 39 46 37 47 38 48 34 49REMARK H PARENT 34 50USER                              x       y       z     vdW  Elec       q    TypeUSER                           _______ _______ _______ _____ _____    ______ ____ROOTATOM      1  C   UNL     1      37.920  44.685  19.228 -0.36 -0.00    +0.002 A  ATOM      2  C   UNL     1      38.800  44.758  20.323 -0.36 -0.00    +0.011 A  ATOM      3  C   UNL     1      38.606  43.968  21.458 -0.31 +0.00    +0.014 A  ATOM      4  C   UNL     1      37.532  43.073  21.504 -0.35 +0.00    +0.040 A  ATOM      5  C   UNL     1      36.651  42.976  20.427 -0.41 -0.00    +0.014 A  ATOM      6  C   UNL     1      36.857  43.764  19.291 -0.33 -0.00    +0.011 A  ENDROOTBRANCH   1   7ATOM      7  C   UNL     1      38.114  45.565  18.059 -0.31 -0.02    +0.097 A  ATOM      8  C   UNL     1      37.205  45.697  16.997 -0.29 -0.04    +0.097 A  ATOM      9  N   UNL     1      37.483  46.498  15.930 -0.21 +0.12    -0.244 NA ATOM     10  C   UNL     1      38.644  47.177  15.950 -0.38 -0.04    +0.089 A  ATOM     11  N   UNL     1      39.283  46.263  18.081 -0.28 +0.04    -0.244 NA ATOM     12  C   UNL     1      38.964  48.016  14.889 -0.50 -0.01    +0.030 A  ATOM     13  C   UNL     1      39.547  47.063  17.031 -0.40 -0.02    +0.089 A  ATOM     14  C   UNL     1      40.155  48.744  14.870 -0.57 -0.00    +0.002 A  ATOM     15  C   UNL     1      40.730  47.793  17.004 -0.51 -0.00    +0.030 A  ATOM     16  C   UNL     1      41.041  48.632  15.932 -0.59 -0.00    +0.002 A  BRANCH   8  17ATOM     17  C   UNL     1      35.892  45.029  16.914 -0.33 -0.00    +0.002 A  ATOM     18  C   UNL     1      33.413  43.701  16.778 -0.29 -0.02    +0.040 A  ATOM     19  C   UNL     1      33.520  44.896  17.489 -0.33 -0.01    +0.014 A  ATOM     20  C   UNL     1      34.516  43.184  16.096 -0.36 -0.01    +0.014 A  ATOM     21  C   UNL     1      34.752  45.554  17.553 -0.37 -0.01    +0.011 A  ATOM     22  C   UNL     1      35.747  43.843  16.170 -0.38 -0.00    +0.011 A  BRANCH  18  23ATOM     23  C   UNL     1      32.111  43.008  16.666 -0.20 -0.10    +0.253 C  ATOM     24  N   UNL     1      31.455  38.982  18.192 -0.23 -0.02    -0.303 NA ATOM     25  C   UNL     1      30.472  40.074  18.347 -0.31 +0.00    +0.105 C  ATOM     26  C   UNL     1      32.757  39.461  17.688 -0.30 -0.03    +0.105 C  ATOM     27  C   UNL     1      30.620  41.175  17.284 -0.29 -0.03    +0.135 C  ATOM     28  C   UNL     1      33.026  40.971  17.875 -0.36 -0.04    +0.135 C  ATOM     29  N   UNL     1      31.942  41.798  17.326 -0.12 +0.12    -0.336 N  ATOM     30  C   UNL     1      31.595  38.234  19.438 -0.48 +0.02    +0.105 C  ATOM     31  O   UNL     1      31.232  43.548  15.996 -0.22 +0.12    -0.269 OA ENDBRANCH  18  23ENDBRANCH   8  17ENDBRANCH   1   7BRANCH   4  32ATOM     32  C   UNL     1      37.279  42.274  22.723 -0.34 +0.02    +0.253 C  ATOM     33  N   UNL     1      37.013  42.948  23.922 -0.18 -0.03    -0.338 N  ATOM     34  C   UNL     1      36.661  42.108  25.067 -0.39 -0.01    +0.122 C  ATOM     35  C   UNL     1      37.692  44.209  24.240 -0.29 +0.01    +0.122 C  ATOM     36  C   UNL     1      35.881  42.883  26.122 -0.43 -0.00    +0.047 C  ATOM     37  C   UNL     1      36.931  45.017  25.283 -0.34 +0.00    +0.047 C  ATOM     38  C   UNL     1      36.637  44.155  26.518 -0.37 -0.01    +0.096 C  ATOM     39  O   UNL     1      37.277  41.050  22.610 -0.39 -0.03    -0.269 OA BRANCH  38  40ATOM     40  N   UNL     1      35.969  44.904  27.572 -0.18 +0.08    -0.291 N  ATOM     41  C   UNL     1      34.985  44.446  28.406 -0.34 -0.08    +0.295 A  ATOM     42  C   UNL     1      36.171  46.233  27.884 -0.09 -0.02    +0.072 A  ATOM     43  N   UNL     1      34.540  45.355  29.229 -0.41 +0.05    -0.195 NA ATOM     44  C   UNL     1      37.020  47.227  27.376 -0.32 -0.01    +0.029 A  ATOM     45  C   UNL     1      35.262  46.482  28.916 -0.27 -0.02    +0.092 A  ATOM     46  C   UNL     1      36.930  48.503  27.946 -0.28 -0.00    +0.002 A  ATOM     47  C   UNL     1      35.187  47.768  29.473 -0.37 -0.00    +0.031 A  ATOM     48  C   UNL     1      36.027  48.772  28.975 -0.28 -0.00    +0.002 A  BRANCH  41  49ATOM     49  O   UNL     1      34.497  43.222  28.398 -0.30 +0.14    -0.480 OA ATOM     50  H   UNL     1      35.017  42.805  29.110 -0.30 -0.21    +0.296 HD ENDBRANCH  41  49ENDBRANCH  38  40ENDBRANCH   4  32TORSDOF 6TERENDMDL