REMARK SMILES CN1CCN(C(=O)c2ccc(-c3nc4ccccc4nc3-c3ccc(C(=O)N4CCC(n5c(O)nc6ccccc65)CC4)cc3)cc2)CC1
REMARK SMILES IDX 22 1 23 2 24 3 25 4 44 5 45 6 21 7 12 8 13 9 14 10 20 11
REMARK SMILES IDX 15 12 19 13 16 14 18 15 17 16 11 17 8 18 9 19 47 20 10 21
REMARK SMILES IDX 46 22 6 23 2 24 3 25 49 26 4 27 48 28 5 29 1 30 7 31 26 32
REMARK SMILES IDX 28 33 29 34 43 35 30 36 42 37 31 38 27 39 32 40 33 41 41 42
REMARK SMILES IDX 35 43 40 44 36 45 39 46 37 47 38 48 34 49
REMARK H PARENT 34 50
ROOT
ATOM      1  C   UNL     1      -0.781  -2.497   0.181  1.00  0.00     0.002 A 
ATOM      2  C   UNL     1       0.217  -2.266  -0.783  1.00  0.00     0.011 A 
ATOM      3  C   UNL     1       0.849  -1.024  -0.884  1.00  0.00     0.014 A 
ATOM      4  C   UNL     1       0.501   0.003  -0.002  1.00  0.00     0.040 A 
ATOM      5  C   UNL     1      -0.479  -0.204   0.968  1.00  0.00     0.014 A 
ATOM      6  C   UNL     1      -1.100  -1.452   1.069  1.00  0.00     0.011 A 
ENDROOT
BRANCH   1   7
ATOM      7  C   UNL     1      -1.471  -3.800   0.238  1.00  0.00     0.097 A 
ATOM      8  C   UNL     1      -2.865  -3.970   0.211  1.00  0.00     0.097 A 
ATOM      9  N   UNL     1      -3.424  -5.208   0.316  1.00  0.00    -0.244 NA
ATOM     10  C   UNL     1      -2.590  -6.259   0.415  1.00  0.00     0.089 A 
ATOM     11  N   UNL     1      -0.630  -4.868   0.327  1.00  0.00    -0.244 NA
ATOM     12  C   UNL     1      -3.115  -7.542   0.511  1.00  0.00     0.030 A 
ATOM     13  C   UNL     1      -1.187  -6.090   0.417  1.00  0.00     0.089 A 
ATOM     14  C   UNL     1      -2.288  -8.662   0.610  1.00  0.00     0.002 A 
ATOM     15  C   UNL     1      -0.371  -7.211   0.514  1.00  0.00     0.030 A 
ATOM     16  C   UNL     1      -0.910  -8.495   0.612  1.00  0.00     0.002 A 
BRANCH   8  17
ATOM     17  C   UNL     1      -3.850  -2.882   0.058  1.00  0.00     0.002 A 
ATOM     18  C   UNL     1      -5.718  -0.788  -0.175  1.00  0.00     0.040 A 
ATOM     19  C   UNL     1      -4.698  -0.914  -1.118  1.00  0.00     0.014 A 
ATOM     20  C   UNL     1      -5.845  -1.720   0.856  1.00  0.00     0.014 A 
ATOM     21  C   UNL     1      -3.773  -1.956  -1.000  1.00  0.00     0.011 A 
ATOM     22  C   UNL     1      -4.913  -2.756   0.972  1.00  0.00     0.011 A 
BRANCH  18  23
ATOM     23  C   UNL     1      -6.729   0.284  -0.301  1.00  0.00     0.253 C 
ATOM     24  N   UNL     1      -5.737   4.506   0.098  1.00  0.00    -0.303 NA
ATOM     25  C   UNL     1      -6.658   3.987  -0.934  1.00  0.00     0.105 C 
ATOM     26  C   UNL     1      -5.019   3.429   0.807  1.00  0.00     0.105 C 
ATOM     27  C   UNL     1      -7.302   2.645  -0.550  1.00  0.00     0.135 C 
ATOM     28  C   UNL     1      -4.964   2.072   0.071  1.00  0.00     0.135 C 
ATOM     29  N   UNL     1      -6.300   1.604  -0.328  1.00  0.00    -0.336 N 
ATOM     30  C   UNL     1      -4.820   5.487  -0.475  1.00  0.00     0.105 C 
ATOM     31  O   UNL     1      -7.909  -0.051  -0.388  1.00  0.00    -0.269 OA
ENDBRANCH  18  23
ENDBRANCH   8  17
ENDBRANCH   1   7
BRANCH   4  32
ATOM     32  C   UNL     1       1.118   1.341  -0.136  1.00  0.00     0.253 C 
ATOM     33  N   UNL     1       2.516   1.434  -0.166  1.00  0.00    -0.338 N 
ATOM     34  C   UNL     1       3.066   2.767  -0.412  1.00  0.00     0.122 C 
ATOM     35  C   UNL     1       3.344   0.542   0.652  1.00  0.00     0.122 C 
ATOM     36  C   UNL     1       4.486   2.703  -0.963  1.00  0.00     0.047 C 
ATOM     37  C   UNL     1       4.769   0.443   0.122  1.00  0.00     0.047 C 
ATOM     38  C   UNL     1       5.372   1.843  -0.056  1.00  0.00     0.096 C 
ATOM     39  O   UNL     1       0.365   2.305  -0.254  1.00  0.00    -0.269 OA
BRANCH  38  40
ATOM     40  N   UNL     1       6.758   1.799  -0.498  1.00  0.00    -0.291 N 
ATOM     41  C   UNL     1       7.230   1.262  -1.665  1.00  0.00     0.295 A 
ATOM     42  C   UNL     1       7.856   2.245   0.210  1.00  0.00     0.072 A 
ATOM     43  N   UNL     1       8.528   1.326  -1.776  1.00  0.00    -0.195 NA
ATOM     44  C   UNL     1       8.016   2.860   1.460  1.00  0.00     0.029 A 
ATOM     45  C   UNL     1       8.941   1.930  -0.612  1.00  0.00     0.092 A 
ATOM     46  C   UNL     1       9.321   3.158   1.868  1.00  0.00     0.002 A 
ATOM     47  C   UNL     1      10.242   2.236  -0.184  1.00  0.00     0.031 A 
ATOM     48  C   UNL     1      10.418   2.850   1.063  1.00  0.00     0.002 A 
BRANCH  41  49
ATOM     49  O   UNL     1       6.482   0.711  -2.599  1.00  0.00    -0.480 OA
ATOM     50  H   UNL     1       7.156   0.453  -3.255  1.00  0.00     0.296 HD
ENDBRANCH  41  49
ENDBRANCH  38  40
ENDBRANCH   4  32
TORSDOF 6
