MODEL        6USER    Run = 6USERUSER    Estimated Free Energy of Binding    = -13.75 kcal/mol  [=(1)+(2)+(3)-(4)]USERUSER    (1) Final Intermolecular Energy     = -16.14 kcal/molUSER        vdW + Hbond + desolv Energy     = -15.93 kcal/molUSER        Electrostatic Energy            =  -0.21 kcal/molUSER        Moving Ligand-Fixed Receptor    = -16.14 kcal/molUSER        Moving Ligand-Moving Receptor   =  +0.00 kcal/molUSER    (2) Final Total Internal Energy     =  -1.89 kcal/molUSER    (3) Torsional Free Energy           =  +2.39 kcal/molUSER    (4) Unbound System's Energy         =  -1.89 kcal/molUSERUSERREMARK SMILES O=C(c1ccc(-c2nc3ccccc3nc2-c2ccc(CN3CCC(n4c(O)nc5cc(O)ccc54)CC3)cc2)cc1)N1CCOCC1REMARK SMILES IDX 17 1 18 2 19 3 20 4 39 5 40 6 16 7 7 8 8 9 9 10 15 11 10 12REMARK SMILES IDX 14 13 11 14 13 15 12 16 6 17 3 18 4 19 42 20 5 21 41 22 2 23REMARK SMILES IDX 43 24 44 25 48 26 45 27 47 28 46 29 1 30 21 31 22 32 23 33REMARK SMILES IDX 38 34 24 35 37 36 25 37 26 38 27 39 36 40 29 41 35 42 30 43REMARK SMILES IDX 34 44 31 45 32 46 28 47 33 49REMARK H PARENT 28 48 33 50USER                              x       y       z     vdW  Elec       q    TypeUSER                           _______ _______ _______ _____ _____    ______ ____ROOTATOM      1  C   UNL     1      37.095  43.654  20.514 -0.39 -0.00    +0.002 A  ATOM      2  C   UNL     1      37.418  44.412  21.653 -0.36 +0.00    +0.011 A  ATOM      3  C   UNL     1      37.254  43.892  22.939 -0.35 +0.00    +0.006 A  ATOM      4  C   UNL     1      36.748  42.597  23.125 -0.38 -0.00    -0.034 A  ATOM      5  C   UNL     1      36.385  41.852  21.999 -0.53 +0.00    +0.006 A  ATOM      6  C   UNL     1      36.548  42.377  20.712 -0.46 -0.00    +0.011 A  ENDROOTBRANCH   1   7ATOM      7  C   UNL     1      37.336  44.202  19.166 -0.28 -0.01    +0.097 A  ATOM      8  C   UNL     1      36.428  44.132  18.095 -0.26 -0.02    +0.097 A  ATOM      9  N   UNL     1      36.722  44.693  16.890 -0.17 +0.09    -0.244 NA ATOM     10  C   UNL     1      37.915  45.297  16.757 -0.30 -0.03    +0.089 A  ATOM     11  N   UNL     1      38.549  44.807  19.024 -0.23 +0.02    -0.244 NA ATOM     12  C   UNL     1      38.258  45.874  15.541 -0.36 -0.01    +0.030 A  ATOM     13  C   UNL     1      38.835  45.352  17.828 -0.34 -0.01    +0.089 A  ATOM     14  C   UNL     1      39.486  46.507  15.359 -0.45 -0.00    +0.002 A  ATOM     15  C   UNL     1      40.054  45.987  17.635 -0.44 -0.00    +0.030 A  ATOM     16  C   UNL     1      40.390  46.564  16.411 -0.46 -0.00    +0.002 A  BRANCH   8  17ATOM     17  C   UNL     1      35.112  43.463  18.131 -0.33 -0.00    +0.002 A  ATOM     18  C   UNL     1      32.622  42.159  18.287 -0.34 -0.01    +0.040 A  ATOM     19  C   UNL     1      32.949  43.140  19.230 -0.40 -0.00    +0.014 A  ATOM     20  C   UNL     1      33.493  41.868  17.235 -0.33 -0.01    +0.014 A  ATOM     21  C   UNL     1      34.188  43.779  19.150 -0.39 -0.00    +0.011 A  ATOM     22  C   UNL     1      34.725  42.520  17.156 -0.42 -0.00    +0.011 A  BRANCH  18  23ATOM     23  C   UNL     1      31.318  41.462  18.357 -0.18 -0.03    +0.254 C  ATOM     24  N   UNL     1      31.313  40.079  18.545 -0.17 +0.00    -0.334 N  ATOM     25  C   UNL     1      32.374  39.215  18.010 -0.38 -0.01    +0.148 C  ATOM     26  C   UNL     1      30.006  39.422  18.632 -0.29 +0.02    +0.148 C  ATOM     27  C   UNL     1      32.381  37.839  18.685 -0.42 +0.03    +0.181 C  ATOM     28  C   UNL     1      30.130  38.074  19.337 -0.34 +0.04    +0.181 C  ATOM     29  O   UNL     1      31.085  37.231  18.668 -0.86 -0.17    -0.378 OA ATOM     30  O   UNL     1      30.297  42.141  18.270 -0.04 +0.03    -0.269 OA ENDBRANCH  18  23ENDBRANCH   8  17ENDBRANCH   1   7BRANCH   4  31ATOM     31  C   UNL     1      36.647  42.003  24.516 -0.38 -0.00    +0.120 C  BRANCH  31  32ATOM     32  N   UNL     1      36.599  43.009  25.582 -0.18 +0.01    -0.299 NA ATOM     33  C   UNL     1      35.535  42.742  26.552 -0.47 -0.01    +0.087 C  ATOM     34  C   UNL     1      37.892  43.130  26.252 -0.27 -0.01    +0.087 C  ATOM     35  C   UNL     1      35.662  43.538  27.865 -0.52 -0.01    +0.041 C  ATOM     36  C   UNL     1      37.907  44.463  26.980 -0.31 -0.00    +0.041 C  ATOM     37  C   UNL     1      36.685  44.691  27.884 -0.41 -0.02    +0.095 C  BRANCH  37  38ATOM     38  N   UNL     1      36.189  46.061  27.739 -0.14 +0.09    -0.291 N  ATOM     39  C   UNL     1      35.270  46.599  28.612 +0.02 -0.08    +0.295 A  ATOM     40  C   UNL     1      36.541  47.077  26.875 -0.06 -0.02    +0.072 A  ATOM     41  N   UNL     1      35.013  47.857  28.401 -0.26 +0.04    -0.195 NA ATOM     42  C   UNL     1      37.411  47.184  25.777 -0.34 +0.00    +0.032 A  ATOM     43  C   UNL     1      35.794  48.179  27.321 -0.17 -0.02    +0.096 A  ATOM     44  C   UNL     1      37.505  48.422  25.129 -0.40 +0.00    +0.048 A  ATOM     45  C   UNL     1      35.912  49.418  26.674 -0.34 -0.00    +0.076 A  ATOM     46  C   UNL     1      36.769  49.515  25.580 -0.38 +0.00    +0.117 A  BRANCH  39  47ATOM     47  O   UNL     1      34.712  45.948  29.615 -0.03 +0.12    -0.480 OA ATOM     48  H   UNL     1      34.627  46.662  30.280 -0.26 -0.09    +0.296 HD ENDBRANCH  39  47BRANCH  46  49ATOM     49  O   UNL     1      36.858  50.729  24.964 -0.01 -0.03    -0.508 OA ATOM     50  H   UNL     1      36.145  50.787  24.303 -0.34 -0.07    +0.293 HD ENDBRANCH  46  49ENDBRANCH  37  38ENDBRANCH  31  32ENDBRANCH   4  31TORSDOF 8TERENDMDL