MODEL        10USER    Run = 10USERUSER    Estimated Free Energy of Binding    = -11.10 kcal/mol  [=(1)+(2)+(3)-(4)]USERUSER    (1) Final Intermolecular Energy     = -12.59 kcal/molUSER        vdW + Hbond + desolv Energy     = -12.51 kcal/molUSER        Electrostatic Energy            =  -0.09 kcal/molUSER        Moving Ligand-Fixed Receptor    = -12.59 kcal/molUSER        Moving Ligand-Moving Receptor   =  +0.00 kcal/molUSER    (2) Final Total Internal Energy     =  -0.78 kcal/molUSER    (3) Torsional Free Energy           =  +1.49 kcal/molUSER    (4) Unbound System's Energy         =  -0.78 kcal/molUSERUSERREMARK SMILES Oc1nc2ccccc2n1C1CCN(Cc2ccc(-c3nc4ccccc4[nH]3)cc2)CC1REMARK SMILES IDX 11 1 12 2 13 3 14 4 31 5 32 6 10 7 2 8 3 9 4 10 9 11 5 12REMARK SMILES IDX 8 13 6 14 7 15 1 16 15 18 16 19 17 20 30 21 18 22 29 23REMARK SMILES IDX 19 24 20 25 21 26 28 27 22 28 27 29 23 30 26 31 24 32 25 33REMARK H PARENT 1 17 28 34USER                              x       y       z     vdW  Elec       q    TypeUSER                           _______ _______ _______ _____ _____    ______ ____ROOTATOM      1  C   UNL     1      39.284  46.486  16.244 -0.43 -0.02    +0.095 C  ATOM      2  C   UNL     1      40.364  47.366  16.881 -0.56 -0.01    +0.041 C  ATOM      3  C   UNL     1      41.107  46.596  17.971 -0.51 -0.01    +0.087 C  ATOM      4  N   UNL     1      40.178  46.080  18.986 -0.24 +0.01    -0.299 NA ATOM      5  C   UNL     1      39.174  45.184  18.392 -0.42 -0.01    +0.087 C  ATOM      6  C   UNL     1      38.361  45.903  17.316 -0.42 -0.01    +0.041 C  ENDROOTBRANCH   1   7ATOM      7  N   UNL     1      38.559  47.159  15.177 -0.21 +0.11    -0.291 N  ATOM      8  C   UNL     1      38.459  48.508  14.976 -0.28 -0.17    +0.295 A  ATOM      9  N   UNL     1      37.739  48.826  13.935 -0.49 +0.10    -0.195 NA ATOM     10  C   UNL     1      37.340  47.619  13.417 -0.49 -0.04    +0.092 A  ATOM     11  C   UNL     1      37.835  46.552  14.171 -0.39 -0.03    +0.072 A  ATOM     12  C   UNL     1      36.543  47.360  12.291 -0.67 -0.01    +0.031 A  ATOM     13  C   UNL     1      37.563  45.216  13.844 -0.38 -0.01    +0.029 A  ATOM     14  C   UNL     1      36.262  46.032  11.952 -0.62 -0.00    +0.002 A  ATOM     15  C   UNL     1      36.766  44.980  12.718 -0.48 -0.00    +0.002 A  BRANCH   8  16ATOM     16  O   UNL     1      39.017  49.426  15.737 -0.16 +0.32    -0.480 OA ATOM     17  H   UNL     1      38.629  50.241  15.371 -0.28 -0.31    +0.296 HD ENDBRANCH   8  16ENDBRANCH   1   7BRANCH   4  18ATOM     18  C   UNL     1      40.929  45.414  20.067 -0.37 +0.01    +0.120 C  BRANCH  18  19ATOM     19  C   UNL     1      40.049  44.922  21.199 -0.30 -0.00    -0.034 A  ATOM     20  C   UNL     1      40.289  43.684  21.807 -0.25 +0.00    +0.006 A  ATOM     21  C   UNL     1      38.996  45.712  21.675 -0.27 +0.00    +0.006 A  ATOM     22  C   UNL     1      39.482  43.238  22.862 -0.27 +0.00    +0.012 A  ATOM     23  C   UNL     1      38.194  45.268  22.729 -0.30 +0.00    +0.012 A  ATOM     24  C   UNL     1      38.420  44.023  23.334 -0.28 +0.00    +0.017 A  BRANCH  24  25ATOM     25  C   UNL     1      37.548  43.594  24.435 -0.24 +0.01    +0.138 A  ATOM     26  N   UNL     1      37.214  42.347  24.717 -0.25 -0.00    -0.229 NA ATOM     27  N   UNL     1      36.972  44.449  25.349 -0.16 -0.01    -0.338 N  ATOM     28  C   UNL     1      36.400  42.405  25.821 -0.36 -0.01    +0.089 A  ATOM     29  C   UNL     1      36.232  43.717  26.240 -0.36 -0.01    +0.066 A  ATOM     30  C   UNL     1      35.766  41.372  26.525 -0.51 -0.01    +0.030 A  ATOM     31  C   UNL     1      35.457  44.077  27.344 -0.42 -0.01    +0.028 A  ATOM     32  C   UNL     1      34.980  41.704  27.637 -0.60 -0.00    +0.002 A  ATOM     33  C   UNL     1      34.830  43.035  28.036 -0.57 -0.00    +0.002 A  ATOM     34  H   UNL     1      37.092  45.449  25.373 +0.05 +0.01    +0.168 HD ENDBRANCH  24  25ENDBRANCH  18  19ENDBRANCH   4  18TORSDOF 5TERENDMDL