
     RDKit          3D

 51 54  0  0  0  0  0  0  0  0999 V2000
   -0.1422    3.8348    0.0364 C   0  0  0  0  0  0  0  0  0  0  0  0
    0.3511    3.2152   -1.2764 C   0  0  0  0  0  0  0  0  0  0  0  0
    0.3485    4.2760   -2.3833 C   0  0  0  0  0  0  0  0  0  0  0  0
   -0.4369    1.9462   -1.7014 C   0  0  0  0  0  0  0  0  0  0  0  0
   -1.8558    2.2324   -1.8569 N   0  0  0  0  0  0  0  0  0  0  0  0
   -2.7691    1.7247   -0.9877 C   0  0  0  0  0  0  0  0  0  0  0  0
   -2.5647    0.8262   -0.0892 N   0  0  0  0  0  0  0  0  0  0  0  0
   -1.2594    0.2844   -0.0154 C   0  0  0  0  0  0  0  0  0  0  0  0
   -0.9241   -0.7838    0.8151 C   0  0  0  0  0  0  0  0  0  0  0  0
   -1.8682   -1.4249    1.6511 N   0  0  0  0  0  0  0  0  0  0  0  0
   -3.1269   -1.9300    1.2379 C   0  0  0  0  0  0  0  0  0  0  0  0
   -4.1334   -2.0573    2.2058 C   0  0  0  0  0  0  0  0  0  0  0  0
   -5.3744   -2.6159    1.8838 C   0  0  0  0  0  0  0  0  0  0  0  0
   -5.6182   -3.0812    0.5927 C   0  0  0  0  0  0  0  0  0  0  0  0
   -4.6166   -2.9975   -0.3720 C   0  0  0  0  0  0  0  0  0  0  0  0
   -3.3816   -2.4385   -0.0449 C   0  0  0  0  0  0  0  0  0  0  0  0
   -2.4270   -2.4304   -0.9886 F   0  0  0  0  0  0  0  0  0  0  0  0
    0.3361   -1.2596    0.9303 N   0  0  0  0  0  0  0  0  0  0  0  0
    1.2966   -0.7099    0.1755 C   0  0  0  0  0  0  0  0  0  0  0  0
    2.5677   -1.2122    0.2634 N   0  0  0  0  0  0  0  0  0  0  0  0
    2.9289   -2.0961    1.3582 C   0  0  0  0  0  0  0  0  0  0  0  0
    4.4380   -2.2539    1.1862 C   0  0  0  0  0  0  0  0  0  0  0  0
    4.8605   -0.8574    0.7310 C   0  0  1  0  0  0  0  0  0  0  0  0
    6.1979   -0.8512    0.1408 N   0  0  0  0  0  0  0  0  0  0  0  0
    3.7037   -0.4346   -0.2089 C   0  0  0  0  0  0  0  0  0  0  0  0
    1.0683    0.3004   -0.6737 N   0  0  0  0  0  0  0  0  0  0  0  0
   -0.1964    0.7857   -0.7509 C   0  0  0  0  0  0  0  0  0  0  0  0
   -1.1722    4.1963   -0.0473 H   0  0  0  0  0  0  0  0  0  0  0  0
    0.4853    4.6886    0.3152 H   0  0  0  0  0  0  0  0  0  0  0  0
   -0.0969    3.1153    0.8597 H   0  0  0  0  0  0  0  0  0  0  0  0
    1.4009    2.9295   -1.1227 H   0  0  0  0  0  0  0  0  0  0  0  0
   -0.6509    4.6899   -2.5500 H   0  0  0  0  0  0  0  0  0  0  0  0
    0.7073    3.8544   -3.3281 H   0  0  0  0  0  0  0  0  0  0  0  0
    1.0109    5.1076   -2.1189 H   0  0  0  0  0  0  0  0  0  0  0  0
   -0.0664    1.6212   -2.6824 H   0  0  0  0  0  0  0  0  0  0  0  0
   -2.1173    3.0067   -2.4525 H   0  0  0  0  0  0  0  0  0  0  0  0
   -3.7735    2.1639   -1.1088 H   0  0  0  0  0  0  0  0  0  0  0  0
   -1.3364   -2.1730    2.0918 H   0  0  0  0  0  0  0  0  0  0  0  0
   -3.9555   -1.6970    3.2164 H   0  0  0  0  0  0  0  0  0  0  0  0
   -6.1488   -2.6861    2.6436 H   0  0  0  0  0  0  0  0  0  0  0  0
   -6.5822   -3.5157    0.3417 H   0  0  0  0  0  0  0  0  0  0  0  0
   -4.7810   -3.3722   -1.3770 H   0  0  0  0  0  0  0  0  0  0  0  0
    2.7074   -1.6336    2.3281 H   0  0  0  0  0  0  0  0  0  0  0  0
    2.4224   -3.0650    1.2958 H   0  0  0  0  0  0  0  0  0  0  0  0
    4.6481   -3.0016    0.4105 H   0  0  0  0  0  0  0  0  0  0  0  0
    4.9314   -2.5697    2.1104 H   0  0  0  0  0  0  0  0  0  0  0  0
    4.8653   -0.1898    1.6025 H   0  0  0  0  0  0  0  0  0  0  0  0
    6.2222   -1.4868   -0.6572 H   0  0  0  0  0  0  0  0  0  0  0  0
    6.4015    0.0751   -0.2334 H   0  0  0  0  0  0  0  0  0  0  0  0
    3.5589    0.6505   -0.1456 H   0  0  0  0  0  0  0  0  0  0  0  0
    3.9171   -0.7002   -1.2508 H   0  0  0  0  0  0  0  0  0  0  0  0
  1  2  1  0
  2  3  1  0
  2  4  1  0
  4  5  1  0
  5  6  1  0
  6  7  2  0
  7  8  1  0
  8  9  2  0
  9 10  1  0
 10 11  1  0
 11 12  2  0
 12 13  1  0
 13 14  2  0
 14 15  1  0
 15 16  2  0
 16 17  1  0
  9 18  1  0
 18 19  2  0
 19 20  1  0
 20 21  1  0
 21 22  1  0
 22 23  1  0
 23 24  1  0
 23 25  1  0
 19 26  1  0
 26 27  2  0
 27  4  1  0
 27  8  1  0
 16 11  1  0
 25 20  1  0
  1 28  1  0
  1 29  1  0
  1 30  1  0
  2 31  1  0
  3 32  1  0
  3 33  1  0
  3 34  1  0
  4 35  1  0
  5 36  1  0
  6 37  1  0
 10 38  1  0
 12 39  1  0
 13 40  1  0
 14 41  1  0
 15 42  1  0
 21 43  1  0
 21 44  1  0
 22 45  1  0
 22 46  1  0
 23 47  1  1
 24 48  1  0
 24 49  1  0
 25 50  1  0
 25 51  1  0
M  END
$$$$
