
     RDKit          3D

 34 35  0  0  0  0  0  0  0  0999 V2000
    1.1317   -0.0387   -2.3695 C   0  0  0  0  0  0  0  0  0  0  0  0
    1.8091   -0.2157   -1.0335 C   0  0  0  0  0  0  0  0  0  0  0  0
    3.2147   -0.2454   -0.9914 C   0  0  0  0  0  0  0  0  0  0  0  0
    3.8686   -0.3930    0.2244 C   0  0  0  0  0  0  0  0  0  0  0  0
    5.2349   -0.4237    0.3059 O   0  0  0  0  0  0  0  0  0  0  0  0
    3.1494   -0.5180    1.4091 C   0  0  0  0  0  0  0  0  0  0  0  0
    3.8493   -0.6757    2.5779 O   0  0  0  0  0  0  0  0  0  0  0  0
    1.7536   -0.4857    1.3937 C   0  0  0  0  0  0  0  0  0  0  0  0
    0.8874   -0.6535    2.8914 Cl  0  0  0  0  0  0  0  0  0  0  0  0
    1.0580   -0.3313    0.1695 C   0  0  0  0  0  0  0  0  0  0  0  0
   -0.4217   -0.3068    0.1379 C   0  0  0  0  0  0  0  0  0  0  0  0
   -1.0974   -1.5281   -0.0750 C   0  0  0  0  0  0  0  0  0  0  0  0
   -2.4858   -1.5745   -0.0635 C   0  0  0  0  0  0  0  0  0  0  0  0
   -3.1690   -2.7440   -0.2535 O   0  0  0  0  0  0  0  0  0  0  0  0
   -3.2326   -0.4210    0.1524 C   0  0  0  0  0  0  0  0  0  0  0  0
   -4.5975   -0.5224    0.1702 O   0  0  0  0  0  0  0  0  0  0  0  0
   -2.5906    0.7983    0.3600 C   0  0  0  0  0  0  0  0  0  0  0  0
   -3.3988    2.0025    0.5638 C   0  0  0  0  0  0  0  0  0  0  0  0
   -3.5038    2.6230    1.6028 O   0  0  0  0  0  0  0  0  0  0  0  0
   -3.9446    2.4078   -0.5938 O   0  0  0  0  0  0  0  0  0  0  0  0
   -1.1873    0.8654    0.3620 C   0  0  0  0  0  0  0  0  0  0  0  0
   -0.5357    2.1792    0.5885 C   0  0  0  0  0  0  0  0  0  0  0  0
    0.5086    2.4983    0.0335 O   0  0  0  0  0  0  0  0  0  0  0  0
    0.5235   -0.9169   -2.6076 H   0  0  0  0  0  0  0  0  0  0  0  0
    1.8623    0.0813   -3.1768 H   0  0  0  0  0  0  0  0  0  0  0  0
    0.5017    0.8561   -2.3674 H   0  0  0  0  0  0  0  0  0  0  0  0
    3.7835   -0.1451   -1.9117 H   0  0  0  0  0  0  0  0  0  0  0  0
    5.5982   -0.2409   -0.5783 H   0  0  0  0  0  0  0  0  0  0  0  0
    4.7906   -0.6357    2.3161 H   0  0  0  0  0  0  0  0  0  0  0  0
   -0.5185   -2.4358   -0.2326 H   0  0  0  0  0  0  0  0  0  0  0  0
   -2.5274   -3.4719   -0.3368 H   0  0  0  0  0  0  0  0  0  0  0  0
   -4.7902   -1.4678    0.0033 H   0  0  0  0  0  0  0  0  0  0  0  0
   -4.4793    3.1940   -0.3570 H   0  0  0  0  0  0  0  0  0  0  0  0
   -1.0450    2.8855    1.2635 H   0  0  0  0  0  0  0  0  0  0  0  0
  1  2  1  0
  2  3  2  0
  3  4  1  0
  4  5  1  0
  4  6  2  0
  6  7  1  0
  6  8  1  0
  8  9  1  0
  8 10  2  0
 10 11  1  0
 11 12  2  0
 12 13  1  0
 13 14  1  0
 13 15  2  0
 15 16  1  0
 15 17  1  0
 17 18  1  0
 18 19  2  0
 18 20  1  0
 17 21  2  0
 21 22  1  0
 22 23  2  0
 10  2  1  0
 21 11  1  0
  1 24  1  0
  1 25  1  0
  1 26  1  0
  3 27  1  0
  5 28  1  0
  7 29  1  0
 12 30  1  0
 14 31  1  0
 16 32  1  0
 20 33  1  0
 22 34  1  0
M  END
$$$$
