
     RDKit          3D

 63 66  0  0  0  0  0  0  0  0999 V2000
   -2.6617   -0.0538    2.9337 C   0  0  0  0  0  0  0  0  0  0  0  0
   -1.7721   -0.3612    1.7371 C   0  0  0  0  0  0  0  0  0  0  0  0
   -2.4454   -1.2605    0.7208 C   0  0  0  0  0  0  0  0  0  0  0  0
   -2.6087   -2.6206    1.0541 C   0  0  0  0  0  0  0  0  0  0  0  0
   -3.2263   -3.4973    0.1676 C   0  0  0  0  0  0  0  0  0  0  0  0
   -3.3954   -4.8157    0.4751 O   0  0  0  0  0  0  0  0  0  0  0  0
   -3.6922   -3.0572   -1.0605 C   0  0  0  0  0  0  0  0  0  0  0  0
   -3.5357   -1.7157   -1.4024 C   0  0  0  0  0  0  0  0  0  0  0  0
   -3.9923   -1.2762   -2.6202 O   0  0  0  0  0  0  0  0  0  0  0  0
   -2.9158   -0.7923   -0.5325 C   0  0  0  0  0  0  0  0  0  0  0  0
   -2.7529    0.6156   -0.9651 C   0  0  0  0  0  0  0  0  0  0  0  0
   -1.5346    1.0454   -1.5551 C   0  0  0  0  0  0  0  0  0  0  0  0
   -0.4025    0.1226   -1.7532 C   0  0  0  0  0  0  0  0  0  0  0  0
    0.7134    0.2169   -1.0168 C   0  0  0  0  0  0  0  0  0  0  0  0
    1.8261   -0.5973   -1.1005 N   0  0  0  0  0  0  0  0  0  0  0  0
    1.9789   -1.6946   -1.9763 C   0  0  0  0  0  0  0  0  0  0  0  0
    1.2084   -2.1191   -2.8242 O   0  0  0  0  0  0  0  0  0  0  0  0
    3.3110   -2.3370   -1.6841 C   0  0  0  0  0  0  0  0  0  0  0  0
    4.0590   -1.2235   -0.9785 C   0  0  0  0  0  0  0  0  0  0  0  0
    2.9629   -0.5319   -0.1698 C   0  0  0  0  0  0  0  0  0  0  0  0
    3.3647    0.8741    0.3783 C   0  0  0  0  0  0  0  0  0  0  0  0
    2.5052    1.2396    1.6103 C   0  0  0  0  0  0  0  0  0  0  0  0
    3.4457    1.1469    2.7942 C   0  0  0  0  0  0  0  0  0  0  0  0
    4.7547    1.5933    2.1926 C   0  0  0  0  0  0  0  0  0  0  0  0
    4.7611    0.9223    0.8872 N   0  0  0  0  0  0  0  0  0  0  0  0
    5.6765    1.6081   -0.0242 C   0  0  0  0  0  0  0  0  0  0  0  0
   -1.3813    2.3721   -1.9914 C   0  0  0  0  0  0  0  0  0  0  0  0
   -2.4222    3.2855   -1.8620 C   0  0  0  0  0  0  0  0  0  0  0  0
   -3.6294    2.8788   -1.3017 C   0  0  0  0  0  0  0  0  0  0  0  0
   -3.8051    1.5546   -0.8592 C   0  0  0  0  0  0  0  0  0  0  0  0
   -5.1191    1.1841   -0.2698 C   0  0  0  0  0  0  0  0  0  0  0  0
   -5.3417    0.4068    0.6374 O   0  0  0  0  0  0  0  0  0  0  0  0
   -6.1318    1.8447   -0.8674 O   0  0  0  0  0  0  0  0  0  0  0  0
   -2.1267    0.5838    3.6450 H   0  0  0  0  0  0  0  0  0  0  0  0
   -2.9598   -0.9658    3.4604 H   0  0  0  0  0  0  0  0  0  0  0  0
   -3.5707    0.4720    2.6287 H   0  0  0  0  0  0  0  0  0  0  0  0
   -1.4463    0.5831    1.2922 H   0  0  0  0  0  0  0  0  0  0  0  0
   -0.8529   -0.8521    2.0819 H   0  0  0  0  0  0  0  0  0  0  0  0
   -2.2479   -2.9799    2.0137 H   0  0  0  0  0  0  0  0  0  0  0  0
   -3.0418   -4.9716    1.3660 H   0  0  0  0  0  0  0  0  0  0  0  0
   -4.1701   -3.7628   -1.7309 H   0  0  0  0  0  0  0  0  0  0  0  0
   -4.2918   -2.0452   -3.1319 H   0  0  0  0  0  0  0  0  0  0  0  0
   -0.5600   -0.6440   -2.5049 H   0  0  0  0  0  0  0  0  0  0  0  0
    0.7580    1.0039   -0.2731 H   0  0  0  0  0  0  0  0  0  0  0  0
    3.8125   -2.6386   -2.6070 H   0  0  0  0  0  0  0  0  0  0  0  0
    3.1557   -3.2041   -1.0347 H   0  0  0  0  0  0  0  0  0  0  0  0
    4.4742   -0.5467   -1.7344 H   0  0  0  0  0  0  0  0  0  0  0  0
    4.8769   -1.6053   -0.3606 H   0  0  0  0  0  0  0  0  0  0  0  0
    2.7061   -1.1885    0.6750 H   0  0  0  0  0  0  0  0  0  0  0  0
    3.2010    1.6317   -0.3998 H   0  0  0  0  0  0  0  0  0  0  0  0
    1.6336    0.5966    1.7641 H   0  0  0  0  0  0  0  0  0  0  0  0
    2.1501    2.2732    1.5113 H   0  0  0  0  0  0  0  0  0  0  0  0
    3.5122    0.1112    3.1494 H   0  0  0  0  0  0  0  0  0  0  0  0
    3.1270    1.7787    3.6281 H   0  0  0  0  0  0  0  0  0  0  0  0
    5.6088    1.2914    2.8067 H   0  0  0  0  0  0  0  0  0  0  0  0
    4.7615    2.6866    2.0929 H   0  0  0  0  0  0  0  0  0  0  0  0
    5.3805    2.6478   -0.2033 H   0  0  0  0  0  0  0  0  0  0  0  0
    5.7320    1.1023   -0.9910 H   0  0  0  0  0  0  0  0  0  0  0  0
    6.6920    1.6071    0.3872 H   0  0  0  0  0  0  0  0  0  0  0  0
   -0.4496    2.6920   -2.4542 H   0  0  0  0  0  0  0  0  0  0  0  0
   -2.2987    4.3076   -2.2104 H   0  0  0  0  0  0  0  0  0  0  0  0
   -4.4404    3.5990   -1.2143 H   0  0  0  0  0  0  0  0  0  0  0  0
   -6.9266    1.4792   -0.4258 H   0  0  0  0  0  0  0  0  0  0  0  0
  1  2  1  0
  2  3  1  0
  3  4  2  0
  4  5  1  0
  5  6  1  0
  5  7  2  0
  7  8  1  0
  8  9  1  0
  8 10  2  0
 10 11  1  0
 11 12  1  0
 12 13  1  0
 13 14  2  0
 14 15  1  0
 15 16  1  0
 16 17  2  0
 16 18  1  0
 18 19  1  0
 19 20  1  0
 20 21  1  0
 21 22  1  0
 22 23  1  0
 23 24  1  0
 24 25  1  0
 25 26  1  0
 12 27  2  0
 27 28  1  0
 28 29  2  0
 29 30  1  0
 30 31  1  0
 31 32  2  0
 31 33  1  0
 10  3  1  0
 30 11  2  0
 20 15  1  0
 25 21  1  0
  1 34  1  0
  1 35  1  0
  1 36  1  0
  2 37  1  0
  2 38  1  0
  4 39  1  0
  6 40  1  0
  7 41  1  0
  9 42  1  0
 13 43  1  0
 14 44  1  0
 18 45  1  0
 18 46  1  0
 19 47  1  0
 19 48  1  0
 20 49  1  0
 21 50  1  0
 22 51  1  0
 22 52  1  0
 23 53  1  0
 23 54  1  0
 24 55  1  0
 24 56  1  0
 26 57  1  0
 26 58  1  0
 26 59  1  0
 27 60  1  0
 28 61  1  0
 29 62  1  0
 33 63  1  0
M  END
$$$$
