
     RDKit          3D

 39 41  0  0  0  0  0  0  0  0999 V2000
   -5.2228   -0.4295    1.4187 C   0  0  0  0  0  0  0  0  0  0  0  0
   -4.0251   -0.3950    1.3371 C   0  0  0  0  0  0  0  0  0  0  0  0
   -2.5547   -0.3516    1.2448 C   0  0  0  0  0  0  0  0  0  0  0  0
   -2.0697   -0.2504   -0.2075 C   0  0  2  0  0  0  0  0  0  0  0  0
   -2.4093   -1.4978   -1.0372 C   0  0  0  0  0  0  0  0  0  0  0  0
   -1.4123   -1.3973   -2.1770 C   0  0  0  0  0  0  0  0  0  0  0  0
   -0.1353   -0.9268   -1.4842 C   0  0  0  0  0  0  0  0  0  0  0  0
   -0.5909   -0.2088   -0.2832 N   0  0  0  0  0  0  0  0  0  0  0  0
    0.0270    1.0281   -0.0498 C   0  0  0  0  0  0  0  0  0  0  0  0
   -0.7399    2.1385   -0.1091 N   0  0  0  0  0  0  0  0  0  0  0  0
   -0.1643    3.3237    0.0994 C   0  0  0  0  0  0  0  0  0  0  0  0
   -0.9623    4.4445    0.0109 N   0  0  0  0  0  0  0  0  0  0  0  0
    1.1314    3.5108    0.3336 N   0  0  0  0  0  0  0  0  0  0  0  0
    1.8757    2.3938    0.4196 C   0  0  0  0  0  0  0  0  0  0  0  0
    1.3930    1.1071    0.2429 C   0  0  0  0  0  0  0  0  0  0  0  0
    2.2815   -0.0486    0.4118 C   0  0  0  0  0  0  0  0  0  0  0  0
    3.3393   -0.2821   -0.4863 C   0  0  0  0  0  0  0  0  0  0  0  0
    4.1783   -1.3875   -0.3238 C   0  0  0  0  0  0  0  0  0  0  0  0
    3.9688   -2.2611    0.7379 C   0  0  0  0  0  0  0  0  0  0  0  0
    4.7761   -3.3188    0.8878 F   0  0  0  0  0  0  0  0  0  0  0  0
    2.9408   -2.0516    1.6440 C   0  0  0  0  0  0  0  0  0  0  0  0
    2.1087   -0.9494    1.4766 C   0  0  0  0  0  0  0  0  0  0  0  0
    1.1351   -0.7491    2.3778 F   0  0  0  0  0  0  0  0  0  0  0  0
   -6.2853   -0.4570    1.4969 H   0  0  0  0  0  0  0  0  0  0  0  0
   -2.1891    0.5074    1.8202 H   0  0  0  0  0  0  0  0  0  0  0  0
   -2.1289   -1.2422    1.7237 H   0  0  0  0  0  0  0  0  0  0  0  0
   -2.5242    0.6153   -0.7101 H   0  0  0  0  0  0  0  0  0  0  0  0
   -3.4444   -1.5007   -1.3912 H   0  0  0  0  0  0  0  0  0  0  0  0
   -2.2344   -2.4174   -0.4651 H   0  0  0  0  0  0  0  0  0  0  0  0
   -1.2751   -2.3435   -2.7080 H   0  0  0  0  0  0  0  0  0  0  0  0
   -1.7451   -0.6443   -2.9016 H   0  0  0  0  0  0  0  0  0  0  0  0
    0.4617   -1.7932   -1.1787 H   0  0  0  0  0  0  0  0  0  0  0  0
    0.4616   -0.3135   -2.1697 H   0  0  0  0  0  0  0  0  0  0  0  0
   -1.7735    4.2439   -0.5560 H   0  0  0  0  0  0  0  0  0  0  0  0
   -0.4015    5.2470   -0.2358 H   0  0  0  0  0  0  0  0  0  0  0  0
    2.9207    2.5721    0.6611 H   0  0  0  0  0  0  0  0  0  0  0  0
    3.5081    0.3908   -1.3253 H   0  0  0  0  0  0  0  0  0  0  0  0
    4.9925   -1.5733   -1.0181 H   0  0  0  0  0  0  0  0  0  0  0  0
    2.7880   -2.7324    2.4730 H   0  0  0  0  0  0  0  0  0  0  0  0
  1  2  3  0
  2  3  1  0
  3  4  1  0
  4  5  1  0
  5  6  1  0
  6  7  1  0
  7  8  1  0
  8  9  1  0
  9 10  2  0
 10 11  1  0
 11 12  1  0
 11 13  2  0
 13 14  1  0
 14 15  2  0
 15 16  1  0
 16 17  2  0
 17 18  1  0
 18 19  2  0
 19 20  1  0
 19 21  1  0
 21 22  2  0
 22 23  1  0
  8  4  1  0
 15  9  1  0
 22 16  1  0
  1 24  1  0
  3 25  1  0
  3 26  1  0
  4 27  1  6
  5 28  1  0
  5 29  1  0
  6 30  1  0
  6 31  1  0
  7 32  1  0
  7 33  1  0
 12 34  1  0
 12 35  1  0
 14 36  1  0
 17 37  1  0
 18 38  1  0
 21 39  1  0
M  END
$$$$
