
     RDKit          3D

 45 47  0  0  0  0  0  0  0  0999 V2000
   -3.8605   -3.5670   -0.5846 C   0  0  0  0  0  0  0  0  0  0  0  0
   -3.4257   -2.2384   -0.3311 O   0  0  0  0  0  0  0  0  0  0  0  0
   -4.3827   -1.3080   -0.0120 C   0  0  0  0  0  0  0  0  0  0  0  0
   -5.7602   -1.5584   -0.0024 C   0  0  0  0  0  0  0  0  0  0  0  0
   -6.6643   -0.5444    0.3309 C   0  0  0  0  0  0  0  0  0  0  0  0
   -6.2031    0.7281    0.6568 C   0  0  0  0  0  0  0  0  0  0  0  0
   -4.8342    0.9906    0.6497 C   0  0  0  0  0  0  0  0  0  0  0  0
   -3.9230   -0.0198    0.3170 C   0  0  0  0  0  0  0  0  0  0  0  0
   -2.5236    0.2985    0.3212 C   0  0  0  0  0  0  0  0  0  0  0  0
   -1.3556    0.5795    0.3187 C   0  0  0  0  0  0  0  0  0  0  0  0
    0.0776    0.9302    0.2973 C   0  0  0  0  0  0  0  0  0  0  0  0
    0.3562    2.0518   -0.7238 C   0  0  0  0  0  0  0  0  0  0  0  0
    0.2821    1.5541   -2.0669 O   0  0  0  0  0  0  0  0  0  0  0  0
    1.6929    2.7295   -0.5383 C   0  0  0  0  0  0  0  0  0  0  0  0
    1.6511    4.2065   -0.3438 C   0  0  0  0  0  0  0  0  0  0  0  0
    0.6130    4.8356   -0.1747 O   0  0  0  0  0  0  0  0  0  0  0  0
    2.9259    2.1883   -0.4565 C   0  0  0  0  0  0  0  0  0  0  0  0
    3.2873    0.8140   -0.5743 C   0  0  0  0  0  0  0  0  0  0  0  0
    2.9821   -0.0051   -1.6367 C   0  0  0  0  0  0  0  0  0  0  0  0
    3.5243   -1.2376   -1.3873 N   0  0  0  0  0  0  0  0  0  0  0  0
    4.2041   -1.2259   -0.1902 C   0  0  0  0  0  0  0  0  0  0  0  0
    4.9145   -2.2465    0.4527 C   0  0  0  0  0  0  0  0  0  0  0  0
    5.5180   -1.9443    1.6768 C   0  0  0  0  0  0  0  0  0  0  0  0
    5.4150   -0.6719    2.2334 C   0  0  0  0  0  0  0  0  0  0  0  0
    4.6994    0.3373    1.5788 C   0  0  0  0  0  0  0  0  0  0  0  0
    4.0800    0.0597    0.3418 C   0  0  0  0  0  0  0  0  0  0  0  0
   -4.3727   -3.9899    0.2863 H   0  0  0  0  0  0  0  0  0  0  0  0
   -2.9733   -4.1778   -0.7772 H   0  0  0  0  0  0  0  0  0  0  0  0
   -4.4935   -3.6105   -1.4769 H   0  0  0  0  0  0  0  0  0  0  0  0
   -6.1659   -2.5329   -0.2530 H   0  0  0  0  0  0  0  0  0  0  0  0
   -7.7319   -0.7508    0.3345 H   0  0  0  0  0  0  0  0  0  0  0  0
   -6.9064    1.5158    0.9152 H   0  0  0  0  0  0  0  0  0  0  0  0
   -4.4791    1.9867    0.9043 H   0  0  0  0  0  0  0  0  0  0  0  0
    0.6387    0.0242    0.0482 H   0  0  0  0  0  0  0  0  0  0  0  0
    0.3758    1.2492    1.3032 H   0  0  0  0  0  0  0  0  0  0  0  0
   -0.4497    2.7907   -0.6439 H   0  0  0  0  0  0  0  0  0  0  0  0
   -0.5990    1.1494   -2.1603 H   0  0  0  0  0  0  0  0  0  0  0  0
    2.6264    4.7226   -0.3346 H   0  0  0  0  0  0  0  0  0  0  0  0
    3.7742    2.8395   -0.2473 H   0  0  0  0  0  0  0  0  0  0  0  0
    2.4273    0.1773   -2.5480 H   0  0  0  0  0  0  0  0  0  0  0  0
    3.4510   -2.0392   -1.9983 H   0  0  0  0  0  0  0  0  0  0  0  0
    4.9976   -3.2390    0.0221 H   0  0  0  0  0  0  0  0  0  0  0  0
    6.0766   -2.7159    2.2016 H   0  0  0  0  0  0  0  0  0  0  0  0
    5.8917   -0.4594    3.1870 H   0  0  0  0  0  0  0  0  0  0  0  0
    4.6218    1.3236    2.0257 H   0  0  0  0  0  0  0  0  0  0  0  0
  1  2  1  0
  2  3  1  0
  3  4  2  0
  4  5  1  0
  5  6  2  0
  6  7  1  0
  7  8  2  0
  8  9  1  0
  9 10  3  0
 10 11  1  0
 11 12  1  0
 12 13  1  0
 12 14  1  0
 14 15  1  0
 15 16  2  0
 14 17  2  0
 17 18  1  0
 18 19  2  0
 19 20  1  0
 20 21  1  0
 21 22  2  0
 22 23  1  0
 23 24  2  0
 24 25  1  0
 25 26  2  0
  8  3  1  0
 26 18  1  0
 26 21  1  0
  1 27  1  0
  1 28  1  0
  1 29  1  0
  4 30  1  0
  5 31  1  0
  6 32  1  0
  7 33  1  0
 11 34  1  0
 11 35  1  0
 12 36  1  0
 13 37  1  0
 15 38  1  0
 17 39  1  0
 19 40  1  0
 20 41  1  0
 22 42  1  0
 23 43  1  0
 24 44  1  0
 25 45  1  0
M  END
$$$$
