MODEL        5USER    Run = 5USERUSER    Estimated Free Energy of Binding    =  -7.63 kcal/mol  [=(1)+(2)+(3)-(4)]USERUSER    (1) Final Intermolecular Energy     =  -9.12 kcal/molUSER        vdW + Hbond + desolv Energy     =  -9.06 kcal/molUSER        Electrostatic Energy            =  -0.06 kcal/molUSER        Moving Ligand-Fixed Receptor    =  -9.12 kcal/molUSER        Moving Ligand-Moving Receptor   =  +0.00 kcal/molUSER    (2) Final Total Internal Energy     =  -1.24 kcal/molUSER    (3) Torsional Free Energy           =  +1.49 kcal/molUSER    (4) Unbound System's Energy         =  -1.24 kcal/molUSERUSERREMARK SMILES COc1ccc(O)c(C(=O)c2ccc(-c3nc4ccccc4[nH]3)cc2)c1FREMARK SMILES IDX 9 1 10 2 8 3 3 4 4 5 26 6 5 7 6 8 27 9 2 10 1 11 7 12 11 14REMARK SMILES IDX 12 15 25 16 13 17 24 18 14 19 15 20 16 21 23 22 17 23 22 24REMARK SMILES IDX 18 25 21 26 19 27 20 28REMARK H PARENT 7 13 23 29USER                              x       y       z     vdW  Elec       q    TypeUSER                           _______ _______ _______ _____ _____    ______ ____ROOTATOM      1  C   UNL     1      17.440 -14.045  -8.198 -0.28 -0.02    +0.199 C  ATOM      2  O   UNL     1      18.438 -14.577  -7.710 -0.20 -0.00    -0.288 OA ENDROOTBRANCH   1   3ATOM      3  C   UNL     1      16.837 -12.908  -7.466 -0.32 -0.02    +0.104 A  ATOM      4  C   UNL     1      15.610 -10.800  -7.412 -0.41 -0.05    +0.155 A  ATOM      5  C   UNL     1      15.703 -10.782  -6.020 -0.52 -0.02    +0.053 A  ATOM      6  C   UNL     1      16.186 -11.864  -8.124 -0.30 -0.05    +0.179 A  ATOM      7  C   UNL     1      16.381 -11.805  -5.351 -0.49 -0.01    +0.051 A  ATOM      8  C   UNL     1      16.955 -12.850  -6.071 -0.33 -0.02    +0.130 A  ATOM      9  F   UNL     1      16.117 -11.849  -9.465 -0.09 +0.06    -0.202 F  BRANCH   4  10ATOM     10  O   UNL     1      14.984  -9.851  -8.177 -0.29 +0.18    -0.494 OA ATOM     11  C   UNL     1      15.807  -9.027  -8.994 -0.45 -0.08    +0.278 C  ENDBRANCH   4  10BRANCH   8  12ATOM     12  O   UNL     1      17.626 -13.794  -5.340 -0.14 -0.03    -0.507 OA ATOM     13  H   UNL     1      18.137 -14.355  -5.968 +0.20 +0.03    +0.293 HD ENDBRANCH   8  12ENDBRANCH   1   3BRANCH   1  14ATOM     14  C   UNL     1      16.869 -14.602  -9.447 -0.35 -0.00    +0.023 A  ATOM     15  C   UNL     1      15.862 -15.563  -9.347 -0.31 -0.00    +0.013 A  ATOM     16  C   UNL     1      17.263 -14.142 -10.707 -0.43 -0.00    +0.013 A  ATOM     17  C   UNL     1      15.282 -16.092 -10.505 -0.32 -0.00    +0.013 A  ATOM     18  C   UNL     1      16.681 -14.676 -11.864 -0.47 -0.00    +0.013 A  ATOM     19  C   UNL     1      15.690 -15.666 -11.779 -0.34 -0.00    +0.017 A  BRANCH  19  20ATOM     20  C   UNL     1      15.058 -16.256 -12.964 -0.27 -0.04    +0.138 A  ATOM     21  N   UNL     1      14.293 -17.334 -12.976 -0.19 +0.05    -0.229 NA ATOM     22  N   UNL     1      15.199 -15.771 -14.247 -0.12 +0.17    -0.338 N  ATOM     23  C   UNL     1      13.925 -17.534 -14.283 -0.29 -0.02    +0.089 A  ATOM     24  C   UNL     1      14.482 -16.565 -15.104 -0.36 -0.02    +0.066 A  ATOM     25  C   UNL     1      13.115 -18.531 -14.846 -0.30 -0.00    +0.030 A  ATOM     26  C   UNL     1      14.283 -16.522 -16.486 -0.43 +0.00    +0.028 A  ATOM     27  C   UNL     1      12.897 -18.512 -16.230 -0.37 +0.00    +0.002 A  ATOM     28  C   UNL     1      13.472 -17.523 -17.033 -0.41 +0.00    +0.002 A  ATOM     29  H   UNL     1      15.753 -14.975 -14.516 -0.49 -0.14    +0.168 HD ENDBRANCH  19  20ENDBRANCH   1  14TORSDOF 5TERENDMDL