REMARK SMILES CC(C)[C@@H](NC(=O)Nc1ccc(-c2nc3ccccc3[nH]2)cc1)C(F)(F)F
REMARK SMILES IDX 5 1 6 2 7 3 8 4 4 7 2 8 1 9 3 10 24 11 25 12 26 13 27 14
REMARK SMILES IDX 9 15 10 16 23 17 11 18 22 19 12 20 13 21 14 22 21 23 15 24
REMARK SMILES IDX 20 25 16 26 19 27 17 28 18 29
REMARK H PARENT 5 5 8 6 21 30
ROOT
ATOM      1  N   UNL     1      -3.698   0.537   1.202  1.00  0.00    -0.326 N 
ATOM      2  C   UNL     1      -2.563  -0.136   0.807  1.00  0.00     0.319 C 
ATOM      3  O   UNL     1      -2.606  -1.272   0.359  1.00  0.00    -0.248 OA
ATOM      4  N   UNL     1      -1.439   0.635   1.003  1.00  0.00    -0.308 N 
ATOM      5  H   UNL     1      -3.642   1.539   1.313  1.00  0.00     0.166 HD
ATOM      6  H   UNL     1      -1.561   1.444   1.592  1.00  0.00     0.171 HD
ENDROOT
BRANCH   1   7
ATOM      7  C   UNL     1      -5.046  -0.061   1.089  1.00  0.00     0.191 C 
BRANCH   7   8
ATOM      8  C   UNL     1      -5.764   0.380  -0.219  1.00  0.00     0.014 C 
ATOM      9  C   UNL     1      -5.972   1.893  -0.341  1.00  0.00     0.010 C 
ATOM     10  C   UNL     1      -5.046  -0.137  -1.471  1.00  0.00     0.010 C 
ENDBRANCH   7   8
BRANCH   7  11
ATOM     11  C   UNL     1      -5.899   0.216   2.344  1.00  0.00     0.408 C 
ATOM     12  F   UNL     1      -7.147  -0.285   2.223  1.00  0.00    -0.169 F 
ATOM     13  F   UNL     1      -6.008   1.544   2.585  1.00  0.00    -0.169 F 
ATOM     14  F   UNL     1      -5.343  -0.339   3.446  1.00  0.00    -0.169 F 
ENDBRANCH   7  11
ENDBRANCH   1   7
BRANCH   4  15
ATOM     15  C   UNL     1      -0.115   0.328   0.630  1.00  0.00     0.042 A 
ATOM     16  C   UNL     1       0.236  -0.759  -0.168  1.00  0.00     0.027 A 
ATOM     17  C   UNL     1       0.895   1.189   1.074  1.00  0.00     0.027 A 
ATOM     18  C   UNL     1       1.577  -0.986  -0.506  1.00  0.00     0.014 A 
ATOM     19  C   UNL     1       2.236   0.959   0.739  1.00  0.00     0.014 A 
ATOM     20  C   UNL     1       2.596  -0.138  -0.053  1.00  0.00     0.017 A 
BRANCH  20  21
ATOM     21  C   UNL     1       3.985  -0.421  -0.432  1.00  0.00     0.138 A 
ATOM     22  N   UNL     1       4.374  -1.251  -1.385  1.00  0.00    -0.229 NA
ATOM     23  N   UNL     1       5.088   0.132   0.182  1.00  0.00    -0.338 N 
ATOM     24  C   UNL     1       5.745  -1.217  -1.392  1.00  0.00     0.089 A 
ATOM     25  C   UNL     1       6.222  -0.354  -0.415  1.00  0.00     0.066 A 
ATOM     26  C   UNL     1       6.658  -1.901  -2.206  1.00  0.00     0.030 A 
ATOM     27  C   UNL     1       7.580  -0.124  -0.188  1.00  0.00     0.028 A 
ATOM     28  C   UNL     1       8.028  -1.690  -2.004  1.00  0.00     0.002 A 
ATOM     29  C   UNL     1       8.478  -0.816  -1.011  1.00  0.00     0.002 A 
ATOM     30  H   UNL     1       5.067   0.774   0.958  1.00  0.00     0.168 HD
ENDBRANCH  20  21
ENDBRANCH   4  15
TORSDOF 5
