MODEL        6USER    Run = 6USERUSER    Estimated Free Energy of Binding    =  -7.81 kcal/mol  [=(1)+(2)+(3)-(4)]USERUSER    (1) Final Intermolecular Energy     = -11.09 kcal/molUSER        vdW + Hbond + desolv Energy     = -11.66 kcal/molUSER        Electrostatic Energy            =  -0.18 kcal/molUSER        Moving Ligand-Fixed Receptor    = -11.84 kcal/molUSER        Moving Ligand-Moving Receptor   =  +0.75 kcal/molUSER    (2) Final Total Internal Energy     =  -1.07 kcal/molUSER    (3) Torsional Free Energy           =  +3.28 kcal/molUSER    (4) Unbound System's Energy         =  -1.07 kcal/molUSERUSERREMARK SMILES O=C(N[C@H]1CNCCC[C@H]1NC(=O)c1ccc(-c2nc3ccccc3[nH]2)cc1Br)c1ccncc1REMARK SMILES IDX 10 1 4 2 3 4 2 5 1 6 30 8 31 9 35 10 32 11 34 12 33 13 9 14REMARK SMILES IDX 8 15 7 16 6 17 5 19 11 21 12 22 13 24 14 25 15 26 28 27REMARK SMILES IDX 16 28 27 29 17 30 29 31 18 32 19 33 26 34 20 35 25 36 21 37REMARK SMILES IDX 24 38 22 39 23 40REMARK H PARENT 3 7 6 18 11 23 26 41REMARK Flexibility Score:   92.900USER                              x       y       z     vdW  Elec       q    TypeUSER                           _______ _______ _______ _____ _____    ______ ____ROOTATOM      1  C   UNL     1      15.099 -14.547 -11.377 -0.32 -0.03    +0.106 C  ENDROOTBRANCH   1   2ATOM      2  C   UNL     1      16.425 -13.756 -11.249 -0.38 -0.03    +0.118 CG0ATOM      3  G   UNL     1      17.672 -14.616 -10.951 +0.00 +0.00    +0.000 G0 BRANCH   2   4ATOM      4  N   UNL     1      16.291 -12.696 -10.229 -0.13 +0.09    -0.346 N  ATOM      5  C   UNL     1      16.150 -12.990  -8.890 -0.27 -0.07    +0.251 C  ATOM      6  O   UNL     1      16.243 -14.126  -8.442 -0.24 +0.07    -0.269 OA ATOM      7  H   UNL     1      16.183 -11.747 -10.560 +0.13 -0.04    +0.164 HD BRANCH   5   8ATOM      8  C   UNL     1      15.913 -11.844  -7.973 -0.41 -0.01    +0.042 A  ATOM      9  C   UNL     1      15.998 -11.963  -6.585 -0.44 -0.01    +0.034 A  ATOM     10  C   UNL     1      15.618 -10.602  -8.540 -0.53 -0.01    +0.034 A  ATOM     11  C   UNL     1      15.759 -10.831  -5.824 -0.43 -0.04    +0.112 A  ATOM     12  C   UNL     1      15.396  -9.534  -7.692 -0.61 -0.04    +0.112 A  ATOM     13  N   UNL     1      15.453  -9.625  -6.347 -0.42 +0.10    -0.265 NA ENDBRANCH   5   8ENDBRANCH   2   4ENDBRANCH   1   2BRANCH   1  14ATOM     14  C   UNL     1      14.796 -15.450 -10.167 -0.37 -0.01    +0.028 C  BRANCH  14  15ATOM     15  C   UNL     1      15.484 -16.822 -10.148 -0.39 -0.00    +0.017 C  BRANCH  15  16ATOM     16  C   UNL     1      17.003 -16.798  -9.958 -0.28 -0.00    +0.081 C  BRANCH  16  17ATOM     17  N   UNL     1      17.624 -15.487  -9.785 -0.14 +0.03    -0.315 NA ATOM     18  H   UNL     1      18.542 -15.577  -9.347 +0.08 -0.00    +0.122 HD BRANCH  17  19ATOM     19  C   UNL     1      17.676 -14.616 -10.950 -0.24 -0.02    +0.108 CG0ATOM     20  G   UNL     1      16.431 -13.751 -11.240 +0.00 +0.00    +0.000 G0 ENDBRANCH  17  19ENDBRANCH  16  17ENDBRANCH  15  16ENDBRANCH  14  15ENDBRANCH   1  14BRANCH   1  21ATOM     21  N   UNL     1      13.993 -13.609 -11.607 -0.10 +0.15    -0.347 N  ATOM     22  C   UNL     1      12.709 -14.003 -11.889 -0.18 -0.11    +0.252 C  ATOM     23  H   UNL     1      14.218 -12.619 -11.592 +0.11 -0.07    +0.164 HD ATOM     24  O   UNL     1      12.376 -15.178 -12.002 -0.16 +0.07    -0.269 OA BRANCH  22  25ATOM     25  C   UNL     1      11.714 -12.924 -12.136 -0.32 -0.02    +0.054 A  ATOM     26  C   UNL     1      11.932 -11.722 -11.443 -0.42 -0.01    +0.016 A  ATOM     27  C   UNL     1      10.613 -13.015 -12.997 -0.30 -0.01    +0.031 A  ATOM     28  C   UNL     1      11.052 -10.641 -11.575 -0.51 -0.01    +0.013 A  ATOM     29  C   UNL     1       9.734 -11.929 -13.122 -0.31 -0.01    +0.028 A  ATOM     30  C   UNL     1       9.934 -10.735 -12.409 -0.50 -0.01    +0.018 A  ATOM     31  Br  UNL     1      10.240 -14.525 -14.093 -0.52 +0.01    -0.050 Br BRANCH  30  32ATOM     32  C   UNL     1       8.972  -9.639 -12.575 -0.35 -0.05    +0.138 A  ATOM     33  N   UNL     1       8.650  -8.755 -11.645 -0.70 +0.01    -0.229 NA ATOM     34  N   UNL     1       8.284  -9.364 -13.737 -0.14 +0.19    -0.338 N  ATOM     35  C   UNL     1       7.740  -7.903 -12.219 -0.17 -0.02    +0.089 A  ATOM     36  C   UNL     1       7.494  -8.262 -13.537 -0.21 -0.01    +0.066 A  ATOM     37  C   UNL     1       7.081  -6.792 -11.675 -0.36 -0.01    +0.030 A  ATOM     38  C   UNL     1       6.615  -7.567 -14.371 -0.23 +0.00    +0.028 A  ATOM     39  C   UNL     1       6.191  -6.076 -12.488 -0.26 -0.00    +0.002 A  ATOM     40  C   UNL     1       5.965  -6.460 -13.814 -0.21 -0.00    +0.002 A  ATOM     41  H   UNL     1       8.360  -9.875 -14.603 -0.45 -0.23    +0.168 HD ENDBRANCH  30  32ENDBRANCH  22  25ENDBRANCH   1  21TORSDOF 5TERENDMDL