REMARK SMILES COc1ccc(O)c(C(=O)c2ccc(-c3nc4ccccc4[nH]3)cc2)c1F
REMARK SMILES IDX 9 1 10 2 8 3 3 4 4 5 26 6 5 7 6 8 27 9 2 10 1 11 7 12 11 14
REMARK SMILES IDX 12 15 25 16 13 17 24 18 14 19 15 20 16 21 23 22 17 23 22 24
REMARK SMILES IDX 18 25 21 26 19 27 20 28
REMARK H PARENT 7 13 23 29
ROOT
ATOM      1  C   UNL     1      -1.957   2.406  -0.185  1.00  0.00     0.199 C 
ATOM      2  O   UNL     1      -1.994   3.608   0.081  1.00  0.00    -0.288 OA
ENDROOT
BRANCH   1   3
ATOM      3  C   UNL     1      -3.198   1.772  -0.684  1.00  0.00     0.104 A 
ATOM      4  C   UNL     1      -4.363   0.084  -2.006  1.00  0.00     0.155 A 
ATOM      5  C   UNL     1      -5.589   0.604  -1.587  1.00  0.00     0.053 A 
ATOM      6  C   UNL     1      -3.176   0.680  -1.553  1.00  0.00     0.179 A 
ATOM      7  C   UNL     1      -5.625   1.717  -0.743  1.00  0.00     0.051 A 
ATOM      8  C   UNL     1      -4.439   2.303  -0.308  1.00  0.00     0.130 A 
ATOM      9  F   UNL     1      -2.005   0.190  -1.992  1.00  0.00    -0.202 F 
BRANCH   4  10
ATOM     10  O   UNL     1      -4.201  -0.991  -2.839  1.00  0.00    -0.494 OA
ATOM     11  C   UNL     1      -5.377  -1.571  -3.390  1.00  0.00     0.278 C 
ENDBRANCH   4  10
BRANCH   8  12
ATOM     12  O   UNL     1      -4.565   3.407   0.492  1.00  0.00    -0.507 OA
ATOM     13  H   UNL     1      -3.683   3.841   0.549  1.00  0.00     0.293 HD
ENDBRANCH   8  12
ENDBRANCH   1   3
BRANCH   1  14
ATOM     14  C   UNL     1      -0.702   1.656   0.060  1.00  0.00     0.023 A 
ATOM     15  C   UNL     1       0.514   2.296  -0.186  1.00  0.00     0.013 A 
ATOM     16  C   UNL     1      -0.708   0.363   0.591  1.00  0.00     0.013 A 
ATOM     17  C   UNL     1       1.718   1.628   0.058  1.00  0.00     0.013 A 
ATOM     18  C   UNL     1       0.501  -0.303   0.832  1.00  0.00     0.013 A 
ATOM     19  C   UNL     1       1.730   0.317   0.559  1.00  0.00     0.017 A 
BRANCH  19  20
ATOM     20  C   UNL     1       3.019  -0.345   0.792  1.00  0.00     0.138 A 
ATOM     21  N   UNL     1       4.200   0.248   0.808  1.00  0.00    -0.229 NA
ATOM     22  N   UNL     1       3.174  -1.698   1.005  1.00  0.00    -0.338 N 
ATOM     23  C   UNL     1       5.125  -0.737   1.050  1.00  0.00     0.089 A 
ATOM     24  C   UNL     1       4.506  -1.972   1.177  1.00  0.00     0.066 A 
ATOM     25  C   UNL     1       6.519  -0.651   1.172  1.00  0.00     0.030 A 
ATOM     26  C   UNL     1       5.201  -3.158   1.422  1.00  0.00     0.028 A 
ATOM     27  C   UNL     1       7.243  -1.824   1.419  1.00  0.00     0.002 A 
ATOM     28  C   UNL     1       6.592  -3.055   1.542  1.00  0.00     0.002 A 
ATOM     29  H   UNL     1       2.433  -2.380   1.013  1.00  0.00     0.168 HD
ENDBRANCH  19  20
ENDBRANCH   1  14
TORSDOF 5
