MODEL        9USER    Run = 9USERUSER    Estimated Free Energy of Binding    =  -8.64 kcal/mol  [=(1)+(2)+(3)-(4)]USERUSER    (1) Final Intermolecular Energy     = -11.32 kcal/molUSER        vdW + Hbond + desolv Energy     = -10.70 kcal/molUSER        Electrostatic Energy            =  -0.62 kcal/molUSER        Moving Ligand-Fixed Receptor    = -11.32 kcal/molUSER        Moving Ligand-Moving Receptor   =  +0.00 kcal/molUSER    (2) Final Total Internal Energy     =  -1.01 kcal/molUSER    (3) Torsional Free Energy           =  +2.68 kcal/molUSER    (4) Unbound System's Energy         =  -1.01 kcal/molUSERUSERREMARK SMILES COc1ccc(O)c(C(=O)c2ccc(Nc3ncc(F)c(N[C@H]4CC[C@@H](O)CC4)n3)cc2)c1FREMARK SMILES IDX 15 1 14 3 11 4 12 5 32 6 13 7 31 8 9 9 10 10 8 11 3 12 4 13REMARK SMILES IDX 33 14 5 15 6 16 34 17 2 18 1 19 7 20 16 22 17 23 30 24 18 25REMARK SMILES IDX 21 26 19 27 20 28 22 29 23 31 29 32 24 33 28 34 25 35 26 36REMARK SMILES IDX 27 37REMARK H PARENT 15 2 7 21 22 30 27 38USER                              x       y       z     vdW  Elec       q    TypeUSER                           _______ _______ _______ _____ _____    ______ ____ROOTATOM      1  N   UNL     1      13.784 -13.452 -13.186 -0.15 +0.16    -0.324 N  ATOM      2  H   UNL     1      14.258 -12.919 -13.899 -0.46 -0.13    +0.170 HD ENDROOTBRANCH   1   3ATOM      3  C   UNL     1      12.402 -13.620 -13.329 -0.29 -0.02    +0.041 A  ATOM      4  C   UNL     1       9.586 -13.845 -13.510 -0.29 -0.00    +0.023 A  ATOM      5  C   UNL     1      10.166 -12.648 -13.093 -0.32 -0.01    +0.014 A  ATOM      6  C   UNL     1      10.407 -14.917 -13.867 -0.22 -0.00    +0.014 A  ATOM      7  C   UNL     1      11.559 -12.545 -12.997 -0.34 -0.01    +0.027 A  ATOM      8  C   UNL     1      11.800 -14.803 -13.768 -0.21 -0.01    +0.027 A  BRANCH   4   9ATOM      9  C   UNL     1       8.119 -13.999 -13.650 -0.28 +0.01    +0.199 C  ATOM     10  O   UNL     1       7.497 -14.627 -12.792 -0.18 -0.07    -0.288 OA BRANCH   9  11ATOM     11  C   UNL     1       7.357 -13.478 -14.809 -0.28 -0.01    +0.104 A  ATOM     12  C   UNL     1       6.038 -13.816 -16.832 -0.24 +0.02    +0.155 A  ATOM     13  C   UNL     1       5.912 -12.433 -16.977 -0.21 +0.01    +0.053 A  ATOM     14  C   UNL     1       6.768 -14.326 -15.749 -0.26 +0.01    +0.179 A  ATOM     15  C   UNL     1       6.526 -11.574 -16.061 -0.21 -0.00    +0.051 A  ATOM     16  C   UNL     1       7.253 -12.094 -14.994 -0.20 -0.04    +0.130 A  ATOM     17  F   UNL     1       6.914 -15.656 -15.641 -0.02 -0.03    -0.202 F  BRANCH  12  18ATOM     18  O   UNL     1       5.497 -14.754 -17.671 -0.19 -0.14    -0.494 OA ATOM     19  C   UNL     1       6.372 -15.386 -18.596 -0.23 +0.05    +0.278 C  ENDBRANCH  12  18BRANCH  16  20ATOM     20  O   UNL     1       7.846 -11.184 -14.161 -0.02 +0.26    -0.507 OA ATOM     21  H   UNL     1       8.616 -10.797 -14.638 -0.33 -0.59    +0.293 HD ENDBRANCH  16  20ENDBRANCH   9  11ENDBRANCH   4   9ENDBRANCH   1   3BRANCH   1  22ATOM     22  C   UNL     1      14.722 -13.892 -12.256 -0.16 -0.09    +0.229 A  ATOM     23  N   UNL     1      15.784 -14.631 -12.614 -0.32 +0.08    -0.218 NA ATOM     24  N   UNL     1      14.466 -13.529 -10.984 -0.21 +0.08    -0.192 NA ATOM     25  C   UNL     1      16.627 -15.005 -11.634 -0.31 -0.04    +0.158 A  ATOM     26  C   UNL     1      15.315 -13.927 -10.014 -0.23 -0.06    +0.168 A  ATOM     27  C   UNL     1      16.440 -14.675 -10.317 -0.25 -0.04    +0.183 A  ATOM     28  F   UNL     1      17.304 -15.078  -9.375 -0.08 +0.02    -0.201 F  BRANCH  26  29ATOM     29  N   UNL     1      15.108 -13.522  -8.684 -0.15 +0.19    -0.365 N  ATOM     30  H   UNL     1      14.148 -13.215  -8.552 +0.12 -0.16    +0.162 HD BRANCH  29  31ATOM     31  C   UNL     1      16.097 -12.630  -8.077 -0.41 -0.03    +0.081 C  ATOM     32  C   UNL     1      16.509 -11.508  -9.052 -0.49 -0.01    +0.027 C  ATOM     33  C   UNL     1      15.486 -12.078  -6.772 -0.49 -0.01    +0.027 C  ATOM     34  C   UNL     1      15.675 -10.246  -8.855 -0.64 -0.01    +0.034 C  ATOM     35  C   UNL     1      16.104 -10.738  -6.380 -0.59 -0.01    +0.034 C  ATOM     36  C   UNL     1      15.846  -9.669  -7.448 -0.64 -0.03    +0.114 C  BRANCH  36  37ATOM     37  O   UNL     1      14.661  -8.943  -7.131 -0.51 +0.20    -0.393 OA ATOM     38  H   UNL     1      14.566  -8.938  -6.163 -0.38 -0.17    +0.210 HD ENDBRANCH  36  37ENDBRANCH  29  31ENDBRANCH  26  29ENDBRANCH   1  22TORSDOF 9TERENDMDL