MODEL        9USER    Run = 9USERUSER    Estimated Free Energy of Binding    =  -6.96 kcal/mol  [=(1)+(2)+(3)-(4)]USERUSER    (1) Final Intermolecular Energy     =  -9.94 kcal/molUSER        vdW + Hbond + desolv Energy     =  -9.94 kcal/molUSER        Electrostatic Energy            =  -0.16 kcal/molUSER        Moving Ligand-Fixed Receptor    = -10.10 kcal/molUSER        Moving Ligand-Moving Receptor   =  +0.16 kcal/molUSER    (2) Final Total Internal Energy     =  -2.01 kcal/molUSER    (3) Torsional Free Energy           =  +2.98 kcal/molUSER    (4) Unbound System's Energy         =  -2.01 kcal/molUSERUSERREMARK SMILES O=C(c1ccncc1)N1CCC(Nc2c(F)cc(F)cc2[C@H]2CCCNc3ccccc3C2)CC1REMARK SMILES IDX 22 1 21 2 14 3 15 4 17 5 20 6 18 7 16 8 19 9 13 10 12 12REMARK SMILES IDX 2 13 9 14 10 15 35 16 11 17 34 18 1 19 3 20 4 21 8 22 5 23REMARK SMILES IDX 7 24 6 25 23 26 33 28 32 29 31 30 27 31 30 32 28 33 29 34REMARK SMILES IDX 26 35 25 37 24 38REMARK H PARENT 13 11 26 36REMARK Flexibility Score:  138.900USER                              x       y       z     vdW  Elec       q    TypeUSER                           _______ _______ _______ _____ _____    ______ ____ROOTATOM      1  C   UNL     1      10.925 -15.695 -14.803 -0.24 -0.00    +0.026 C  ENDROOTBRANCH   1   2ATOM      2  C   UNL     1      10.445 -14.318 -14.305 -0.23 +0.00    -0.015 A  ATOM      3  C   UNL     1      11.299 -13.355 -13.704 -0.23 -0.04    +0.074 A  ATOM      4  C   UNL     1      10.713 -12.142 -13.270 -0.23 -0.09    +0.149 A  ATOM      5  C   UNL     1       9.355 -11.876 -13.413 -0.17 -0.05    +0.080 A  ATOM      6  C   UNL     1       9.069 -14.029 -14.452 -0.25 -0.01    +0.045 A  ATOM      7  C   UNL     1       8.545 -12.824 -14.006 -0.20 -0.04    +0.126 A  ATOM      8  F   UNL     1      11.457 -11.176 -12.705 -0.13 +0.12    -0.205 F  ATOM      9  F   UNL     1       7.237 -12.578 -14.156 -0.05 -0.01    -0.207 F  BRANCH   3  10ATOM     10  N   UNL     1      12.674 -13.646 -13.620 -0.11 +0.18    -0.380 N  ATOM     11  H   UNL     1      13.079 -13.462 -14.541 -0.36 -0.11    +0.160 HD BRANCH  10  12ATOM     12  C   UNL     1      13.532 -13.100 -12.558 -0.24 -0.04    +0.082 C  ATOM     13  C   UNL     1      16.024 -12.902  -9.160 -0.27 -0.08    +0.253 C  ATOM     14  N   UNL     1      15.086 -13.111 -10.174 -0.13 +0.14    -0.338 N  ATOM     15  C   UNL     1      15.297 -14.237 -11.075 -0.31 -0.04    +0.122 C  ATOM     16  C   UNL     1      13.733 -12.551 -10.132 -0.27 -0.09    +0.122 C  ATOM     17  C   UNL     1      14.836 -13.924 -12.497 -0.35 -0.02    +0.046 C  ATOM     18  C   UNL     1      12.816 -13.129 -11.205 -0.36 -0.03    +0.046 C  ATOM     19  O   UNL     1      17.018 -13.605  -8.994 -0.22 +0.05    -0.269 OA BRANCH  13  20ATOM     20  C   UNL     1      15.825 -11.779  -8.220 -0.41 -0.01    +0.043 A  ATOM     21  C   UNL     1      15.884 -10.458  -8.661 -0.55 -0.01    +0.034 A  ATOM     22  C   UNL     1      15.652 -12.062  -6.867 -0.42 -0.01    +0.034 A  ATOM     23  C   UNL     1      15.712  -9.464  -7.718 -0.60 -0.03    +0.112 A  ATOM     24  C   UNL     1      15.492 -10.995  -6.006 -0.47 -0.04    +0.112 A  ATOM     25  N   UNL     1      15.504  -9.702  -6.404 -0.43 +0.10    -0.265 NA ENDBRANCH  13  20ENDBRANCH  10  12ENDBRANCH   3  10ENDBRANCH   1   2BRANCH   1  26ATOM     26  C   UNL     1      11.880 -15.531 -16.010 -0.33 -0.00    +0.010 CG0ATOM     27  G   UNL     1      11.755 -16.487 -17.200 +0.00 +0.00    +0.000 G0 ENDBRANCH   1  26BRANCH   1  28ATOM     28  C   UNL     1      11.383 -16.603 -13.638 -0.28 -0.00    +0.046 C  BRANCH  28  29ATOM     29  C   UNL     1      12.800 -17.140 -13.784 -0.26 +0.00    -0.024 A  ATOM     30  C   UNL     1      13.738 -16.748 -12.803 -0.29 -0.00    +0.006 A  ATOM     31  C   UNL     1      13.216 -18.014 -14.812 -0.31 -0.00    +0.037 A  ATOM     32  C   UNL     1      15.041 -17.243 -12.799 -0.38 -0.00    +0.000 A  ATOM     33  C   UNL     1      14.523 -18.538 -14.760 +0.05 -0.01    +0.026 A  ATOM     34  C   UNL     1      15.430 -18.151 -13.772 -0.30 -0.00    +0.002 A  BRANCH  31  35ATOM     35  N   UNL     1      12.384 -18.459 -15.856 -0.08 -0.00    -0.385 N  ATOM     36  H   UNL     1      12.434 -19.471 -15.962 +0.08 -0.00    +0.160 HD BRANCH  35  37ATOM     37  C   UNL     1      12.548 -17.790 -17.139 -0.32 +0.03    +0.113 C  BRANCH  37  38ATOM     38  C   UNL     1      11.755 -16.487 -17.201 -0.31 +0.01    +0.022 CG0ATOM     39  G   UNL     1      11.878 -15.532 -16.010 +0.00 +0.00    +0.000 G0 ENDBRANCH  37  38ENDBRANCH  35  37ENDBRANCH  31  35ENDBRANCH  28  29ENDBRANCH   1  28TORSDOF 4TERENDMDL