MODEL        8USER    Run = 8USERUSER    Estimated Free Energy of Binding    =  -7.57 kcal/mol  [=(1)+(2)+(3)-(4)]USERUSER    (1) Final Intermolecular Energy     =  -9.06 kcal/molUSER        vdW + Hbond + desolv Energy     =  -9.03 kcal/molUSER        Electrostatic Energy            =  -0.03 kcal/molUSER        Moving Ligand-Fixed Receptor    =  -9.06 kcal/molUSER        Moving Ligand-Moving Receptor   =  +0.00 kcal/molUSER    (2) Final Total Internal Energy     =  -0.96 kcal/molUSER    (3) Torsional Free Energy           =  +1.49 kcal/molUSER    (4) Unbound System's Energy         =  -0.96 kcal/molUSERUSERREMARK SMILES CC(C)[C@@H](NC(=O)Nc1ccc(-c2nc3ccccc3[nH]2)cc1)C(F)(F)FREMARK SMILES IDX 5 1 6 2 7 3 8 4 4 7 2 8 1 9 3 10 24 11 25 12 26 13 27 14REMARK SMILES IDX 9 15 10 16 23 17 11 18 22 19 12 20 13 21 14 22 21 23 15 24REMARK SMILES IDX 20 25 16 26 19 27 17 28 18 29REMARK H PARENT 5 5 8 6 21 30USER                              x       y       z     vdW  Elec       q    TypeUSER                           _______ _______ _______ _____ _____    ______ ____ROOTATOM      1  N   UNL     1      14.754 -16.163 -15.216 -0.22 +0.11    -0.326 N  ATOM      2  C   UNL     1      14.617 -15.807 -13.892 -0.21 -0.12    +0.319 C  ATOM      3  O   UNL     1      13.667 -16.174 -13.217 -0.14 +0.06    -0.248 OA ATOM      4  N   UNL     1      15.661 -15.005 -13.487 -0.19 +0.16    -0.308 N  ATOM      5  H   UNL     1      15.662 -16.059 -15.645 -0.38 -0.09    +0.166 HD ATOM      6  H   UNL     1      16.224 -14.614 -14.225 -0.42 -0.14    +0.171 HD ENDROOTBRANCH   1   7ATOM      7  C   UNL     1      13.773 -17.031 -15.902 -0.32 -0.00    +0.191 C  BRANCH   7   8ATOM      8  C   UNL     1      12.369 -16.365 -15.979 -0.33 -0.00    +0.014 C  ATOM      9  C   UNL     1      12.389 -14.913 -16.468 -0.46 -0.00    +0.010 C  ATOM     10  C   UNL     1      11.394 -17.178 -16.840 -0.33 +0.00    +0.010 C  ENDBRANCH   7   8BRANCH   7  11ATOM     11  C   UNL     1      13.717 -18.437 -15.270 -0.13 -0.04    +0.408 C  ATOM     12  F   UNL     1      13.606 -19.404 -16.206 -0.15 -0.00    -0.169 F  ATOM     13  F   UNL     1      12.666 -18.558 -14.424 -0.10 +0.02    -0.169 F  ATOM     14  F   UNL     1      14.833 -18.695 -14.549 -0.08 +0.05    -0.169 F  ENDBRANCH   7  11ENDBRANCH   1   7BRANCH   4  15ATOM     15  C   UNL     1      15.917 -14.528 -12.186 -0.41 -0.01    +0.042 A  ATOM     16  C   UNL     1      14.925 -14.271 -11.242 -0.30 -0.01    +0.027 A  ATOM     17  C   UNL     1      17.255 -14.328 -11.826 -0.49 -0.01    +0.027 A  ATOM     18  C   UNL     1      15.267 -13.811  -9.963 -0.34 -0.01    +0.014 A  ATOM     19  C   UNL     1      17.595 -13.864 -10.548 -0.39 -0.00    +0.014 A  ATOM     20  C   UNL     1      16.602 -13.593  -9.599 -0.36 -0.00    +0.017 A  BRANCH  20  21ATOM     21  C   UNL     1      16.907 -13.108  -8.248 -0.29 -0.03    +0.138 A  ATOM     22  N   UNL     1      17.970 -13.429  -7.531 -0.19 +0.01    -0.229 NA ATOM     23  N   UNL     1      16.098 -12.256  -7.526 -0.16 +0.11    -0.338 N  ATOM     24  C   UNL     1      17.849 -12.762  -6.339 -0.36 -0.00    +0.089 A  ATOM     25  C   UNL     1      16.679 -12.015  -6.308 -0.41 -0.01    +0.066 A  ATOM     26  C   UNL     1      18.701 -12.745  -5.227 -0.47 +0.00    +0.030 A  ATOM     27  C   UNL     1      16.292 -11.237  -5.216 -0.51 -0.01    +0.028 A  ATOM     28  C   UNL     1      18.341 -11.973  -4.115 -0.46 +0.00    +0.002 A  ATOM     29  C   UNL     1      17.156 -11.233  -4.113 -0.56 +0.00    +0.002 A  ATOM     30  H   UNL     1      15.213 -11.886  -7.833 +0.13 -0.08    +0.168 HD ENDBRANCH  20  21ENDBRANCH   4  15TORSDOF 5TERENDMDL