REMARK SMILES O=C(c1ccncc1)N1CCC(Nc2c(F)cc(F)cc2[C@H]2CCCNc3ccccc3C2)CC1
REMARK SMILES IDX 22 1 21 2 14 3 15 4 17 5 20 6 18 7 16 8 19 9 13 10 12 12
REMARK SMILES IDX 2 13 9 14 10 15 35 16 11 17 34 18 1 19 3 20 4 21 8 22 5 23
REMARK SMILES IDX 7 24 6 25 23 26 33 28 32 29 31 30 27 31 30 32 28 33 29 34
REMARK SMILES IDX 26 35 25 37 24 38
REMARK H PARENT 13 11 26 36
REMARK Flexibility Score:  138.900
ROOT
ATOM      1  C   UNL     1      -3.023  -0.419   0.889  1.00  0.00     0.026 C 
ENDROOT
BRANCH   1   2
ATOM      2  C   UNL     1      -2.027  -1.074   1.866  1.00  0.00    -0.015 A 
ATOM      3  C   UNL     1      -0.647  -0.742   1.926  1.00  0.00     0.074 A 
ATOM      4  C   UNL     1       0.155  -1.445   2.856  1.00  0.00     0.149 A 
ATOM      5  C   UNL     1      -0.361  -2.431   3.691  1.00  0.00     0.080 A 
ATOM      6  C   UNL     1      -2.538  -2.071   2.727  1.00  0.00     0.045 A 
ATOM      7  C   UNL     1      -1.707  -2.733   3.619  1.00  0.00     0.126 A 
ATOM      8  F   UNL     1       1.466  -1.179   2.983  1.00  0.00    -0.205 F 
ATOM      9  F   UNL     1      -2.218  -3.676   4.422  1.00  0.00    -0.207 F 
BRANCH   3  10
ATOM     10  N   UNL     1      -0.175   0.293   1.096  1.00  0.00    -0.380 N 
ATOM     11  H   UNL     1      -0.649   1.153   1.384  1.00  0.00     0.160 HD
BRANCH  10  12
ATOM     12  C   UNL     1       1.258   0.539   0.879  1.00  0.00     0.082 C 
ATOM     13  C   UNL     1       4.888   1.492  -1.048  1.00  0.00     0.253 C 
ATOM     14  N   UNL     1       3.637   1.071  -0.589  1.00  0.00    -0.338 N 
ATOM     15  C   UNL     1       2.475   1.874  -0.949  1.00  0.00     0.122 C 
ATOM     16  C   UNL     1       3.373  -0.300  -0.146  1.00  0.00     0.122 C 
ATOM     17  C   UNL     1       1.430   1.896   0.164  1.00  0.00     0.046 C 
ATOM     18  C   UNL     1       1.888  -0.586   0.053  1.00  0.00     0.046 C 
ATOM     19  O   UNL     1       5.063   2.502  -1.725  1.00  0.00    -0.269 OA
BRANCH  13  20
ATOM     20  C   UNL     1       6.081   0.686  -0.714  1.00  0.00     0.043 A 
ATOM     21  C   UNL     1       6.424   0.432   0.613  1.00  0.00     0.034 A 
ATOM     22  C   UNL     1       6.903   0.247  -1.750  1.00  0.00     0.034 A 
ATOM     23  C   UNL     1       7.567  -0.308   0.845  1.00  0.00     0.112 A 
ATOM     24  C   UNL     1       8.025  -0.483  -1.410  1.00  0.00     0.112 A 
ATOM     25  N   UNL     1       8.367  -0.782  -0.136  1.00  0.00    -0.265 NA
ENDBRANCH  13  20
ENDBRANCH  10  12
ENDBRANCH   3  10
ENDBRANCH   1   2
BRANCH   1  26
ATOM     26  C   UNL     1      -3.410   0.997   1.381  1.00  0.00     0.010 CG0
ATOM     27  G   UNL     1      -3.144   2.203   0.476  1.00  0.00     0.000 G0
ENDBRANCH   1  26
BRANCH   1  28
ATOM     28  C   UNL     1      -2.576  -0.575  -0.583  1.00  0.00     0.046 C 
BRANCH  28  29
ATOM     29  C   UNL     1      -3.722  -0.760  -1.568  1.00  0.00    -0.024 A 
ATOM     30  C   UNL     1      -3.691  -1.919  -2.376  1.00  0.00     0.006 A 
ATOM     31  C   UNL     1      -4.808   0.132  -1.700  1.00  0.00     0.037 A 
ATOM     32  C   UNL     1      -4.728  -2.224  -3.255  1.00  0.00     0.000 A 
ATOM     33  C   UNL     1      -5.867  -0.221  -2.560  1.00  0.00     0.026 A 
ATOM     34  C   UNL     1      -5.826  -1.380  -3.337  1.00  0.00     0.002 A 
BRANCH  31  35
ATOM     35  N   UNL     1      -4.942   1.328  -0.970  1.00  0.00    -0.385 N 
ATOM     36  H   UNL     1      -5.764   1.851  -1.268  1.00  0.00     0.160 HD
BRANCH  35  37
ATOM     37  C   UNL     1      -3.767   2.185  -0.918  1.00  0.00     0.113 C 
BRANCH  37  38
ATOM     38  C   UNL     1      -3.144   2.203   0.476  1.00  0.00     0.022 CG0
ATOM     39  G   UNL     1      -3.410   0.997   1.381  1.00  0.00     0.000 G0
ENDBRANCH  37  38
ENDBRANCH  35  37
ENDBRANCH  31  35
ENDBRANCH  28  29
ENDBRANCH   1  28
TORSDOF 4
