REMARK SMILES O=C(N[C@H]1CNCCC[C@H]1NC(=O)c1ccc(-c2nc3ccccc3[nH]2)cc1Br)c1ccncc1
REMARK SMILES IDX 10 1 4 2 3 4 2 5 1 6 30 8 31 9 35 10 32 11 34 12 33 13 9 14
REMARK SMILES IDX 8 15 7 16 6 17 5 19 11 21 12 22 13 24 14 25 15 26 28 27
REMARK SMILES IDX 16 28 27 29 17 30 29 31 18 32 19 33 26 34 20 35 25 36 21 37
REMARK SMILES IDX 24 38 22 39 23 40
REMARK H PARENT 3 7 6 18 11 23 26 41
REMARK Flexibility Score:   92.900
ROOT
ATOM      1  C   UNL     1      -2.546  -2.270  -0.105  1.00  0.00     0.106 C 
ENDROOT
BRANCH   1   2
ATOM      2  C   UNL     1      -3.564  -1.379   0.650  1.00  0.00     0.118 CG0
ATOM      3  G   UNL     1      -5.037  -1.825   0.531  1.00  0.00     0.000 G0
BRANCH   2   4
ATOM      4  N   UNL     1      -3.429   0.027   0.219  1.00  0.00    -0.346 N 
ATOM      5  C   UNL     1      -3.723   1.077   1.062  1.00  0.00     0.251 C 
ATOM      6  O   UNL     1      -3.999   0.926   2.246  1.00  0.00    -0.269 OA
ATOM      7  H   UNL     1      -3.230   0.195  -0.758  1.00  0.00     0.164 HD
BRANCH   5   8
ATOM      8  C   UNL     1      -3.655   2.444   0.481  1.00  0.00     0.042 A 
ATOM      9  C   UNL     1      -3.885   2.697  -0.872  1.00  0.00     0.034 A 
ATOM     10  C   UNL     1      -3.373   3.507   1.341  1.00  0.00     0.034 A 
ATOM     11  C   UNL     1      -3.797   4.008  -1.308  1.00  0.00     0.112 A 
ATOM     12  C   UNL     1      -3.308   4.779   0.806  1.00  0.00     0.112 A 
ATOM     13  N   UNL     1      -3.507   5.050  -0.501  1.00  0.00    -0.265 NA
ENDBRANCH   5   8
ENDBRANCH   2   4
ENDBRANCH   1   2
BRANCH   1  14
ATOM     14  C   UNL     1      -2.978  -2.628  -1.539  1.00  0.00     0.028 C 
BRANCH  14  15
ATOM     15  C   UNL     1      -4.279  -3.430  -1.682  1.00  0.00     0.017 C 
BRANCH  15  16
ATOM     16  C   UNL     1      -4.777  -4.117  -0.407  1.00  0.00     0.081 C 
BRANCH  16  17
ATOM     17  N   UNL     1      -5.312  -3.251   0.641  1.00  0.00    -0.315 NA
ATOM     18  H   UNL     1      -5.065  -3.607   1.565  1.00  0.00     0.122 HD
BRANCH  17  19
ATOM     19  C   UNL     1      -5.037  -1.825   0.531  1.00  0.00     0.108 CG0
ATOM     20  G   UNL     1      -3.564  -1.379   0.650  1.00  0.00     0.000 G0
ENDBRANCH  17  19
ENDBRANCH  16  17
ENDBRANCH  15  16
ENDBRANCH  14  15
ENDBRANCH   1  14
BRANCH   1  21
ATOM     21  N   UNL     1      -1.234  -1.611  -0.113  1.00  0.00    -0.347 N 
ATOM     22  C   UNL     1      -0.056  -2.267  -0.373  1.00  0.00     0.252 C 
ATOM     23  H   UNL     1      -1.212  -0.625   0.127  1.00  0.00     0.164 HD
ATOM     24  O   UNL     1       0.008  -3.472  -0.594  1.00  0.00    -0.269 OA
BRANCH  22  25
ATOM     25  C   UNL     1       1.192  -1.459  -0.302  1.00  0.00     0.054 A 
ATOM     26  C   UNL     1       2.313  -2.112   0.235  1.00  0.00     0.016 A 
ATOM     27  C   UNL     1       1.327  -0.133  -0.733  1.00  0.00     0.031 A 
ATOM     28  C   UNL     1       3.538  -1.450   0.375  1.00  0.00     0.013 A 
ATOM     29  C   UNL     1       2.557   0.525  -0.587  1.00  0.00     0.028 A 
ATOM     30  C   UNL     1       3.673  -0.117  -0.025  1.00  0.00     0.018 A 
ATOM     31  Br  UNL     1      -0.057   0.856  -1.586  1.00  0.00    -0.050 Br
BRANCH  30  32
ATOM     32  C   UNL     1       4.929   0.630   0.111  1.00  0.00     0.138 A 
ATOM     33  N   UNL     1       5.164   1.832  -0.388  1.00  0.00    -0.229 NA
ATOM     34  N   UNL     1       6.037   0.188   0.802  1.00  0.00    -0.338 N 
ATOM     35  C   UNL     1       6.442   2.164  -0.014  1.00  0.00     0.089 A 
ATOM     36  C   UNL     1       7.014   1.148   0.739  1.00  0.00     0.066 A 
ATOM     37  C   UNL     1       7.184   3.324  -0.278  1.00  0.00     0.030 A 
ATOM     38  C   UNL     1       8.307   1.214   1.262  1.00  0.00     0.028 A 
ATOM     39  C   UNL     1       8.485   3.418   0.233  1.00  0.00     0.002 A 
ATOM     40  C   UNL     1       9.034   2.379   0.991  1.00  0.00     0.002 A 
ATOM     41  H   UNL     1       6.116  -0.689   1.293  1.00  0.00     0.168 HD
ENDBRANCH  30  32
ENDBRANCH  22  25
ENDBRANCH   1  21
TORSDOF 5
