MODEL        1USER    Run = 1USERUSER    Estimated Free Energy of Binding    =  -5.55 kcal/mol  [=(1)+(2)+(3)-(4)]USERUSER    (1) Final Intermolecular Energy     = -10.02 kcal/molUSER        vdW + Hbond + desolv Energy     = -10.07 kcal/molUSER        Electrostatic Energy            =  -0.15 kcal/molUSER        Moving Ligand-Fixed Receptor    = -10.22 kcal/molUSER        Moving Ligand-Moving Receptor   =  +0.20 kcal/molUSER    (2) Final Total Internal Energy     =  -2.78 kcal/molUSER    (3) Torsional Free Energy           =  +4.47 kcal/molUSER    (4) Unbound System's Energy         =  -2.78 kcal/molUSERUSERREMARK SMILES Cc1cc(Nc2ncc(Cl)c(N[C@H]3CC[C@@H](O)CC3)n2)ccc1C(=O)N[C@@H]1CCCNC[C@H]1NC(=O)c1ccncc1REMARK SMILES IDX 1 1 2 2 3 3 4 4 21 5 22 6 23 7 24 8 26 9 25 10 27 12 28 13REMARK SMILES IDX 29 14 33 16 32 17 31 18 30 20 34 22 35 23 36 25 37 26 38 27REMARK SMILES IDX 42 28 39 29 41 30 40 31 5 32 6 34 7 35 20 36 8 37 11 38 9 39REMARK SMILES IDX 10 40 12 41 13 43 19 44 14 45 18 46 15 47 16 48 17 49REMARK H PARENT 26 11 31 19 34 24 5 33 12 42 17 50REMARK Flexibility Score:  141.900USER                              x       y       z     vdW  Elec       q    TypeUSER                           _______ _______ _______ _____ _____    ______ ____ROOTATOM      1  C   UNL     1      -3.504   3.582  -6.754 -0.14 +0.01    +0.045 C  ATOM      2  C   UNL     1      -2.131   3.235  -6.254 -0.19 -0.00    -0.036 A  ATOM      3  C   UNL     1      -1.977   2.766  -4.934 -0.24 +0.00    +0.030 A  ATOM      4  C   UNL     1      -0.724   2.398  -4.405 -0.33 +0.00    +0.041 A  ATOM      5  C   UNL     1       0.389   2.503  -5.244 -0.36 +0.00    +0.027 A  ATOM      6  C   UNL     1       0.266   2.976  -6.554 -0.29 +0.00    +0.016 A  ATOM      7  C   UNL     1      -0.982   3.361  -7.051 -0.20 +0.00    +0.042 A  ENDROOTBRANCH   7   8ATOM      8  C   UNL     1      -1.022   3.896  -8.433 -0.10 +0.01    +0.251 C  ATOM      9  N   UNL     1      -0.708   5.231  -8.549 -0.09 +0.05    -0.347 N  ATOM     10  O   UNL     1      -1.277   3.159  -9.378 -0.04 -0.04    -0.269 OA ATOM     11  H   UNL     1      -0.549   5.776  -7.710 -0.38 -0.07    +0.164 HD BRANCH   9  12ATOM     12  C   UNL     1      -0.750   5.935  -9.831 -0.13 -0.01    +0.106 C  BRANCH  12  13ATOM     13  C   UNL     1      -2.217   6.044 -10.304 -0.22 -0.00    +0.028 C  BRANCH  13  14ATOM     14  C   UNL     1      -2.425   6.571 -11.723 -0.17 -0.00    +0.017 CG0ATOM     15  G   UNL     1      -2.177   5.545 -12.840 +0.00 +0.00    +0.000 G0 ENDBRANCH  13  14ENDBRANCH  12  13BRANCH  12  16ATOM     16  C   UNL     1       0.285   5.353 -10.844 -0.21 -0.01    +0.118 C  BRANCH  16  17ATOM     17  C   UNL     1       0.165   5.991 -12.257 -0.19 -0.01    +0.108 C  BRANCH  17  18ATOM     18  N   UNL     1      -0.775   5.390 -13.214 -0.02 +0.02    -0.315 NA ATOM     19  H   UNL     1      -0.624   5.835 -14.122 +0.02 -0.01    +0.122 HD BRANCH  18  20ATOM     20  C   UNL     1      -2.176   5.545 -12.840 -0.05 -0.00    +0.081 CG0ATOM     21  G   UNL     1      -2.422   6.573 -11.724 +0.00 +0.00    +0.000 G0 ENDBRANCH  18  20ENDBRANCH  17  18ENDBRANCH  16  17BRANCH  16  22ATOM     22  N   UNL     1       1.657   5.400 -10.300 -0.12 +0.02    -0.346 N  ATOM     23  C   UNL     1       2.250   4.273  -9.764 -0.18 -0.02    +0.251 C  ATOM     24  H   UNL     1       1.919   6.273  -9.856 +0.09 +0.01    +0.164 HD ATOM     25  O   UNL     1       1.738   3.159  -9.783 -0.09 +0.02    -0.269 OA BRANCH  23  26ATOM     26  C   UNL     1       3.561   4.481  -9.089 -0.36 -0.01    +0.042 A  ATOM     27  C   UNL     1       3.975   3.541  -8.146 -0.36 -0.01    +0.034 A  ATOM     28  C   UNL     1       4.383   5.571  -9.384 -0.48 -0.00    +0.034 A  ATOM     29  C   UNL     1       5.186   3.745  -7.513 -0.42 -0.02    +0.112 A  ATOM     30  C   UNL     1       5.578   5.684  -8.696 -0.53 +0.01    +0.112 A  ATOM     31  N   UNL     1       5.991   4.801  -7.762 -0.84 -0.05    -0.265 NA ENDBRANCH  23  26ENDBRANCH  16  22ENDBRANCH  12  16ENDBRANCH   9  12ENDBRANCH   7   8BRANCH   4  32ATOM     32  N   UNL     1      -0.670   1.927  -3.089 -0.21 -0.01    -0.324 N  ATOM     33  H   UNL     1       0.244   1.716  -2.715 +0.10 +0.01    +0.170 HD BRANCH  32  34ATOM     34  C   UNL     1      -1.628   1.617  -2.128 -0.25 +0.00    +0.229 A  ATOM     35  N   UNL     1      -1.406   1.796  -0.820 -0.24 +0.02    -0.220 NA ATOM     36  N   UNL     1      -2.777   1.119  -2.618 -0.23 -0.02    -0.194 NA ATOM     37  C   UNL     1      -2.400   1.451   0.021 -0.22 -0.01    +0.139 A  ATOM     38  C   UNL     1      -3.758   0.764  -1.764 -0.25 -0.00    +0.150 A  ATOM     39  C   UNL     1      -3.603   0.932  -0.394 -0.25 -0.01    +0.101 A  ATOM     40  Cl  UNL     1      -4.809   0.506   0.755 -0.33 +0.01    -0.079 Cl BRANCH  38  41ATOM     41  N   UNL     1      -4.982   0.290  -2.270 -0.10 +0.03    -0.366 N  ATOM     42  H   UNL     1      -5.345  -0.432  -1.652 -0.41 -0.06    +0.162 HD BRANCH  41  43ATOM     43  C   UNL     1      -5.134  -0.060  -3.685 -0.22 +0.01    +0.081 C  ATOM     44  C   UNL     1      -6.188  -1.158  -3.917 -0.26 +0.00    +0.027 C  ATOM     45  C   UNL     1      -5.299   1.167  -4.588 -0.16 +0.01    +0.027 C  ATOM     46  C   UNL     1      -6.980  -0.953  -5.206 -0.17 +0.01    +0.034 C  ATOM     47  C   UNL     1      -5.337   0.788  -6.069 -0.13 +0.01    +0.034 C  ATOM     48  C   UNL     1      -6.070  -0.528  -6.353 -0.15 +0.06    +0.114 C  BRANCH  48  49ATOM     49  O   UNL     1      -6.855  -0.400  -7.534 -0.02 -0.15    -0.393 OA ATOM     50  H   UNL     1      -7.792  -0.430  -7.270 +0.03 +0.05    +0.210 HD ENDBRANCH  48  49ENDBRANCH  41  43ENDBRANCH  38  41ENDBRANCH  32  34ENDBRANCH   4  32TORSDOF 9TERENDMDL