REMARK SMILES Cc1cc(Nc2ncc(Cl)c(N[C@H]3CC[C@@H](O)CC3)n2)ccc1C(=O)N[C@@H]1CCCNC[C@H]1NC(=O)c1ccncc1
REMARK SMILES IDX 1 1 2 2 3 3 4 4 21 5 22 6 23 7 24 8 26 9 25 10 27 12 28 13
REMARK SMILES IDX 29 14 33 16 32 17 31 18 30 20 34 22 35 23 36 25 37 26 38 27
REMARK SMILES IDX 42 28 39 29 41 30 40 31 5 32 6 34 7 35 20 36 8 37 11 38 9 39
REMARK SMILES IDX 10 40 12 41 13 43 19 44 14 45 18 46 15 47 16 48 17 49
REMARK H PARENT 26 11 31 19 34 24 5 33 12 42 17 50
REMARK Flexibility Score:  141.900
ROOT
ATOM      1  C   UNL     1      -0.587   1.412   0.456  1.00  0.00     0.045 C 
ATOM      2  C   UNL     1       0.058   0.059   0.361  1.00  0.00    -0.036 A 
ATOM      3  C   UNL     1       1.463  -0.031   0.293  1.00  0.00     0.030 A 
ATOM      4  C   UNL     1       2.137  -1.266   0.227  1.00  0.00     0.041 A 
ATOM      5  C   UNL     1       1.362  -2.429   0.241  1.00  0.00     0.027 A 
ATOM      6  C   UNL     1      -0.034  -2.368   0.296  1.00  0.00     0.016 A 
ATOM      7  C   UNL     1      -0.685  -1.132   0.334  1.00  0.00     0.042 A 
ENDROOT
BRANCH   7   8
ATOM      8  C   UNL     1      -2.167  -1.151   0.345  1.00  0.00     0.251 C 
ATOM      9  N   UNL     1      -2.764  -0.543  -0.736  1.00  0.00    -0.347 N 
ATOM     10  O   UNL     1      -2.776  -1.715   1.246  1.00  0.00    -0.269 OA
ATOM     11  H   UNL     1      -2.185  -0.064  -1.416  1.00  0.00     0.164 HD
BRANCH   9  12
ATOM     12  C   UNL     1      -4.217  -0.422  -0.861  1.00  0.00     0.106 C 
BRANCH  12  13
ATOM     13  C   UNL     1      -4.609  -0.513  -2.353  1.00  0.00     0.028 C 
BRANCH  13  14
ATOM     14  C   UNL     1      -5.896   0.207  -2.752  1.00  0.00     0.017 CG0
ATOM     15  G   UNL     1      -5.823   1.742  -2.703  1.00  0.00     0.000 G0
ENDBRANCH  13  14
ENDBRANCH  12  13
BRANCH  12  16
ATOM     16  C   UNL     1      -4.767   0.794  -0.052  1.00  0.00     0.118 C 
BRANCH  16  17
ATOM     17  C   UNL     1      -4.437   2.158  -0.721  1.00  0.00     0.108 C 
BRANCH  17  18
ATOM     18  N   UNL     1      -4.566   2.266  -2.182  1.00  0.00    -0.315 NA
ATOM     19  H   UNL     1      -4.491   3.255  -2.430  1.00  0.00     0.122 HD
BRANCH  18  20
ATOM     20  C   UNL     1      -5.823   1.742  -2.703  1.00  0.00     0.081 CG0
ATOM     21  G   UNL     1      -5.896   0.207  -2.752  1.00  0.00     0.000 G0
ENDBRANCH  18  20
ENDBRANCH  17  18
ENDBRANCH  16  17
BRANCH  16  22
ATOM     22  N   UNL     1      -6.202   0.631   0.257  1.00  0.00    -0.346 N 
ATOM     23  C   UNL     1      -6.826   1.439   1.188  1.00  0.00     0.251 C 
ATOM     24  H   UNL     1      -6.551  -0.319   0.213  1.00  0.00     0.164 HD
ATOM     25  O   UNL     1      -6.280   2.386   1.744  1.00  0.00    -0.269 OA
BRANCH  23  26
ATOM     26  C   UNL     1      -8.224   1.068   1.544  1.00  0.00     0.042 A 
ATOM     27  C   UNL     1      -8.720   1.475   2.782  1.00  0.00     0.034 A 
ATOM     28  C   UNL     1      -9.045   0.347   0.674  1.00  0.00     0.034 A 
ATOM     29  C   UNL     1     -10.013   1.118   3.113  1.00  0.00     0.112 A 
ATOM     30  C   UNL     1     -10.325   0.041   1.099  1.00  0.00     0.112 A 
ATOM     31  N   UNL     1     -10.822   0.402   2.302  1.00  0.00    -0.265 NA
ENDBRANCH  23  26
ENDBRANCH  16  22
ENDBRANCH  12  16
ENDBRANCH   9  12
ENDBRANCH   7   8
BRANCH   4  32
ATOM     32  N   UNL     1       3.535  -1.259   0.179  1.00  0.00    -0.324 N 
ATOM     33  H   UNL     1       3.987  -0.359   0.106  1.00  0.00     0.170 HD
BRANCH  32  34
ATOM     34  C   UNL     1       4.511  -2.251   0.161  1.00  0.00     0.229 A 
ATOM     35  N   UNL     1       4.204  -3.552   0.244  1.00  0.00    -0.220 NA
ATOM     36  N   UNL     1       5.774  -1.798   0.065  1.00  0.00    -0.194 NA
ATOM     37  C   UNL     1       5.231  -4.424   0.228  1.00  0.00     0.139 A 
ATOM     38  C   UNL     1       6.793  -2.681   0.066  1.00  0.00     0.150 A 
ATOM     39  C   UNL     1       6.549  -4.047   0.137  1.00  0.00     0.101 A 
ATOM     40  Cl  UNL     1       7.795  -5.232   0.140  1.00  0.00    -0.079 Cl
BRANCH  38  41
ATOM     41  N   UNL     1       8.113  -2.219  -0.085  1.00  0.00    -0.366 N 
ATOM     42  H   UNL     1       8.729  -2.757   0.521  1.00  0.00     0.162 HD
BRANCH  41  43
ATOM     43  C   UNL     1       8.423  -0.787  -0.064  1.00  0.00     0.081 C 
ATOM     44  C   UNL     1       7.862  -0.038  -1.286  1.00  0.00     0.027 C 
ATOM     45  C   UNL     1       8.095  -0.127   1.280  1.00  0.00     0.027 C 
ATOM     46  C   UNL     1       7.377   1.369  -0.945  1.00  0.00     0.034 C 
ATOM     47  C   UNL     1       8.534   1.338   1.321  1.00  0.00     0.034 C 
ATOM     48  C   UNL     1       8.350   2.078  -0.009  1.00  0.00     0.114 C 
BRANCH  48  49
ATOM     49  O   UNL     1       7.870   3.396   0.233  1.00  0.00    -0.393 OA
ATOM     50  H   UNL     1       8.521   3.848   0.799  1.00  0.00     0.210 HD
ENDBRANCH  48  49
ENDBRANCH  41  43
ENDBRANCH  38  41
ENDBRANCH  32  34
ENDBRANCH   4  32
TORSDOF 9
