REMARK SMILES COc1ccc(O)c(C(=O)c2ccc(Nc3nc4ccccc4[nH]3)cc2)c1Cl
REMARK SMILES IDX 11 1 12 2 13 3 14 4 25 5 26 6 9 7 10 8 8 9 3 10 4 11 27 12
REMARK SMILES IDX 5 13 6 14 28 15 2 16 1 17 7 18 15 20 16 22 17 23 24 24 18 25
REMARK SMILES IDX 23 26 19 27 22 28 20 29 21 30
REMARK H PARENT 7 19 15 21 24 31
ROOT
ATOM      1  C   UNL     1       1.008   0.598  -0.464  1.00  0.00     0.023 A 
ATOM      2  C   UNL     1      -0.227   0.608  -1.119  1.00  0.00     0.014 A 
ATOM      3  C   UNL     1      -1.320  -0.074  -0.573  1.00  0.00     0.027 A 
ATOM      4  C   UNL     1      -1.202  -0.772   0.635  1.00  0.00     0.041 A 
ATOM      5  C   UNL     1       0.040  -0.759   1.289  1.00  0.00     0.027 A 
ATOM      6  C   UNL     1       1.138  -0.077   0.752  1.00  0.00     0.014 A 
ENDROOT
BRANCH   1   7
ATOM      7  C   UNL     1       2.133   1.354  -1.065  1.00  0.00     0.198 C 
ATOM      8  O   UNL     1       1.902   2.386  -1.697  1.00  0.00    -0.288 OA
BRANCH   7   9
ATOM      9  C   UNL     1       3.549   0.993  -0.838  1.00  0.00     0.087 A 
ATOM     10  C   UNL     1       5.412  -0.577  -0.728  1.00  0.00     0.138 A 
ATOM     11  C   UNL     1       6.239   0.453  -0.265  1.00  0.00     0.052 A 
ATOM     12  C   UNL     1       4.059  -0.302  -1.026  1.00  0.00     0.097 A 
ATOM     13  C   UNL     1       5.742   1.750  -0.127  1.00  0.00     0.051 A 
ATOM     14  C   UNL     1       4.413   2.018  -0.429  1.00  0.00     0.128 A 
ATOM     15  Cl  UNL     1       3.073  -1.568  -1.695  1.00  0.00    -0.079 Cl
BRANCH  10  16
ATOM     16  O   UNL     1       5.833  -1.870  -0.914  1.00  0.00    -0.495 OA
ATOM     17  C   UNL     1       7.211  -2.159  -0.715  1.00  0.00     0.278 C 
ENDBRANCH  10  16
BRANCH  14  18
ATOM     18  O   UNL     1       4.012   3.322  -0.307  1.00  0.00    -0.507 OA
ATOM     19  H   UNL     1       3.187   3.435  -0.832  1.00  0.00     0.293 HD
ENDBRANCH  14  18
ENDBRANCH   7   9
ENDBRANCH   1   7
BRANCH   4  20
ATOM     20  N   UNL     1      -2.272  -1.446   1.258  1.00  0.00    -0.326 N 
ATOM     21  H   UNL     1      -1.999  -2.365   1.599  1.00  0.00     0.170 HD
BRANCH  20  22
ATOM     22  C   UNL     1      -3.594  -1.312   1.028  1.00  0.00     0.205 A 
ATOM     23  N   UNL     1      -4.507  -2.250   1.123  1.00  0.00    -0.213 NA
ATOM     24  N   UNL     1      -4.166  -0.093   0.768  1.00  0.00    -0.324 N 
ATOM     25  C   UNL     1      -5.703  -1.628   0.856  1.00  0.00     0.091 A 
ATOM     26  C   UNL     1      -5.517  -0.269   0.629  1.00  0.00     0.067 A 
ATOM     27  C   UNL     1      -6.999  -2.160   0.798  1.00  0.00     0.030 A 
ATOM     28  C   UNL     1      -6.561   0.614   0.344  1.00  0.00     0.028 A 
ATOM     29  C   UNL     1      -8.066  -1.299   0.509  1.00  0.00     0.002 A 
ATOM     30  C   UNL     1      -7.847   0.064   0.287  1.00  0.00     0.002 A 
ATOM     31  H   UNL     1      -3.664   0.778   0.717  1.00  0.00     0.170 HD
ENDBRANCH  20  22
ENDBRANCH   4  20
TORSDOF 6
