MODEL        9USER    Run = 9USERUSER    Estimated Free Energy of Binding    =  -8.08 kcal/mol  [=(1)+(2)+(3)-(4)]USERUSER    (1) Final Intermolecular Energy     =  -9.87 kcal/molUSER        vdW + Hbond + desolv Energy     =  -9.67 kcal/molUSER        Electrostatic Energy            =  -0.19 kcal/molUSER        Moving Ligand-Fixed Receptor    =  -9.87 kcal/molUSER        Moving Ligand-Moving Receptor   =  +0.00 kcal/molUSER    (2) Final Total Internal Energy     =  -1.39 kcal/molUSER    (3) Torsional Free Energy           =  +1.79 kcal/molUSER    (4) Unbound System's Energy         =  -1.39 kcal/molUSERUSERREMARK SMILES COc1ccc(O)c(C(=O)c2ccc(Nc3nc4ccccc4[nH]3)cc2)c1ClREMARK SMILES IDX 11 1 12 2 13 3 14 4 25 5 26 6 9 7 10 8 8 9 3 10 4 11 27 12REMARK SMILES IDX 5 13 6 14 28 15 2 16 1 17 7 18 15 20 16 22 17 23 24 24 18 25REMARK SMILES IDX 23 26 19 27 22 28 20 29 21 30REMARK H PARENT 7 19 15 21 24 31USER                              x       y       z     vdW  Elec       q    TypeUSER                           _______ _______ _______ _____ _____    ______ ____ROOTATOM      1  C   UNL     1      11.454 -14.413 -12.938 -0.23 -0.01    +0.023 A  ATOM      2  C   UNL     1      12.554 -13.583 -13.175 -0.31 -0.01    +0.014 A  ATOM      3  C   UNL     1      12.479 -12.216 -12.888 -0.27 -0.01    +0.027 A  ATOM      4  C   UNL     1      11.311 -11.655 -12.356 -0.44 -0.02    +0.041 A  ATOM      5  C   UNL     1      10.221 -12.505 -12.109 -0.40 -0.01    +0.027 A  ATOM      6  C   UNL     1      10.288 -13.874 -12.390 -0.25 -0.00    +0.014 A  ENDROOTBRANCH   1   7ATOM      7  C   UNL     1      11.585 -15.860 -13.234 -0.16 -0.02    +0.198 C  ATOM      8  O   UNL     1      10.678 -16.442 -13.832 -0.15 +0.00    -0.288 OA BRANCH   7   9ATOM      9  C   UNL     1      12.819 -16.625 -12.951 -0.22 -0.02    +0.087 A  ATOM     10  C   UNL     1      14.590 -17.451 -11.492 -0.28 -0.02    +0.138 A  ATOM     11  C   UNL     1      15.221 -18.026 -12.601 -0.36 -0.01    +0.052 A  ATOM     12  C   UNL     1      13.374 -16.753 -11.668 -0.28 -0.02    +0.097 A  ATOM     13  C   UNL     1      14.641 -17.939 -13.868 -0.34 -0.01    +0.051 A  ATOM     14  C   UNL     1      13.441 -17.260 -14.035 -0.22 -0.02    +0.128 A  ATOM     15  Cl  UNL     1      12.553 -16.133 -10.267 -0.70 +0.03    -0.079 Cl BRANCH  10  16ATOM     16  O   UNL     1      15.084 -17.515 -10.213 -0.13 +0.04    -0.495 OA ATOM     17  C   UNL     1      16.233 -18.319  -9.981 -0.27 +0.01    +0.278 C  ENDBRANCH  10  16BRANCH  14  18ATOM     18  O   UNL     1      12.915 -17.254 -15.300 -0.00 +0.04    -0.507 OA ATOM     19  H   UNL     1      11.939 -17.154 -15.221 +0.18 -0.01    +0.293 HD ENDBRANCH  14  18ENDBRANCH   7   9ENDBRANCH   1   7BRANCH   4  20ATOM     20  N   UNL     1      11.183 -10.295 -12.009 -0.30 +0.15    -0.326 N  ATOM     21  H   UNL     1      11.893 -10.002 -11.342 -0.40 -0.07    +0.170 HD BRANCH  20  22ATOM     22  C   UNL     1      10.070  -9.533 -12.002 -0.47 -0.06    +0.205 A  ATOM     23  N   UNL     1       9.757  -8.608 -11.126 -1.01 -0.04    -0.213 NA ATOM     24  N   UNL     1       9.158  -9.570 -13.026 -0.24 +0.19    -0.324 N  ATOM     25  C   UNL     1       8.571  -8.070 -11.566 -0.37 -0.01    +0.091 A  ATOM     26  C   UNL     1       8.172  -8.658 -12.761 -0.32 -0.02    +0.067 A  ATOM     27  C   UNL     1       7.776  -7.063 -11.000 -0.39 -0.01    +0.030 A  ATOM     28  C   UNL     1       7.008  -8.299 -13.444 -0.28 -0.00    +0.028 A  ATOM     29  C   UNL     1       6.599  -6.686 -11.660 -0.37 -0.00    +0.002 A  ATOM     30  C   UNL     1       6.225  -7.295 -12.862 -0.25 -0.00    +0.002 A  ATOM     31  H   UNL     1       9.232 -10.158 -13.839 -0.44 -0.24    +0.170 HD ENDBRANCH  20  22ENDBRANCH   4  20TORSDOF 6TERENDMDL