MODEL        4USER    Run = 4USERUSER    Estimated Free Energy of Binding    =  -8.02 kcal/mol  [=(1)+(2)+(3)-(4)]USERUSER    (1) Final Intermolecular Energy     = -10.71 kcal/molUSER        vdW + Hbond + desolv Energy     = -10.55 kcal/molUSER        Electrostatic Energy            =  -0.16 kcal/molUSER        Moving Ligand-Fixed Receptor    = -10.71 kcal/molUSER        Moving Ligand-Moving Receptor   =  +0.00 kcal/molUSER    (2) Final Total Internal Energy     =  -1.68 kcal/molUSER    (3) Torsional Free Energy           =  +2.68 kcal/molUSER    (4) Unbound System's Energy         =  -1.68 kcal/molUSERUSERREMARK SMILES CCNC=C(Oc1nccc2nnc(-c3ccccc3)n12)C(=O)OCCREMARK SMILES IDX 5 1 4 2 3 3 2 5 1 6 6 7 7 8 8 9 21 10 9 11 14 12 11 13 10 14REMARK SMILES IDX 13 15 12 16 15 17 16 18 20 19 17 20 19 21 18 22 22 23 23 24REMARK SMILES IDX 24 25 25 26 26 27REMARK H PARENT 3 4USER                              x       y       z     vdW  Elec       q    TypeUSER                           _______ _______ _______ _____ _____    ______ ____ROOTATOM      1  C   UNL     1      39.784  48.043  15.620 -0.42 -0.07    +0.231 C  ENDROOTBRANCH   1   2ATOM      2  C   UNL     1      38.555  48.502  15.330 -0.49 -0.08    +0.133 C  BRANCH   2   3ATOM      3  N   UNL     1      38.025  48.721  14.074 -0.19 +0.20    -0.388 N  ATOM      4  H   UNL     1      38.325  49.592  13.639 -0.38 -0.11    +0.160 HD BRANCH   3   5ATOM      5  C   UNL     1      36.750  48.193  13.624 -0.53 -0.06    +0.109 C  ATOM      6  C   UNL     1      36.950  47.358  12.371 -0.72 -0.01    +0.027 C  ENDBRANCH   3   5ENDBRANCH   2   3ENDBRANCH   1   2BRANCH   1   7ATOM      7  O   UNL     1      39.943  46.738  16.134 -0.18 +0.08    -0.416 OA BRANCH   7   8ATOM      8  C   UNL     1      40.521  46.709  17.367 -0.27 -0.04    +0.309 A  ATOM      9  N   UNL     1      41.675  47.231  17.675 -0.29 +0.02    -0.204 NA ATOM     10  N   UNL     1      39.748  45.991  18.275 -0.29 +0.02    -0.227 N  ATOM     11  C   UNL     1      42.104  47.042  18.972 -0.44 +0.01    +0.121 A  ATOM     12  C   UNL     1      38.509  45.381  18.214 -0.28 -0.03    +0.172 A  ATOM     13  C   UNL     1      40.212  45.750  19.550 -0.30 -0.00    +0.166 A  ATOM     14  C   UNL     1      41.446  46.333  19.904 -0.35 +0.01    +0.070 A  ATOM     15  N   UNL     1      38.314  44.727  19.349 -0.30 +0.01    -0.129 NA ATOM     16  N   UNL     1      39.371  44.976  20.193 -0.30 +0.00    -0.130 NA BRANCH  12  17ATOM     17  C   UNL     1      37.561  45.423  17.108 -0.35 -0.01    +0.020 A  ATOM     18  C   UNL     1      37.815  44.747  15.906 -0.26 -0.00    +0.012 A  ATOM     19  C   UNL     1      36.393  46.187  17.226 -0.33 -0.01    +0.012 A  ATOM     20  C   UNL     1      36.896  44.804  14.856 -0.38 -0.00    +0.001 A  ATOM     21  C   UNL     1      35.476  46.244  16.174 -0.34 -0.00    +0.001 A  ATOM     22  C   UNL     1      35.726  45.549  14.992 -0.37 -0.00    +0.000 A  ENDBRANCH  12  17ENDBRANCH   7   8ENDBRANCH   1   7BRANCH   1  23ATOM     23  C   UNL     1      41.011  48.888  15.507 -0.35 -0.06    +0.375 C  ATOM     24  O   UNL     1      41.411  49.584  16.434 -1.12 +0.00    -0.242 OA BRANCH  23  25ATOM     25  O   UNL     1      41.595  48.774  14.289 -0.24 +0.03    -0.460 OA BRANCH  25  26ATOM     26  C   UNL     1      41.772  50.000  13.565 -0.48 -0.06    +0.230 C  ATOM     27  C   UNL     1      42.908  50.804  14.170 -0.57 -0.01    +0.049 C  ENDBRANCH  25  26ENDBRANCH  23  25ENDBRANCH   1  23TORSDOF 9TERENDMDL