REMARK SMILES Cc1cc(Cl)ccc1-n1[nH]c2ncc(C(=O)N[C@H]3CC[C@H](N)CC3)cc21
REMARK SMILES IDX 15 1 16 2 17 3 14 5 9 6 10 7 26 8 11 9 25 10 12 11 13 12
REMARK SMILES IDX 8 14 2 15 3 16 4 17 7 18 6 19 1 20 5 21 18 22 24 23 19 24
REMARK SMILES IDX 23 25 20 26 21 27 22 28
REMARK H PARENT 17 4 10 13 22 29 22 30
ROOT
ATOM      1  C   UNL     1       1.136  -0.234  -0.673  1.00  0.00     0.253 C 
ATOM      2  O   UNL     1       1.222  -0.327  -1.892  1.00  0.00    -0.269 OA
ATOM      3  N   UNL     1       2.188   0.145   0.136  1.00  0.00    -0.349 N 
ATOM      4  H   UNL     1       2.059   0.272   1.131  1.00  0.00     0.164 HD
ENDROOT
BRANCH   1   5
ATOM      5  C   UNL     1      -0.164  -0.502  -0.015  1.00  0.00     0.060 A 
ATOM      6  N   UNL     1      -3.832  -0.566  -0.080  1.00  0.00    -0.251 N 
ATOM      7  N   UNL     1      -3.854  -0.973   1.261  1.00  0.00    -0.275 N 
ATOM      8  C   UNL     1      -2.492  -0.581  -0.088  1.00  0.00     0.108 A 
ATOM      9  C   UNL     1      -2.472  -1.052   1.189  1.00  0.00     0.171 A 
ATOM     10  C   UNL     1      -1.345  -0.303  -0.750  1.00  0.00     0.047 A 
ATOM     11  N   UNL     1      -1.417  -1.210   1.977  1.00  0.00    -0.235 NA
ATOM     12  C   UNL     1      -0.250  -0.963   1.317  1.00  0.00     0.127 A 
ATOM     13  H   UNL     1      -4.087  -0.226   1.915  1.00  0.00     0.190 HD
BRANCH   6  14
ATOM     14  C   UNL     1      -4.829   0.136  -0.788  1.00  0.00     0.066 A 
ATOM     15  C   UNL     1      -6.209  -0.043  -0.525  1.00  0.00    -0.024 A 
ATOM     16  C   UNL     1      -7.163   0.710  -1.239  1.00  0.00     0.026 A 
ATOM     17  C   UNL     1      -6.767   1.609  -2.225  1.00  0.00     0.041 A 
ATOM     18  C   UNL     1      -4.466   1.041  -1.805  1.00  0.00     0.030 A 
ATOM     19  C   UNL     1      -5.421   1.773  -2.516  1.00  0.00     0.023 A 
ATOM     20  C   UNL     1      -6.716  -1.026   0.497  1.00  0.00     0.047 C 
ATOM     21  Cl  UNL     1      -7.949   2.513  -3.088  1.00  0.00    -0.084 Cl
ENDBRANCH   6  14
ENDBRANCH   1   5
BRANCH   3  22
ATOM     22  C   UNL     1       3.522   0.383  -0.410  1.00  0.00     0.082 C 
ATOM     23  C   UNL     1       4.333   1.304   0.517  1.00  0.00     0.026 C 
ATOM     24  C   UNL     1       4.225  -0.962  -0.679  1.00  0.00     0.026 C 
ATOM     25  C   UNL     1       5.153   0.503   1.524  1.00  0.00     0.021 C 
ATOM     26  C   UNL     1       5.740  -0.832  -0.582  1.00  0.00     0.021 C 
ATOM     27  C   UNL     1       6.173  -0.419   0.835  1.00  0.00     0.050 C 
BRANCH  27  28
ATOM     28  N   UNL     1       7.488   0.220   0.780  1.00  0.00    -0.328 NA
ATOM     29  H   UNL     1       8.152  -0.399   0.314  1.00  0.00     0.119 HD
ATOM     30  H   UNL     1       7.446   1.065   0.211  1.00  0.00     0.119 HD
ENDBRANCH  27  28
ENDBRANCH   3  22
TORSDOF 4
