MODEL        9USER    Run = 9USERUSER    Estimated Free Energy of Binding    =  -9.47 kcal/mol  [=(1)+(2)+(3)-(4)]USERUSER    (1) Final Intermolecular Energy     = -10.37 kcal/molUSER        vdW + Hbond + desolv Energy     = -10.19 kcal/molUSER        Electrostatic Energy            =  -0.18 kcal/molUSER        Moving Ligand-Fixed Receptor    = -10.37 kcal/molUSER        Moving Ligand-Moving Receptor   =  +0.00 kcal/molUSER    (2) Final Total Internal Energy     =  -0.55 kcal/molUSER    (3) Torsional Free Energy           =  +0.89 kcal/molUSER    (4) Unbound System's Energy         =  -0.55 kcal/molUSERUSERREMARK SMILES Cc1cc(-c2c[nH]c3ccc(-c4cnn(C)c4)cc23)ccc1OREMARK SMILES IDX 5 1 6 2 7 3 8 4 9 5 10 6 11 7 18 8 19 9 4 11 2 12 3 13 22 14REMARK SMILES IDX 21 15 20 16 1 17 23 18 12 20 13 21 17 22 14 23 15 24 16 25REMARK H PARENT 7 10 23 19USER                              x       y       z     vdW  Elec       q    TypeUSER                           _______ _______ _______ _____ _____    ______ ____ROOTATOM      1  C   UNL     1      35.070  45.919  15.394 -0.33 -0.01    +0.007 A  ATOM      2  C   UNL     1      34.306  45.946  14.245 -0.07 -0.08    +0.092 A  ATOM      3  N   UNL     1      35.008  46.620  13.283 -0.23 +0.27    -0.361 N  ATOM      4  C   UNL     1      36.224  47.031  13.778 -0.48 -0.03    +0.046 A  ATOM      5  C   UNL     1      37.256  47.742  13.158 -0.55 -0.01    +0.027 A  ATOM      6  C   UNL     1      38.400  48.020  13.916 -0.50 -0.00    +0.011 A  ATOM      7  C   UNL     1      38.521  47.603  15.248 -0.48 +0.01    -0.014 A  ATOM      8  C   UNL     1      37.463  46.893  15.843 -0.39 -0.01    +0.019 A  ATOM      9  C   UNL     1      36.294  46.603  15.105 -0.39 -0.01    +0.008 A  ATOM     10  H   UNL     1      34.684  46.797  12.342 -0.24 -0.15    +0.166 HD ENDROOTBRANCH   1  11ATOM     11  C   UNL     1      34.617  45.302  16.629 -0.31 +0.01    -0.016 A  ATOM     12  C   UNL     1      34.106  43.295  17.933 -0.32 +0.00    -0.009 A  ATOM     13  C   UNL     1      34.538  43.905  16.743 -0.32 -0.01    +0.016 A  ATOM     14  C   UNL     1      33.754  44.118  19.010 -0.32 -0.03    +0.118 A  ATOM     15  C   UNL     1      33.826  45.505  18.908 -0.35 -0.02    +0.047 A  ATOM     16  C   UNL     1      34.257  46.098  17.721 -0.42 -0.01    +0.012 A  ATOM     17  C   UNL     1      34.043  41.798  18.010 -0.44 -0.01    +0.048 C  BRANCH  14  18ATOM     18  O   UNL     1      33.324  43.627  20.209 -0.73 -0.03    -0.508 OA ATOM     19  H   UNL     1      33.174  44.362  20.823 -0.16 -0.02    +0.293 HD ENDBRANCH  14  18ENDBRANCH   1  11BRANCH   7  20ATOM     20  C   UNL     1      39.715  47.901  16.022 -0.51 -0.01    +0.020 A  ATOM     21  C   UNL     1      40.637  48.971  15.924 -0.48 -0.03    +0.143 A  ATOM     22  C   UNL     1      40.190  47.155  17.081 -0.41 -0.02    +0.117 A  ATOM     23  N   UNL     1      41.611  48.902  16.836 -0.92 -0.02    -0.181 NA ATOM     24  N   UNL     1      41.312  47.790  17.528 -0.35 +0.03    -0.275 N  ATOM     25  C   UNL     1      42.158  47.390  18.626 -0.48 +0.00    +0.173 C  ENDBRANCH   7  20TORSDOF 3TERENDMDL