REMARK SMILES O=Cc1c(O)cc(O)cc1OCc1ccccc1C(=O)O
REMARK SMILES IDX 12 1 11 2 10 3 3 4 4 5 6 6 9 7 7 8 2 9 1 10 5 11 8 13 13 15
REMARK SMILES IDX 14 16 18 17 15 18 17 19 16 20 19 21 20 22 21 23
REMARK H PARENT 5 12 8 14 21 24
ROOT
ATOM      1  C   UNL     1       1.067  -0.720  -0.965  1.00  0.00     0.266 C 
ENDROOT
BRANCH   1   2
ATOM      2  O   UNL     1      -0.262  -1.247  -0.819  1.00  0.00    -0.488 OA
BRANCH   2   3
ATOM      3  C   UNL     1      -1.312  -0.372  -0.706  1.00  0.00     0.137 A 
ATOM      4  C   UNL     1      -2.602  -0.903  -0.881  1.00  0.00     0.098 A 
ATOM      5  C   UNL     1      -3.728  -0.072  -0.768  1.00  0.00     0.133 A 
ATOM      6  C   UNL     1      -3.585   1.280  -0.475  1.00  0.00     0.093 A 
ATOM      7  C   UNL     1      -1.178   0.986  -0.397  1.00  0.00     0.093 A 
ATOM      8  C   UNL     1      -2.309   1.795  -0.290  1.00  0.00     0.123 A 
BRANCH   4   9
ATOM      9  C   UNL     1      -2.774  -2.338  -1.188  1.00  0.00     0.267 C 
ATOM     10  O   UNL     1      -3.895  -2.817  -1.347  1.00  0.00    -0.298 OA
ENDBRANCH   4   9
BRANCH   5  11
ATOM     11  O   UNL     1      -5.013  -0.520  -0.932  1.00  0.00    -0.507 OA
ATOM     12  H   UNL     1      -4.976  -1.485  -1.130  1.00  0.00     0.293 HD
ENDBRANCH   5  11
BRANCH   8  13
ATOM     13  O   UNL     1      -2.114   3.112   0.008  1.00  0.00    -0.508 OA
ATOM     14  H   UNL     1      -2.979   3.553   0.066  1.00  0.00     0.293 HD
ENDBRANCH   8  13
ENDBRANCH   2   3
ENDBRANCH   1   2
BRANCH   1  15
ATOM     15  C   UNL     1       1.780  -0.500   0.355  1.00  0.00     0.004 A 
ATOM     16  C   UNL     1       1.339  -1.169   1.514  1.00  0.00     0.008 A 
ATOM     17  C   UNL     1       2.903   0.347   0.466  1.00  0.00     0.066 A 
ATOM     18  C   UNL     1       1.956  -0.963   2.749  1.00  0.00     0.000 A 
ATOM     19  C   UNL     1       3.507   0.561   1.717  1.00  0.00     0.016 A 
ATOM     20  C   UNL     1       3.034  -0.092   2.853  1.00  0.00     0.001 A 
BRANCH  17  21
ATOM     21  C   UNL     1       3.521   1.068  -0.675  1.00  0.00     0.336 C 
ATOM     22  O   UNL     1       4.088   2.143  -0.615  1.00  0.00    -0.246 OA
BRANCH  21  23
ATOM     23  O   UNL     1       3.479   0.367  -1.820  1.00  0.00    -0.478 OA
ATOM     24  H   UNL     1       3.981   0.925  -2.452  1.00  0.00     0.297 HD
ENDBRANCH  21  23
ENDBRANCH  17  21
ENDBRANCH   1  15
TORSDOF 8
