MODEL        8USER    Run = 8USERUSER    Estimated Free Energy of Binding    =  -9.56 kcal/mol  [=(1)+(2)+(3)-(4)]USERUSER    (1) Final Intermolecular Energy     = -10.75 kcal/molUSER        vdW + Hbond + desolv Energy     = -10.63 kcal/molUSER        Electrostatic Energy            =  -0.12 kcal/molUSER        Moving Ligand-Fixed Receptor    = -10.75 kcal/molUSER        Moving Ligand-Moving Receptor   =  +0.00 kcal/molUSER    (2) Final Total Internal Energy     =  -0.67 kcal/molUSER    (3) Torsional Free Energy           =  +1.19 kcal/molUSER    (4) Unbound System's Energy         =  -0.67 kcal/molUSERUSERREMARK SMILES Cc1cc(Cl)ccc1-n1[nH]c2ncc(C(=O)N[C@H]3CC[C@H](N)CC3)cc21REMARK SMILES IDX 15 1 16 2 17 3 14 5 9 6 10 7 26 8 11 9 25 10 12 11 13 12REMARK SMILES IDX 8 14 2 15 3 16 4 17 7 18 6 19 1 20 5 21 18 22 24 23 19 24REMARK SMILES IDX 23 25 20 26 21 27 22 28REMARK H PARENT 17 4 10 13 22 29 22 30USER                              x       y       z     vdW  Elec       q    TypeUSER                           _______ _______ _______ _____ _____    ______ ____ROOTATOM      1  C   UNL     1      40.862  48.086  16.740 -0.40 -0.04    +0.253 C  ATOM      2  O   UNL     1      41.417  49.094  16.318 -1.04 -0.00    -0.269 OA ATOM      3  N   UNL     1      39.807  47.474  16.095 -0.23 +0.09    -0.349 N  ATOM      4  H   UNL     1      39.418  46.606  16.441 +0.11 -0.04    +0.164 HD ENDROOTBRANCH   1   5ATOM      5  C   UNL     1      41.356  47.453  17.984 -0.48 -0.00    +0.060 A  ATOM      6  N   UNL     1      41.059  44.923  20.625 -0.20 -0.02    -0.251 N  ATOM      7  N   UNL     1      42.177  45.464  21.276 -0.16 -0.06    -0.275 N  ATOM      8  C   UNL     1      41.180  45.811  19.629 -0.35 +0.01    +0.108 A  ATOM      9  C   UNL     1      42.314  46.313  20.189 -0.27 +0.04    +0.171 A  ATOM     10  C   UNL     1      40.662  46.344  18.498 -0.45 -0.00    +0.047 A  ATOM     11  N   UNL     1      42.996  47.387  19.814 -0.36 -0.04    -0.235 NA ATOM     12  C   UNL     1      42.506  47.919  18.658 -0.34 +0.00    +0.127 A  ATOM     13  H   UNL     1      41.944  46.036  22.088 +0.10 +0.03    +0.190 HD BRANCH   6  14ATOM     14  C   UNL     1      39.994  44.196  21.195 -0.24 +0.00    +0.066 A  ATOM     15  C   UNL     1      40.197  43.229  22.209 -0.22 -0.00    -0.024 A  ATOM     16  C   UNL     1      39.092  42.555  22.768 -0.23 +0.00    +0.026 A  ATOM     17  C   UNL     1      37.800  42.807  22.313 -0.36 +0.00    +0.041 A  ATOM     18  C   UNL     1      38.675  44.412  20.747 -0.34 +0.00    +0.030 A  ATOM     19  C   UNL     1      37.588  43.729  21.299 -0.37 +0.00    +0.023 A  ATOM     20  C   UNL     1      41.566  42.872  22.723 -0.33 -0.00    +0.047 C  ATOM     21  Cl  UNL     1      36.467  41.969  23.005 -0.62 -0.01    -0.084 Cl ENDBRANCH   6  14ENDBRANCH   1   5BRANCH   3  22ATOM     22  C   UNL     1      39.215  48.047  14.888 -0.54 -0.03    +0.082 C  ATOM     23  C   UNL     1      38.956  46.954  13.837 -0.36 -0.01    +0.026 C  ATOM     24  C   UNL     1      37.943  48.837  15.254 -0.54 -0.02    +0.026 C  ATOM     25  C   UNL     1      37.548  46.380  13.962 -0.50 -0.01    +0.021 C  ATOM     26  C   UNL     1      36.950  48.867  14.098 -0.55 -0.01    +0.021 C  ATOM     27  C   UNL     1      36.466  47.451  13.744 -0.56 -0.03    +0.050 C  BRANCH  27  28ATOM     28  N   UNL     1      35.990  47.426  12.360 -0.45 +0.18    -0.328 NA ATOM     29  H   UNL     1      34.984  47.260  12.345 -0.17 -0.10    +0.119 HD ATOM     30  H   UNL     1      36.131  48.336  11.923 -0.17 -0.06    +0.119 HD ENDBRANCH  27  28ENDBRANCH   3  22TORSDOF 4TERENDMDL