REMARK SMILES CCNC=C(Oc1nccc2nnc(-c3ccccc3)n12)C(=O)OCC
REMARK SMILES IDX 5 1 4 2 3 3 2 5 1 6 6 7 7 8 8 9 21 10 9 11 14 12 11 13 10 14
REMARK SMILES IDX 13 15 12 16 15 17 16 18 20 19 17 20 19 21 18 22 22 23 23 24
REMARK SMILES IDX 24 25 25 26 26 27
REMARK H PARENT 3 4
ROOT
ATOM      1  C   UNL     1       1.030  -0.134   0.343  1.00  0.00     0.231 C 
ENDROOT
BRANCH   1   2
ATOM      2  C   UNL     1       1.736   0.930   0.761  1.00  0.00     0.133 C 
BRANCH   2   3
ATOM      3  N   UNL     1       1.358   2.256   0.697  1.00  0.00    -0.388 N 
ATOM      4  H   UNL     1       0.522   2.427   0.140  1.00  0.00     0.160 HD
BRANCH   3   5
ATOM      5  C   UNL     1       2.277   3.373   0.821  1.00  0.00     0.109 C 
ATOM      6  C   UNL     1       1.499   4.662   1.024  1.00  0.00     0.027 C 
ENDBRANCH   3   5
ENDBRANCH   2   3
ENDBRANCH   1   2
BRANCH   1   7
ATOM      7  O   UNL     1      -0.254   0.050  -0.214  1.00  0.00    -0.416 OA
BRANCH   7   8
ATOM      8  C   UNL     1      -0.368  -0.437  -1.481  1.00  0.00     0.309 A 
ATOM      9  N   UNL     1       0.626  -0.707  -2.281  1.00  0.00    -0.204 NA
ATOM     10  N   UNL     1      -1.701  -0.563  -1.860  1.00  0.00    -0.227 N 
ATOM     11  C   UNL     1       0.290  -1.140  -3.546  1.00  0.00     0.121 A 
ATOM     12  C   UNL     1      -2.908  -0.379  -1.212  1.00  0.00     0.172 A 
ATOM     13  C   UNL     1      -2.029  -0.934  -3.146  1.00  0.00     0.166 A 
ATOM     14  C   UNL     1      -0.964  -1.256  -4.012  1.00  0.00     0.070 A 
ATOM     15  N   UNL     1      -3.880  -0.524  -2.100  1.00  0.00    -0.129 NA
ATOM     16  N   UNL     1      -3.330  -0.892  -3.305  1.00  0.00    -0.130 NA
BRANCH  12  17
ATOM     17  C   UNL     1      -3.112  -0.072   0.198  1.00  0.00     0.020 A 
ATOM     18  C   UNL     1      -2.661  -0.939   1.204  1.00  0.00     0.012 A 
ATOM     19  C   UNL     1      -3.809   1.087   0.561  1.00  0.00     0.012 A 
ATOM     20  C   UNL     1      -2.871  -0.630   2.549  1.00  0.00     0.001 A 
ATOM     21  C   UNL     1      -4.020   1.394   1.907  1.00  0.00     0.001 A 
ATOM     22  C   UNL     1      -3.546   0.538   2.900  1.00  0.00     0.000 A 
ENDBRANCH  12  17
ENDBRANCH   7   8
ENDBRANCH   1   7
BRANCH   1  23
ATOM     23  C   UNL     1       1.505  -1.540   0.517  1.00  0.00     0.375 C 
ATOM     24  O   UNL     1       0.753  -2.501   0.403  1.00  0.00    -0.242 OA
BRANCH  23  25
ATOM     25  O   UNL     1       2.830  -1.596   0.800  1.00  0.00    -0.460 OA
BRANCH  25  26
ATOM     26  C   UNL     1       3.380  -2.913   0.948  1.00  0.00     0.230 C 
ATOM     27  C   UNL     1       3.779  -3.468  -0.407  1.00  0.00     0.049 C 
ENDBRANCH  25  26
ENDBRANCH  23  25
ENDBRANCH   1  23
TORSDOF 9
