REMARK SMILES Cc1ccc(C(=O)Nc2cccc3ccccc23)cc1N
REMARK SMILES IDX 1 1 2 2 3 3 4 4 5 5 19 6 20 7 21 8 6 11 8 12 7 13 9 15 10 16
REMARK SMILES IDX 18 17 11 18 17 19 13 20 12 21 16 22 14 23 15 24
REMARK H PARENT 21 9 21 10 8 14
ROOT
ATOM      1  C   UNL     1       5.563  -0.447  -1.612  1.00  0.00     0.046 C 
ATOM      2  C   UNL     1       4.288  -0.208  -0.849  1.00  0.00    -0.028 A 
ATOM      3  C   UNL     1       3.274  -1.181  -0.897  1.00  0.00     0.006 A 
ATOM      4  C   UNL     1       2.063  -0.982  -0.233  1.00  0.00     0.014 A 
ATOM      5  C   UNL     1       1.849   0.206   0.468  1.00  0.00     0.042 A 
ATOM      6  C   UNL     1       2.864   1.167   0.541  1.00  0.00     0.039 A 
ATOM      7  C   UNL     1       4.104   0.952  -0.073  1.00  0.00     0.035 A 
ENDROOT
BRANCH   7   8
ATOM      8  N   UNL     1       5.045   1.993  -0.076  1.00  0.00    -0.398 N 
ATOM      9  H   UNL     1       4.959   2.620   0.720  1.00  0.00     0.156 HD
ATOM     10  H   UNL     1       6.002   1.687  -0.211  1.00  0.00     0.156 HD
ENDBRANCH   7   8
BRANCH   5  11
ATOM     11  C   UNL     1       0.561   0.477   1.166  1.00  0.00     0.255 C 
ATOM     12  N   UNL     1      -0.562   0.069   0.469  1.00  0.00    -0.321 N 
ATOM     13  O   UNL     1       0.602   1.051   2.246  1.00  0.00    -0.269 OA
ATOM     14  H   UNL     1      -0.400  -0.243  -0.475  1.00  0.00     0.170 HD
BRANCH  12  15
ATOM     15  C   UNL     1      -1.920   0.127   0.883  1.00  0.00     0.049 A 
ATOM     16  C   UNL     1      -2.261   0.508   2.188  1.00  0.00     0.027 A 
ATOM     17  C   UNL     1      -2.956  -0.232  -0.042  1.00  0.00     0.005 A 
ATOM     18  C   UNL     1      -3.590   0.548   2.600  1.00  0.00     0.003 A 
ATOM     19  C   UNL     1      -2.746  -0.632  -1.389  1.00  0.00     0.011 A 
ATOM     20  C   UNL     1      -4.305  -0.187   0.403  1.00  0.00    -0.016 A 
ATOM     21  C   UNL     1      -4.603   0.203   1.714  1.00  0.00     0.009 A 
ATOM     22  C   UNL     1      -3.803  -0.970  -2.241  1.00  0.00     0.001 A 
ATOM     23  C   UNL     1      -5.356  -0.530  -0.464  1.00  0.00     0.009 A 
ATOM     24  C   UNL     1      -5.108  -0.920  -1.777  1.00  0.00     0.001 A 
ENDBRANCH  12  15
ENDBRANCH   5  11
TORSDOF 3
