REMARK SMILES Oc1cccc(F)c1-c1nc2ccccc2[nH]1
REMARK SMILES IDX 2 1 3 2 4 3 5 4 6 5 7 6 8 7 1 8 9 10 10 11 17 12 11 13 16 14
REMARK SMILES IDX 12 15 15 16 13 17 14 18
REMARK H PARENT 1 9 17 19
ROOT
ATOM      1  C   UNL     1      -2.219  -1.125   0.340  1.00  0.00     0.129 A 
ATOM      2  C   UNL     1      -3.615  -1.241   0.362  1.00  0.00     0.047 A 
ATOM      3  C   UNL     1      -4.409  -0.149   0.018  1.00  0.00     0.007 A 
ATOM      4  C   UNL     1      -3.807   1.051  -0.345  1.00  0.00     0.040 A 
ATOM      5  C   UNL     1      -2.414   1.159  -0.365  1.00  0.00     0.137 A 
ATOM      6  F   UNL     1      -1.902   2.345  -0.725  1.00  0.00    -0.206 F 
ATOM      7  C   UNL     1      -1.584   0.080  -0.025  1.00  0.00     0.095 A 
ENDROOT
BRANCH   1   8
ATOM      8  O   UNL     1      -1.468  -2.225   0.686  1.00  0.00    -0.507 OA
ATOM      9  H   UNL     1      -2.073  -2.956   0.905  1.00  0.00     0.293 HD
ENDBRANCH   1   8
BRANCH   7  10
ATOM     10  C   UNL     1      -0.121   0.232  -0.057  1.00  0.00     0.145 A 
ATOM     11  N   UNL     1       0.564   1.314  -0.383  1.00  0.00    -0.228 NA
ATOM     12  N   UNL     1       0.753  -0.784   0.265  1.00  0.00    -0.338 N 
ATOM     13  C   UNL     1       1.891   0.984  -0.269  1.00  0.00     0.089 A 
ATOM     14  C   UNL     1       2.039  -0.335   0.139  1.00  0.00     0.066 A 
ATOM     15  C   UNL     1       3.035   1.762  -0.497  1.00  0.00     0.030 A 
ATOM     16  C   UNL     1       3.279  -0.944   0.339  1.00  0.00     0.028 A 
ATOM     17  C   UNL     1       4.294   1.178  -0.305  1.00  0.00     0.002 A 
ATOM     18  C   UNL     1       4.410  -0.153   0.106  1.00  0.00     0.002 A 
ATOM     19  H   UNL     1       0.458  -1.709   0.546  1.00  0.00     0.168 HD
ENDBRANCH   7  10
TORSDOF 2
