MODEL        3USER    Run = 3USERUSER    Estimated Free Energy of Binding    =  -7.25 kcal/mol  [=(1)+(2)+(3)-(4)]USERUSER    (1) Final Intermolecular Energy     =  -9.64 kcal/molUSER        vdW + Hbond + desolv Energy     =  -9.01 kcal/molUSER        Electrostatic Energy            =  -0.63 kcal/molUSER        Moving Ligand-Fixed Receptor    =  -9.64 kcal/molUSER        Moving Ligand-Moving Receptor   =  +0.00 kcal/molUSER    (2) Final Total Internal Energy     =  -0.92 kcal/molUSER    (3) Torsional Free Energy           =  +2.39 kcal/molUSER    (4) Unbound System's Energy         =  -0.92 kcal/molUSERUSERREMARK SMILES O=Cc1c(O)cc(O)cc1OCc1ccccc1C(=O)OREMARK SMILES IDX 12 1 11 2 10 3 3 4 4 5 6 6 9 7 7 8 2 9 1 10 5 11 8 13 13 15REMARK SMILES IDX 14 16 18 17 15 18 17 19 16 20 19 21 20 22 21 23REMARK H PARENT 5 12 8 14 21 24USER                              x       y       z     vdW  Elec       q    TypeUSER                           _______ _______ _______ _____ _____    ______ ____ROOTATOM      1  C   UNL     1      36.577  45.908  17.403 -0.22 -0.12    +0.266 C  ENDROOTBRANCH   1   2ATOM      2  O   UNL     1      38.011  45.962  17.330 -0.12 +0.15    -0.488 OA BRANCH   2   3ATOM      3  C   UNL     1      38.598  46.912  16.534 -0.32 -0.05    +0.137 A  ATOM      4  C   UNL     1      39.872  47.364  16.918 -0.41 -0.02    +0.098 A  ATOM      5  C   UNL     1      40.542  48.327  16.146 -0.46 -0.03    +0.133 A  ATOM      6  C   UNL     1      39.961  48.838  14.991 -0.48 -0.03    +0.093 A  ATOM      7  C   UNL     1      38.027  47.421  15.362 -0.38 -0.05    +0.093 A  ATOM      8  C   UNL     1      38.708  48.377  14.609 -0.42 -0.06    +0.123 A  BRANCH   4   9ATOM      9  C   UNL     1      40.507  46.829  18.140 -0.34 -0.03    +0.267 C  ATOM     10  O   UNL     1      41.730  46.837  18.268 -0.38 +0.01    -0.298 OA ENDBRANCH   4   9BRANCH   5  11ATOM     11  O   UNL     1      41.782  48.817  16.465 -0.69 -0.08    -0.507 OA ATOM     12  H   UNL     1      42.338  48.062  16.770 -0.29 +0.00    +0.293 HD ENDBRANCH   5  11BRANCH   8  13ATOM     13  O   UNL     1      38.098  48.840  13.480 -0.23 +0.17    -0.508 OA ATOM     14  H   UNL     1      37.718  49.716  13.664 -0.30 -0.19    +0.293 HD ENDBRANCH   8  13ENDBRANCH   2   3ENDBRANCH   1   2BRANCH   1  15ATOM     15  C   UNL     1      36.059  44.904  18.415 -0.34 -0.00    +0.004 A  ATOM     16  C   UNL     1      36.947  43.994  19.022 -0.34 -0.00    +0.008 A  ATOM     17  C   UNL     1      34.702  44.859  18.796 -0.35 -0.02    +0.066 A  ATOM     18  C   UNL     1      36.495  43.038  19.933 -0.39 -0.00    +0.000 A  ATOM     19  C   UNL     1      34.253  43.883  19.702 -0.39 -0.00    +0.016 A  ATOM     20  C   UNL     1      35.147  42.976  20.267 -0.41 +0.00    +0.001 A  BRANCH  17  21ATOM     21  C   UNL     1      33.662  45.792  18.293 -0.28 -0.20    +0.336 C  ATOM     22  O   UNL     1      32.650  45.475  17.696 -0.27 +0.10    -0.246 OA BRANCH  21  23ATOM     23  O   UNL     1      33.894  47.069  18.639 -0.87 +0.38    -0.478 OA ATOM     24  H   UNL     1      33.600  47.579  17.854 -0.33 -0.56    +0.297 HD ENDBRANCH  21  23ENDBRANCH  17  21ENDBRANCH   1  15TORSDOF 8TERENDMDL