MODEL        8USER    Run = 8USERUSER    Estimated Free Energy of Binding    =  -8.60 kcal/mol  [=(1)+(2)+(3)-(4)]USERUSER    (1) Final Intermolecular Energy     = -10.99 kcal/molUSER        vdW + Hbond + desolv Energy     = -10.88 kcal/molUSER        Electrostatic Energy            =  -0.10 kcal/molUSER        Moving Ligand-Fixed Receptor    = -10.99 kcal/molUSER        Moving Ligand-Moving Receptor   =  +0.00 kcal/molUSER    (2) Final Total Internal Energy     =  -2.64 kcal/molUSER    (3) Torsional Free Energy           =  +2.39 kcal/molUSER    (4) Unbound System's Energy         =  -2.64 kcal/molUSERUSERREMARK SMILES CNc1cc(-c2ccc(Cl)cc2Cl)ccc1N=CNCC(=O)N[C@H](C)C=OREMARK SMILES IDX 18 1 19 2 17 4 16 5 3 6 4 7 5 8 15 9 14 10 2 11 1 12 6 14REMARK SMILES IDX 7 15 12 16 8 17 11 18 9 19 13 20 10 21 20 22 21 23 23 24REMARK SMILES IDX 22 25 24 27 25 28 26 29 27 30REMARK H PARENT 19 3 2 13 23 26USER                              x       y       z     vdW  Elec       q    TypeUSER                           _______ _______ _______ _____ _____    ______ ____ROOTATOM      1  C   UNL     1      42.931  47.103  20.806 -0.32 +0.05    +0.193 C  ATOM      2  N   UNL     1      43.323  47.568  22.025 -0.17 -0.08    -0.367 N  ATOM      3  H   UNL     1      43.729  48.501  22.074 -0.49 +0.01    +0.162 HD ENDROOTBRANCH   1   4ATOM      4  N   UNL     1      42.130  46.108  20.612 -0.23 -0.05    -0.237 NA BRANCH   4   5ATOM      5  C   UNL     1      41.291  46.229  19.483 -0.38 +0.01    +0.088 A  ATOM      6  C   UNL     1      39.920  45.884  19.558 -0.34 -0.00    +0.061 A  ATOM      7  C   UNL     1      39.121  46.064  18.421 -0.36 -0.01    +0.036 A  ATOM      8  C   UNL     1      39.668  46.497  17.199 -0.46 +0.00    -0.015 A  ATOM      9  C   UNL     1      41.843  46.648  18.270 -0.42 -0.00    +0.031 A  ATOM     10  C   UNL     1      41.039  46.779  17.137 -0.39 -0.00    +0.011 A  BRANCH   6  11ATOM     11  N   UNL     1      39.387  45.489  20.811 -0.14 -0.01    -0.386 N  ATOM     12  C   UNL     1      38.551  44.301  20.820 -0.31 +0.00    +0.139 C  ATOM     13  H   UNL     1      40.183  45.404  21.451 +0.09 +0.01    +0.160 HD ENDBRANCH   6  11BRANCH   8  14ATOM     14  C   UNL     1      38.813  46.671  16.015 -0.43 -0.00    +0.000 A  ATOM     15  C   UNL     1      37.960  45.618  15.630 -0.36 -0.00    +0.012 A  ATOM     16  C   UNL     1      38.804  47.847  15.238 -0.47 -0.02    +0.050 A  ATOM     17  C   UNL     1      37.131  45.734  14.511 -0.39 -0.01    +0.021 A  ATOM     18  C   UNL     1      37.975  47.963  14.118 -0.50 -0.02    +0.041 A  ATOM     19  C   UNL     1      37.144  46.906  13.761 -0.47 -0.02    +0.042 A  ATOM     20  Cl  UNL     1      39.799  49.208  15.633 -0.72 +0.04    -0.084 Cl ATOM     21  Cl  UNL     1      36.124  47.048  12.383 -0.94 +0.04    -0.084 Cl ENDBRANCH   8  14ENDBRANCH   4   5ENDBRANCH   1   4BRANCH   2  22ATOM     22  C   UNL     1      42.681  47.131  23.252 -0.18 +0.04    +0.214 C  BRANCH  22  23ATOM     23  C   UNL     1      41.820  48.263  23.822 -0.27 +0.04    +0.239 C  ATOM     24  N   UNL     1      40.629  47.857  24.385 -0.12 -0.04    -0.345 N  ATOM     25  O   UNL     1      42.150  49.446  23.756 -0.86 -0.10    -0.273 OA ATOM     26  H   UNL     1      40.345  46.887  24.303 +0.07 +0.01    +0.164 HD BRANCH  24  27ATOM     27  C   UNL     1      39.701  48.809  24.987 -0.20 +0.02    +0.142 C  ATOM     28  C   UNL     1      40.166  49.207  26.380 -0.24 +0.01    +0.039 C  BRANCH  27  29ATOM     29  C   UNL     1      38.301  48.202  25.021 -0.30 +0.03    +0.248 C  ATOM     30  O   UNL     1      38.044  47.044  24.698 -0.60 -0.05    -0.301 OA ENDBRANCH  27  29ENDBRANCH  24  27ENDBRANCH  22  23ENDBRANCH   2  22TORSDOF 8TERENDMDL