MODEL        2USER    Run = 2USERUSER    Estimated Free Energy of Binding    =  -8.09 kcal/mol  [=(1)+(2)+(3)-(4)]USERUSER    (1) Final Intermolecular Energy     = -11.08 kcal/molUSER        vdW + Hbond + desolv Energy     = -10.95 kcal/molUSER        Electrostatic Energy            =  -0.13 kcal/molUSER        Moving Ligand-Fixed Receptor    = -11.08 kcal/molUSER        Moving Ligand-Moving Receptor   =  +0.00 kcal/molUSER    (2) Final Total Internal Energy     =  -2.14 kcal/molUSER    (3) Torsional Free Energy           =  +2.98 kcal/molUSER    (4) Unbound System's Energy         =  -2.14 kcal/molUSERUSERREMARK SMILES CCCN(Cc1ccnc(SC)n1)C(=O)N[C@H](CN(C)C)c1ccc(Cl)cc1FREMARK SMILES IDX 14 1 15 2 16 3 4 5 3 6 2 7 1 8 5 9 6 10 7 11 13 12 8 13REMARK SMILES IDX 10 14 9 15 11 16 12 17 17 18 18 19 19 20 20 21 21 22 22 23REMARK SMILES IDX 23 24 28 25 24 26 27 27 25 28 29 29 26 30REMARK H PARENT 16 4USER                              x       y       z     vdW  Elec       q    TypeUSER                           _______ _______ _______ _____ _____    ______ ____ROOTATOM      1  C   UNL     1      36.769  45.089  17.240 -0.18 -0.11    +0.318 C  ATOM      2  O   UNL     1      37.583  44.617  16.450 -0.23 +0.07    -0.249 OA ATOM      3  N   UNL     1      36.944  44.991  18.590 -0.14 +0.07    -0.330 N  ATOM      4  H   UNL     1      36.129  45.061  19.177 +0.10 -0.03    +0.166 HD ENDROOTBRANCH   1   5ATOM      5  N   UNL     1      35.632  45.759  16.827 -0.14 +0.22    -0.319 N  BRANCH   5   6ATOM      6  C   UNL     1      34.785  46.614  17.667 -0.34 -0.12    +0.121 C  BRANCH   6   7ATOM      7  C   UNL     1      33.968  45.833  18.699 -0.55 -0.01    +0.018 C  ATOM      8  C   UNL     1      33.255  44.629  18.101 -0.41 -0.00    +0.006 C  ENDBRANCH   6   7ENDBRANCH   5   6BRANCH   5   9ATOM      9  C   UNL     1      35.166  45.518  15.461 -0.28 -0.13    +0.177 C  BRANCH   9  10ATOM     10  C   UNL     1      35.917  46.357  14.449 -0.38 -0.05    +0.064 A  ATOM     11  C   UNL     1      35.404  46.553  13.182 -0.48 -0.03    +0.046 A  ATOM     12  N   UNL     1      37.069  46.937  14.855 -0.24 +0.14    -0.226 NA ATOM     13  C   UNL     1      36.138  47.363  12.351 -0.58 -0.06    +0.116 A  ATOM     14  C   UNL     1      37.714  47.711  13.966 -0.38 -0.08    +0.187 A  ATOM     15  N   UNL     1      37.291  47.952  12.714 -0.97 +0.05    -0.231 NA BRANCH  14  16ATOM     16  S   UNL     1      39.217  48.469  14.535 -0.65 +0.04    -0.090 SA ATOM     17  C   UNL     1      39.213  47.930  16.262 -0.45 -0.04    +0.094 C  ENDBRANCH  14  16ENDBRANCH   9  10ENDBRANCH   5   9ENDBRANCH   1   5BRANCH   3  18ATOM     18  C   UNL     1      38.041  44.226  19.163 -0.30 -0.01    +0.131 C  BRANCH  18  19ATOM     19  C   UNL     1      37.708  43.554  20.537 -0.29 -0.00    +0.113 C  BRANCH  19  20ATOM     20  N   UNL     1      36.301  43.146  20.774 -0.22 -0.00    -0.307 NA ATOM     21  C   UNL     1      36.238  42.203  21.896 -0.46 +0.01    +0.105 C  ATOM     22  C   UNL     1      35.705  42.519  19.591 -0.42 -0.01    +0.105 C  ENDBRANCH  19  20ENDBRANCH  18  19BRANCH  18  23ATOM     23  C   UNL     1      39.326  45.037  19.225 -0.40 -0.00    +0.012 A  ATOM     24  C   UNL     1      40.063  45.268  18.051 -0.42 -0.00    +0.010 A  ATOM     25  C   UNL     1      39.836  45.539  20.431 -0.27 +0.00    +0.130 A  ATOM     26  C   UNL     1      41.264  45.981  18.092 -0.46 -0.00    +0.021 A  ATOM     27  C   UNL     1      41.032  46.249  20.482 -0.24 +0.00    +0.060 A  ATOM     28  C   UNL     1      41.742  46.466  19.308 -0.45 +0.00    +0.043 A  ATOM     29  F   UNL     1      39.159  45.358  21.576 -0.09 -0.01    -0.207 F  ATOM     30  Cl  UNL     1      43.223  47.339  19.356 -0.62 -0.02    -0.084 Cl ENDBRANCH  18  23ENDBRANCH   3  18TORSDOF 10TERENDMDL