REMARK SMILES CCN(C[C@H]1CCCN1C(=O)[C@@H](O)CC(C)C)C(=O)c1cc(-c2ccccc2)[nH]n1
REMARK SMILES IDX 5 1 6 2 7 3 8 4 9 5 4 6 3 7 2 8 1 9 18 10 19 11 20 12 21 13
REMARK SMILES IDX 30 14 22 15 29 16 23 18 24 19 28 20 25 21 27 22 26 23 10 24
REMARK SMILES IDX 11 25 12 26 13 27 14 29 15 30 16 31 17 32
REMARK H PARENT 29 17 13 28
ROOT
ATOM      1  C   UNL     1      -1.716  -1.886  -0.396  1.00  0.00     0.104 C 
ATOM      2  C   UNL     1      -1.388  -3.154  -1.194  1.00  0.00     0.029 C 
ATOM      3  C   UNL     1      -2.349  -4.191  -0.627  1.00  0.00     0.024 C 
ATOM      4  C   UNL     1      -3.614  -3.386  -0.368  1.00  0.00     0.120 C 
ATOM      5  N   UNL     1      -3.163  -2.017  -0.174  1.00  0.00    -0.336 N 
ENDROOT
BRANCH   1   6
ATOM      6  C   UNL     1      -0.955  -1.822   0.958  1.00  0.00     0.145 C 
BRANCH   6   7
ATOM      7  N   UNL     1       0.493  -1.635   0.829  1.00  0.00    -0.335 N 
BRANCH   7   8
ATOM      8  C   UNL     1       1.352  -2.508   1.632  1.00  0.00     0.116 C 
ATOM      9  C   UNL     1       1.595  -3.855   0.976  1.00  0.00     0.027 C 
ENDBRANCH   7   8
BRANCH   7  10
ATOM     10  C   UNL     1       0.939  -0.401   0.319  1.00  0.00     0.274 C 
ATOM     11  O   UNL     1       0.143   0.525   0.143  1.00  0.00    -0.267 OA
BRANCH  10  12
ATOM     12  C   UNL     1       2.365  -0.219  -0.029  1.00  0.00     0.150 A 
ATOM     13  C   UNL     1       2.998   1.038  -0.242  1.00  0.00     0.064 A 
ATOM     14  N   UNL     1       3.235  -1.221  -0.258  1.00  0.00    -0.170 NA
ATOM     15  C   UNL     1       4.305   0.766  -0.594  1.00  0.00     0.066 A 
ATOM     16  N   UNL     1       4.383  -0.602  -0.573  1.00  0.00    -0.277 N 
ATOM     17  H   UNL     1       5.199  -1.173  -0.766  1.00  0.00     0.190 HD
BRANCH  15  18
ATOM     18  C   UNL     1       5.426   1.644  -0.912  1.00  0.00    -0.000 A 
ATOM     19  C   UNL     1       5.556   2.879  -0.266  1.00  0.00     0.010 A 
ATOM     20  C   UNL     1       6.386   1.282  -1.869  1.00  0.00     0.010 A 
ATOM     21  C   UNL     1       6.621   3.733  -0.565  1.00  0.00     0.001 A 
ATOM     22  C   UNL     1       7.450   2.137  -2.170  1.00  0.00     0.001 A 
ATOM     23  C   UNL     1       7.568   3.362  -1.516  1.00  0.00     0.000 A 
ENDBRANCH  15  18
ENDBRANCH  10  12
ENDBRANCH   7  10
ENDBRANCH   6   7
ENDBRANCH   1   6
BRANCH   5  24
ATOM     24  C   UNL     1      -4.078  -1.006   0.043  1.00  0.00     0.251 C 
ATOM     25  O   UNL     1      -5.272  -1.255   0.231  1.00  0.00    -0.272 OA
BRANCH  24  26
ATOM     26  C   UNL     1      -3.573   0.450  -0.062  1.00  0.00     0.203 C 
BRANCH  26  27
ATOM     27  O   UNL     1      -3.439   0.765  -1.450  1.00  0.00    -0.383 OA
ATOM     28  H   UNL     1      -4.319   0.645  -1.849  1.00  0.00     0.211 HD
ENDBRANCH  26  27
BRANCH  26  29
ATOM     29  C   UNL     1      -4.541   1.436   0.606  1.00  0.00     0.045 C 
BRANCH  29  30
ATOM     30  C   UNL     1      -3.922   2.817   0.915  1.00  0.00    -0.014 C 
ATOM     31  C   UNL     1      -3.450   3.562  -0.332  1.00  0.00     0.007 C 
ATOM     32  C   UNL     1      -4.933   3.677   1.676  1.00  0.00     0.007 C 
ENDBRANCH  29  30
ENDBRANCH  26  29
ENDBRANCH  24  26
ENDBRANCH   5  24
TORSDOF 11
