MODEL        1USER    Run = 1USERUSER    Estimated Free Energy of Binding    =  -8.06 kcal/mol  [=(1)+(2)+(3)-(4)]USERUSER    (1) Final Intermolecular Energy     =  -8.96 kcal/molUSER        vdW + Hbond + desolv Energy     =  -8.81 kcal/molUSER        Electrostatic Energy            =  -0.15 kcal/molUSER        Moving Ligand-Fixed Receptor    =  -8.96 kcal/molUSER        Moving Ligand-Moving Receptor   =  +0.00 kcal/molUSER    (2) Final Total Internal Energy     =  -0.47 kcal/molUSER    (3) Torsional Free Energy           =  +0.89 kcal/molUSER    (4) Unbound System's Energy         =  -0.47 kcal/molUSERUSERREMARK SMILES Cc1ccc(C(=O)Nc2cccc3ccccc23)cc1NREMARK SMILES IDX 1 1 2 2 3 3 4 4 5 5 19 6 20 7 21 8 6 11 8 12 7 13 9 15 10 16REMARK SMILES IDX 18 17 11 18 17 19 13 20 12 21 16 22 14 23 15 24REMARK H PARENT 21 9 21 10 8 14USER                              x       y       z     vdW  Elec       q    TypeUSER                           _______ _______ _______ _____ _____    ______ ____ROOTATOM      1  C   UNL     1      31.770  43.338  16.023 -0.37 -0.02    +0.046 C  ATOM      2  C   UNL     1      33.164  43.893  15.912 -0.30 +0.01    -0.028 A  ATOM      3  C   UNL     1      33.345  45.170  15.351 -0.32 -0.00    +0.006 A  ATOM      4  C   UNL     1      34.623  45.706  15.197 -0.31 -0.01    +0.014 A  ATOM      5  C   UNL     1      35.736  44.957  15.583 -0.32 -0.02    +0.042 A  ATOM      6  C   UNL     1      35.561  43.696  16.166 -0.37 -0.02    +0.039 A  ATOM      7  C   UNL     1      34.280  43.173  16.379 -0.36 -0.02    +0.035 A  ENDROOTBRANCH   7   8ATOM      8  N   UNL     1      34.158  41.858  16.852 -0.13 +0.21    -0.398 N  ATOM      9  H   UNL     1      33.370  41.354  16.453 -0.44 -0.13    +0.156 HD ATOM     10  H   UNL     1      35.014  41.317  16.800 -0.47 -0.11    +0.156 HD ENDBRANCH   7   8BRANCH   5  11ATOM     11  C   UNL     1      37.122  45.474  15.409 -0.24 -0.11    +0.255 C  ATOM     12  N   UNL     1      37.376  46.660  16.075 -0.17 +0.18    -0.321 N  ATOM     13  O   UNL     1      37.884  44.846  14.687 -0.22 +0.08    -0.269 OA ATOM     14  H   UNL     1      36.575  47.107  16.491 +0.11 -0.15    +0.170 HD BRANCH  12  15ATOM     15  C   UNL     1      38.602  47.373  16.160 -0.40 -0.02    +0.049 A  ATOM     16  C   UNL     1      38.897  48.411  15.266 -0.51 -0.01    +0.027 A  ATOM     17  C   UNL     1      39.562  47.008  17.162 -0.46 -0.00    +0.005 A  ATOM     18  C   UNL     1      40.106  49.098  15.337 -0.57 -0.00    +0.003 A  ATOM     19  C   UNL     1      39.386  45.981  18.127 -0.43 -0.00    +0.011 A  ATOM     20  C   UNL     1      40.790  47.722  17.213 -0.52 +0.00    -0.016 A  ATOM     21  C   UNL     1      41.044  48.755  16.303 -0.58 -0.00    +0.009 A  ATOM     22  C   UNL     1      40.364  45.675  19.079 -0.45 -0.00    +0.001 A  ATOM     23  C   UNL     1      41.764  47.403  18.174 -0.51 -0.00    +0.009 A  ATOM     24  C   UNL     1      41.554  46.386  19.101 -0.49 +0.00    +0.001 A  ENDBRANCH  12  15ENDBRANCH   5  11TORSDOF 3TERENDMDL