MODEL        3USER    Run = 3USERUSER    Estimated Free Energy of Binding    =  -9.29 kcal/mol  [=(1)+(2)+(3)-(4)]USERUSER    (1) Final Intermolecular Energy     = -12.57 kcal/molUSER        vdW + Hbond + desolv Energy     = -12.27 kcal/molUSER        Electrostatic Energy            =  -0.31 kcal/molUSER        Moving Ligand-Fixed Receptor    = -12.57 kcal/molUSER        Moving Ligand-Moving Receptor   =  +0.00 kcal/molUSER    (2) Final Total Internal Energy     =  -3.16 kcal/molUSER    (3) Torsional Free Energy           =  +3.28 kcal/molUSER    (4) Unbound System's Energy         =  -3.16 kcal/molUSERUSERREMARK SMILES CCN(C[C@H]1CCCN1C(=O)[C@@H](O)CC(C)C)C(=O)c1cc(-c2ccccc2)[nH]n1REMARK SMILES IDX 5 1 6 2 7 3 8 4 9 5 4 6 3 7 2 8 1 9 18 10 19 11 20 12 21 13REMARK SMILES IDX 30 14 22 15 29 16 23 18 24 19 28 20 25 21 27 22 26 23 10 24REMARK SMILES IDX 11 25 12 26 13 27 14 29 15 30 16 31 17 32REMARK H PARENT 29 17 13 28USER                              x       y       z     vdW  Elec       q    TypeUSER                           _______ _______ _______ _____ _____    ______ ____ROOTATOM      1  C   UNL     1      39.019  45.404  20.045 -0.34 -0.00    +0.104 C  ATOM      2  C   UNL     1      39.246  45.356  21.561 -0.37 +0.00    +0.029 C  ATOM      3  C   UNL     1      40.472  44.465  21.712 -0.31 +0.00    +0.024 C  ATOM      4  C   UNL     1      41.327  44.847  20.513 -0.33 +0.01    +0.120 C  ATOM      5  N   UNL     1      40.390  45.347  19.519 -0.20 -0.00    -0.336 N  ENDROOTBRANCH   1   6ATOM      6  C   UNL     1      38.182  44.199  19.531 -0.29 -0.01    +0.145 C  BRANCH   6   7ATOM      7  N   UNL     1      36.920  43.991  20.247 -0.18 +0.01    -0.335 N  BRANCH   7   8ATOM      8  C   UNL     1      36.993  43.311  21.542 -0.40 +0.01    +0.116 C  ATOM      9  C   UNL     1      36.908  41.801  21.417 -0.57 +0.00    +0.027 C  ENDBRANCH   7   8BRANCH   7  10ATOM     10  C   UNL     1      35.735  44.044  19.489 -0.26 -0.04    +0.274 C  ATOM     11  O   UNL     1      34.790  43.298  19.757 -0.34 +0.02    -0.267 OA BRANCH  10  12ATOM     12  C   UNL     1      35.628  44.983  18.351 -0.25 -0.05    +0.150 A  ATOM     13  C   UNL     1      36.254  44.804  17.085 -0.28 -0.02    +0.064 A  ATOM     14  N   UNL     1      34.983  46.164  18.387 -0.36 +0.10    -0.170 NA ATOM     15  C   UNL     1      35.948  45.920  16.334 -0.31 -0.05    +0.066 A  ATOM     16  N   UNL     1      35.176  46.688  17.166 -0.19 +0.32    -0.277 N  ATOM     17  H   UNL     1      34.751  47.584  16.956 -0.18 -0.48    +0.190 HD BRANCH  15  18ATOM     18  C   UNL     1      36.291  46.291  14.965 -0.39 +0.00    -0.000 A  ATOM     19  C   UNL     1      36.545  47.629  14.642 -0.41 -0.01    +0.010 A  ATOM     20  C   UNL     1      36.364  45.329  13.946 -0.41 -0.00    +0.010 A  ATOM     21  C   UNL     1      36.868  48.000  13.334 -0.60 -0.00    +0.001 A  ATOM     22  C   UNL     1      36.685  45.700  12.637 -0.57 -0.00    +0.001 A  ATOM     23  C   UNL     1      36.939  47.035  12.332 -0.68 -0.00    +0.000 A  ENDBRANCH  15  18ENDBRANCH  10  12ENDBRANCH   7  10ENDBRANCH   6   7ENDBRANCH   1   6BRANCH   5  24ATOM     24  C   UNL     1      40.849  45.826  18.308 -0.36 -0.01    +0.251 C  ATOM     25  O   UNL     1      41.529  45.120  17.558 -0.29 -0.01    -0.272 OA BRANCH  24  26ATOM     26  C   UNL     1      40.570  47.308  17.972 -0.36 -0.02    +0.203 C  BRANCH  26  27ATOM     27  O   UNL     1      41.810  47.909  17.593 -0.49 +0.02    -0.383 OA ATOM     28  H   UNL     1      42.407  47.182  17.344 -0.42 -0.07    +0.211 HD ENDBRANCH  26  27BRANCH  26  29ATOM     29  C   UNL     1      39.550  47.450  16.834 -0.50 -0.01    +0.045 C  BRANCH  29  30ATOM     30  C   UNL     1      40.163  47.337  15.420 -0.56 +0.00    -0.014 C  ATOM     31  C   UNL     1      39.617  46.159  14.615 -0.45 -0.00    +0.007 C  ATOM     32  C   UNL     1      39.930  48.638  14.651 -0.60 -0.00    +0.007 C  ENDBRANCH  29  30ENDBRANCH  26  29ENDBRANCH  24  26ENDBRANCH   5  24TORSDOF 11TERENDMDL