MODEL        4USER    Run = 4USERUSER    Estimated Free Energy of Binding    =  -6.86 kcal/mol  [=(1)+(2)+(3)-(4)]USERUSER    (1) Final Intermolecular Energy     =  -7.45 kcal/molUSER        vdW + Hbond + desolv Energy     =  -6.57 kcal/molUSER        Electrostatic Energy            =  -0.88 kcal/molUSER        Moving Ligand-Fixed Receptor    =  -7.45 kcal/molUSER        Moving Ligand-Moving Receptor   =  +0.00 kcal/molUSER    (2) Final Total Internal Energy     =  -0.54 kcal/molUSER    (3) Torsional Free Energy           =  +0.60 kcal/molUSER    (4) Unbound System's Energy         =  -0.54 kcal/molUSERUSERREMARK SMILES Oc1cccc(F)c1-c1nc2ccccc2[nH]1REMARK SMILES IDX 2 1 3 2 4 3 5 4 6 5 7 6 8 7 1 8 9 10 10 11 17 12 11 13 16 14REMARK SMILES IDX 12 15 15 16 13 17 14 18REMARK H PARENT 1 9 17 19USER                              x       y       z     vdW  Elec       q    TypeUSER                           _______ _______ _______ _____ _____    ______ ____ROOTATOM      1  C   UNL     1      29.043  23.261   2.414 -0.40 -0.12    +0.129 A  ATOM      2  C   UNL     1      28.869  24.128   1.328 -0.59 -0.03    +0.047 A  ATOM      3  C   UNL     1      29.879  24.265   0.378 -0.60 -0.00    +0.007 A  ATOM      4  C   UNL     1      31.056  23.539   0.518 -0.53 -0.02    +0.040 A  ATOM      5  C   UNL     1      31.223  22.675   1.604 -0.38 -0.06    +0.137 A  ATOM      6  F   UNL     1      32.383  22.006   1.675 -0.13 -0.10    -0.206 F  ATOM      7  C   UNL     1      30.227  22.512   2.578 -0.38 -0.08    +0.095 A  ENDROOTBRANCH   1   8ATOM      8  O   UNL     1      28.024  23.151   3.332 -0.17 +0.17    -0.507 OA ATOM      9  H   UNL     1      27.703  22.232   3.330 -0.19 -0.51    +0.293 HD ENDBRANCH   1   8BRANCH   7  10ATOM     10  C   UNL     1      30.440  21.594   3.708 -0.31 -0.07    +0.145 A  ATOM     11  N   UNL     1      31.595  21.168   4.186 -0.49 -0.02    -0.228 NA ATOM     12  N   UNL     1      29.410  21.042   4.439 -0.16 +0.29    -0.338 N  ATOM     13  C   UNL     1      31.299  20.333   5.234 -0.33 -0.00    +0.089 A  ATOM     14  C   UNL     1      29.926  20.236   5.416 -0.30 -0.02    +0.066 A  ATOM     15  C   UNL     1      32.154  19.618   6.085 -0.37 -0.00    +0.030 A  ATOM     16  C   UNL     1      29.335  19.456   6.411 -0.26 -0.01    +0.028 A  ATOM     17  C   UNL     1      31.590  18.825   7.093 -0.26 -0.00    +0.002 A  ATOM     18  C   UNL     1      30.203  18.748   7.250 -0.23 -0.00    +0.002 A  ATOM     19  H   UNL     1      28.432  21.224   4.256 -0.50 -0.29    +0.168 HD ENDBRANCH   7  10TORSDOF 2TERENDMDL