REMARK SMILES CNc1cc(-c2ccc(Cl)cc2Cl)ccc1N=CNCC(=O)N[C@H](C)C=O
REMARK SMILES IDX 18 1 19 2 17 4 16 5 3 6 4 7 5 8 15 9 14 10 2 11 1 12 6 14
REMARK SMILES IDX 7 15 12 16 8 17 11 18 9 19 13 20 10 21 20 22 21 23 23 24
REMARK SMILES IDX 22 25 24 27 25 28 26 29 27 30
REMARK H PARENT 19 3 2 13 23 26
ROOT
ATOM      1  C   UNL     1       0.938  -0.221   1.169  1.00  0.00     0.193 C 
ATOM      2  N   UNL     1       2.276  -0.258   1.424  1.00  0.00    -0.367 N 
ATOM      3  H   UNL     1       2.633  -1.020   1.997  1.00  0.00     0.162 HD
ENDROOT
BRANCH   1   4
ATOM      4  N   UNL     1       0.379   0.467   0.229  1.00  0.00    -0.237 NA
BRANCH   4   5
ATOM      5  C   UNL     1      -1.027   0.358   0.166  1.00  0.00     0.088 A 
ATOM      6  C   UNL     1      -1.641  -0.700  -0.547  1.00  0.00     0.061 A 
ATOM      7  C   UNL     1      -3.040  -0.788  -0.542  1.00  0.00     0.036 A 
ATOM      8  C   UNL     1      -3.836   0.191   0.081  1.00  0.00    -0.015 A 
ATOM      9  C   UNL     1      -1.812   1.340   0.776  1.00  0.00     0.031 A 
ATOM     10  C   UNL     1      -3.204   1.259   0.733  1.00  0.00     0.011 A 
BRANCH   6  11
ATOM     11  N   UNL     1      -0.816  -1.694  -1.130  1.00  0.00    -0.386 N 
ATOM     12  C   UNL     1      -1.280  -2.278  -2.377  1.00  0.00     0.139 C 
ATOM     13  H   UNL     1       0.116  -1.279  -1.224  1.00  0.00     0.160 HD
ENDBRANCH   6  11
BRANCH   8  14
ATOM     14  C   UNL     1      -5.303   0.085   0.067  1.00  0.00     0.000 A 
ATOM     15  C   UNL     1      -5.969  -0.302   1.246  1.00  0.00     0.012 A 
ATOM     16  C   UNL     1      -6.083   0.353  -1.076  1.00  0.00     0.050 A 
ATOM     17  C   UNL     1      -7.361  -0.420   1.282  1.00  0.00     0.021 A 
ATOM     18  C   UNL     1      -7.476   0.235  -1.040  1.00  0.00     0.041 A 
ATOM     19  C   UNL     1      -8.106  -0.151   0.139  1.00  0.00     0.042 A 
ATOM     20  Cl  UNL     1      -5.368   0.854  -2.571  1.00  0.00    -0.084 Cl
ATOM     21  Cl  UNL     1      -9.820  -0.297   0.184  1.00  0.00    -0.084 Cl
ENDBRANCH   8  14
ENDBRANCH   4   5
ENDBRANCH   1   4
BRANCH   2  22
ATOM     22  C   UNL     1       3.246   0.300   0.498  1.00  0.00     0.214 C 
BRANCH  22  23
ATOM     23  C   UNL     1       4.666  -0.005   0.985  1.00  0.00     0.239 C 
ATOM     24  N   UNL     1       5.643   0.822   0.473  1.00  0.00    -0.345 N 
ATOM     25  O   UNL     1       4.921  -0.935   1.749  1.00  0.00    -0.273 OA
ATOM     26  H   UNL     1       5.400   1.492  -0.248  1.00  0.00     0.164 HD
BRANCH  24  27
ATOM     27  C   UNL     1       7.046   0.676   0.849  1.00  0.00     0.142 C 
ATOM     28  C   UNL     1       7.793   1.988   0.664  1.00  0.00     0.039 C 
BRANCH  27  29
ATOM     29  C   UNL     1       7.678  -0.444   0.027  1.00  0.00     0.248 C 
ATOM     30  O   UNL     1       8.880  -0.526  -0.216  1.00  0.00    -0.301 OA
ENDBRANCH  27  29
ENDBRANCH  24  27
ENDBRANCH  22  23
ENDBRANCH   2  22
TORSDOF 8
