MODEL        2USER    Run = 2USERUSER    Estimated Free Energy of Binding    =  -8.68 kcal/mol  [=(1)+(2)+(3)-(4)]USERUSER    (1) Final Intermolecular Energy     =  -9.87 kcal/molUSER        vdW + Hbond + desolv Energy     =  -9.82 kcal/molUSER        Electrostatic Energy            =  -0.05 kcal/molUSER        Moving Ligand-Fixed Receptor    =  -9.87 kcal/molUSER        Moving Ligand-Moving Receptor   =  +0.00 kcal/molUSER    (2) Final Total Internal Energy     =  -0.85 kcal/molUSER    (3) Torsional Free Energy           =  +1.19 kcal/molUSER    (4) Unbound System's Energy         =  -0.85 kcal/molUSERUSERREMARK SMILES CSc1nccc(CN2C=CC(c3c(F)cccc3F)=C[C@H]2C)n1REMARK SMILES IDX 8 1 7 2 3 3 4 4 24 5 5 6 6 7 2 8 1 9 9 10 10 11 22 12 11 13REMARK SMILES IDX 21 14 12 15 23 16 13 17 14 18 19 19 16 20 18 21 17 22 15 23REMARK SMILES IDX 20 24REMARK H PARENTUSER                              x       y       z     vdW  Elec       q    TypeUSER                           _______ _______ _______ _____ _____    ______ ____ROOTATOM      1  C   UNL     1      38.331  47.835  13.905 -0.44 -0.06    +0.172 C  ENDROOTBRANCH   1   2ATOM      2  C   UNL     1      39.457  48.263  14.830 -0.49 -0.02    +0.064 A  ATOM      3  C   UNL     1      41.336  49.553  15.165 -0.49 -0.03    +0.187 A  ATOM      4  N   UNL     1      41.559  49.046  16.388 -0.92 -0.02    -0.231 NA ATOM      5  N   UNL     1      40.322  49.194  14.359 -0.34 +0.08    -0.226 NA ATOM      6  C   UNL     1      40.686  48.121  16.818 -0.44 -0.02    +0.116 A  ATOM      7  C   UNL     1      39.615  47.684  16.075 -0.48 -0.01    +0.046 A  BRANCH   3   8ATOM      8  S   UNL     1      42.501  50.765  14.591 -0.76 +0.02    -0.090 SA ATOM      9  C   UNL     1      42.564  50.338  12.835 -0.68 -0.03    +0.094 C  ENDBRANCH   3   8ENDBRANCH   1   2BRANCH   1  10ATOM     10  N   UNL     1      37.398  46.884  14.532 -0.14 +0.18    -0.365 N  ATOM     11  C   UNL     1      36.543  47.252  15.558 -0.38 -0.07    +0.082 C  ATOM     12  C   UNL     1      37.317  45.538  13.928 -0.43 -0.04    +0.102 C  ATOM     13  C   UNL     1      35.791  46.375  16.235 -0.40 -0.02    +0.026 C  ATOM     14  C   UNL     1      36.582  44.580  14.842 -0.44 -0.00    +0.006 C  ATOM     15  C   UNL     1      35.867  44.957  15.923 -0.39 +0.01    -0.013 C  ATOM     16  C   UNL     1      36.604  45.599  12.577 -0.61 -0.01    +0.035 C  BRANCH  15  17ATOM     17  C   UNL     1      35.181  43.926  16.728 -0.30 -0.02    +0.053 A  ATOM     18  C   UNL     1      35.786  43.348  17.851 -0.24 -0.04    +0.133 A  ATOM     19  C   UNL     1      33.887  43.503  16.403 -0.25 -0.06    +0.133 A  ATOM     20  C   UNL     1      35.133  42.382  18.617 -0.37 -0.01    +0.040 A  ATOM     21  C   UNL     1      33.222  42.537  17.161 -0.33 -0.02    +0.040 A  ATOM     22  C   UNL     1      33.846  41.973  18.272 -0.41 -0.00    +0.006 A  ATOM     23  F   UNL     1      37.022  43.717  18.223 -0.04 +0.04    -0.206 F  ATOM     24  F   UNL     1      33.249  44.018  15.340 -0.05 +0.11    -0.206 F  ENDBRANCH  15  17ENDBRANCH   1  10TORSDOF 4TERENDMDL