REMARK SMILES CCCN(Cc1ccnc(SC)n1)C(=O)N[C@H](CN(C)C)c1ccc(Cl)cc1F
REMARK SMILES IDX 14 1 15 2 16 3 4 5 3 6 2 7 1 8 5 9 6 10 7 11 13 12 8 13
REMARK SMILES IDX 10 14 9 15 11 16 12 17 17 18 18 19 19 20 20 21 21 22 22 23
REMARK SMILES IDX 23 24 28 25 24 26 27 27 25 28 29 29 26 30
REMARK H PARENT 16 4
ROOT
ATOM      1  C   UNL     1       0.319   1.356  -0.111  1.00  0.00     0.318 C 
ATOM      2  O   UNL     1       0.534   2.133   0.817  1.00  0.00    -0.249 OA
ATOM      3  N   UNL     1      -0.943   0.932  -0.410  1.00  0.00    -0.330 N 
ATOM      4  H   UNL     1      -1.042   0.064  -0.911  1.00  0.00     0.166 HD
ENDROOT
BRANCH   1   5
ATOM      5  N   UNL     1       1.327   0.867  -0.921  1.00  0.00    -0.319 N 
BRANCH   5   6
ATOM      6  C   UNL     1       1.157  -0.085  -2.025  1.00  0.00     0.121 C 
BRANCH   6   7
ATOM      7  C   UNL     1       0.552   0.545  -3.282  1.00  0.00     0.018 C 
ATOM      8  C   UNL     1       1.460   1.588  -3.917  1.00  0.00     0.006 C 
ENDBRANCH   6   7
ENDBRANCH   5   6
BRANCH   5   9
ATOM      9  C   UNL     1       2.702   1.246  -0.590  1.00  0.00     0.177 C 
BRANCH   9  10
ATOM     10  C   UNL     1       3.360   0.243   0.334  1.00  0.00     0.064 A 
ATOM     11  C   UNL     1       3.180   0.325   1.700  1.00  0.00     0.046 A 
ATOM     12  N   UNL     1       4.079  -0.750  -0.238  1.00  0.00    -0.226 NA
ATOM     13  C   UNL     1       3.784  -0.654   2.450  1.00  0.00     0.116 A 
ATOM     14  C   UNL     1       4.631  -1.659   0.583  1.00  0.00     0.187 A 
ATOM     15  N   UNL     1       4.512  -1.653   1.921  1.00  0.00    -0.231 NA
BRANCH  14  16
ATOM     16  S   UNL     1       5.558  -2.957  -0.200  1.00  0.00    -0.090 SA
ATOM     17  C   UNL     1       6.339  -3.710   1.247  1.00  0.00     0.094 C 
ENDBRANCH  14  16
ENDBRANCH   9  10
ENDBRANCH   5   9
ENDBRANCH   1   5
BRANCH   3  18
ATOM     18  C   UNL     1      -2.083   1.286   0.421  1.00  0.00     0.131 C 
BRANCH  18  19
ATOM     19  C   UNL     1      -2.072   0.630   1.843  1.00  0.00     0.113 C 
BRANCH  19  20
ATOM     20  N   UNL     1      -2.292  -0.836   1.919  1.00  0.00    -0.307 NA
ATOM     21  C   UNL     1      -2.752  -1.201   3.263  1.00  0.00     0.105 C 
ATOM     22  C   UNL     1      -1.074  -1.590   1.611  1.00  0.00     0.105 C 
ENDBRANCH  19  20
ENDBRANCH  18  19
BRANCH  18  23
ATOM     23  C   UNL     1      -3.403   1.055  -0.299  1.00  0.00     0.012 A 
ATOM     24  C   UNL     1      -4.464   1.959  -0.117  1.00  0.00     0.010 A 
ATOM     25  C   UNL     1      -3.623  -0.061  -1.118  1.00  0.00     0.130 A 
ATOM     26  C   UNL     1      -5.696   1.746  -0.742  1.00  0.00     0.021 A 
ATOM     27  C   UNL     1      -4.846  -0.282  -1.743  1.00  0.00     0.060 A 
ATOM     28  C   UNL     1      -5.880   0.626  -1.550  1.00  0.00     0.043 A 
ATOM     29  F   UNL     1      -2.634  -0.943  -1.335  1.00  0.00    -0.207 F 
ATOM     30  Cl  UNL     1      -7.399   0.365  -2.314  1.00  0.00    -0.084 Cl
ENDBRANCH  18  23
ENDBRANCH   3  18
TORSDOF 10
