REMARK SMILES Cc1cc(-c2c[nH]c3ccc(-c4cnn(C)c4)cc23)ccc1O
REMARK SMILES IDX 5 1 6 2 7 3 8 4 9 5 10 6 11 7 18 8 19 9 4 11 2 12 3 13 22 14
REMARK SMILES IDX 21 15 20 16 1 17 23 18 12 20 13 21 17 22 14 23 15 24 16 25
REMARK H PARENT 7 10 23 19
ROOT
ATOM      1  C   UNL     1      -1.460   0.245   1.419  1.00  0.00     0.007 A 
ATOM      2  C   UNL     1      -1.857   0.830   2.605  1.00  0.00     0.092 A 
ATOM      3  N   UNL     1      -0.736   1.250   3.268  1.00  0.00    -0.361 N 
ATOM      4  C   UNL     1       0.391   0.958   2.535  1.00  0.00     0.046 A 
ATOM      5  C   UNL     1       1.738   1.202   2.818  1.00  0.00     0.027 A 
ATOM      6  C   UNL     1       2.685   0.793   1.871  1.00  0.00     0.011 A 
ATOM      7  C   UNL     1       2.309   0.164   0.677  1.00  0.00    -0.014 A 
ATOM      8  C   UNL     1       0.946  -0.070   0.425  1.00  0.00     0.019 A 
ATOM      9  C   UNL     1      -0.032   0.326   1.365  1.00  0.00     0.008 A 
ATOM     10  H   UNL     1      -0.730   1.708   4.169  1.00  0.00     0.166 HD
ENDROOT
BRANCH   1  11
ATOM     11  C   UNL     1      -2.397  -0.338   0.474  1.00  0.00    -0.016 A 
ATOM     12  C   UNL     1      -4.409  -0.149  -0.907  1.00  0.00    -0.009 A 
ATOM     13  C   UNL     1      -3.497   0.401   0.011  1.00  0.00     0.016 A 
ATOM     14  C   UNL     1      -4.193  -1.459  -1.351  1.00  0.00     0.118 A 
ATOM     15  C   UNL     1      -3.107  -2.203  -0.896  1.00  0.00     0.047 A 
ATOM     16  C   UNL     1      -2.209  -1.645   0.014  1.00  0.00     0.012 A 
ATOM     17  C   UNL     1      -5.567   0.680  -1.379  1.00  0.00     0.048 C 
BRANCH  14  18
ATOM     18  O   UNL     1      -5.017  -2.086  -2.242  1.00  0.00    -0.508 OA
ATOM     19  H   UNL     1      -5.724  -1.479  -2.509  1.00  0.00     0.293 HD
ENDBRANCH  14  18
ENDBRANCH   1  11
BRANCH   7  20
ATOM     20  C   UNL     1       3.305  -0.256  -0.296  1.00  0.00     0.020 A 
ATOM     21  C   UNL     1       3.283  -1.304  -1.247  1.00  0.00     0.143 A 
ATOM     22  C   UNL     1       4.530   0.346  -0.499  1.00  0.00     0.117 A 
ATOM     23  N   UNL     1       4.399  -1.363  -1.980  1.00  0.00    -0.181 NA
ATOM     24  N   UNL     1       5.138  -0.346  -1.506  1.00  0.00    -0.275 N 
ATOM     25  C   UNL     1       6.437  -0.088  -2.077  1.00  0.00     0.173 C 
ENDBRANCH   7  20
TORSDOF 3
