REMARK SMILES CSc1nccc(CN2C=CC(c3c(F)cccc3F)=C[C@H]2C)n1
REMARK SMILES IDX 8 1 7 2 3 3 4 4 24 5 5 6 6 7 2 8 1 9 9 10 10 11 22 12 11 13
REMARK SMILES IDX 21 14 12 15 23 16 13 17 14 18 19 19 16 20 18 21 17 22 15 23
REMARK SMILES IDX 20 24
REMARK H PARENT
ROOT
ATOM      1  C   UNL     1       2.189  -0.664  -0.536  1.00  0.00     0.172 C 
ENDROOT
BRANCH   1   2
ATOM      2  C   UNL     1       2.757  -0.426   0.853  1.00  0.00     0.064 A 
ATOM      3  C   UNL     1       4.500   0.331   2.155  1.00  0.00     0.187 A 
ATOM      4  N   UNL     1       3.897  -0.023   3.301  1.00  0.00    -0.231 NA
ATOM      5  N   UNL     1       3.983   0.145   0.928  1.00  0.00    -0.226 NA
ATOM      6  C   UNL     1       2.686  -0.593   3.187  1.00  0.00     0.116 A 
ATOM      7  C   UNL     1       2.068  -0.827   1.982  1.00  0.00     0.046 A 
BRANCH   3   8
ATOM      8  S   UNL     1       6.108   1.070   2.307  1.00  0.00    -0.090 SA
ATOM      9  C   UNL     1       6.273   1.810   0.665  1.00  0.00     0.094 C 
ENDBRANCH   3   8
ENDBRANCH   1   2
BRANCH   1  10
ATOM     10  N   UNL     1       0.749  -0.371  -0.630  1.00  0.00    -0.365 N 
ATOM     11  C   UNL     1       0.240   0.905  -0.447  1.00  0.00     0.082 C 
ATOM     12  C   UNL     1      -0.128  -1.479  -1.060  1.00  0.00     0.102 C 
ATOM     13  C   UNL     1      -1.071   1.168  -0.388  1.00  0.00     0.026 C 
ATOM     14  C   UNL     1      -1.583  -1.145  -0.808  1.00  0.00     0.006 C 
ATOM     15  C   UNL     1      -2.037   0.086  -0.492  1.00  0.00    -0.013 C 
ATOM     16  C   UNL     1       0.076  -1.777  -2.546  1.00  0.00     0.035 C 
BRANCH  15  17
ATOM     17  C   UNL     1      -3.485   0.288  -0.285  1.00  0.00     0.053 A 
ATOM     18  C   UNL     1      -4.188  -0.400   0.712  1.00  0.00     0.133 A 
ATOM     19  C   UNL     1      -4.205   1.194  -1.072  1.00  0.00     0.133 A 
ATOM     20  C   UNL     1      -5.554  -0.201   0.914  1.00  0.00     0.040 A 
ATOM     21  C   UNL     1      -5.572   1.403  -0.881  1.00  0.00     0.040 A 
ATOM     22  C   UNL     1      -6.251   0.704   0.115  1.00  0.00     0.006 A 
ATOM     23  F   UNL     1      -3.555  -1.277   1.508  1.00  0.00    -0.206 F 
ATOM     24  F   UNL     1      -3.592   1.888  -2.044  1.00  0.00    -0.206 F 
ENDBRANCH  15  17
ENDBRANCH   1  10
TORSDOF 4
