REMARK SMILES NC(=O)c1ccc(Nc2nc3c(s2)CCC[C@H]3C(=O)NCC(F)(F)F)cc1S
REMARK SMILES IDX 9 1 10 2 11 3 12 4 13 5 14 6 15 7 16 8 17 9 8 10 7 12 4 13
REMARK SMILES IDX 5 14 27 15 6 16 26 17 2 18 1 19 3 22 28 23 18 25 20 26 19 27
REMARK SMILES IDX 21 29 22 30 23 31 24 32 25 33
REMARK H PARENT 8 11 1 20 1 21 28 24 20 28
ROOT
ATOM      1  C   UNL     1      -0.846  -1.692   0.368  1.00  0.00     0.187 A 
ATOM      2  N   UNL     1       0.331  -1.096   0.396  1.00  0.00    -0.224 NA
ATOM      3  C   UNL     1       1.344  -2.035   0.305  1.00  0.00     0.069 A 
ATOM      4  C   UNL     1       0.928  -3.346   0.212  1.00  0.00     0.031 A 
ATOM      5  S   UNL     1      -0.767  -3.425   0.247  1.00  0.00    -0.102 S 
ATOM      6  C   UNL     1       1.821  -4.537   0.121  1.00  0.00     0.049 C 
ATOM      7  C   UNL     1       3.233  -4.109  -0.315  1.00  0.00     0.007 C 
ATOM      8  C   UNL     1       3.719  -2.852   0.438  1.00  0.00     0.020 C 
ATOM      9  C   UNL     1       2.791  -1.627   0.247  1.00  0.00     0.128 C 
ENDROOT
BRANCH   1  10
ATOM     10  N   UNL     1      -2.072  -1.117   0.395  1.00  0.00    -0.332 N 
ATOM     11  H   UNL     1      -2.839  -1.782   0.454  1.00  0.00     0.169 HD
BRANCH  10  12
ATOM     12  C   UNL     1      -2.443   0.191   0.752  1.00  0.00     0.041 A 
ATOM     13  C   UNL     1      -3.353   2.803   1.412  1.00  0.00     0.053 A 
ATOM     14  C   UNL     1      -1.995   2.453   1.527  1.00  0.00     0.017 A 
ATOM     15  C   UNL     1      -4.255   1.862   0.887  1.00  0.00     0.019 A 
ATOM     16  C   UNL     1      -1.550   1.167   1.205  1.00  0.00     0.027 A 
ATOM     17  C   UNL     1      -3.785   0.575   0.559  1.00  0.00     0.041 A 
BRANCH  13  18
ATOM     18  C   UNL     1      -3.696   4.190   1.851  1.00  0.00     0.249 C 
ATOM     19  N   UNL     1      -4.950   4.421   2.336  1.00  0.00    -0.366 N 
ATOM     20  H   UNL     1      -5.213   5.390   2.465  1.00  0.00     0.159 HD
ATOM     21  H   UNL     1      -5.693   3.736   2.231  1.00  0.00     0.159 HD
ATOM     22  O   UNL     1      -2.874   5.096   1.806  1.00  0.00    -0.270 OA
ENDBRANCH  13  18
BRANCH  15  23
ATOM     23  S   UNL     1      -5.988   2.170   0.547  1.00  0.00    -0.143 SA
ATOM     24  H   UNL     1      -5.902   2.015  -0.787  1.00  0.00     0.108 HD
ENDBRANCH  15  23
ENDBRANCH  10  12
ENDBRANCH   1  10
BRANCH   9  25
ATOM     25  C   UNL     1       3.055  -0.903  -1.077  1.00  0.00     0.229 C 
ATOM     26  N   UNL     1       2.420   0.323  -1.169  1.00  0.00    -0.346 N 
ATOM     27  O   UNL     1       3.766  -1.356  -1.977  1.00  0.00    -0.274 OA
ATOM     28  H   UNL     1       1.647   0.486  -0.511  1.00  0.00     0.163 HD
BRANCH  26  29
ATOM     29  C   UNL     1       2.438   1.120  -2.398  1.00  0.00     0.231 C 
BRANCH  29  30
ATOM     30  C   UNL     1       2.538   2.627  -2.158  1.00  0.00     0.405 C 
ATOM     31  F   UNL     1       1.550   3.055  -1.331  1.00  0.00    -0.169 F 
ATOM     32  F   UNL     1       3.719   2.963  -1.590  1.00  0.00    -0.169 F 
ATOM     33  F   UNL     1       2.422   3.313  -3.320  1.00  0.00    -0.169 F 
ENDBRANCH  29  30
ENDBRANCH  26  29
ENDBRANCH   9  25
TORSDOF 7
