MODEL        7USER    Run = 7USERUSER    Estimated Free Energy of Binding    =  -8.72 kcal/mol  [=(1)+(2)+(3)-(4)]USERUSER    (1) Final Intermolecular Energy     = -10.80 kcal/molUSER        vdW + Hbond + desolv Energy     = -10.61 kcal/molUSER        Electrostatic Energy            =  -0.19 kcal/molUSER        Moving Ligand-Fixed Receptor    = -10.80 kcal/molUSER        Moving Ligand-Moving Receptor   =  +0.00 kcal/molUSER    (2) Final Total Internal Energy     =  -2.10 kcal/molUSER    (3) Torsional Free Energy           =  +2.09 kcal/molUSER    (4) Unbound System's Energy         =  -2.10 kcal/molUSERUSERREMARK SMILES NC(=O)c1ccc(Nc2nc3c(s2)CCC[C@H]3C(=O)NCC(F)(F)F)cc1SREMARK SMILES IDX 9 1 10 2 11 3 12 4 13 5 14 6 15 7 16 8 17 9 8 10 7 12 4 13REMARK SMILES IDX 5 14 27 15 6 16 26 17 2 18 1 19 3 22 28 23 18 25 20 26 19 27REMARK SMILES IDX 21 29 22 30 23 31 24 32 25 33REMARK H PARENT 8 11 1 20 1 21 28 24 20 28USER                              x       y       z     vdW  Elec       q    TypeUSER                           _______ _______ _______ _____ _____    ______ ____ROOTATOM      1  C   UNL     1      36.858  44.564  16.240 -0.22 -0.07    +0.187 A  ATOM      2  N   UNL     1      36.586  44.972  17.465 -0.19 +0.08    -0.224 NA ATOM      3  C   UNL     1      35.611  44.169  18.031 -0.27 -0.02    +0.069 A  ATOM      4  C   UNL     1      35.142  43.152  17.226 -0.36 -0.01    +0.031 A  ATOM      5  S   UNL     1      35.922  43.193  15.720 -0.54 +0.04    -0.102 S  ATOM      6  C   UNL     1      34.085  42.168  17.597 -0.44 -0.02    +0.049 C  ATOM      7  C   UNL     1      33.907  42.130  19.125 -0.46 -0.00    +0.007 C  ATOM      8  C   UNL     1      33.876  43.545  19.742 -0.45 -0.00    +0.020 C  ATOM      9  C   UNL     1      35.155  44.368  19.451 -0.37 -0.02    +0.128 C  ENDROOTBRANCH   1  10ATOM     10  N   UNL     1      37.776  45.064  15.380 -0.13 +0.11    -0.332 N  ATOM     11  H   UNL     1      37.693  44.705  14.432 +0.12 -0.05    +0.169 HD BRANCH  10  12ATOM     12  C   UNL     1      38.535  46.244  15.462 -0.38 -0.01    +0.041 A  ATOM     13  C   UNL     1      40.150  48.565  15.766 -0.53 -0.02    +0.053 A  ATOM     14  C   UNL     1      39.088  48.532  14.845 -0.51 -0.01    +0.017 A  ATOM     15  C   UNL     1      40.360  47.454  16.601 -0.51 -0.00    +0.019 A  ATOM     16  C   UNL     1      38.296  47.388  14.694 -0.46 -0.01    +0.027 A  ATOM     17  C   UNL     1      39.546  46.316  16.441 -0.41 -0.01    +0.041 A  BRANCH  13  18ATOM     18  C   UNL     1      40.951  49.827  15.775 -0.49 -0.06    +0.249 C  ATOM     19  N   UNL     1      40.294  51.005  15.977 +0.02 +0.21    -0.366 N  ATOM     20  H   UNL     1      40.824  51.852  15.810 -0.37 -0.10    +0.159 HD ATOM     21  H   UNL     1      39.281  51.061  15.933 -0.44 -0.13    +0.159 HD ATOM     22  O   UNL     1      42.167  49.813  15.633 -0.71 -0.05    -0.270 OA ENDBRANCH  13  18BRANCH  15  23ATOM     23  S   UNL     1      41.575  47.365  17.917 -0.56 +0.01    -0.143 SA ATOM     24  H   UNL     1      42.566  47.973  17.238 -0.49 -0.00    +0.108 HD ENDBRANCH  15  23ENDBRANCH  10  12ENDBRANCH   1  10BRANCH   9  25ATOM     25  C   UNL     1      36.302  44.007  20.401 -0.31 -0.01    +0.229 C  ATOM     26  N   UNL     1      37.465  44.717  20.153 -0.14 +0.01    -0.346 N  ATOM     27  O   UNL     1      36.209  43.173  21.304 -0.31 -0.02    -0.274 OA ATOM     28  H   UNL     1      37.534  45.169  19.232 +0.09 -0.02    +0.163 HD BRANCH  26  29ATOM     29  C   UNL     1      38.715  44.436  20.862 -0.26 +0.00    +0.231 C  BRANCH  29  30ATOM     30  C   UNL     1      39.972  44.739  20.045 -0.17 +0.01    +0.405 C  ATOM     31  F   UNL     1      39.774  44.470  18.729 -0.13 +0.01    -0.169 F  ATOM     32  F   UNL     1      40.330  46.040  20.146 -0.12 -0.00    -0.169 F  ATOM     33  F   UNL     1      41.016  43.984  20.462 -0.12 -0.01    -0.169 F  ENDBRANCH  29  30ENDBRANCH  26  29ENDBRANCH   9  25TORSDOF 7TERENDMDL