REMARK SMILES CC(C)c1nc2cccc(-c3cc4cn[nH]c(N)c-4c3)c2nc1CN
REMARK SMILES IDX 4 1 5 2 6 3 7 4 8 5 9 6 10 7 21 8 22 9 23 10 2 11 1 12 3 13
REMARK SMILES IDX 24 14 25 15 11 18 12 19 20 20 13 21 19 22 14 23 17 24 15 25
REMARK SMILES IDX 16 26 18 28
REMARK H PARENT 25 16 25 17 16 27 18 29 18 30
ROOT
ATOM      1  C   UNL     1      -2.888   0.979  -0.094  1.00  0.00     0.066 A 
ATOM      2  N   UNL     1      -2.494   1.924   0.804  1.00  0.00    -0.249 NA
ATOM      3  C   UNL     1      -1.200   1.974   1.168  1.00  0.00     0.090 A 
ATOM      4  C   UNL     1      -0.810   2.940   2.086  1.00  0.00     0.030 A 
ATOM      5  C   UNL     1       0.511   3.052   2.508  1.00  0.00     0.003 A 
ATOM      6  C   UNL     1       1.462   2.178   2.000  1.00  0.00     0.011 A 
ATOM      7  C   UNL     1       1.091   1.189   1.072  1.00  0.00     0.010 A 
ATOM      8  C   UNL     1      -0.246   1.079   0.643  1.00  0.00     0.097 A 
ATOM      9  N   UNL     1      -0.641   0.140  -0.248  1.00  0.00    -0.247 NA
ATOM     10  C   UNL     1      -1.958   0.076  -0.609  1.00  0.00     0.076 A 
ENDROOT
BRANCH   1  11
ATOM     11  C   UNL     1      -4.370   1.023  -0.405  1.00  0.00     0.034 C 
ATOM     12  C   UNL     1      -5.141  -0.070   0.337  1.00  0.00     0.014 C 
ATOM     13  C   UNL     1      -4.724   1.062  -1.891  1.00  0.00     0.014 C 
ENDBRANCH   1  11
BRANCH  10  14
ATOM     14  C   UNL     1      -2.293  -0.996  -1.625  1.00  0.00     0.136 C 
BRANCH  14  15
ATOM     15  N   UNL     1      -1.246  -2.025  -1.751  1.00  0.00    -0.325 NA
ATOM     16  H   UNL     1      -0.361  -1.515  -1.841  1.00  0.00     0.119 HD
ATOM     17  H   UNL     1      -1.147  -2.473  -0.838  1.00  0.00     0.119 HD
ENDBRANCH  14  15
ENDBRANCH  10  14
BRANCH   7  18
ATOM     18  C   UNL     1       2.133   0.286   0.554  1.00  0.00    -0.015 A 
ATOM     19  C   UNL     1       2.431   0.001  -0.857  1.00  0.00     0.019 A 
ATOM     20  C   UNL     1       2.968  -0.438   1.335  1.00  0.00     0.021 A 
ATOM     21  C   UNL     1       3.434  -0.882  -0.910  1.00  0.00     0.006 A 
ATOM     22  C   UNL     1       3.822  -1.191   0.445  1.00  0.00     0.026 A 
ATOM     23  C   UNL     1       4.142  -1.560  -2.001  1.00  0.00     0.142 A 
ATOM     24  C   UNL     1       4.830  -2.063   0.648  1.00  0.00     0.125 A 
ATOM     25  N   UNL     1       5.109  -2.407  -1.794  1.00  0.00    -0.182 NA
ATOM     26  N   UNL     1       5.452  -2.610  -0.471  1.00  0.00    -0.263 N 
ATOM     27  H   UNL     1       6.027  -3.424  -0.271  1.00  0.00     0.192 HD
BRANCH  24  28
ATOM     28  N   UNL     1       5.281  -2.417   1.901  1.00  0.00    -0.384 N 
ATOM     29  H   UNL     1       5.003  -1.751   2.615  1.00  0.00     0.158 HD
ATOM     30  H   UNL     1       6.288  -2.552   1.896  1.00  0.00     0.158 HD
ENDBRANCH  24  28
ENDBRANCH   7  18
TORSDOF 5
