MODEL        8USER    Run = 8USERUSER    Estimated Free Energy of Binding    = -11.22 kcal/mol  [=(1)+(2)+(3)-(4)]USERUSER    (1) Final Intermolecular Energy     = -13.30 kcal/molUSER        vdW + Hbond + desolv Energy     = -12.82 kcal/molUSER        Electrostatic Energy            =  -0.48 kcal/molUSER        Moving Ligand-Fixed Receptor    = -13.30 kcal/molUSER        Moving Ligand-Moving Receptor   =  +0.00 kcal/molUSER    (2) Final Total Internal Energy     =  -1.50 kcal/molUSER    (3) Torsional Free Energy           =  +2.09 kcal/molUSER    (4) Unbound System's Energy         =  -1.50 kcal/molUSERUSERREMARK SMILES Cc1c(NC(=O)CNCCC#N)ccc2ccc(-c3ccc4cn[nH]c4c3)cc12REMARK SMILES IDX 7 1 5 2 4 3 6 5 3 6 2 7 29 8 13 9 28 10 15 11 14 12 18 13REMARK SMILES IDX 16 14 17 15 1 16 19 17 20 18 27 19 21 20 26 21 22 22 25 23REMARK SMILES IDX 23 24 24 25 8 27 9 29 10 30 11 31 12 32REMARK H PARENT 4 4 25 26 8 28USER                              x       y       z     vdW  Elec       q    TypeUSER                           _______ _______ _______ _____ _____    ______ ____ROOTATOM      1  C   UNL     1      32.045  44.506  15.969 -0.28 -0.09    +0.182 C  ENDROOTBRANCH   1   2ATOM      2  C   UNL     1      33.573  44.449  15.968 -0.21 -0.14    +0.238 C  ATOM      3  N   UNL     1      34.131  45.718  15.956 -0.08 +0.34    -0.325 N  ATOM      4  H   UNL     1      33.504  46.411  16.360 -0.30 -0.33    +0.169 HD ATOM      5  O   UNL     1      34.168  43.376  15.995 -0.26 +0.13    -0.273 OA BRANCH   3   6ATOM      6  C   UNL     1      35.511  46.022  15.974 -0.32 -0.04    +0.044 A  ATOM      7  C   UNL     1      36.402  45.711  17.024 -0.34 +0.01    -0.020 A  ATOM      8  C   UNL     1      37.756  46.180  16.965 -0.37 +0.01    -0.013 A  ATOM      9  C   UNL     1      35.997  46.649  14.824 -0.37 -0.02    +0.027 A  ATOM     10  C   UNL     1      38.697  46.013  18.014 -0.37 -0.00    +0.017 A  ATOM     11  C   UNL     1      38.206  46.848  15.801 -0.40 +0.01    -0.018 A  ATOM     12  C   UNL     1      37.326  47.058  14.739 -0.43 -0.01    +0.011 A  ATOM     13  C   UNL     1      40.027  46.461  17.925 -0.46 +0.00    -0.018 A  ATOM     14  C   UNL     1      39.533  47.296  15.706 -0.49 -0.00    +0.009 A  ATOM     15  C   UNL     1      40.434  47.099  16.752 -0.50 -0.00    +0.009 A  ATOM     16  C   UNL     1      35.987  44.829  18.179 -0.36 -0.01    +0.047 C  BRANCH  13  17ATOM     17  C   UNL     1      40.961  46.263  19.040 -0.46 -0.00    -0.016 A  ATOM     18  C   UNL     1      40.676  45.328  20.048 -0.39 +0.00    +0.009 A  ATOM     19  C   UNL     1      42.151  47.016  19.107 -0.51 +0.00    +0.037 A  ATOM     20  C   UNL     1      41.545  45.122  21.130 -0.31 +0.00    +0.012 A  ATOM     21  C   UNL     1      43.008  46.791  20.191 -0.33 +0.02    +0.066 A  ATOM     22  C   UNL     1      42.732  45.871  21.195 -0.26 +0.01    +0.020 A  ATOM     23  N   UNL     1      44.214  47.346  20.531 -0.13 -0.18    -0.278 N  ATOM     24  C   UNL     1      43.833  45.968  22.074 -0.17 +0.07    +0.143 A  ATOM     25  N   UNL     1      44.739  46.865  21.673 -0.73 -0.17    -0.183 NA ATOM     26  H   UNL     1      44.733  48.055  20.025 -0.38 +0.06    +0.190 HD ENDBRANCH  13  17ENDBRANCH   3   6ENDBRANCH   1   2BRANCH   1  27ATOM     27  N   UNL     1      31.552  45.903  15.938 -0.55 +0.17    -0.307 NA ATOM     28  H   UNL     1      32.365  46.496  15.753 -0.46 -0.20    +0.123 HD BRANCH  27  29ATOM     29  C   UNL     1      30.588  46.136  14.844 -0.50 -0.05    +0.096 C  BRANCH  29  30ATOM     30  C   UNL     1      31.078  45.833  13.423 -0.51 -0.10    +0.135 C  BRANCH  30  31ATOM     31  C   UNL     1      30.364  46.635  12.423 -0.64 -0.03    +0.063 C  ATOM     32  N   UNL     1      29.798  47.286  11.645 -0.94 +0.06    -0.198 NA ENDBRANCH  30  31ENDBRANCH  29  30ENDBRANCH  27  29ENDBRANCH   1  27TORSDOF 7TERENDMDL