REMARK SMILES Nc1cc(Nc2nccc(-c3ccc4[nH]ncc4c3)n2)ccc1C(=O)O
REMARK SMILES IDX 2 1 3 2 4 3 21 4 22 5 23 6 1 7 24 10 25 11 26 12 5 14 6 16
REMARK SMILES IDX 7 17 20 18 8 19 10 20 9 21 11 22 12 23 19 24 13 25 18 26
REMARK SMILES IDX 14 27 17 28 15 29 16 30
REMARK H PARENT 1 8 1 9 26 13 5 15 15 31
ROOT
ATOM      1  C   UNL     1       4.702  -0.362  -1.255  1.00  0.00     0.048 A 
ATOM      2  C   UNL     1       3.299  -0.454  -1.177  1.00  0.00     0.052 A 
ATOM      3  C   UNL     1       2.557   0.119  -0.127  1.00  0.00     0.043 A 
ATOM      4  C   UNL     1       3.266   0.769   0.883  1.00  0.00     0.027 A 
ATOM      5  C   UNL     1       4.663   0.831   0.858  1.00  0.00     0.020 A 
ATOM      6  C   UNL     1       5.388   0.261  -0.198  1.00  0.00     0.082 A 
ENDROOT
BRANCH   1   7
ATOM      7  N   UNL     1       5.354  -1.090  -2.270  1.00  0.00    -0.398 N 
ATOM      8  H   UNL     1       4.841  -1.137  -3.144  1.00  0.00     0.156 HD
ATOM      9  H   UNL     1       6.316  -0.763  -2.402  1.00  0.00     0.156 HD
ENDBRANCH   1   7
BRANCH   6  10
ATOM     10  C   UNL     1       6.868   0.383  -0.120  1.00  0.00     0.337 C 
ATOM     11  O   UNL     1       7.503   0.693   0.873  1.00  0.00    -0.246 OA
BRANCH  10  12
ATOM     12  O   UNL     1       7.501   0.172  -1.292  1.00  0.00    -0.478 OA
ATOM     13  H   UNL     1       8.444   0.312  -1.057  1.00  0.00     0.297 HD
ENDBRANCH  10  12
ENDBRANCH   6  10
BRANCH   3  14
ATOM     14  N   UNL     1       1.164   0.002  -0.153  1.00  0.00    -0.324 N 
ATOM     15  H   UNL     1       0.758  -0.516  -0.918  1.00  0.00     0.170 HD
BRANCH  14  16
ATOM     16  C   UNL     1       0.137   0.449   0.673  1.00  0.00     0.227 A 
ATOM     17  N   UNL     1       0.370   1.186   1.766  1.00  0.00    -0.221 NA
ATOM     18  N   UNL     1      -1.096   0.089   0.281  1.00  0.00    -0.213 NA
ATOM     19  C   UNL     1      -0.693   1.567   2.492  1.00  0.00     0.117 A 
ATOM     20  C   UNL     1      -2.153   0.494   1.022  1.00  0.00     0.076 A 
ATOM     21  C   UNL     1      -1.986   1.249   2.165  1.00  0.00     0.049 A 
BRANCH  20  22
ATOM     22  C   UNL     1      -3.479   0.065   0.532  1.00  0.00     0.001 A 
ATOM     23  C   UNL     1      -4.617   0.888   0.650  1.00  0.00     0.012 A 
ATOM     24  C   UNL     1      -3.632  -1.198  -0.083  1.00  0.00     0.022 A 
ATOM     25  C   UNL     1      -5.885   0.496   0.194  1.00  0.00     0.029 A 
ATOM     26  C   UNL     1      -4.893  -1.612  -0.547  1.00  0.00     0.020 A 
ATOM     27  C   UNL     1      -5.982  -0.764  -0.398  1.00  0.00     0.065 A 
ATOM     28  C   UNL     1      -5.421  -2.757  -1.184  1.00  0.00     0.143 A 
ATOM     29  N   UNL     1      -7.043  -1.440  -0.940  1.00  0.00    -0.278 N 
ATOM     30  N   UNL     1      -6.731  -2.656  -1.423  1.00  0.00    -0.183 NA
ATOM     31  H   UNL     1      -8.004  -1.128  -1.012  1.00  0.00     0.190 HD
ENDBRANCH  20  22
ENDBRANCH  14  16
ENDBRANCH   3  14
TORSDOF 6
