MODEL        3USER    Run = 3USERUSER    Estimated Free Energy of Binding    = -11.01 kcal/mol  [=(1)+(2)+(3)-(4)]USERUSER    (1) Final Intermolecular Energy     = -12.51 kcal/molUSER        vdW + Hbond + desolv Energy     = -12.37 kcal/molUSER        Electrostatic Energy            =  -0.13 kcal/molUSER        Moving Ligand-Fixed Receptor    = -12.51 kcal/molUSER        Moving Ligand-Moving Receptor   =  +0.00 kcal/molUSER    (2) Final Total Internal Energy     =  -1.55 kcal/molUSER    (3) Torsional Free Energy           =  +1.49 kcal/molUSER    (4) Unbound System's Energy         =  -1.55 kcal/molUSERUSERREMARK SMILES Cc1c(N2CCN(S(C)(=O)=O)[C@H](O)C2)cc2cnc(-c3cc4ccccc4o3)c(-c3ccncc3)n12REMARK SMILES IDX 4 1 5 2 6 3 7 4 12 5 14 6 3 7 2 8 36 9 15 10 29 11 16 12REMARK SMILES IDX 19 13 17 14 18 15 1 16 30 17 31 18 35 19 32 20 34 21 33 22REMARK SMILES IDX 20 23 21 24 28 25 22 26 27 27 23 28 26 29 24 30 25 31 13 32REMARK SMILES IDX 8 34 9 35 10 36 11 37REMARK H PARENT 13 33USER                              x       y       z     vdW  Elec       q    TypeUSER                           _______ _______ _______ _____ _____    ______ ____ROOTATOM      1  N   UNL     1      36.211  43.829  18.854 -0.10 +0.07    -0.365 N  ATOM      2  C   UNL     1      35.563  42.903  17.908 -0.31 -0.04    +0.133 C  ATOM      3  C   UNL     1      34.270  43.509  17.327 -0.30 -0.05    +0.126 C  ATOM      4  N   UNL     1      33.292  43.977  18.375 -0.22 +0.04    -0.171 NA ATOM      5  C   UNL     1      33.949  44.868  19.360 -0.14 -0.07    +0.218 C  ATOM      6  C   UNL     1      35.286  44.306  19.915 -0.31 -0.02    +0.166 C  ENDROOTBRANCH   1   7ATOM      7  C   UNL     1      37.253  44.596  18.430 -0.31 -0.01    +0.059 A  ATOM      8  C   UNL     1      37.318  45.264  17.214 -0.33 -0.01    +0.044 A  ATOM      9  N   UNL     1      38.525  45.969  17.178 -0.20 +0.08    -0.308 N  ATOM     10  C   UNL     1      38.469  44.805  19.106 -0.35 -0.00    +0.056 A  ATOM     11  C   UNL     1      39.104  46.870  16.249 -0.39 -0.03    +0.083 A  ATOM     12  C   UNL     1      39.214  45.656  18.330 -0.38 -0.01    +0.066 A  ATOM     13  C   UNL     1      40.337  47.374  16.555 -0.42 -0.02    +0.130 A  ATOM     14  C   UNL     1      40.504  46.226  18.551 -0.38 -0.01    +0.138 A  ATOM     15  N   UNL     1      41.045  47.051  17.709 -0.34 +0.02    -0.249 NA ATOM     16  C   UNL     1      36.343  45.223  16.086 -0.36 -0.03    +0.067 C  BRANCH  11  17ATOM     17  C   UNL     1      38.380  47.283  15.029 -0.46 -0.00    +0.004 A  ATOM     18  C   UNL     1      38.334  46.438  13.918 -0.40 -0.01    +0.030 A  ATOM     19  C   UNL     1      37.700  48.503  14.981 -0.52 -0.02    +0.030 A  ATOM     20  C   UNL     1      37.627  46.858  12.803 -0.42 -0.03    +0.111 A  ATOM     21  C   UNL     1      37.022  48.831  13.819 -0.39 -0.07    +0.111 A  ATOM     22  N   UNL     1      36.979  48.040  12.725 -0.94 +0.08    -0.265 NA ENDBRANCH  11  17BRANCH  13  23ATOM     23  C   UNL     1      41.049  48.318  15.728 -0.39 -0.02    +0.155 A  ATOM     24  C   UNL     1      41.407  49.635  16.027 -0.46 -0.00    +0.061 A  ATOM     25  O   UNL     1      41.536  48.057  14.461 +0.01 -0.01    -0.454 OA ATOM     26  C   UNL     1      42.101  50.183  14.919 -0.56 -0.00    +0.021 A  ATOM     27  C   UNL     1      42.149  49.167  13.983 -0.11 -0.01    +0.134 A  ATOM     28  C   UNL     1      42.694  51.417  14.607 -0.04 -0.00    +0.012 A  ATOM     29  C   UNL     1      42.747  49.281  12.731 -0.04 -0.01    +0.048 A  ATOM     30  C   UNL     1      43.308  51.568  13.354 -0.13 -0.00    +0.001 A  ATOM     31  C   UNL     1      43.331  50.517  12.433 -0.41 -0.00    +0.004 A  ENDBRANCH  13  23ENDBRANCH   1   7BRANCH   5  32ATOM     32  O   UNL     1      34.125  46.100  18.677 -0.42 +0.22    -0.375 OA ATOM     33  H   UNL     1      34.064  46.758  19.388 -0.35 -0.11    +0.212 HD ENDBRANCH   5  32BRANCH   4  34ATOM     34  S   UNL     1      32.317  42.781  19.084 -0.40 -0.01    +0.213 S  ATOM     35  C   UNL     1      30.786  42.981  18.194 -0.11 -0.02    +0.177 C  ATOM     36  O   UNL     1      32.069  43.173  20.454 -0.68 -0.04    -0.212 OA ATOM     37  O   UNL     1      32.871  41.486  18.768 -0.36 +0.01    -0.212 OA ENDBRANCH   4  34TORSDOF 5TERENDMDL