MODEL        2USER    Run = 2USERUSER    Estimated Free Energy of Binding    =  -7.90 kcal/mol  [=(1)+(2)+(3)-(4)]USERUSER    (1) Final Intermolecular Energy     = -10.29 kcal/molUSER        vdW + Hbond + desolv Energy     =  -9.83 kcal/molUSER        Electrostatic Energy            =  -0.46 kcal/molUSER        Moving Ligand-Fixed Receptor    = -10.29 kcal/molUSER        Moving Ligand-Moving Receptor   =  +0.00 kcal/molUSER    (2) Final Total Internal Energy     =  -0.67 kcal/molUSER    (3) Torsional Free Energy           =  +2.39 kcal/molUSER    (4) Unbound System's Energy         =  -0.67 kcal/molUSERUSERREMARK SMILES CS(=O)(=O)N1CCN(C=C(F)C(F)=CNC(=O)c2ccc3ccc(F)cc3c2)[C@H]1NREMARK SMILES IDX 10 1 11 2 9 3 8 4 5 5 6 6 29 7 7 8 2 9 1 10 3 11 4 12 30 13REMARK SMILES IDX 12 16 13 17 14 18 15 19 16 20 17 22 18 23 19 24 28 25 20 26REMARK SMILES IDX 27 27 21 28 26 29 22 30 24 31 23 32 25 33REMARK H PARENT 30 14 30 15 15 21USER                              x       y       z     vdW  Elec       q    TypeUSER                           _______ _______ _______ _____ _____    ______ ____ROOTATOM      1  C   UNL     1      25.239  55.332   4.285 -0.21 -0.07    +0.176 C  ATOM      2  F   UNL     1      24.335  56.033   3.557 -0.03 -0.14    -0.202 F  ENDROOTBRANCH   1   3ATOM      3  C   UNL     1      26.521  55.403   3.899 -0.07 -0.09    +0.126 C  BRANCH   3   4ATOM      4  N   UNL     1      27.161  55.933   2.789 -0.18 +0.13    -0.345 N  ATOM      5  N   UNL     1      27.410  56.045   0.495 -0.25 +0.06    -0.165 NA ATOM      6  C   UNL     1      28.760  56.229   1.065 -0.47 -0.03    +0.127 C  ATOM      7  C   UNL     1      26.471  56.312   1.568 -0.24 -0.06    +0.237 C  ATOM      8  C   UNL     1      28.603  55.914   2.550 -0.43 -0.05    +0.136 C  BRANCH   5   9ATOM      9  S   UNL     1      27.113  54.680  -0.424 -0.49 -0.06    +0.214 S  ATOM     10  C   UNL     1      25.689  55.096  -1.419 -0.26 -0.05    +0.177 C  ATOM     11  O   UNL     1      28.239  54.501  -1.317 -0.97 -0.01    -0.212 OA ATOM     12  O   UNL     1      26.720  53.619   0.481 -0.37 +0.13    -0.212 OA ENDBRANCH   5   9BRANCH   7  13ATOM     13  N   UNL     1      26.086  57.695   1.464 -0.05 -0.02    -0.298 NA ATOM     14  H   UNL     1      26.891  58.238   1.761 -0.45 -0.01    +0.122 HD ATOM     15  H   UNL     1      25.927  57.890   0.483 -0.48 -0.04    +0.122 HD ENDBRANCH   7  13ENDBRANCH   3   4ENDBRANCH   1   3BRANCH   1  16ATOM     16  C   UNL     1      24.703  54.612   5.411 -0.24 -0.11    +0.176 C  ATOM     17  F   UNL     1      23.439  54.941   5.771 -0.07 +0.03    -0.202 F  BRANCH  16  18ATOM     18  C   UNL     1      25.255  53.566   6.046 -0.22 -0.14    +0.128 C  BRANCH  18  19ATOM     19  N   UNL     1      25.061  53.120   7.337 -0.08 +0.28    -0.326 N  ATOM     20  C   UNL     1      25.964  52.411   8.118 -0.26 -0.19    +0.255 C  ATOM     21  H   UNL     1      24.288  53.545   7.838 -0.49 -0.17    +0.169 HD ATOM     22  O   UNL     1      27.145  52.221   7.849 -0.24 +0.20    -0.269 OA BRANCH  20  23ATOM     23  C   UNL     1      25.437  51.951   9.433 -0.31 -0.02    +0.040 A  ATOM     24  C   UNL     1      25.843  52.623  10.589 -0.43 -0.00    +0.014 A  ATOM     25  C   UNL     1      24.576  50.850   9.532 -0.27 -0.02    +0.022 A  ATOM     26  C   UNL     1      25.369  52.218  11.839 -0.45 -0.00    +0.009 A  ATOM     27  C   UNL     1      24.096  50.431  10.784 -0.28 +0.01    -0.015 A  ATOM     28  C   UNL     1      24.494  51.127  11.953 -0.44 +0.00    -0.018 A  ATOM     29  C   UNL     1      23.231  49.333  10.902 -0.15 -0.03    +0.048 A  ATOM     30  C   UNL     1      24.013  50.707  13.205 -0.40 -0.00    +0.012 A  ATOM     31  C   UNL     1      22.769  48.940  12.154 -0.14 -0.03    +0.123 A  ATOM     32  C   UNL     1      23.151  49.615  13.304 -0.39 -0.00    +0.040 A  ATOM     33  F   UNL     1      21.943  47.890  12.249 +0.01 +0.04    -0.207 F  ENDBRANCH  20  23ENDBRANCH  18  19ENDBRANCH  16  18ENDBRANCH   1  16TORSDOF 8TERENDMDL