MODEL        6USER    Run = 6USERUSER    Estimated Free Energy of Binding    = -10.31 kcal/mol  [=(1)+(2)+(3)-(4)]USERUSER    (1) Final Intermolecular Energy     = -11.81 kcal/molUSER        vdW + Hbond + desolv Energy     = -11.69 kcal/molUSER        Electrostatic Energy            =  -0.11 kcal/molUSER        Moving Ligand-Fixed Receptor    = -11.81 kcal/molUSER        Moving Ligand-Moving Receptor   =  +0.00 kcal/molUSER    (2) Final Total Internal Energy     =  -1.13 kcal/molUSER    (3) Torsional Free Energy           =  +1.49 kcal/molUSER    (4) Unbound System's Energy         =  -1.13 kcal/molUSERUSERREMARK SMILES Cn1cncc1-c1cccc(-c2ccnc(NC(=O)c3cc(C(C)(C)C)nn3C)c2)n1REMARK SMILES IDX 12 1 13 2 14 3 15 4 16 5 30 6 11 7 7 8 8 9 31 10 9 11 10 12REMARK SMILES IDX 6 13 2 14 3 15 4 16 5 17 1 18 17 19 18 20 19 22 20 23 21 24REMARK SMILES IDX 28 25 22 26 27 27 29 28 23 29 24 30 25 31 26 32REMARK H PARENT 17 21USER                              x       y       z     vdW  Elec       q    TypeUSER                           _______ _______ _______ _____ _____    ______ ____ROOTATOM      1  C   UNL     1      36.133  44.224  17.415 -0.32 -0.00    +0.005 A  ATOM      2  C   UNL     1      35.440  43.106  16.942 -0.38 -0.01    +0.030 A  ATOM      3  C   UNL     1      35.051  42.126  17.841 -0.33 -0.04    +0.114 A  ATOM      4  N   UNL     1      35.305  42.175  19.164 -0.28 +0.03    -0.239 NA ATOM      5  C   UNL     1      35.981  43.246  19.625 -0.31 -0.01    +0.133 A  ATOM      6  C   UNL     1      36.402  44.273  18.794 -0.32 -0.01    +0.057 A  ENDROOTBRANCH   1   7ATOM      7  C   UNL     1      36.592  45.312  16.525 -0.30 -0.03    +0.071 A  ATOM      8  C   UNL     1      38.257  46.894  16.113 -0.35 -0.04    +0.089 A  ATOM      9  C   UNL     1      37.597  47.359  14.984 -0.43 -0.02    +0.031 A  ATOM     10  N   UNL     1      37.771  45.889  16.874 -0.21 +0.09    -0.246 NA ATOM     11  C   UNL     1      36.387  46.775  14.632 -0.42 -0.00    +0.005 A  ATOM     12  C   UNL     1      35.876  45.740  15.410 -0.34 -0.02    +0.029 A  BRANCH   8  13ATOM     13  C   UNL     1      39.538  47.452  16.546 -0.42 -0.03    +0.086 A  ATOM     14  N   UNL     1      40.334  46.993  17.577 -0.27 +0.05    -0.332 N  ATOM     15  C   UNL     1      41.440  47.793  17.651 -0.34 -0.02    +0.199 A  ATOM     16  N   UNL     1      41.416  48.742  16.745 -0.89 +0.00    -0.244 NA ATOM     17  C   UNL     1      40.250  48.538  16.057 -0.45 -0.04    +0.141 A  ATOM     18  C   UNL     1      40.076  45.891  18.475 -0.41 -0.01    +0.151 C  ENDBRANCH   8  13ENDBRANCH   1   7BRANCH   5  19ATOM     19  N   UNL     1      36.221  43.192  20.997 -0.24 -0.01    -0.305 N  ATOM     20  C   UNL     1      36.778  42.173  21.733 -0.37 +0.01    +0.275 C  ATOM     21  H   UNL     1      35.994  44.065  21.452 +0.10 +0.02    +0.171 HD ATOM     22  O   UNL     1      37.242  41.139  21.268 -0.41 -0.00    -0.267 OA BRANCH  20  23ATOM     23  C   UNL     1      36.818  42.446  23.152 -0.35 +0.01    +0.126 A  ATOM     24  C   UNL     1      36.203  41.735  24.166 -0.22 -0.00    +0.060 A  ATOM     25  N   UNL     1      37.411  43.507  23.785 -0.20 -0.02    -0.263 N  ATOM     26  C   UNL     1      36.559  42.381  25.374 -0.37 -0.00    +0.069 A  ATOM     27  N   UNL     1      37.327  43.451  25.126 -0.22 -0.00    -0.177 NA ATOM     28  C   UNL     1      38.042  44.662  23.185 -0.27 +0.02    +0.174 C  BRANCH  26  29ATOM     29  C   UNL     1      36.195  42.018  26.805 -0.57 -0.00    +0.006 C  ATOM     30  C   UNL     1      37.417  41.410  27.524 -0.54 -0.00    +0.017 C  ATOM     31  C   UNL     1      35.737  43.274  27.572 -0.56 -0.00    +0.017 C  ATOM     32  C   UNL     1      35.051  40.984  26.861 -0.69 -0.01    +0.017 C  ENDBRANCH  26  29ENDBRANCH  20  23ENDBRANCH   5  19TORSDOF 5TERENDMDL