
     RDKit          3D

 68 72  0  0  0  0  0  0  0  0999 V2000
   -6.6227    1.0860   -1.8631 C   0  0  0  0  0  0  0  0  0  0  0  0
   -5.7857    0.0844   -1.0511 C   0  0  0  0  0  0  0  0  0  0  0  0
   -4.3187    0.5931   -1.0087 C   0  0  0  0  0  0  0  0  0  0  0  0
   -3.4279    0.0435    0.0999 C   0  0  0  0  0  0  0  0  0  0  0  0
   -2.0384    0.1813   -0.0478 N   0  0  0  0  0  0  0  0  0  0  0  0
   -1.4298    0.7181   -1.2502 C   0  0  0  0  0  0  0  0  0  0  0  0
    0.0278    0.3233   -1.1516 C   0  0  0  0  0  0  0  0  0  0  0  0
    0.2947    0.4016    0.3415 C   0  0  0  0  0  0  0  0  0  0  0  0
    1.4327   -0.4913    0.8328 C   0  0  0  0  0  0  0  0  0  0  0  0
    2.7818   -0.0670    0.3030 C   0  0  0  0  0  0  0  0  0  0  0  0
    3.4788    0.9879    0.9118 C   0  0  0  0  0  0  0  0  0  0  0  0
    4.7201    1.3916    0.4197 C   0  0  0  0  0  0  0  0  0  0  0  0
    5.2693    0.7342   -0.6821 C   0  0  0  0  0  0  0  0  0  0  0  0
    6.5744    1.1824   -1.2019 C   0  0  0  0  0  0  0  0  0  0  0  0
    6.6078    2.2497   -1.8098 O   0  0  0  0  0  0  0  0  0  0  0  0
    7.6878    0.3893   -0.9566 N   0  0  0  0  0  0  0  0  0  0  0  0
    7.6957   -0.8193   -0.1226 C   0  0  0  0  0  0  0  0  0  0  0  0
    8.9794   -1.6295   -0.3314 C   0  0  0  0  0  0  0  0  0  0  0  0
   10.1746   -0.8893   -0.0540 O   0  0  0  0  0  0  0  0  0  0  0  0
   10.0680    0.5171   -0.3239 C   0  0  0  0  0  0  0  0  0  0  0  0
    9.0073    0.8714   -1.3707 C   0  0  0  0  0  0  0  0  0  0  0  0
    4.5770   -0.3001   -1.3156 C   0  0  0  0  0  0  0  0  0  0  0  0
    3.3387   -0.7043   -0.8161 C   0  0  0  0  0  0  0  0  0  0  0  0
   -1.0400   -0.0235    0.9313 C   0  0  0  0  0  0  0  0  0  0  0  0
   -1.1551   -0.4043    2.0883 O   0  0  0  0  0  0  0  0  0  0  0  0
   -4.0531   -0.4870    1.1680 C   0  0  0  0  0  0  0  0  0  0  0  0
   -3.6012   -1.0269    2.3508 N   0  0  0  0  0  0  0  0  0  0  0  0
   -4.6276   -1.2442    3.2356 C   0  0  0  0  0  0  0  0  0  0  0  0
   -5.8171   -0.9803    2.6702 C   0  0  0  0  0  0  0  0  0  0  0  0
   -5.5207   -0.5187    1.3163 C   0  0  0  0  0  0  0  0  0  0  0  0
   -6.3821   -0.2314    0.3213 C   0  0  0  0  0  0  0  0  0  0  0  0
   -7.7834   -0.2705    0.3935 N   0  0  0  0  0  0  0  0  0  0  0  0
   -8.4766   -1.4891   -0.0312 C   0  0  0  0  0  0  0  0  0  0  0  0
   -8.5020    0.4936    1.4139 C   0  0  0  0  0  0  0  0  0  0  0  0
   -7.6206    0.6919   -2.0812 H   0  0  0  0  0  0  0  0  0  0  0  0
   -6.7415    2.0327   -1.3252 H   0  0  0  0  0  0  0  0  0  0  0  0
   -6.1451    1.3018   -2.8251 H   0  0  0  0  0  0  0  0  0  0  0  0
   -5.7853   -0.8632   -1.6112 H   0  0  0  0  0  0  0  0  0  0  0  0
   -3.9022    0.3570   -1.9933 H   0  0  0  0  0  0  0  0  0  0  0  0
   -4.3087    1.6884   -0.9176 H   0  0  0  0  0  0  0  0  0  0  0  0
   -1.8603    0.2904   -2.1589 H   0  0  0  0  0  0  0  0  0  0  0  0
   -1.5531    1.8070   -1.2492 H   0  0  0  0  0  0  0  0  0  0  0  0
    0.6750    0.9798   -1.7406 H   0  0  0  0  0  0  0  0  0  0  0  0
    0.1583   -0.7028   -1.5181 H   0  0  0  0  0  0  0  0  0  0  0  0
    0.4621    1.4453    0.6391 H   0  0  0  0  0  0  0  0  0  0  0  0
    1.4731   -0.4817    1.9303 H   0  0  0  0  0  0  0  0  0  0  0  0
    1.2402   -1.5390    0.5658 H   0  0  0  0  0  0  0  0  0  0  0  0
    3.0558    1.5016    1.7728 H   0  0  0  0  0  0  0  0  0  0  0  0
    5.2534    2.2159    0.8871 H   0  0  0  0  0  0  0  0  0  0  0  0
    7.6240   -0.4844    0.9187 H   0  0  0  0  0  0  0  0  0  0  0  0
    6.8253   -1.4399   -0.3459 H   0  0  0  0  0  0  0  0  0  0  0  0
    8.9803   -2.5138    0.3140 H   0  0  0  0  0  0  0  0  0  0  0  0
    9.0425   -1.9819   -1.3671 H   0  0  0  0  0  0  0  0  0  0  0  0
   11.0537    0.8661   -0.6460 H   0  0  0  0  0  0  0  0  0  0  0  0
    9.8379    1.0145    0.6251 H   0  0  0  0  0  0  0  0  0  0  0  0
    9.2338    0.3814   -2.3254 H   0  0  0  0  0  0  0  0  0  0  0  0
    8.9909    1.9537   -1.5382 H   0  0  0  0  0  0  0  0  0  0  0  0
    4.9969   -0.7859   -2.1921 H   0  0  0  0  0  0  0  0  0  0  0  0
    2.8072   -1.5155   -1.3088 H   0  0  0  0  0  0  0  0  0  0  0  0
   -2.6326   -0.8840    2.6356 H   0  0  0  0  0  0  0  0  0  0  0  0
   -4.4184   -1.5911    4.2366 H   0  0  0  0  0  0  0  0  0  0  0  0
   -6.7862   -1.0911    3.1179 H   0  0  0  0  0  0  0  0  0  0  0  0
   -8.4344   -2.2505    0.7557 H   0  0  0  0  0  0  0  0  0  0  0  0
   -9.5273   -1.2751   -0.2543 H   0  0  0  0  0  0  0  0  0  0  0  0
   -8.0256   -1.9046   -0.9393 H   0  0  0  0  0  0  0  0  0  0  0  0
   -8.6805   -0.1073    2.3108 H   0  0  0  0  0  0  0  0  0  0  0  0
   -9.4732    0.8157    1.0223 H   0  0  0  0  0  0  0  0  0  0  0  0
   -7.9489    1.3967    1.6948 H   0  0  0  0  0  0  0  0  0  0  0  0
  1  2  1  0
  2  3  1  0
  3  4  1  0
  4  5  1  0
  5  6  1  0
  6  7  1  0
  7  8  1  0
  8  9  1  0
  9 10  1  0
 10 11  2  0
 11 12  1  0
 12 13  2  0
 13 14  1  0
 14 15  2  0
 14 16  1  0
 16 17  1  0
 17 18  1  0
 18 19  1  0
 19 20  1  0
 20 21  1  0
 13 22  1  0
 22 23  2  0
  8 24  1  0
 24 25  2  0
  4 26  2  0
 26 27  1  0
 27 28  1  0
 28 29  2  0
 29 30  1  0
 30 31  2  0
 31 32  1  0
 32 33  1  0
 32 34  1  0
 31  2  1  0
 24  5  1  0
 30 26  1  0
 23 10  1  0
 21 16  1  0
  1 35  1  0
  1 36  1  0
  1 37  1  0
  2 38  1  0
  3 39  1  0
  3 40  1  0
  6 41  1  0
  6 42  1  0
  7 43  1  0
  7 44  1  0
  8 45  1  0
  9 46  1  0
  9 47  1  0
 11 48  1  0
 12 49  1  0
 17 50  1  0
 17 51  1  0
 18 52  1  0
 18 53  1  0
 20 54  1  0
 20 55  1  0
 21 56  1  0
 21 57  1  0
 22 58  1  0
 23 59  1  0
 27 60  1  0
 28 61  1  0
 29 62  1  0
 33 63  1  0
 33 64  1  0
 33 65  1  0
 34 66  1  0
 34 67  1  0
 34 68  1  0
M  END
$$$$
