REMARK SMILES Nc1nc(F)cc(-c2ccc(C(=O)N3CCC(n4c(O)nc5ccccc54)CC3)cc2)n1
REMARK SMILES IDX 12 1 13 2 14 3 15 4 16 5 17 6 28 7 29 8 11 9 8 10 9 11 31 12
REMARK SMILES IDX 10 13 30 14 7 15 2 16 3 17 32 18 4 19 6 20 5 21 1 22 18 25
REMARK SMILES IDX 19 26 27 27 21 28 26 29 22 30 25 31 23 32 24 33 20 34
REMARK H PARENT 1 23 1 24 20 35
ROOT
ATOM      1  C   UNL     1       0.897  -2.217   0.743  1.00  0.00     0.253 C 
ATOM      2  O   UNL     1       0.988  -3.384   1.118  1.00  0.00    -0.269 OA
ATOM      3  N   UNL     1      -0.305  -1.628   0.343  1.00  0.00    -0.338 N 
ATOM      4  C   UNL     1      -1.496  -2.474   0.312  1.00  0.00     0.122 C 
ATOM      5  C   UNL     1      -2.526  -1.965  -0.689  1.00  0.00     0.047 C 
ATOM      6  C   UNL     1      -2.897  -0.488  -0.453  1.00  0.00     0.096 C 
ATOM      7  C   UNL     1      -1.945   0.229   0.513  1.00  0.00     0.047 C 
ATOM      8  C   UNL     1      -0.502  -0.180   0.247  1.00  0.00     0.122 C 
ENDROOT
BRANCH   1   9
ATOM      9  C   UNL     1       2.135  -1.406   0.724  1.00  0.00     0.040 A 
ATOM     10  C   UNL     1       4.539   0.089   0.730  1.00  0.00     0.000 A 
ATOM     11  C   UNL     1       3.739  -0.013  -0.427  1.00  0.00     0.011 A 
ATOM     12  C   UNL     1       4.108  -0.607   1.877  1.00  0.00     0.011 A 
ATOM     13  C   UNL     1       2.553  -0.756  -0.437  1.00  0.00     0.014 A 
ATOM     14  C   UNL     1       2.923  -1.351   1.875  1.00  0.00     0.014 A 
BRANCH  10  15
ATOM     15  C   UNL     1       5.788   0.883   0.712  1.00  0.00     0.079 A 
ATOM     16  C   UNL     1       7.523   1.703  -0.564  1.00  0.00     0.223 A 
ATOM     17  N   UNL     1       8.108   2.306   0.462  1.00  0.00    -0.184 NA
ATOM     18  N   UNL     1       6.398   0.989  -0.489  1.00  0.00    -0.213 NA
ATOM     19  C   UNL     1       7.473   2.190   1.635  1.00  0.00     0.218 A 
ATOM     20  C   UNL     1       6.308   1.494   1.829  1.00  0.00     0.089 A 
ATOM     21  F   UNL     1       8.025   2.802   2.694  1.00  0.00    -0.185 F 
BRANCH  16  22
ATOM     22  N   UNL     1       8.141   1.787  -1.794  1.00  0.00    -0.368 N 
ATOM     23  H   UNL     1       9.126   1.980  -1.677  1.00  0.00     0.159 HD
ATOM     24  H   UNL     1       7.887   0.995  -2.367  1.00  0.00     0.159 HD
ENDBRANCH  16  22
ENDBRANCH  10  15
ENDBRANCH   1   9
BRANCH   6  25
ATOM     25  N   UNL     1      -4.290  -0.296  -0.068  1.00  0.00    -0.291 N 
ATOM     26  C   UNL     1      -4.920  -0.851   1.011  1.00  0.00     0.295 A 
ATOM     27  C   UNL     1      -5.218   0.501  -0.706  1.00  0.00     0.072 A 
ATOM     28  N   UNL     1      -6.169  -0.494   1.123  1.00  0.00    -0.195 NA
ATOM     29  C   UNL     1      -5.171   1.321  -1.841  1.00  0.00     0.029 A 
ATOM     30  C   UNL     1      -6.377   0.352   0.060  1.00  0.00     0.092 A 
ATOM     31  C   UNL     1      -6.346   1.997  -2.193  1.00  0.00     0.002 A 
ATOM     32  C   UNL     1      -7.544   1.037  -0.310  1.00  0.00     0.031 A 
ATOM     33  C   UNL     1      -7.515   1.859  -1.442  1.00  0.00     0.002 A 
BRANCH  26  34
ATOM     34  O   UNL     1      -4.352  -1.668   1.872  1.00  0.00    -0.480 OA
ATOM     35  H   UNL     1      -5.092  -1.847   2.482  1.00  0.00     0.296 HD
ENDBRANCH  26  34
ENDBRANCH   6  25
TORSDOF 5
