REMARK SMILES COc1cc(-c2ccc(C(=O)N3CCC(n4c(O)nc5ccccc54)CC3)cc2)nc(N)n1
REMARK SMILES IDX 10 1 11 2 12 3 13 4 14 5 15 6 26 7 27 8 9 9 6 10 7 11 29 12
REMARK SMILES IDX 8 13 28 14 5 15 3 16 4 17 33 18 31 19 30 20 2 21 1 22 32 23
REMARK SMILES IDX 16 26 17 27 25 28 19 29 24 30 20 31 23 32 21 33 22 34 18 35
REMARK H PARENT 32 24 32 25 18 36
ROOT
ATOM      1  C   UNL     1      -0.267  -1.149  -1.910  1.00  0.00     0.253 C 
ATOM      2  O   UNL     1      -0.418  -1.965  -2.815  1.00  0.00    -0.269 OA
ATOM      3  N   UNL     1      -1.327  -0.462  -1.307  1.00  0.00    -0.338 N 
ATOM      4  C   UNL     1      -2.668  -0.709  -1.827  1.00  0.00     0.122 C 
ATOM      5  C   UNL     1      -3.595   0.484  -1.627  1.00  0.00     0.047 C 
ATOM      6  C   UNL     1      -3.553   1.046  -0.194  1.00  0.00     0.096 C 
ATOM      7  C   UNL     1      -2.551   0.324   0.713  1.00  0.00     0.047 C 
ATOM      8  C   UNL     1      -1.210   0.178   0.004  1.00  0.00     0.122 C 
ENDROOT
BRANCH   1   9
ATOM      9  C   UNL     1       1.112  -0.892  -1.435  1.00  0.00     0.040 A 
ATOM     10  C   UNL     1       3.769  -0.453  -0.567  1.00  0.00     0.000 A 
ATOM     11  C   UNL     1       3.209  -1.746  -0.597  1.00  0.00     0.011 A 
ATOM     12  C   UNL     1       2.960   0.611  -1.016  1.00  0.00     0.011 A 
ATOM     13  C   UNL     1       1.898  -1.970  -1.031  1.00  0.00     0.014 A 
ATOM     14  C   UNL     1       1.646   0.397  -1.451  1.00  0.00     0.014 A 
BRANCH  10  15
ATOM     15  C   UNL     1       5.158  -0.243  -0.101  1.00  0.00     0.080 A 
ATOM     16  C   UNL     1       6.904   0.960   0.873  1.00  0.00     0.218 A 
ATOM     17  C   UNL     1       5.585   0.925   0.493  1.00  0.00     0.097 A 
ATOM     18  N   UNL     1       7.763  -0.054   0.700  1.00  0.00    -0.178 NA
ATOM     19  C   UNL     1       7.268  -1.138   0.108  1.00  0.00     0.223 A 
ATOM     20  N   UNL     1       6.000  -1.286  -0.281  1.00  0.00    -0.213 NA
BRANCH  16  21
ATOM     21  O   UNL     1       7.327   2.130   1.478  1.00  0.00    -0.481 OA
ATOM     22  C   UNL     1       8.714   2.123   1.802  1.00  0.00     0.280 C 
ENDBRANCH  16  21
BRANCH  19  23
ATOM     23  N   UNL     1       8.118  -2.207  -0.079  1.00  0.00    -0.368 N 
ATOM     24  H   UNL     1       8.875  -2.175   0.589  1.00  0.00     0.159 HD
ATOM     25  H   UNL     1       7.590  -3.064  -0.149  1.00  0.00     0.159 HD
ENDBRANCH  19  23
ENDBRANCH  10  15
ENDBRANCH   1   9
BRANCH   6  26
ATOM     26  N   UNL     1      -4.869   1.163   0.426  1.00  0.00    -0.291 N 
ATOM     27  C   UNL     1      -5.465   2.332   0.849  1.00  0.00     0.295 A 
ATOM     28  C   UNL     1      -5.771   0.142   0.658  1.00  0.00     0.072 A 
ATOM     29  N   UNL     1      -6.688   2.140   1.266  1.00  0.00    -0.195 NA
ATOM     30  C   UNL     1      -5.739  -1.247   0.471  1.00  0.00     0.029 A 
ATOM     31  C   UNL     1      -6.896   0.791   1.168  1.00  0.00     0.092 A 
ATOM     32  C   UNL     1      -6.886  -1.973   0.815  1.00  0.00     0.002 A 
ATOM     33  C   UNL     1      -8.037   0.047   1.505  1.00  0.00     0.031 A 
ATOM     34  C   UNL     1      -8.019  -1.339   1.324  1.00  0.00     0.002 A 
BRANCH  27  35
ATOM     35  O   UNL     1      -4.913   3.534   0.846  1.00  0.00    -0.480 OA
ATOM     36  H   UNL     1      -3.961   3.441   0.979  1.00  0.00     0.296 HD
ENDBRANCH  27  35
ENDBRANCH   6  26
TORSDOF 6
