REMARK SMILES COc1nc(N)cc(-c2ccc(C(=O)N3CCC(n4c(O)nc5ccccc54)CC3)cc2)n1
REMARK SMILES IDX 13 1 14 2 15 3 16 4 17 5 18 6 29 7 30 8 12 9 9 10 10 11
REMARK SMILES IDX 32 12 11 13 31 14 8 15 3 16 4 17 33 18 5 19 7 20 2 21 1 22
REMARK SMILES IDX 6 23 19 26 20 27 28 28 22 29 27 30 23 31 26 32 24 33 25 34
REMARK SMILES IDX 21 35
REMARK H PARENT 6 24 6 25 21 36
ROOT
ATOM      1  C   UNL     1      -0.149  -1.090  -2.401  1.00  0.00     0.253 C 
ATOM      2  O   UNL     1      -0.218  -1.647  -3.495  1.00  0.00    -0.269 OA
ATOM      3  N   UNL     1       1.059  -0.684  -1.833  1.00  0.00    -0.338 N 
ATOM      4  C   UNL     1       2.252  -0.778  -2.667  1.00  0.00     0.122 C 
ATOM      5  C   UNL     1       3.422   0.003  -2.089  1.00  0.00     0.047 C 
ATOM      6  C   UNL     1       3.773  -0.526  -0.692  1.00  0.00     0.096 C 
ATOM      7  C   UNL     1       2.535  -0.899   0.146  1.00  0.00     0.047 C 
ATOM      8  C   UNL     1       1.240  -0.326  -0.423  1.00  0.00     0.122 C 
ENDROOT
BRANCH   1   9
ATOM      9  C   UNL     1      -1.414  -0.847  -1.670  1.00  0.00     0.040 A 
ATOM     10  C   UNL     1      -3.878  -0.426  -0.335  1.00  0.00     0.000 A 
ATOM     11  C   UNL     1      -3.536  -1.688  -0.861  1.00  0.00     0.011 A 
ATOM     12  C   UNL     1      -2.956   0.623  -0.529  1.00  0.00     0.011 A 
ATOM     13  C   UNL     1      -2.321  -1.897  -1.526  1.00  0.00     0.014 A 
ATOM     14  C   UNL     1      -1.741   0.423  -1.194  1.00  0.00     0.014 A 
BRANCH  10  15
ATOM     15  C   UNL     1      -5.155  -0.184   0.378  1.00  0.00     0.080 A 
ATOM     16  C   UNL     1      -6.743   1.345   1.007  1.00  0.00     0.318 A 
ATOM     17  N   UNL     1      -7.490   0.443   1.660  1.00  0.00    -0.178 NA
ATOM     18  N   UNL     1      -5.599   1.089   0.362  1.00  0.00    -0.195 NA
ATOM     19  C   UNL     1      -7.032  -0.809   1.655  1.00  0.00     0.131 A 
ATOM     20  C   UNL     1      -5.858  -1.177   1.036  1.00  0.00     0.075 A 
BRANCH  16  21
ATOM     21  O   UNL     1      -7.141   2.664   0.960  1.00  0.00    -0.467 OA
ATOM     22  C   UNL     1      -8.334   2.913   1.690  1.00  0.00     0.282 C 
ENDBRANCH  16  21
BRANCH  19  23
ATOM     23  N   UNL     1      -7.781  -1.752   2.359  1.00  0.00    -0.383 N 
ATOM     24  H   UNL     1      -8.618  -1.287   2.704  1.00  0.00     0.158 HD
ATOM     25  H   UNL     1      -8.009  -2.561   1.792  1.00  0.00     0.158 HD
ENDBRANCH  19  23
ENDBRANCH  10  15
ENDBRANCH   1   9
BRANCH   6  26
ATOM     26  N   UNL     1       4.697   0.365   0.001  1.00  0.00    -0.291 N 
ATOM     27  C   UNL     1       4.406   1.592   0.529  1.00  0.00     0.295 A 
ATOM     28  C   UNL     1       6.037   0.137   0.235  1.00  0.00     0.072 A 
ATOM     29  N   UNL     1       5.431   2.171   1.089  1.00  0.00    -0.195 NA
ATOM     30  C   UNL     1       6.907  -0.919  -0.071  1.00  0.00     0.029 A 
ATOM     31  C   UNL     1       6.462   1.280   0.916  1.00  0.00     0.092 A 
ATOM     32  C   UNL     1       8.239  -0.792   0.340  1.00  0.00     0.002 A 
ATOM     33  C   UNL     1       7.802   1.387   1.319  1.00  0.00     0.031 A 
ATOM     34  C   UNL     1       8.683   0.340   1.024  1.00  0.00     0.002 A 
BRANCH  27  35
ATOM     35  O   UNL     1       3.222   2.165   0.495  1.00  0.00    -0.480 OA
ATOM     36  H   UNL     1       3.409   3.009   0.947  1.00  0.00     0.296 HD
ENDBRANCH  27  35
ENDBRANCH   6  26
TORSDOF 6
