MODEL        6USER    Run = 6USERUSER    Estimated Free Energy of Binding    = -10.65 kcal/mol  [=(1)+(2)+(3)-(4)]USERUSER    (1) Final Intermolecular Energy     = -12.14 kcal/molUSER        vdW + Hbond + desolv Energy     = -12.02 kcal/molUSER        Electrostatic Energy            =  -0.12 kcal/molUSER        Moving Ligand-Fixed Receptor    = -12.14 kcal/molUSER        Moving Ligand-Moving Receptor   =  +0.00 kcal/molUSER    (2) Final Total Internal Energy     =  -0.40 kcal/molUSER    (3) Torsional Free Energy           =  +1.49 kcal/molUSER    (4) Unbound System's Energy         =  -0.40 kcal/molUSERUSERREMARK SMILES Nc1nc(F)cc(-c2ccc(C(=O)N3CCC(n4c(O)nc5ccccc54)CC3)cc2)n1REMARK SMILES IDX 12 1 13 2 14 3 15 4 16 5 17 6 28 7 29 8 11 9 8 10 9 11 31 12REMARK SMILES IDX 10 13 30 14 7 15 2 16 3 17 32 18 4 19 6 20 5 21 1 22 18 25REMARK SMILES IDX 19 26 27 27 21 28 26 29 22 30 25 31 23 32 24 33 20 34REMARK H PARENT 1 23 1 24 20 35USER                              x       y       z     vdW  Elec       q    TypeUSER                           _______ _______ _______ _____ _____    ______ ____ROOTATOM      1  C   UNL     1      41.026  44.762  21.264 -0.22 +0.02    +0.253 C  ATOM      2  O   UNL     1      42.134  44.340  21.590 -0.20 -0.04    -0.269 OA ATOM      3  N   UNL     1      39.869  44.551  22.019 -0.08 -0.02    -0.338 N  ATOM      4  C   UNL     1      39.986  43.729  23.222 -0.21 +0.00    +0.122 C  ATOM      5  C   UNL     1      38.666  43.058  23.579 -0.30 +0.00    +0.047 C  ATOM      6  C   UNL     1      37.507  44.066  23.703 -0.32 +0.01    +0.096 C  ATOM      7  C   UNL     1      37.849  45.454  23.145 -0.05 +0.01    +0.047 C  ATOM      8  C   UNL     1      38.642  45.332  21.851 -0.30 +0.01    +0.122 C  ENDROOTBRANCH   1   9ATOM      9  C   UNL     1      40.931  45.535  20.006 -0.38 +0.00    +0.040 A  ATOM     10  C   UNL     1      40.670  47.016  17.607 -0.52 -0.00    +0.000 A  ATOM     11  C   UNL     1      41.695  47.294  18.536 -0.51 -0.00    +0.011 A  ATOM     12  C   UNL     1      39.763  45.988  17.934 -0.45 -0.00    +0.011 A  ATOM     13  C   UNL     1      41.824  46.569  19.726 -0.43 +0.00    +0.014 A  ATOM     14  C   UNL     1      39.887  45.258  19.122 -0.42 -0.00    +0.014 A  BRANCH  10  15ATOM     15  C   UNL     1      40.559  47.798  16.356 -0.48 -0.01    +0.079 A  ATOM     16  C   UNL     1      41.411  49.523  15.088 -0.45 -0.03    +0.223 A  ATOM     17  N   UNL     1      40.524  49.362  14.115 -0.30 +0.06    -0.184 NA ATOM     18  N   UNL     1      41.460  48.793  16.203 -0.90 -0.00    -0.213 NA ATOM     19  C   UNL     1      39.652  48.362  14.292 -0.24 -0.07    +0.218 A  ATOM     20  C   UNL     1      39.615  47.541  15.389 -0.45 -0.02    +0.089 A  ATOM     21  F   UNL     1      38.750  48.157  13.320 -0.11 +0.03    -0.185 F  BRANCH  16  22ATOM     22  N   UNL     1      42.328  50.544  14.956 -0.33 +0.04    -0.368 N  ATOM     23  H   UNL     1      42.306  51.141  15.772 -0.37 -0.02    +0.159 HD ATOM     24  H   UNL     1      43.225  50.174  14.676 -0.22 -0.01    +0.159 HD ENDBRANCH  16  22ENDBRANCH  10  15ENDBRANCH   1   9BRANCH   6  25ATOM     25  N   UNL     1      36.958  44.153  25.050 -0.19 -0.01    -0.291 N  ATOM     26  C   UNL     1      36.889  45.275  25.830 -0.14 -0.01    +0.295 A  ATOM     27  C   UNL     1      36.384  43.128  25.774 -0.34 -0.00    +0.072 A  ATOM     28  N   UNL     1      36.334  45.067  26.991 -0.19 +0.05    -0.195 NA ATOM     29  C   UNL     1      36.152  41.772  25.512 -0.37 -0.01    +0.029 A  ATOM     30  C   UNL     1      36.009  43.731  26.977 -0.38 -0.02    +0.092 A  ATOM     31  C   UNL     1      35.524  41.023  26.515 -0.45 -0.00    +0.002 A  ATOM     32  C   UNL     1      35.382  42.963  27.970 -0.40 -0.01    +0.031 A  ATOM     33  C   UNL     1      35.145  41.606  27.726 -0.62 -0.00    +0.002 A  BRANCH  26  34ATOM     34  O   UNL     1      37.330  46.462  25.474 -0.70 -0.04    -0.480 OA ATOM     35  H   UNL     1      36.647  47.043  25.859 -0.01 -0.02    +0.296 HD ENDBRANCH  26  34ENDBRANCH   6  25TORSDOF 5TERENDMDL