MODEL        1USER    Run = 1USERUSER    Estimated Free Energy of Binding    = -11.19 kcal/mol  [=(1)+(2)+(3)-(4)]USERUSER    (1) Final Intermolecular Energy     = -12.98 kcal/molUSER        vdW + Hbond + desolv Energy     = -12.81 kcal/molUSER        Electrostatic Energy            =  -0.17 kcal/molUSER        Moving Ligand-Fixed Receptor    = -12.98 kcal/molUSER        Moving Ligand-Moving Receptor   =  +0.00 kcal/molUSER    (2) Final Total Internal Energy     =  -0.61 kcal/molUSER    (3) Torsional Free Energy           =  +1.79 kcal/molUSER    (4) Unbound System's Energy         =  -0.61 kcal/molUSERUSERREMARK SMILES COc1cc(-c2ccc(C(=O)N3CCC(n4c(O)nc5ccccc54)CC3)cc2)nc(N)n1REMARK SMILES IDX 10 1 11 2 12 3 13 4 14 5 15 6 26 7 27 8 9 9 6 10 7 11 29 12REMARK SMILES IDX 8 13 28 14 5 15 3 16 4 17 33 18 31 19 30 20 2 21 1 22 32 23REMARK SMILES IDX 16 26 17 27 25 28 19 29 24 30 20 31 23 32 21 33 22 34 18 35REMARK H PARENT 32 24 32 25 18 36USER                              x       y       z     vdW  Elec       q    TypeUSER                           _______ _______ _______ _____ _____    ______ ____ROOTATOM      1  C   UNL     1      40.952  44.319  21.103 -0.22 +0.02    +0.253 C  ATOM      2  O   UNL     1      41.969  43.649  21.260 -0.27 -0.03    -0.269 OA ATOM      3  N   UNL     1      39.881  44.318  22.004 -0.08 -0.01    -0.338 N  ATOM      4  C   UNL     1      39.979  43.434  23.161 -0.23 +0.01    +0.122 C  ATOM      5  C   UNL     1      38.612  42.992  23.670 -0.30 +0.00    +0.047 C  ATOM      6  C   UNL     1      37.625  44.162  23.835 -0.32 +0.01    +0.096 C  ATOM      7  C   UNL     1      38.205  45.513  23.404 -0.30 +0.01    +0.047 C  ATOM      8  C   UNL     1      38.880  45.385  22.044 -0.32 +0.01    +0.122 C  ENDROOTBRANCH   1   9ATOM      9  C   UNL     1      40.868  45.174  19.896 -0.38 +0.00    +0.040 A  ATOM     10  C   UNL     1      40.640  46.813  17.601 -0.52 -0.00    +0.000 A  ATOM     11  C   UNL     1      39.769  45.726  17.819 -0.43 -0.00    +0.011 A  ATOM     12  C   UNL     1      41.612  47.069  18.590 -0.52 -0.00    +0.011 A  ATOM     13  C   UNL     1      39.873  44.916  18.955 -0.42 -0.00    +0.014 A  ATOM     14  C   UNL     1      41.725  46.263  19.730 -0.43 +0.00    +0.014 A  BRANCH  10  15ATOM     15  C   UNL     1      40.510  47.653  16.390 -0.47 -0.01    +0.080 A  ATOM     16  C   UNL     1      39.544  48.327  14.375 -0.29 -0.07    +0.218 A  ATOM     17  C   UNL     1      39.531  47.459  15.439 -0.43 -0.03    +0.097 A  ATOM     18  N   UNL     1      40.432  49.319  14.226 -0.32 +0.06    -0.178 NA ATOM     19  C   UNL     1      41.349  49.425  15.184 -0.44 -0.03    +0.223 A  ATOM     20  N   UNL     1      41.415  48.651  16.269 -0.87 +0.00    -0.213 NA BRANCH  16  21ATOM     21  O   UNL     1      38.553  48.135  13.429 -0.41 +0.10    -0.481 OA ATOM     22  C   UNL     1      37.238  48.255  13.962 -0.39 -0.15    +0.280 C  ENDBRANCH  16  21BRANCH  19  23ATOM     23  N   UNL     1      42.275  50.440  15.071 -0.29 +0.03    -0.368 N  ATOM     24  H   UNL     1      42.164  51.102  15.827 -0.38 -0.03    +0.159 HD ATOM     25  H   UNL     1      43.195  50.057  14.914 -0.14 +0.00    +0.159 HD ENDBRANCH  19  23ENDBRANCH  10  15ENDBRANCH   1   9BRANCH   6  26ATOM     26  N   UNL     1      37.011  44.225  25.158 -0.19 -0.01    -0.291 N  ATOM     27  C   UNL     1      36.870  45.356  25.933 -0.12 -0.02    +0.295 A  ATOM     28  C   UNL     1      36.422  43.184  25.850 -0.34 -0.00    +0.072 A  ATOM     29  N   UNL     1      36.187  45.127  27.022 -0.13 +0.06    -0.195 NA ATOM     30  C   UNL     1      36.270  41.813  25.603 -0.38 -0.01    +0.029 A  ATOM     31  C   UNL     1      35.908  43.787  26.999 -0.39 -0.02    +0.092 A  ATOM     32  C   UNL     1      35.576  41.056  26.556 -0.46 -0.00    +0.002 A  ATOM     33  C   UNL     1      35.213  43.013  27.941 -0.48 -0.01    +0.031 A  ATOM     34  C   UNL     1      35.054  41.644  27.707 -0.62 -0.00    +0.002 A  BRANCH  27  35ATOM     35  O   UNL     1      37.343  46.559  25.651 -0.56 -0.02    -0.480 OA ATOM     36  H   UNL     1      36.664  47.216  25.847 +0.03 -0.02    +0.296 HD ENDBRANCH  27  35ENDBRANCH   6  26TORSDOF 6TERENDMDL