MODEL        10USER    Run = 10USERUSER    Estimated Free Energy of Binding    = -10.74 kcal/mol  [=(1)+(2)+(3)-(4)]USERUSER    (1) Final Intermolecular Energy     = -12.53 kcal/molUSER        vdW + Hbond + desolv Energy     = -12.34 kcal/molUSER        Electrostatic Energy            =  -0.19 kcal/molUSER        Moving Ligand-Fixed Receptor    = -12.53 kcal/molUSER        Moving Ligand-Moving Receptor   =  +0.00 kcal/molUSER    (2) Final Total Internal Energy     =  -0.86 kcal/molUSER    (3) Torsional Free Energy           =  +1.79 kcal/molUSER    (4) Unbound System's Energy         =  -0.86 kcal/molUSERUSERREMARK SMILES COc1nc(N)cc(-c2ccc(C(=O)N3CCC(n4c(O)nc5ccccc54)CC3)cc2)n1REMARK SMILES IDX 13 1 14 2 15 3 16 4 17 5 18 6 29 7 30 8 12 9 9 10 10 11REMARK SMILES IDX 32 12 11 13 31 14 8 15 3 16 4 17 33 18 5 19 7 20 2 21 1 22REMARK SMILES IDX 6 23 19 26 20 27 28 28 22 29 27 30 23 31 26 32 24 33 25 34REMARK SMILES IDX 21 35REMARK H PARENT 6 24 6 25 21 36USER                              x       y       z     vdW  Elec       q    TypeUSER                           _______ _______ _______ _____ _____    ______ ____ROOTATOM      1  C   UNL     1      41.457  43.993  21.288 -0.24 +0.02    +0.253 C  ATOM      2  O   UNL     1      42.503  43.347  21.308 -0.27 -0.04    -0.269 OA ATOM      3  N   UNL     1      40.498  43.913  22.298 -0.08 -0.01    -0.338 N  ATOM      4  C   UNL     1      40.853  43.161  23.496 -0.22 +0.00    +0.122 C  ATOM      5  C   UNL     1      39.899  43.430  24.650 -0.20 +0.00    +0.047 C  ATOM      6  C   UNL     1      38.468  43.046  24.252 -0.27 +0.01    +0.096 C  ATOM      7  C   UNL     1      38.123  43.407  22.795 -0.36 +0.00    +0.047 C  ATOM      8  C   UNL     1      39.116  44.388  22.177 -0.27 +0.01    +0.122 C  ENDROOTBRANCH   1   9ATOM      9  C   UNL     1      41.223  44.890  20.133 -0.35 +0.00    +0.040 A  ATOM     10  C   UNL     1      40.775  46.677  17.979 -0.51 -0.00    +0.000 A  ATOM     11  C   UNL     1      41.730  46.957  18.977 -0.50 +0.00    +0.011 A  ATOM     12  C   UNL     1      40.032  45.486  18.117 -0.44 -0.00    +0.011 A  ATOM     13  C   UNL     1      41.950  46.078  20.045 -0.38 +0.00    +0.014 A  ATOM     14  C   UNL     1      40.243  44.604  19.182 -0.40 +0.00    +0.014 A  BRANCH  10  15ATOM     15  C   UNL     1      40.531  47.589  16.836 -0.47 -0.01    +0.080 A  ATOM     16  C   UNL     1      41.230  49.436  15.671 -0.33 -0.04    +0.318 A  ATOM     17  N   UNL     1      40.223  49.376  14.786 -0.31 +0.08    -0.178 NA ATOM     18  N   UNL     1      41.427  48.586  16.685 -0.90 +0.00    -0.195 NA ATOM     19  C   UNL     1      39.356  48.377  14.954 -0.44 -0.05    +0.131 A  ATOM     20  C   UNL     1      39.457  47.458  15.975 -0.44 -0.02    +0.075 A  BRANCH  16  21ATOM     21  O   UNL     1      42.174  50.435  15.573 -0.59 -0.00    -0.467 OA ATOM     22  C   UNL     1      42.536  50.731  14.231 -0.44 -0.06    +0.282 C  ENDBRANCH  16  21BRANCH  19  23ATOM     23  N   UNL     1      38.285  48.322  14.062 -0.23 +0.16    -0.383 N  ATOM     24  H   UNL     1      37.526  47.822  14.521 +0.12 -0.09    +0.158 HD ATOM     25  H   UNL     1      37.995  49.243  13.754 -0.34 -0.09    +0.158 HD ENDBRANCH  19  23ENDBRANCH  10  15ENDBRANCH   1   9BRANCH   6  26ATOM     26  N   UNL     1      37.493  43.540  25.219 -0.13 -0.00    -0.291 N  ATOM     27  C   UNL     1      37.147  44.845  25.435 -0.16 +0.01    +0.295 A  ATOM     28  C   UNL     1      36.756  42.780  26.103 -0.34 -0.01    +0.072 A  ATOM     29  N   UNL     1      36.250  44.995  26.368 -0.09 +0.04    -0.195 NA ATOM     30  C   UNL     1      36.678  41.405  26.366 -0.32 -0.01    +0.029 A  ATOM     31  C   UNL     1      35.991  43.717  26.801 -0.37 -0.02    +0.092 A  ATOM     32  C   UNL     1      35.789  40.992  27.365 -0.64 -0.00    +0.002 A  ATOM     33  C   UNL     1      35.106  43.282  27.799 -0.56 -0.01    +0.031 A  ATOM     34  C   UNL     1      35.014  41.912  28.072 -0.45 -0.00    +0.002 A  BRANCH  27  35ATOM     35  O   UNL     1      37.648  45.874  24.786 -0.57 -0.08    -0.480 OA ATOM     36  H   UNL     1      37.989  46.413  25.524 +0.15 +0.02    +0.296 HD ENDBRANCH  27  35ENDBRANCH   6  26TORSDOF 6TERENDMDL