MODEL        10USER    Run = 10USERUSER    Estimated Free Energy of Binding    =  -7.03 kcal/mol  [=(1)+(2)+(3)-(4)]USERUSER    (1) Final Intermolecular Energy     = -10.61 kcal/molUSER        vdW + Hbond + desolv Energy     = -10.41 kcal/molUSER        Electrostatic Energy            =  -0.38 kcal/molUSER        Moving Ligand-Fixed Receptor    = -10.79 kcal/molUSER        Moving Ligand-Moving Receptor   =  +0.18 kcal/molUSER    (2) Final Total Internal Energy     =  -1.59 kcal/molUSER    (3) Torsional Free Energy           =  +3.58 kcal/molUSER    (4) Unbound System's Energy         =  -1.59 kcal/molUSERUSERREMARK SMILES NCCC[C@H]1COc2ccc(O)c(N)c2-c2cc(O)cc(O)c21REMARK SMILES IDX 4 1 3 2 2 3 1 4 5 7 23 9 21 10 16 11 20 12 17 13 18 14 22 15REMARK SMILES IDX 15 17 13 18 8 19 11 20 9 21 10 22 14 23 7 26 6 27 12 29REMARK SMILES IDX 19 31REMARK H PARENT 1 5 1 6 22 16 14 24 14 25 12 30 19 32REMARK Flexibility Score:   90.900USER                              x       y       z     vdW  Elec       q    TypeUSER                           _______ _______ _______ _____ _____    ______ ____ROOTATOM      1  C   UNL     1      35.798  45.667  17.399 -0.40 -0.01    +0.013 C  ENDROOTBRANCH   1   2ATOM      2  C   UNL     1      34.907  45.066  18.493 -0.44 -0.01    +0.016 C  BRANCH   2   3ATOM      3  C   UNL     1      33.596  45.833  18.681 -0.47 -0.04    +0.077 C  BRANCH   3   4ATOM      4  N   UNL     1      33.803  47.276  18.657 -0.85 +0.27    -0.330 NA ATOM      5  H   UNL     1      33.943  47.581  17.695 -0.46 -0.24    +0.118 HD ATOM      6  H   UNL     1      32.963  47.749  18.989 -0.45 -0.09    +0.118 HD ENDBRANCH   3   4ENDBRANCH   2   3ENDBRANCH   1   2BRANCH   1   7ATOM      7  C   UNL     1      37.215  45.067  17.390 -0.37 -0.02    +0.061 CG0ATOM      8  G   UNL     1      37.532  43.975  16.354 +0.00 +0.00    +0.000 G0 BRANCH   7   9ATOM      9  C   UNL     1      38.316  46.108  17.257 -0.39 -0.00    +0.009 A  ATOM     10  C   UNL     1      39.151  46.389  18.358 -0.21 -0.02    +0.123 A  ATOM     11  C   UNL     1      38.604  46.681  15.997 -0.42 +0.00    -0.001 A  ATOM     12  C   UNL     1      40.300  47.165  18.227 -0.23 -0.01    +0.092 A  ATOM     13  C   UNL     1      39.819  47.389  15.876 -0.47 -0.01    +0.055 A  ATOM     14  C   UNL     1      40.639  47.636  16.972 -0.44 -0.02    +0.119 A  BRANCH  10  15ATOM     15  O   UNL     1      38.837  45.861  19.581 -0.12 +0.03    -0.507 OA ATOM     16  H   UNL     1      38.368  45.020  19.461 +0.18 -0.02    +0.293 HD ENDBRANCH  10  15BRANCH  11  17ATOM     17  C   UNL     1      37.690  46.574  14.824 -0.38 -0.02    +0.051 A  ATOM     18  C   UNL     1      37.338  47.743  14.082 -0.47 -0.04    +0.086 A  ATOM     19  C   UNL     1      37.088  45.368  14.401 -0.31 -0.05    +0.129 A  ATOM     20  C   UNL     1      36.615  47.638  12.878 -0.53 -0.06    +0.139 A  ATOM     21  C   UNL     1      36.345  45.309  13.201 -0.36 -0.02    +0.051 A  ATOM     22  C   UNL     1      36.127  46.434  12.421 -0.60 -0.03    +0.052 A  BRANCH  18  23ATOM     23  N   UNL     1      37.815  49.058  14.387 -0.06 +0.27    -0.395 N  ATOM     24  H   UNL     1      38.777  49.164  14.063 -0.29 -0.09    +0.156 HD ATOM     25  H   UNL     1      37.238  49.745  13.898 -0.35 -0.11    +0.156 HD ENDBRANCH  18  23BRANCH  19  26ATOM     26  O   UNL     1      37.061  44.157  15.028 -0.06 +0.16    -0.492 OA BRANCH  26  27ATOM     27  C   UNL     1      37.532  43.975  16.352 -0.13 -0.06    +0.238 CG0ATOM     28  G   UNL     1      37.217  45.067  17.389 +0.00 +0.00    +0.000 G0 ENDBRANCH  26  27ENDBRANCH  19  26BRANCH  20  29ATOM     29  O   UNL     1      36.354  48.778  12.166 -0.28 +0.18    -0.506 OA ATOM     30  H   UNL     1      35.756  48.461  11.456 -0.19 -0.22    +0.293 HD ENDBRANCH  20  29ENDBRANCH  11  17BRANCH  14  31ATOM     31  O   UNL     1      41.771  48.365  16.759 -0.54 -0.02    -0.508 OA ATOM     32  H   UNL     1      42.544  47.781  16.836 -0.33 -0.07    +0.293 HD ENDBRANCH  14  31ENDBRANCH   7   9ENDBRANCH   1   7TORSDOF 8TERENDMDL