REMARK SMILES NC=Nc1cc(-c2ccc(OCCN3CCNCC3)cc2)ncc1CO
REMARK SMILES IDX 7 1 8 2 9 3 10 4 20 5 21 6 6 7 4 8 5 9 24 10 23 11 22 12
REMARK SMILES IDX 3 13 2 14 1 15 25 18 26 19 11 21 12 22 13 23 14 24 15 25
REMARK SMILES IDX 19 26 16 27 18 28 17 29
REMARK H PARENT 1 16 1 17 26 20 17 30
ROOT
ATOM      1  C   UNL     1      -2.118   0.444  -0.476  1.00  0.00     0.000 A 
ATOM      2  C   UNL     1      -1.137  -0.542  -0.691  1.00  0.00     0.014 A 
ATOM      3  C   UNL     1       0.233  -0.262  -0.582  1.00  0.00     0.047 A 
ATOM      4  C   UNL     1       0.659   1.022  -0.257  1.00  0.00     0.119 A 
ATOM      5  C   UNL     1      -0.296   2.017  -0.049  1.00  0.00     0.047 A 
ATOM      6  C   UNL     1      -1.663   1.735  -0.159  1.00  0.00     0.014 A 
ENDROOT
BRANCH   1   7
ATOM      7  C   UNL     1      -3.556   0.117  -0.594  1.00  0.00     0.072 A 
ATOM      8  C   UNL     1      -5.885   0.412  -0.037  1.00  0.00     0.074 A 
ATOM      9  C   UNL     1      -4.547   0.780   0.124  1.00  0.00     0.057 A 
ATOM     10  C   UNL     1      -6.217  -0.590  -0.951  1.00  0.00     0.022 A 
ATOM     11  C   UNL     1      -5.167  -1.218  -1.604  1.00  0.00     0.120 A 
ATOM     12  N   UNL     1      -3.864  -0.896  -1.440  1.00  0.00    -0.256 NA
BRANCH   8  13
ATOM     13  N   UNL     1      -6.859   1.089   0.716  1.00  0.00    -0.239 NA
BRANCH  13  14
ATOM     14  C   UNL     1      -7.335   0.524   1.773  1.00  0.00     0.190 C 
ATOM     15  N   UNL     1      -7.052  -0.700   2.310  1.00  0.00    -0.390 N 
ATOM     16  H   UNL     1      -6.162  -1.099   2.022  1.00  0.00     0.157 HD
ATOM     17  H   UNL     1      -7.204  -0.786   3.311  1.00  0.00     0.157 HD
ENDBRANCH  13  14
ENDBRANCH   8  13
BRANCH  10  18
ATOM     18  C   UNL     1      -7.626  -1.023  -1.206  1.00  0.00     0.195 C 
BRANCH  18  19
ATOM     19  O   UNL     1      -7.970  -2.087  -0.328  1.00  0.00    -0.392 OA
ATOM     20  H   UNL     1      -7.905  -1.722   0.575  1.00  0.00     0.211 HD
ENDBRANCH  18  19
ENDBRANCH  10  18
ENDBRANCH   1   7
BRANCH   4  21
ATOM     21  O   UNL     1       1.955   1.433  -0.119  1.00  0.00    -0.492 OA
BRANCH  21  22
ATOM     22  C   UNL     1       2.974   0.453  -0.340  1.00  0.00     0.245 C 
BRANCH  22  23
ATOM     23  C   UNL     1       4.339   1.139  -0.168  1.00  0.00     0.126 C 
BRANCH  23  24
ATOM     24  N   UNL     1       5.492   0.269  -0.462  1.00  0.00    -0.297 NA
ATOM     25  C   UNL     1       5.664  -0.787   0.559  1.00  0.00     0.100 C 
ATOM     26  C   UNL     1       6.730   1.078  -0.524  1.00  0.00     0.100 C 
ATOM     27  C   UNL     1       6.928  -1.643   0.313  1.00  0.00     0.096 C 
ATOM     28  C   UNL     1       7.986   0.215  -0.772  1.00  0.00     0.096 C 
ATOM     29  N   UNL     1       8.158  -0.842   0.237  1.00  0.00    -0.314 NA
ATOM     30  H   UNL     1       8.932  -1.444  -0.039  1.00  0.00     0.122 HD
ENDBRANCH  23  24
ENDBRANCH  22  23
ENDBRANCH  21  22
ENDBRANCH   4  21
TORSDOF 9
