REMARK SMILES NCCC[C@H]1COc2ccc(O)c(N)c2-c2cc(O)cc(O)c21
REMARK SMILES IDX 4 1 3 2 2 3 1 4 5 7 23 9 21 10 16 11 20 12 17 13 18 14 22 15
REMARK SMILES IDX 15 17 13 18 8 19 11 20 9 21 10 22 14 23 7 26 6 27 12 29
REMARK SMILES IDX 19 31
REMARK H PARENT 1 5 1 6 22 16 14 24 14 25 12 30 19 32
REMARK Flexibility Score:   90.900
ROOT
ATOM      1  C   UNL     1       1.744   0.320   0.470  1.00  0.00     0.013 C 
ENDROOT
BRANCH   1   2
ATOM      2  C   UNL     1       3.024  -0.388   0.931  1.00  0.00     0.016 C 
BRANCH   2   3
ATOM      3  C   UNL     1       3.531   0.119   2.283  1.00  0.00     0.077 C 
BRANCH   3   4
ATOM      4  N   UNL     1       3.967   1.509   2.213  1.00  0.00    -0.330 NA
ATOM      5  H   UNL     1       4.343   1.790   3.117  1.00  0.00     0.118 HD
ATOM      6  H   UNL     1       4.731   1.596   1.544  1.00  0.00     0.118 HD
ENDBRANCH   3   4
ENDBRANCH   2   3
ENDBRANCH   1   2
BRANCH   1   7
ATOM      7  C   UNL     1       1.263  -0.160  -0.911  1.00  0.00     0.061 CG0
ATOM      8  G   UNL     1       1.049  -1.669  -1.117  1.00  0.00     0.000 G0
BRANCH   7   9
ATOM      9  C   UNL     1      -0.016   0.516  -1.379  1.00  0.00     0.009 A 
ATOM     10  C   UNL     1       0.029   1.440  -2.444  1.00  0.00     0.123 A 
ATOM     11  C   UNL     1      -1.266   0.111  -0.859  1.00  0.00    -0.001 A 
ATOM     12  C   UNL     1      -1.130   1.918  -3.050  1.00  0.00     0.092 A 
ATOM     13  C   UNL     1      -2.420   0.543  -1.548  1.00  0.00     0.055 A 
ATOM     14  C   UNL     1      -2.350   1.438  -2.610  1.00  0.00     0.119 A 
BRANCH  10  15
ATOM     15  O   UNL     1       1.247   1.855  -2.911  1.00  0.00    -0.507 OA
ATOM     16  H   UNL     1       1.120   2.543  -3.584  1.00  0.00     0.293 HD
ENDBRANCH  10  15
BRANCH  11  17
ATOM     17  C   UNL     1      -1.407  -0.728   0.365  1.00  0.00     0.051 A 
ATOM     18  C   UNL     1      -2.305  -0.334   1.404  1.00  0.00     0.086 A 
ATOM     19  C   UNL     1      -0.660  -1.903   0.606  1.00  0.00     0.129 A 
ATOM     20  C   UNL     1      -2.574  -1.196   2.485  1.00  0.00     0.139 A 
ATOM     21  C   UNL     1      -0.941  -2.727   1.718  1.00  0.00     0.051 A 
ATOM     22  C   UNL     1      -1.914  -2.393   2.647  1.00  0.00     0.052 A 
BRANCH  18  23
ATOM     23  N   UNL     1      -3.113   0.847   1.358  1.00  0.00    -0.395 N 
ATOM     24  H   UNL     1      -2.642   1.571   0.813  1.00  0.00     0.156 HD
ATOM     25  H   UNL     1      -3.998   0.629   0.898  1.00  0.00     0.156 HD
ENDBRANCH  18  23
BRANCH  19  26
ATOM     26  O   UNL     1       0.406  -2.399  -0.086  1.00  0.00    -0.492 OA
BRANCH  26  27
ATOM     27  C   UNL     1       1.049  -1.669  -1.117  1.00  0.00     0.238 CG0
ATOM     28  G   UNL     1       1.263  -0.160  -0.911  1.00  0.00     0.000 G0
ENDBRANCH  26  27
ENDBRANCH  19  26
BRANCH  20  29
ATOM     29  O   UNL     1      -3.490  -0.805   3.425  1.00  0.00    -0.506 OA
ATOM     30  H   UNL     1      -3.695   0.117   3.161  1.00  0.00     0.293 HD
ENDBRANCH  20  29
ENDBRANCH  11  17
BRANCH  14  31
ATOM     31  O   UNL     1      -3.524   1.827  -3.184  1.00  0.00    -0.508 OA
ATOM     32  H   UNL     1      -3.332   2.413  -3.935  1.00  0.00     0.293 HD
ENDBRANCH  14  31
ENDBRANCH   7   9
ENDBRANCH   1   7
TORSDOF 8
