MODEL        8USER    Run = 8USERUSER    Estimated Free Energy of Binding    =  -7.56 kcal/mol  [=(1)+(2)+(3)-(4)]USERUSER    (1) Final Intermolecular Energy     =  -8.75 kcal/molUSER        vdW + Hbond + desolv Energy     =  -8.68 kcal/molUSER        Electrostatic Energy            =  -0.07 kcal/molUSER        Moving Ligand-Fixed Receptor    =  -8.75 kcal/molUSER        Moving Ligand-Moving Receptor   =  +0.00 kcal/molUSER    (2) Final Total Internal Energy     =  -0.62 kcal/molUSER    (3) Torsional Free Energy           =  +1.19 kcal/molUSER    (4) Unbound System's Energy         =  -0.62 kcal/molUSERUSERREMARK SMILES CN1C(=O)c2ccccc2[C@H]1C=Cc1ccc(C(F)F)cn1REMARK SMILES IDX 13 1 12 2 11 3 2 4 3 5 5 6 10 7 6 8 9 9 7 10 8 11 1 12 4 13REMARK SMILES IDX 14 14 15 15 22 16 16 17 21 18 17 19 18 20 19 21 20 22REMARK H PARENTUSER                              x       y       z     vdW  Elec       q    TypeUSER                           _______ _______ _______ _____ _____    ______ ____ROOTATOM      1  C   UNL     1      37.352  45.489  17.244 -0.39 -0.01    +0.026 C  ENDROOTBRANCH   1   2ATOM      2  C   UNL     1      38.156  46.565  17.210 -0.40 -0.00    +0.005 C  BRANCH   2   3ATOM      3  C   UNL     1      39.580  46.518  16.740 -0.42 -0.03    +0.139 C  ATOM      4  N   UNL     1      39.915  47.787  16.109 -0.26 +0.09    -0.331 N  ATOM      5  C   UNL     1      41.036  48.379  16.671 -0.40 -0.03    +0.254 C  ATOM      6  C   UNL     1      41.426  47.546  17.815 -0.48 -0.00    +0.045 A  ATOM      7  C   UNL     1      40.570  46.446  17.865 -0.49 +0.00    -0.009 A  ATOM      8  C   UNL     1      42.454  47.737  18.718 -0.52 +0.00    +0.014 A  ATOM      9  C   UNL     1      40.732  45.485  18.850 -0.46 +0.00    +0.007 A  ATOM     10  C   UNL     1      42.618  46.774  19.716 -0.45 +0.00    +0.001 A  ATOM     11  C   UNL     1      41.763  45.658  19.781 -0.38 +0.00    +0.000 A  ATOM     12  C   UNL     1      39.396  48.165  14.814 -0.49 -0.05    +0.148 C  ATOM     13  O   UNL     1      41.629  49.377  16.309 -1.05 -0.03    -0.269 OA ENDBRANCH   2   3ENDBRANCH   1   2BRANCH   1  14ATOM     14  C   UNL     1      37.112  44.622  18.404 -0.31 -0.01    +0.063 A  ATOM     15  C   UNL     1      36.131  43.637  18.441 -0.31 -0.01    +0.029 A  ATOM     16  N   UNL     1      37.967  44.830  19.432 -0.21 +0.02    -0.256 NA ATOM     17  C   UNL     1      36.009  42.852  19.587 -0.39 -0.00    +0.013 A  ATOM     18  C   UNL     1      37.821  44.061  20.536 -0.29 -0.00    +0.121 A  ATOM     19  C   UNL     1      36.863  43.066  20.669 -0.39 -0.00    +0.036 A  BRANCH  19  20ATOM     20  C   UNL     1      36.800  42.231  21.910 -0.29 +0.02    +0.374 C  ATOM     21  F   UNL     1      35.826  41.279  21.861 -0.21 -0.01    -0.205 F  ATOM     22  F   UNL     1      36.548  42.960  23.031 -0.11 -0.03    -0.205 F  ENDBRANCH  19  20ENDBRANCH   1  14TORSDOF 4TERENDMDL