MODEL        8USER    Run = 8USERUSER    Estimated Free Energy of Binding    =  -8.04 kcal/mol  [=(1)+(2)+(3)-(4)]USERUSER    (1) Final Intermolecular Energy     = -10.12 kcal/molUSER        vdW + Hbond + desolv Energy     =  -9.94 kcal/molUSER        Electrostatic Energy            =  -0.19 kcal/molUSER        Moving Ligand-Fixed Receptor    = -10.12 kcal/molUSER        Moving Ligand-Moving Receptor   =  +0.00 kcal/molUSER    (2) Final Total Internal Energy     =  -1.44 kcal/molUSER    (3) Torsional Free Energy           =  +2.09 kcal/molUSER    (4) Unbound System's Energy         =  -1.44 kcal/molUSERUSERREMARK SMILES Cc1cnc(-c2ccc(OCCN3CCOCC3)cc2)cc1N=CNREMARK SMILES IDX 6 1 7 2 8 3 9 4 19 5 20 6 5 7 2 8 3 9 22 10 4 11 21 12 1 13REMARK SMILES IDX 23 14 24 15 25 16 10 19 11 20 12 21 13 22 14 23 18 24 15 25REMARK SMILES IDX 17 26 16 27REMARK H PARENT 25 17 25 18USER                              x       y       z     vdW  Elec       q    TypeUSER                           _______ _______ _______ _____ _____    ______ ____ROOTATOM      1  C   UNL     1      37.803  45.519  17.058 -0.37 -0.00    +0.000 A  ATOM      2  C   UNL     1      37.612  44.132  16.912 -0.26 -0.00    +0.014 A  ATOM      3  C   UNL     1      36.386  43.602  16.491 -0.35 -0.02    +0.047 A  ATOM      4  C   UNL     1      35.313  44.442  16.198 -0.25 -0.06    +0.119 A  ATOM      5  C   UNL     1      35.472  45.818  16.348 -0.32 -0.04    +0.047 A  ATOM      6  C   UNL     1      36.700  46.346  16.775 -0.34 -0.01    +0.014 A  ENDROOTBRANCH   1   7ATOM      7  C   UNL     1      39.111  46.060  17.494 -0.38 -0.01    +0.072 A  ATOM      8  C   UNL     1      41.572  46.945  18.422 -0.53 +0.00    -0.007 A  ATOM      9  C   UNL     1      40.934  45.818  18.914 -0.39 +0.00    +0.117 A  ATOM     10  C   UNL     1      40.931  47.638  17.395 -0.47 -0.01    +0.071 A  ATOM     11  N   UNL     1      39.741  45.362  18.471 -0.25 +0.02    -0.256 NA ATOM     12  C   UNL     1      39.685  47.200  16.941 -0.43 -0.01    +0.057 A  ATOM     13  C   UNL     1      42.890  47.389  18.974 -0.58 +0.01    +0.048 C  BRANCH  10  14ATOM     14  N   UNL     1      41.504  48.796  16.841 -0.88 -0.01    -0.239 NA BRANCH  14  15ATOM     15  C   UNL     1      40.842  49.347  15.883 -0.53 -0.04    +0.190 C  ATOM     16  N   UNL     1      40.781  50.692  15.706 -0.28 +0.17    -0.390 N  ATOM     17  H   UNL     1      39.925  51.066  15.312 -0.42 -0.14    +0.157 HD ATOM     18  H   UNL     1      41.133  51.214  16.502 -0.47 -0.09    +0.157 HD ENDBRANCH  14  15ENDBRANCH  10  14ENDBRANCH   1   7BRANCH   4  19ATOM     19  O   UNL     1      34.175  43.801  15.797 -0.07 +0.24    -0.492 OA BRANCH  19  20ATOM     20  C   UNL     1      33.910  42.521  16.381 -0.18 -0.12    +0.245 C  BRANCH  20  21ATOM     21  C   UNL     1      32.988  42.733  17.595 -0.31 -0.04    +0.126 C  BRANCH  21  22ATOM     22  N   UNL     1      33.620  42.849  18.914 -0.21 +0.03    -0.295 NA ATOM     23  C   UNL     1      34.898  42.133  19.031 -0.37 -0.01    +0.113 C  ATOM     24  C   UNL     1      33.707  44.225  19.431 -0.41 -0.02    +0.113 C  ATOM     25  C   UNL     1      35.653  42.560  20.300 -0.40 -0.00    +0.175 C  ATOM     26  C   UNL     1      35.147  44.764  19.504 -0.27 -0.04    +0.175 C  ATOM     27  O   UNL     1      36.025  43.946  20.287 -0.22 +0.02    -0.379 OA ENDBRANCH  21  22ENDBRANCH  20  21ENDBRANCH  19  20ENDBRANCH   4  19TORSDOF 7TERENDMDL