REMARK SMILES CN1C(=O)c2ccccc2[C@H]1C=Cc1ccc(C(F)F)cn1
REMARK SMILES IDX 13 1 12 2 11 3 2 4 3 5 5 6 10 7 6 8 9 9 7 10 8 11 1 12 4 13
REMARK SMILES IDX 14 14 15 15 22 16 16 17 21 18 17 19 18 20 19 21 20 22
REMARK H PARENT
ROOT
ATOM      1  C   UNL     1       0.887   0.211  -0.836  1.00  0.00     0.026 C 
ENDROOT
BRANCH   1   2
ATOM      2  C   UNL     1      -0.246  -0.270  -0.296  1.00  0.00     0.005 C 
BRANCH   2   3
ATOM      3  C   UNL     1      -1.539  -0.379  -1.049  1.00  0.00     0.139 C 
ATOM      4  N   UNL     1      -1.996  -1.762  -1.012  1.00  0.00    -0.331 N 
ATOM      5  C   UNL     1      -3.284  -1.881  -0.514  1.00  0.00     0.254 C 
ATOM      6  C   UNL     1      -3.696  -0.541  -0.079  1.00  0.00     0.045 A 
ATOM      7  C   UNL     1      -2.670   0.352  -0.388  1.00  0.00    -0.009 A 
ATOM      8  C   UNL     1      -4.876  -0.147   0.522  1.00  0.00     0.014 A 
ATOM      9  C   UNL     1      -2.810   1.699  -0.094  1.00  0.00     0.007 A 
ATOM     10  C   UNL     1      -5.020   1.208   0.825  1.00  0.00     0.001 A 
ATOM     11  C   UNL     1      -3.995   2.123   0.520  1.00  0.00     0.000 A 
ATOM     12  C   UNL     1      -1.350  -2.808  -1.772  1.00  0.00     0.148 C 
ATOM     13  O   UNL     1      -3.985  -2.873  -0.453  1.00  0.00    -0.269 OA
ENDBRANCH   2   3
ENDBRANCH   1   2
BRANCH   1  14
ATOM     14  C   UNL     1       2.176   0.364  -0.153  1.00  0.00     0.063 A 
ATOM     15  C   UNL     1       2.550  -0.376   0.964  1.00  0.00     0.029 A 
ATOM     16  N   UNL     1       3.004   1.262  -0.735  1.00  0.00    -0.256 NA
ATOM     17  C   UNL     1       3.813  -0.167   1.518  1.00  0.00     0.013 A 
ATOM     18  C   UNL     1       4.220   1.453  -0.172  1.00  0.00     0.121 A 
ATOM     19  C   UNL     1       4.673   0.774   0.949  1.00  0.00     0.036 A 
BRANCH  19  20
ATOM     20  C   UNL     1       6.052   1.014   1.480  1.00  0.00     0.374 C 
ATOM     21  F   UNL     1       6.149   0.803   2.823  1.00  0.00    -0.205 F 
ATOM     22  F   UNL     1       6.488   2.287   1.274  1.00  0.00    -0.205 F 
ENDBRANCH  19  20
ENDBRANCH   1  14
TORSDOF 4
