MODEL        6USER    Run = 6USERUSER    Estimated Free Energy of Binding    = -10.07 kcal/mol  [=(1)+(2)+(3)-(4)]USERUSER    (1) Final Intermolecular Energy     = -12.16 kcal/molUSER        vdW + Hbond + desolv Energy     = -11.76 kcal/molUSER        Electrostatic Energy            =  -0.40 kcal/molUSER        Moving Ligand-Fixed Receptor    = -12.16 kcal/molUSER        Moving Ligand-Moving Receptor   =  +0.00 kcal/molUSER    (2) Final Total Internal Energy     =  -1.01 kcal/molUSER    (3) Torsional Free Energy           =  +2.09 kcal/molUSER    (4) Unbound System's Energy         =  -1.01 kcal/molUSERUSERREMARK SMILES CNC1=Nc2cc(-c3ccc(OCCN4CCOCC4)cc3)ncc2[C@H]1COREMARK SMILES IDX 8 1 9 2 10 3 11 4 21 5 22 6 7 7 2 8 3 9 4 10 26 11 5 12REMARK SMILES IDX 25 13 6 14 24 15 23 16 1 17 27 19 28 20 12 22 13 23 14 24REMARK SMILES IDX 15 25 16 26 20 27 17 28 19 29 18 30REMARK H PARENT 2 18 28 21USER                              x       y       z     vdW  Elec       q    TypeUSER                           _______ _______ _______ _____ _____    ______ ____ROOTATOM      1  C   UNL     1      36.078  44.565  18.491 -0.35 -0.00    +0.000 A  ATOM      2  C   UNL     1      36.160  43.282  19.061 -0.34 -0.00    +0.014 A  ATOM      3  C   UNL     1      35.017  42.590  19.487 -0.40 -0.00    +0.047 A  ATOM      4  C   UNL     1      33.757  43.167  19.358 -0.32 -0.01    +0.119 A  ATOM      5  C   UNL     1      33.655  44.440  18.797 -0.37 -0.01    +0.047 A  ATOM      6  C   UNL     1      34.797  45.129  18.375 -0.39 -0.01    +0.014 A  ENDROOTBRANCH   1   7ATOM      7  C   UNL     1      37.276  45.305  18.034 -0.30 -0.02    +0.072 A  ATOM      8  N   UNL     1      42.614  47.725  18.347 -0.29 -0.00    -0.376 N  ATOM      9  C   UNL     1      41.352  47.239  18.113 -0.51 -0.01    +0.112 C  ATOM     10  N   UNL     1      40.637  46.559  18.973 -0.29 +0.01    -0.235 NA ATOM     11  C   UNL     1      40.667  47.413  16.735 -0.50 -0.02    +0.114 C  ATOM     12  C   UNL     1      39.435  46.233  18.321 -0.37 -0.01    +0.073 A  ATOM     13  C   UNL     1      39.391  46.700  17.018 -0.45 -0.00    +0.009 A  ATOM     14  C   UNL     1      38.381  45.526  18.856 -0.30 -0.01    +0.057 A  ATOM     15  C   UNL     1      38.284  46.450  16.257 -0.32 -0.04    +0.118 A  ATOM     16  N   UNL     1      37.232  45.752  16.740 -0.19 +0.11    -0.256 NA ATOM     17  C   UNL     1      43.349  47.373  19.539 -0.39 +0.04    +0.141 C  ATOM     18  H   UNL     1      43.180  47.977  17.547 -0.35 -0.01    +0.161 HD BRANCH  11  19ATOM     19  C   UNL     1      40.516  48.868  16.303 -0.43 -0.04    +0.172 C  BRANCH  19  20ATOM     20  O   UNL     1      41.696  49.630  16.528 -0.93 -0.06    -0.395 OA ATOM     21  H   UNL     1      41.440  50.567  16.584 -0.25 -0.04    +0.210 HD ENDBRANCH  19  20ENDBRANCH  11  19ENDBRANCH   1   7BRANCH   4  22ATOM     22  O   UNL     1      32.564  42.610  19.720 -0.44 -0.05    -0.492 OA BRANCH  22  23ATOM     23  C   UNL     1      31.681  42.144  18.696 -0.18 -0.02    +0.245 C  BRANCH  23  24ATOM     24  C   UNL     1      32.263  40.901  17.998 -0.38 -0.03    +0.126 C  BRANCH  24  25ATOM     25  N   UNL     1      32.245  39.635  18.741 -0.42 -0.02    -0.295 NA ATOM     26  C   UNL     1      32.746  38.488  17.965 -0.31 -0.01    +0.113 C  ATOM     27  C   UNL     1      30.970  39.330  19.413 -0.37 +0.01    +0.113 C  ATOM     28  C   UNL     1      32.395  37.162  18.656 -0.43 +0.03    +0.175 C  ATOM     29  C   UNL     1      30.214  38.148  18.785 -0.35 +0.05    +0.175 C  ATOM     30  O   UNL     1      30.980  36.937  18.746 -0.84 -0.23    -0.379 OA ENDBRANCH  24  25ENDBRANCH  23  24ENDBRANCH  22  23ENDBRANCH   4  22TORSDOF 7TERENDMDL