MODEL        2USER    Run = 2USERUSER    Estimated Free Energy of Binding    =  -7.50 kcal/mol  [=(1)+(2)+(3)-(4)]USERUSER    (1) Final Intermolecular Energy     = -10.78 kcal/molUSER        vdW + Hbond + desolv Energy     = -10.45 kcal/molUSER        Electrostatic Energy            =  -0.42 kcal/molUSER        Moving Ligand-Fixed Receptor    = -10.87 kcal/molUSER        Moving Ligand-Moving Receptor   =  +0.09 kcal/molUSER    (2) Final Total Internal Energy     =  -1.76 kcal/molUSER    (3) Torsional Free Energy           =  +3.28 kcal/molUSER    (4) Unbound System's Energy         =  -1.76 kcal/molUSERUSERREMARK SMILES NCCC[C@H]1COc2ccc(O)c(N)c2-c2cc(O)c(F)cc21REMARK SMILES IDX 4 1 3 2 2 3 1 4 5 7 23 9 22 10 16 11 20 12 17 13 18 14 21 15REMARK SMILES IDX 15 16 13 17 8 18 11 19 9 20 10 21 14 22 7 25 6 26 12 28REMARK SMILES IDX 19 30REMARK H PARENT 1 5 1 6 14 23 14 24 12 29 19 31REMARK Flexibility Score:   90.900USER                              x       y       z     vdW  Elec       q    TypeUSER                           _______ _______ _______ _____ _____    ______ ____ROOTATOM      1  C   UNL     1      36.152  45.085  18.101 -0.39 -0.00    +0.013 C  ENDROOTBRANCH   1   2ATOM      2  C   UNL     1      35.393  46.283  17.528 -0.42 -0.01    +0.016 C  BRANCH   2   3ATOM      3  C   UNL     1      33.979  46.439  18.102 -0.49 -0.07    +0.077 C  BRANCH   3   4ATOM      4  N   UNL     1      33.746  47.761  18.670 -0.70 +0.28    -0.330 NA ATOM      5  H   UNL     1      33.892  48.468  17.950 -0.48 -0.27    +0.118 HD ATOM      6  H   UNL     1      32.774  47.852  18.959 -0.54 -0.09    +0.118 HD ENDBRANCH   3   4ENDBRANCH   2   3ENDBRANCH   1   2BRANCH   1   7ATOM      7  C   UNL     1      37.538  44.747  17.517 -0.37 -0.01    +0.058 CG0ATOM      8  G   UNL     1      37.622  43.836  16.289 +0.00 +0.00    +0.000 G0 BRANCH   7   9ATOM      9  C   UNL     1      38.492  45.908  17.334 -0.38 +0.01    -0.030 A  ATOM     10  C   UNL     1      39.370  46.181  18.410 -0.37 -0.01    +0.048 A  ATOM     11  C   UNL     1      38.639  46.589  16.105 -0.41 +0.00    -0.005 A  ATOM     12  C   UNL     1      40.445  47.041  18.253 -0.28 -0.02    +0.165 A  ATOM     13  C   UNL     1      39.806  47.388  15.966 -0.46 -0.01    +0.058 A  ATOM     14  C   UNL     1      40.684  47.625  17.023 -0.41 -0.02    +0.151 A  ATOM     15  F   UNL     1      41.268  47.258  19.289 -0.07 -0.00    -0.203 F  BRANCH  11  16ATOM     16  C   UNL     1      37.658  46.533  14.969 -0.37 -0.02    +0.051 A  ATOM     17  C   UNL     1      37.348  47.730  14.238 -0.46 -0.05    +0.086 A  ATOM     18  C   UNL     1      36.950  45.381  14.560 -0.30 -0.05    +0.129 A  ATOM     19  C   UNL     1      36.571  47.694  13.059 -0.52 -0.07    +0.139 A  ATOM     20  C   UNL     1      36.150  45.387  13.394 -0.33 -0.02    +0.051 A  ATOM     21  C   UNL     1      35.982  46.527  12.622 -0.58 -0.03    +0.052 A  BRANCH  17  22ATOM     22  N   UNL     1      37.879  49.007  14.597 -0.12 +0.28    -0.395 N  ATOM     23  H   UNL     1      37.482  49.338  15.472 +0.02 -0.16    +0.156 HD ATOM     24  H   UNL     1      37.712  49.662  13.830 -0.46 -0.11    +0.156 HD ENDBRANCH  17  22BRANCH  18  25ATOM     25  O   UNL     1      36.808  44.179  15.193 -0.11 +0.17    -0.492 OA BRANCH  25  26ATOM     26  C   UNL     1      37.621  43.836  16.289 +0.01 -0.06    +0.238 CG0ATOM     27  G   UNL     1      37.538  44.748  17.517 +0.00 +0.00    +0.000 G0 ENDBRANCH  25  26ENDBRANCH  18  25BRANCH  19  28ATOM     28  O   UNL     1      36.371  48.871  12.382 -0.30 +0.17    -0.506 OA ATOM     29  H   UNL     1      35.864  48.678  11.576 -0.24 -0.19    +0.293 HD ENDBRANCH  19  28ENDBRANCH  11  16BRANCH  14  30ATOM     30  O   UNL     1      41.771  48.434  16.861 -0.59 -0.03    -0.505 OA ATOM     31  H   UNL     1      42.574  47.918  17.040 -0.33 -0.03    +0.293 HD ENDBRANCH  14  30ENDBRANCH   7   9ENDBRANCH   1   7TORSDOF 7TERENDMDL