REMARK SMILES Cc1cnc(-c2ccc(OCCN3CCOCC3)cc2)cc1N=CN
REMARK SMILES IDX 6 1 7 2 8 3 9 4 19 5 20 6 5 7 2 8 3 9 22 10 4 11 21 12 1 13
REMARK SMILES IDX 23 14 24 15 25 16 10 19 11 20 12 21 13 22 14 23 18 24 15 25
REMARK SMILES IDX 17 26 16 27
REMARK H PARENT 25 17 25 18
ROOT
ATOM      1  C   UNL     1      -1.910  -0.936   0.321  1.00  0.00     0.000 A 
ATOM      2  C   UNL     1      -1.437  -1.676   1.421  1.00  0.00     0.014 A 
ATOM      3  C   UNL     1      -0.067  -1.845   1.656  1.00  0.00     0.047 A 
ATOM      4  C   UNL     1       0.875  -1.278   0.799  1.00  0.00     0.119 A 
ATOM      5  C   UNL     1       0.433  -0.553  -0.306  1.00  0.00     0.047 A 
ATOM      6  C   UNL     1      -0.941  -0.389  -0.541  1.00  0.00     0.014 A 
ENDROOT
BRANCH   1   7
ATOM      7  C   UNL     1      -3.363  -0.760   0.097  1.00  0.00     0.072 A 
ATOM      8  C   UNL     1      -6.112  -0.575  -0.239  1.00  0.00    -0.007 A 
ATOM      9  C   UNL     1      -5.495  -1.627   0.418  1.00  0.00     0.117 A 
ATOM     10  C   UNL     1      -5.286   0.438  -0.728  1.00  0.00     0.071 A 
ATOM     11  N   UNL     1      -4.160  -1.733   0.603  1.00  0.00    -0.256 NA
ATOM     12  C   UNL     1      -3.902   0.335  -0.571  1.00  0.00     0.057 A 
ATOM     13  C   UNL     1      -7.598  -0.536  -0.410  1.00  0.00     0.048 C 
BRANCH  10  14
ATOM     14  N   UNL     1      -5.827   1.540  -1.413  1.00  0.00    -0.239 NA
BRANCH  14  15
ATOM     15  C   UNL     1      -5.949   2.623  -0.726  1.00  0.00     0.190 C 
ATOM     16  N   UNL     1      -6.464   3.769  -1.241  1.00  0.00    -0.390 N 
ATOM     17  H   UNL     1      -6.098   4.642  -0.878  1.00  0.00     0.157 HD
ATOM     18  H   UNL     1      -6.553   3.746  -2.252  1.00  0.00     0.157 HD
ENDBRANCH  14  15
ENDBRANCH  10  14
ENDBRANCH   1   7
BRANCH   4  19
ATOM     19  O   UNL     1       2.177  -1.516   1.139  1.00  0.00    -0.492 OA
BRANCH  19  20
ATOM     20  C   UNL     1       3.181  -0.833   0.382  1.00  0.00     0.245 C 
BRANCH  20  21
ATOM     21  C   UNL     1       4.555  -1.202   0.970  1.00  0.00     0.126 C 
BRANCH  21  22
ATOM     22  N   UNL     1       5.731  -0.512   0.430  1.00  0.00    -0.295 NA
ATOM     23  C   UNL     1       6.021  -0.833  -0.975  1.00  0.00     0.113 C 
ATOM     24  C   UNL     1       5.759   0.938   0.683  1.00  0.00     0.113 C 
ATOM     25  C   UNL     1       7.042   0.153  -1.564  1.00  0.00     0.175 C 
ATOM     26  C   UNL     1       5.585   1.787  -0.588  1.00  0.00     0.175 C 
ATOM     27  O   UNL     1       6.555   1.502  -1.604  1.00  0.00    -0.379 OA
ENDBRANCH  21  22
ENDBRANCH  20  21
ENDBRANCH  19  20
ENDBRANCH   4  19
TORSDOF 7
