MODEL        7USER    Run = 7USERUSER    Estimated Free Energy of Binding    =  -8.99 kcal/mol  [=(1)+(2)+(3)-(4)]USERUSER    (1) Final Intermolecular Energy     = -10.78 kcal/molUSER        vdW + Hbond + desolv Energy     = -10.58 kcal/molUSER        Electrostatic Energy            =  -0.20 kcal/molUSER        Moving Ligand-Fixed Receptor    = -10.78 kcal/molUSER        Moving Ligand-Moving Receptor   =  +0.00 kcal/molUSER    (2) Final Total Internal Energy     =  -1.04 kcal/molUSER    (3) Torsional Free Energy           =  +1.79 kcal/molUSER    (4) Unbound System's Energy         =  -1.04 kcal/molUSERUSERREMARK SMILES COc1ccccc1-c1cc(NC(=O)[C@H]2CC[C@@H](N)C2)ccc1OCREMARK SMILES IDX 9 1 10 2 11 3 21 4 22 5 23 6 8 7 3 8 4 9 5 10 7 11 6 12 2 13REMARK SMILES IDX 1 14 24 15 25 16 12 17 13 18 14 20 15 21 16 22 20 23 17 24REMARK SMILES IDX 18 25 19 26REMARK H PARENT 12 19 19 27 19 28USER                              x       y       z     vdW  Elec       q    TypeUSER                           _______ _______ _______ _____ _____    ______ ____ROOTATOM      1  C   UNL     1      36.059  44.112  19.784 -0.38 -0.00    +0.030 A  ATOM      2  C   UNL     1      37.046  44.755  19.009 -0.31 -0.01    +0.038 A  ATOM      3  C   UNL     1      36.721  45.524  17.885 -0.31 -0.01    +0.042 A  ATOM      4  C   UNL     1      35.383  45.647  17.528 -0.35 -0.02    +0.030 A  ATOM      5  C   UNL     1      34.383  45.023  18.284 -0.36 -0.02    +0.049 A  ATOM      6  C   UNL     1      34.706  44.258  19.410 -0.31 -0.03    +0.126 A  ENDROOTBRANCH   1   7ATOM      7  C   UNL     1      36.478  43.304  20.950 -0.42 +0.00    +0.028 A  ATOM      8  C   UNL     1      37.259  43.836  21.995 -0.31 +0.01    +0.126 A  ATOM      9  C   UNL     1      37.697  43.038  23.056 -0.34 +0.00    +0.047 A  ATOM     10  C   UNL     1      37.329  41.697  23.114 -0.38 +0.00    +0.004 A  ATOM     11  C   UNL     1      36.122  41.946  21.034 -0.51 +0.00    +0.013 A  ATOM     12  C   UNL     1      36.538  41.152  22.106 -0.54 +0.00    +0.001 A  BRANCH   8  13ATOM     13  O   UNL     1      37.663  45.148  21.967 -0.12 -0.04    -0.496 OA ATOM     14  C   UNL     1      39.078  45.213  21.775 -0.23 +0.01    +0.278 C  ENDBRANCH   8  13ENDBRANCH   1   7BRANCH   6  15ATOM     15  O   UNL     1      33.781  43.629  20.205 -0.62 -0.02    -0.496 OA ATOM     16  C   UNL     1      32.423  43.657  19.787 -0.32 +0.00    +0.278 C  ENDBRANCH   6  15BRANCH   3  17ATOM     17  N   UNL     1      37.790  46.121  17.185 -0.17 +0.12    -0.326 N  ATOM     18  C   UNL     1      39.046  46.448  17.670 -0.30 -0.05    +0.227 C  ATOM     19  H   UNL     1      37.612  46.323  16.208 +0.12 -0.08    +0.169 HD ATOM     20  O   UNL     1      39.458  46.242  18.807 -0.31 +0.03    -0.274 OA BRANCH  18  21ATOM     21  C   UNL     1      39.927  47.078  16.595 -0.50 -0.02    +0.080 C  ATOM     22  C   UNL     1      39.116  47.824  15.517 -0.57 -0.01    +0.015 C  ATOM     23  C   UNL     1      40.908  48.119  17.147 -0.56 -0.00    +0.032 C  ATOM     24  C   UNL     1      39.732  49.217  15.403 -0.53 -0.01    +0.019 C  ATOM     25  C   UNL     1      41.139  49.047  15.961 -0.62 -0.01    +0.051 C  BRANCH  25  26ATOM     26  N   UNL     1      41.757  50.309  16.327 -0.69 +0.00    -0.328 NA ATOM     27  H   UNL     1      41.466  51.039  15.677 -0.35 -0.04    +0.119 HD ATOM     28  H   UNL     1      41.412  50.605  17.241 -0.32 -0.02    +0.119 HD ENDBRANCH  25  26ENDBRANCH  18  21ENDBRANCH   3  17TORSDOF 6TERENDMDL