REMARK SMILES CNC1=Nc2cc(-c3ccc(OCCN4CCOCC4)cc3)ncc2[C@H]1CO
REMARK SMILES IDX 8 1 9 2 10 3 11 4 21 5 22 6 7 7 2 8 3 9 4 10 26 11 5 12
REMARK SMILES IDX 25 13 6 14 24 15 23 16 1 17 27 19 28 20 12 22 13 23 14 24
REMARK SMILES IDX 15 25 16 26 20 27 17 28 19 29 18 30
REMARK H PARENT 2 18 28 21
ROOT
ATOM      1  C   UNL     1      -0.759  -1.390   0.364  1.00  0.00     0.000 A 
ATOM      2  C   UNL     1       0.166  -0.338   0.241  1.00  0.00     0.014 A 
ATOM      3  C   UNL     1       1.550  -0.563   0.291  1.00  0.00     0.047 A 
ATOM      4  C   UNL     1       2.047  -1.851   0.471  1.00  0.00     0.119 A 
ATOM      5  C   UNL     1       1.145  -2.907   0.597  1.00  0.00     0.047 A 
ATOM      6  C   UNL     1      -0.235  -2.680   0.549  1.00  0.00     0.014 A 
ENDROOT
BRANCH   1   7
ATOM      7  C   UNL     1      -2.221  -1.167   0.310  1.00  0.00     0.072 A 
ATOM      8  N   UNL     1      -7.278   1.353  -1.279  1.00  0.00    -0.376 N 
ATOM      9  C   UNL     1      -6.193   0.667  -0.792  1.00  0.00     0.112 C 
ATOM     10  N   UNL     1      -4.947   0.906  -1.111  1.00  0.00    -0.235 NA
ATOM     11  C   UNL     1      -6.369  -0.535   0.169  1.00  0.00     0.114 C 
ATOM     12  C   UNL     1      -4.171  -0.038  -0.418  1.00  0.00     0.073 A 
ATOM     13  C   UNL     1      -4.938  -0.905   0.343  1.00  0.00     0.009 A 
ATOM     14  C   UNL     1      -2.798  -0.151  -0.451  1.00  0.00     0.057 A 
ATOM     15  C   UNL     1      -4.318  -1.885   1.066  1.00  0.00     0.118 A 
ATOM     16  N   UNL     1      -2.975  -2.036   1.054  1.00  0.00    -0.256 NA
ATOM     17  C   UNL     1      -7.143   2.318  -2.345  1.00  0.00     0.141 C 
ATOM     18  H   UNL     1      -8.188   0.918  -1.200  1.00  0.00     0.161 HD
BRANCH  11  19
ATOM     19  C   UNL     1      -7.112  -0.189   1.456  1.00  0.00     0.172 C 
BRANCH  19  20
ATOM     20  O   UNL     1      -6.430   0.785   2.236  1.00  0.00    -0.395 OA
ATOM     21  H   UNL     1      -6.963   0.957   3.031  1.00  0.00     0.210 HD
ENDBRANCH  19  20
ENDBRANCH  11  19
ENDBRANCH   1   7
BRANCH   4  22
ATOM     22  O   UNL     1       3.361  -2.216   0.531  1.00  0.00    -0.492 OA
BRANCH  22  23
ATOM     23  C   UNL     1       4.360  -1.193   0.573  1.00  0.00     0.245 C 
BRANCH  23  24
ATOM     24  C   UNL     1       4.804  -0.807  -0.850  1.00  0.00     0.126 C 
BRANCH  24  25
ATOM     25  N   UNL     1       5.858   0.207  -0.980  1.00  0.00    -0.295 NA
ATOM     26  C   UNL     1       7.185  -0.263  -0.548  1.00  0.00     0.113 C 
ATOM     27  C   UNL     1       5.526   1.522  -0.406  1.00  0.00     0.113 C 
ATOM     28  C   UNL     1       8.159   0.914  -0.389  1.00  0.00     0.175 C 
ATOM     29  C   UNL     1       6.342   1.865   0.851  1.00  0.00     0.175 C 
ATOM     30  O   UNL     1       7.759   1.835   0.637  1.00  0.00    -0.379 OA
ENDBRANCH  24  25
ENDBRANCH  23  24
ENDBRANCH  22  23
ENDBRANCH   4  22
TORSDOF 7
