MODEL        10USER    Run = 10USERUSER    Estimated Free Energy of Binding    =  -8.69 kcal/mol  [=(1)+(2)+(3)-(4)]USERUSER    (1) Final Intermolecular Energy     = -11.37 kcal/molUSER        vdW + Hbond + desolv Energy     = -11.12 kcal/molUSER        Electrostatic Energy            =  -0.25 kcal/molUSER        Moving Ligand-Fixed Receptor    = -11.37 kcal/molUSER        Moving Ligand-Moving Receptor   =  +0.00 kcal/molUSER    (2) Final Total Internal Energy     =  -1.54 kcal/molUSER    (3) Torsional Free Energy           =  +2.68 kcal/molUSER    (4) Unbound System's Energy         =  -1.54 kcal/molUSERUSERREMARK SMILES NC=Nc1cc(-c2ccc(OCCN3CCNCC3)cc2)ncc1COREMARK SMILES IDX 7 1 8 2 9 3 10 4 20 5 21 6 6 7 4 8 5 9 24 10 23 11 22 12REMARK SMILES IDX 3 13 2 14 1 15 25 18 26 19 11 21 12 22 13 23 14 24 15 25REMARK SMILES IDX 19 26 16 27 18 28 17 29REMARK H PARENT 1 16 1 17 26 20 17 30USER                              x       y       z     vdW  Elec       q    TypeUSER                           _______ _______ _______ _____ _____    ______ ____ROOTATOM      1  C   UNL     1      36.665  45.048  18.144 -0.34 -0.00    +0.000 A  ATOM      2  C   UNL     1      36.839  44.264  19.300 -0.36 -0.00    +0.014 A  ATOM      3  C   UNL     1      35.792  43.510  19.850 -0.39 -0.00    +0.047 A  ATOM      4  C   UNL     1      34.535  43.523  19.254 -0.31 -0.02    +0.119 A  ATOM      5  C   UNL     1      34.337  44.300  18.113 -0.30 -0.02    +0.047 A  ATOM      6  C   UNL     1      35.383  45.053  17.567 -0.33 -0.01    +0.014 A  ENDROOTBRANCH   1   7ATOM      7  C   UNL     1      37.789  45.830  17.585 -0.32 -0.02    +0.072 A  ATOM      8  C   UNL     1      40.124  46.402  17.381 -0.43 -0.01    +0.074 A  ATOM      9  C   UNL     1      39.116  45.619  17.949 -0.38 -0.01    +0.057 A  ATOM     10  C   UNL     1      39.793  47.359  16.420 -0.49 -0.01    +0.022 A  ATOM     11  C   UNL     1      38.445  47.523  16.136 -0.33 -0.06    +0.120 A  ATOM     12  N   UNL     1      37.452  46.796  16.696 -0.20 +0.14    -0.256 NA BRANCH   8  13ATOM     13  N   UNL     1      41.451  46.176  17.784 -0.27 +0.01    -0.239 NA BRANCH  13  14ATOM     14  C   UNL     1      41.938  46.877  18.750 -0.46 +0.01    +0.190 C  ATOM     15  N   UNL     1      42.997  47.741  18.753 -0.31 -0.02    -0.390 N  ATOM     16  H   UNL     1      43.257  48.103  17.839 -0.18 +0.00    +0.157 HD ATOM     17  H   UNL     1      42.965  48.471  19.459 -0.49 -0.02    +0.157 HD ENDBRANCH  13  14ENDBRANCH   8  13BRANCH  10  18ATOM     18  C   UNL     1      40.813  48.216  15.741 -0.45 -0.03    +0.195 C  BRANCH  18  19ATOM     19  O   UNL     1      41.574  48.921  16.714 -0.87 -0.03    -0.392 OA ATOM     20  H   UNL     1      41.458  48.433  17.551 +0.11 -0.01    +0.211 HD ENDBRANCH  18  19ENDBRANCH  10  18ENDBRANCH   1   7BRANCH   4  21ATOM     21  O   UNL     1      33.431  42.840  19.681 -0.51 -0.03    -0.492 OA BRANCH  21  22ATOM     22  C   UNL     1      32.733  42.060  18.706 -0.27 -0.03    +0.245 C  BRANCH  22  23ATOM     23  C   UNL     1      31.680  41.213  19.439 -0.09 +0.01    +0.126 C  BRANCH  23  24ATOM     24  N   UNL     1      32.035  39.787  19.565 -0.67 -0.07    -0.297 NA ATOM     25  C   UNL     1      32.073  39.108  18.252 -0.45 +0.00    +0.100 C  ATOM     26  C   UNL     1      31.050  39.098  20.430 -0.41 +0.02    +0.100 C  ATOM     27  C   UNL     1      32.347  37.591  18.382 -0.44 +0.01    +0.096 C  ATOM     28  C   UNL     1      31.333  37.586  20.555 -0.51 +0.02    +0.096 C  ATOM     29  N   UNL     1      31.380  36.906  19.251 -0.74 -0.13    -0.314 NA ATOM     30  H   UNL     1      31.679  35.942  19.388 +0.07 +0.06    +0.122 HD ENDBRANCH  23  24ENDBRANCH  22  23ENDBRANCH  21  22ENDBRANCH   4  21TORSDOF 9TERENDMDL