MODEL        4USER    Run = 4USERUSER    Estimated Free Energy of Binding    =  -6.73 kcal/mol  [=(1)+(2)+(3)-(4)]USERUSER    (1) Final Intermolecular Energy     = -11.20 kcal/molUSER        vdW + Hbond + desolv Energy     = -11.30 kcal/molUSER        Electrostatic Energy            =  -0.09 kcal/molUSER        Moving Ligand-Fixed Receptor    = -11.39 kcal/molUSER        Moving Ligand-Moving Receptor   =  +0.19 kcal/molUSER    (2) Final Total Internal Energy     =  -2.64 kcal/molUSER    (3) Torsional Free Energy           =  +4.47 kcal/molUSER    (4) Unbound System's Energy         =  -2.64 kcal/molUSERUSERREMARK SMILES COc1ccc(O)c(C(=O)c2ccc(NC[C@@H]3CCCNC[C@@H]3NC(=O)c3ccncc3)cc2)c1FREMARK SMILES IDX 16 1 15 2 14 4 11 5 12 6 34 7 13 8 33 9 9 10 10 11 8 12 3 13REMARK SMILES IDX 4 14 35 15 5 16 6 17 36 18 2 19 1 20 7 21 17 23 18 24 23 26REMARK SMILES IDX 22 27 21 28 20 30 19 31 24 33 25 34 26 36 27 37 28 38 32 39REMARK SMILES IDX 29 40 31 41 30 42REMARK H PARENT 15 3 7 22 21 29 24 35REMARK Flexibility Score:   99.900USER                              x       y       z     vdW  Elec       q    TypeUSER                           _______ _______ _______ _____ _____    ______ ____ROOTATOM      1  C   UNL     1      25.913  39.372  17.673 -0.28 +0.02    +0.118 C  ENDROOTBRANCH   1   2ATOM      2  N   UNL     1      26.074  40.599  16.888 -0.09 -0.00    -0.385 N  ATOM      3  H   UNL     1      25.404  40.681  16.130 +0.09 -0.01    +0.160 HD BRANCH   2   4ATOM      4  C   UNL     1      27.321  41.143  16.595 -0.24 -0.00    +0.034 A  ATOM      5  C   UNL     1      29.865  42.307  16.166 -0.30 -0.01    +0.023 A  ATOM      6  C   UNL     1      29.565  41.049  15.641 -0.38 -0.00    +0.014 A  ATOM      7  C   UNL     1      28.919  42.963  16.954 -0.23 -0.00    +0.014 A  ATOM      8  C   UNL     1      28.307  40.473  15.862 -0.29 -0.00    +0.026 A  ATOM      9  C   UNL     1      27.664  42.377  17.166 -0.19 -0.00    +0.026 A  BRANCH   5  10ATOM     10  C   UNL     1      31.220  42.864  15.936 -0.27 -0.10    +0.199 C  ATOM     11  O   UNL     1      31.533  43.230  14.802 -0.31 +0.18    -0.288 OA BRANCH  10  12ATOM     12  C   UNL     1      32.250  42.956  16.995 -0.24 -0.04    +0.104 A  ATOM     13  C   UNL     1      33.890  44.220  18.284 -0.23 -0.05    +0.155 A  ATOM     14  C   UNL     1      34.185  43.074  19.025 -0.35 -0.01    +0.053 A  ATOM     15  C   UNL     1      32.927  44.146  17.266 -0.18 -0.07    +0.179 A  ATOM     16  C   UNL     1      33.539  41.869  18.740 -0.36 -0.01    +0.051 A  ATOM     17  C   UNL     1      32.590  41.810  17.723 -0.28 -0.04    +0.130 A  ATOM     18  F   UNL     1      32.683  45.244  16.532 -0.06 +0.13    -0.202 F  BRANCH  13  19ATOM     19  O   UNL     1      34.470  45.448  18.459 -0.14 +0.23    -0.494 OA ATOM     20  C   UNL     1      35.856  45.564  18.159 -0.16 -0.11    +0.278 C  ENDBRANCH  13  19BRANCH  17  21ATOM     21  O   UNL     1      32.028  40.584  17.486 -0.10 +0.16    -0.507 OA ATOM     22  H   UNL     1      31.982  40.456  16.511 -0.24 -0.22    +0.293 HD ENDBRANCH  17  21ENDBRANCH  10  12ENDBRANCH   5  10ENDBRANCH   2   4ENDBRANCH   1   2BRANCH   1  23ATOM     23  C   UNL     1      25.034  39.597  18.929 -0.35 -0.01    +0.032 C  BRANCH  23  24ATOM     24  C   UNL     1      24.901  41.106  19.218 -0.35 -0.00    +0.009 CG0ATOM     25  G   UNL     1      25.651  41.693  20.415 +0.00 +0.00    +0.000 G0 ENDBRANCH  23  24BRANCH  23  26ATOM     26  C   UNL     1      25.550  38.739  20.107 -0.28 -0.06    +0.101 C  BRANCH  26  27ATOM     27  C   UNL     1      24.768  39.031  21.409 -0.35 -0.07    +0.106 C  BRANCH  27  28ATOM     28  N   UNL     1      25.347  40.076  22.263 -0.76 +0.05    -0.315 NA ATOM     29  H   UNL     1      24.936  39.973  23.194 -0.50 -0.02    +0.122 HD BRANCH  28  30ATOM     30  C   UNL     1      25.052  41.429  21.790 -0.52 -0.01    +0.081 C  BRANCH  30  31ATOM     31  C   UNL     1      25.650  41.693  20.414 -0.48 -0.00    +0.016 CG0ATOM     32  G   UNL     1      24.903  41.104  19.217 +0.00 +0.00    +0.000 G0 ENDBRANCH  30  31ENDBRANCH  28  30ENDBRANCH  27  28ENDBRANCH  26  27BRANCH  26  33ATOM     33  N   UNL     1      26.981  38.900  20.351 -0.09 +0.07    -0.348 N  ATOM     34  C   UNL     1      27.916  37.951  20.014 -0.20 -0.01    +0.251 C  ATOM     35  H   UNL     1      27.230  39.715  20.899 +0.08 -0.02    +0.164 HD ATOM     36  O   UNL     1      27.624  36.885  19.484 -0.21 -0.01    -0.269 OA BRANCH  34  37ATOM     37  C   UNL     1      29.333  38.257  20.343 -0.28 +0.00    +0.042 A  ATOM     38  C   UNL     1      29.932  37.550  21.387 -0.34 +0.00    +0.034 A  ATOM     39  C   UNL     1      30.082  39.196  19.632 -0.28 +0.00    +0.034 A  ATOM     40  C   UNL     1      31.251  37.828  21.692 -0.43 +0.01    +0.112 A  ATOM     41  C   UNL     1      31.396  39.399  20.016 -0.32 +0.02    +0.112 A  ATOM     42  N   UNL     1      31.993  38.742  21.031 -0.83 -0.09    -0.265 NA ENDBRANCH  34  37ENDBRANCH  26  33ENDBRANCH  23  26ENDBRANCH   1  23TORSDOF 9TERENDMDL