MODEL        6USER    Run = 6USERUSER    Estimated Free Energy of Binding    =  -6.58 kcal/mol  [=(1)+(2)+(3)-(4)]USERUSER    (1) Final Intermolecular Energy     = -11.05 kcal/molUSER        vdW + Hbond + desolv Energy     = -11.25 kcal/molUSER        Electrostatic Energy            =  -0.16 kcal/molUSER        Moving Ligand-Fixed Receptor    = -11.41 kcal/molUSER        Moving Ligand-Moving Receptor   =  +0.35 kcal/molUSER    (2) Final Total Internal Energy     =  -2.59 kcal/molUSER    (3) Torsional Free Energy           =  +4.47 kcal/molUSER    (4) Unbound System's Energy         =  -2.59 kcal/molUSERUSERREMARK SMILES COc1ccc(O)c(C(=O)c2ccc(CN[C@@H]3CCCNC[C@H]3NC(=O)c3ccncc3)cc2)c1FREMARK SMILES IDX 16 1 15 3 14 4 11 5 12 6 34 7 13 8 33 9 9 10 10 11 8 12 3 13REMARK SMILES IDX 4 14 35 15 5 16 6 17 36 18 2 19 1 20 7 21 17 23 18 24 23 26REMARK SMILES IDX 22 27 21 28 20 30 19 31 24 33 25 34 26 36 27 37 28 38 32 39REMARK SMILES IDX 29 40 31 41 30 42REMARK H PARENT 16 2 7 22 21 29 24 35REMARK Flexibility Score:   99.900USER                              x       y       z     vdW  Elec       q    TypeUSER                           _______ _______ _______ _____ _____    ______ ____ROOTATOM      1  N   UNL     1      38.118  43.314  23.267 -0.13 -0.02    -0.308 NA ATOM      2  H   UNL     1      37.463  43.108  24.025 +0.07 +0.01    +0.123 HD ENDROOTBRANCH   1   3ATOM      3  C   UNL     1      37.760  44.605  22.676 -0.32 +0.01    +0.117 C  BRANCH   3   4ATOM      4  C   UNL     1      38.523  44.925  21.414 -0.33 -0.00    -0.034 A  ATOM      5  C   UNL     1      39.965  45.520  19.073 -0.43 -0.00    +0.023 A  ATOM      6  C   UNL     1      40.553  45.719  20.326 -0.35 +0.00    +0.012 A  ATOM      7  C   UNL     1      38.649  45.050  18.991 -0.39 -0.00    +0.012 A  ATOM      8  C   UNL     1      39.837  45.414  21.487 -0.32 +0.00    +0.006 A  ATOM      9  C   UNL     1      37.936  44.749  20.154 -0.33 -0.00    +0.006 A  BRANCH   5  10ATOM     10  C   UNL     1      40.668  45.867  17.814 -0.40 -0.01    +0.199 C  ATOM     11  O   UNL     1      41.854  45.559  17.688 -0.23 -0.00    -0.288 OA BRANCH  10  12ATOM     12  C   UNL     1      40.001  46.516  16.665 -0.39 -0.02    +0.104 A  ATOM     13  C   UNL     1      38.265  46.580  14.953 -0.31 -0.06    +0.155 A  ATOM     14  C   UNL     1      38.783  47.786  14.477 -0.47 -0.02    +0.053 A  ATOM     15  C   UNL     1      38.878  45.958  16.051 -0.25 -0.05    +0.179 A  ATOM     16  C   UNL     1      39.886  48.372  15.106 -0.52 -0.02    +0.051 A  ATOM     17  C   UNL     1      40.478  47.748  16.201 -0.43 -0.02    +0.130 A  ATOM     18  F   UNL     1      38.347  44.819  16.525 -0.06 +0.05    -0.202 F  BRANCH  13  19ATOM     19  O   UNL     1      37.180  45.925  14.435 -0.07 +0.21    -0.494 OA ATOM     20  C   UNL     1      35.950  46.048  15.136 -0.24 -0.20    +0.278 C  ENDBRANCH  13  19BRANCH  17  21ATOM     21  O   UNL     1      41.530  48.405  16.781 -0.61 +0.00    -0.507 OA ATOM     22  H   UNL     1      42.172  47.726  17.094 -0.35 -0.04    +0.293 HD ENDBRANCH  17  21ENDBRANCH  10  12ENDBRANCH   5  10ENDBRANCH   3   4ENDBRANCH   1   3BRANCH   1  23ATOM     23  C   UNL     1      39.500  43.269  23.818 -0.24 +0.00    +0.077 C  BRANCH  23  24ATOM     24  C   UNL     1      40.359  42.475  22.825 -0.24 +0.00    +0.022 CG0ATOM     25  G   UNL     1      41.830  42.884  22.762 +0.00 +0.00    +0.000 G0 ENDBRANCH  23  24BRANCH  23  26ATOM     26  C   UNL     1      39.479  42.655  25.253 -0.17 +0.00    +0.113 C  BRANCH  26  27ATOM     27  C   UNL     1      40.869  42.731  25.932 -0.15 -0.01    +0.107 C  BRANCH  27  28ATOM     28  N   UNL     1      41.959  43.400  25.230 -0.05 +0.01    -0.315 NA ATOM     29  H   UNL     1      42.701  43.619  25.899 +0.02 -0.00    +0.122 HD BRANCH  28  30ATOM     30  C   UNL     1      42.553  42.710  24.094 -0.17 -0.00    +0.081 C  BRANCH  30  31ATOM     31  C   UNL     1      41.829  42.883  22.762 -0.34 -0.00    +0.017 CG0ATOM     32  G   UNL     1      40.359  42.470  22.825 +0.00 +0.00    +0.000 G0 ENDBRANCH  30  31ENDBRANCH  28  30ENDBRANCH  27  28ENDBRANCH  26  27BRANCH  26  33ATOM     33  N   UNL     1      38.485  43.366  26.080 -0.05 +0.01    -0.346 N  ATOM     34  C   UNL     1      37.209  42.877  26.252 -0.23 -0.02    +0.251 C  ATOM     35  H   UNL     1      38.799  44.180  26.589 +0.08 -0.01    +0.164 HD ATOM     36  O   UNL     1      36.783  41.888  25.667 -0.30 +0.04    -0.269 OA BRANCH  34  37ATOM     37  C   UNL     1      36.322  43.628  27.178 -0.40 -0.01    +0.042 A  ATOM     38  C   UNL     1      36.734  44.894  27.598 -0.38 -0.01    +0.034 A  ATOM     39  C   UNL     1      35.094  43.124  27.607 -0.56 -0.01    +0.034 A  ATOM     40  C   UNL     1      35.911  45.594  28.458 -0.28 -0.03    +0.112 A  ATOM     41  C   UNL     1      34.341  43.906  28.466 -0.54 -0.02    +0.112 A  ATOM     42  N   UNL     1      34.727  45.122  28.907 -0.40 +0.07    -0.265 NA ENDBRANCH  34  37ENDBRANCH  26  33ENDBRANCH  23  26ENDBRANCH   1  23TORSDOF 9TERENDMDL