MODEL        2USER    Run = 2USERUSER    Estimated Free Energy of Binding    = -12.37 kcal/mol  [=(1)+(2)+(3)-(4)]USERUSER    (1) Final Intermolecular Energy     = -14.16 kcal/molUSER        vdW + Hbond + desolv Energy     = -13.86 kcal/molUSER        Electrostatic Energy            =  -0.30 kcal/molUSER        Moving Ligand-Fixed Receptor    = -14.16 kcal/molUSER        Moving Ligand-Moving Receptor   =  +0.00 kcal/molUSER    (2) Final Total Internal Energy     =  -1.88 kcal/molUSER    (3) Torsional Free Energy           =  +1.79 kcal/molUSER    (4) Unbound System's Energy         =  -1.88 kcal/molUSERUSERREMARK SMILES Oc1nc2ccccc2n1C1CCN(Cc2ccc(-c3cc4ccccc4nc3-c3ccccc3)cc2)CC1REMARK SMILES IDX 11 1 12 2 13 3 14 4 38 5 39 6 10 7 2 8 3 9 4 10 9 11 5 12REMARK SMILES IDX 8 13 6 14 7 15 1 16 15 18 16 19 17 20 37 21 18 22 36 23REMARK SMILES IDX 19 24 20 25 21 26 29 27 22 28 28 29 23 30 27 31 24 32 26 33REMARK SMILES IDX 25 34 30 35 31 36 35 37 32 38 34 39 33 40REMARK H PARENT 1 17USER                              x       y       z     vdW  Elec       q    TypeUSER                           _______ _______ _______ _____ _____    ______ ____ROOTATOM      1  C   UNL     1      28.062  41.571  15.908 -0.28 -0.03    +0.095 C  ATOM      2  C   UNL     1      29.344  40.768  15.643 -0.44 -0.01    +0.041 C  ATOM      3  C   UNL     1      30.474  41.030  16.633 -0.35 -0.02    +0.087 C  ATOM      4  N   UNL     1      30.703  42.448  16.920 -0.11 +0.09    -0.299 NA ATOM      5  C   UNL     1      29.487  43.072  17.449 -0.20 -0.02    +0.087 C  ATOM      6  C   UNL     1      28.270  42.957  16.536 -0.26 -0.01    +0.041 C  ENDROOTBRANCH   1   7ATOM      7  N   UNL     1      26.982  40.792  16.509 -0.13 +0.01    -0.291 N  ATOM      8  C   UNL     1      26.235  39.872  15.812 -0.07 +0.07    +0.295 A  ATOM      9  N   UNL     1      25.302  39.305  16.523 -0.60 -0.02    -0.195 NA ATOM     10  C   UNL     1      25.436  39.871  17.762 -0.27 -0.00    +0.092 A  ATOM     11  C   UNL     1      26.485  40.801  17.797 -0.20 -0.00    +0.072 A  ATOM     12  C   UNL     1      24.677  39.623  18.918 -0.30 -0.01    +0.031 A  ATOM     13  C   UNL     1      26.803  41.487  18.976 -0.18 -0.00    +0.029 A  ATOM     14  C   UNL     1      24.987  40.310  20.094 -0.33 -0.00    +0.002 A  ATOM     15  C   UNL     1      26.035  41.225  20.119 -0.34 -0.00    +0.002 A  BRANCH   8  16ATOM     16  O   UNL     1      26.411  39.561  14.544 -0.68 -0.13    -0.480 OA ATOM     17  H   UNL     1      26.543  40.444  14.152 +0.13 -0.15    +0.296 HD ENDBRANCH   8  16ENDBRANCH   1   7BRANCH   4  18ATOM     18  C   UNL     1      31.288  43.161  15.772 -0.33 -0.06    +0.120 C  BRANCH  18  19ATOM     19  C   UNL     1      32.686  43.677  16.039 -0.31 +0.02    -0.034 A  ATOM     20  C   UNL     1      32.959  45.050  16.039 -0.33 -0.00    +0.006 A  ATOM     21  C   UNL     1      33.733  42.781  16.291 -0.30 -0.00    +0.006 A  ATOM     22  C   UNL     1      34.254  45.516  16.284 -0.30 -0.01    +0.009 A  ATOM     23  C   UNL     1      35.028  43.249  16.528 -0.40 -0.00    +0.009 A  ATOM     24  C   UNL     1      35.308  44.622  16.523 -0.31 +0.01    -0.016 A  BRANCH  24  25ATOM     25  C   UNL     1      36.670  45.113  16.781 -0.34 -0.00    +0.009 A  ATOM     26  C   UNL     1      37.243  44.907  18.046 -0.34 -0.01    +0.021 A  ATOM     27  C   UNL     1      37.467  45.755  15.819 -0.31 -0.03    +0.079 A  ATOM     28  C   UNL     1      38.553  45.318  18.318 -0.40 -0.00    +0.001 A  ATOM     29  N   UNL     1      38.749  46.147  16.067 -0.21 +0.07    -0.247 NA ATOM     30  C   UNL     1      39.147  45.119  19.577 -0.39 -0.00    +0.010 A  ATOM     31  C   UNL     1      39.276  45.937  17.283 -0.38 -0.01    +0.071 A  ATOM     32  C   UNL     1      40.456  45.534  19.813 -0.41 +0.00    +0.001 A  ATOM     33  C   UNL     1      40.579  46.341  17.543 -0.47 -0.00    +0.029 A  ATOM     34  C   UNL     1      41.175  46.147  18.792 -0.49 +0.00    +0.002 A  BRANCH  27  35ATOM     35  C   UNL     1      37.012  46.074  14.453 -0.41 -0.00    +0.001 A  ATOM     36  C   UNL     1      36.978  45.077  13.462 -0.46 -0.00    +0.010 A  ATOM     37  C   UNL     1      36.622  47.375  14.089 -0.49 -0.01    +0.010 A  ATOM     38  C   UNL     1      36.547  45.364  12.163 -0.57 -0.00    +0.001 A  ATOM     39  C   UNL     1      36.191  47.663  12.790 -0.65 -0.00    +0.001 A  ATOM     40  C   UNL     1      36.150  46.656  11.829 -0.65 -0.00    +0.000 A  ENDBRANCH  27  35ENDBRANCH  24  25ENDBRANCH  18  19ENDBRANCH   4  18TORSDOF 6TERENDMDL