MODEL        4USER    Run = 4USERUSER    Estimated Free Energy of Binding    =  -6.77 kcal/mol  [=(1)+(2)+(3)-(4)]USERUSER    (1) Final Intermolecular Energy     = -11.24 kcal/molUSER        vdW + Hbond + desolv Energy     = -11.53 kcal/molUSER        Electrostatic Energy            =  +0.03 kcal/molUSER        Moving Ligand-Fixed Receptor    = -11.49 kcal/molUSER        Moving Ligand-Moving Receptor   =  +0.25 kcal/molUSER    (2) Final Total Internal Energy     =  -2.81 kcal/molUSER    (3) Torsional Free Energy           =  +4.47 kcal/molUSER    (4) Unbound System's Energy         =  -2.81 kcal/molUSERUSERREMARK SMILES COc1ccc(O)c(C(=O)c2ccc(C(=O)O[C@@H]3CCCNC[C@H]3NC(=O)c3ccncc3)cc2)c1FREMARK SMILES IDX 17 1 15 2 16 3 14 4 11 5 12 6 35 7 13 8 34 9 9 10 10 11 8 12REMARK SMILES IDX 3 13 4 14 36 15 5 16 6 17 37 18 2 19 1 20 7 21 18 23 24 25REMARK SMILES IDX 23 26 22 27 21 29 20 30 19 31 25 33 26 34 27 36 28 37 29 38REMARK SMILES IDX 33 39 30 40 32 41 31 42REMARK H PARENT 7 22 22 28 25 35REMARK Flexibility Score:   99.900USER                              x       y       z     vdW  Elec       q    TypeUSER                           _______ _______ _______ _____ _____    ______ ____ROOTATOM      1  O   UNL     1      39.107  46.226  19.006 -0.16 +0.05    -0.457 OA ENDROOTBRANCH   1   2ATOM      2  C   UNL     1      39.571  45.126  19.652 -0.23 -0.01    +0.338 C  ATOM      3  O   UNL     1      40.394  44.324  19.235 -0.30 -0.01    -0.246 OA BRANCH   2   4ATOM      4  C   UNL     1      38.959  45.045  21.001 -0.32 +0.00    +0.060 A  ATOM      5  C   UNL     1      37.862  44.934  23.583 -0.28 +0.00    +0.023 A  ATOM      6  C   UNL     1      37.336  44.134  22.560 -0.36 +0.00    +0.013 A  ATOM      7  C   UNL     1      38.943  45.784  23.309 -0.30 +0.00    +0.013 A  ATOM      8  C   UNL     1      37.882  44.190  21.273 -0.37 +0.00    +0.016 A  ATOM      9  C   UNL     1      39.495  45.833  22.026 -0.28 +0.00    +0.016 A  BRANCH   5  10ATOM     10  C   UNL     1      37.301  44.932  24.962 -0.26 +0.02    +0.199 C  ATOM     11  O   UNL     1      36.837  45.955  25.456 -0.82 -0.01    -0.288 OA BRANCH  10  12ATOM     12  C   UNL     1      37.294  43.704  25.766 -0.25 -0.00    +0.104 A  ATOM     13  C   UNL     1      38.513  41.805  26.654 -0.25 -0.01    +0.155 A  ATOM     14  C   UNL     1      37.328  41.334  27.232 -0.45 -0.01    +0.053 A  ATOM     15  C   UNL     1      38.482  42.993  25.914 -0.14 -0.00    +0.179 A  ATOM     16  C   UNL     1      36.136  42.058  27.096 -0.48 -0.01    +0.051 A  ATOM     17  C   UNL     1      36.123  43.247  26.369 -0.33 -0.01    +0.130 A  ATOM     18  F   UNL     1      39.619  43.472  25.383 -0.02 -0.00    -0.202 F  BRANCH  13  19ATOM     19  O   UNL     1      39.742  41.211  26.766 -0.08 +0.04    -0.494 OA ATOM     20  C   UNL     1      40.190  40.876  28.073 -0.19 -0.01    +0.278 C  ENDBRANCH  13  19BRANCH  17  21ATOM     21  O   UNL     1      34.971  43.968  26.251 -0.01 +0.07    -0.507 OA ATOM     22  H   UNL     1      35.176  44.909  26.133 -0.20 -0.15    +0.293 HD ENDBRANCH  17  21ENDBRANCH  10  12ENDBRANCH   5  10ENDBRANCH   2   4ENDBRANCH   1   2BRANCH   1  23ATOM     23  C   UNL     1      39.099  46.174  17.555 -0.35 -0.04    +0.200 CG0ATOM     24  G   UNL     1      40.154  47.165  17.064 +0.00 +0.00    +0.000 G0 BRANCH  23  25ATOM     25  C   UNL     1      37.662  46.496  17.098 -0.27 -0.06    +0.137 C  BRANCH  25  26ATOM     26  C   UNL     1      37.418  46.326  15.585 -0.37 -0.05    +0.109 C  BRANCH  26  27ATOM     27  N   UNL     1      38.297  47.135  14.737 -0.19 +0.12    -0.315 NA ATOM     28  H   UNL     1      38.349  48.073  15.136 +0.09 -0.06    +0.122 HD BRANCH  27  29ATOM     29  C   UNL     1      39.661  46.627  14.559 -0.42 -0.01    +0.081 C  BRANCH  29  30ATOM     30  C   UNL     1      40.696  46.938  15.647 -0.46 -0.00    +0.019 C  BRANCH  30  31ATOM     31  C   UNL     1      40.154  47.164  17.064 -0.53 -0.01    +0.049 CG0ATOM     32  G   UNL     1      39.101  46.171  17.554 +0.00 +0.00    +0.000 G0 ENDBRANCH  30  31ENDBRANCH  29  30ENDBRANCH  27  29ENDBRANCH  26  27ENDBRANCH  25  26BRANCH  25  33ATOM     33  N   UNL     1      36.717  45.667  17.859 -0.13 +0.12    -0.344 N  ATOM     34  C   UNL     1      35.357  45.810  17.742 -0.26 -0.15    +0.251 C  ATOM     35  H   UNL     1      37.088  44.800  18.223 +0.11 -0.04    +0.164 HD ATOM     36  O   UNL     1      34.815  46.657  17.044 -0.22 +0.36    -0.269 OA BRANCH  34  37ATOM     37  C   UNL     1      34.537  44.849  18.518 -0.36 -0.02    +0.042 A  ATOM     38  C   UNL     1      35.172  43.770  19.129 -0.36 -0.01    +0.034 A  ATOM     39  C   UNL     1      33.153  44.987  18.609 -0.36 -0.01    +0.034 A  ATOM     40  C   UNL     1      34.390  42.878  19.837 -0.33 +0.00    +0.112 A  ATOM     41  C   UNL     1      32.462  44.035  19.336 -0.32 -0.01    +0.112 A  ATOM     42  N   UNL     1      33.050  42.989  19.957 -0.71 -0.04    -0.265 NA ENDBRANCH  34  37ENDBRANCH  25  33ENDBRANCH  23  25ENDBRANCH   1  23TORSDOF 9TERENDMDL