MODEL        6USER    Run = 6USERUSER    Estimated Free Energy of Binding    = -11.57 kcal/mol  [=(1)+(2)+(3)-(4)]USERUSER    (1) Final Intermolecular Energy     = -13.96 kcal/molUSER        vdW + Hbond + desolv Energy     = -13.94 kcal/molUSER        Electrostatic Energy            =  -0.02 kcal/molUSER        Moving Ligand-Fixed Receptor    = -13.96 kcal/molUSER        Moving Ligand-Moving Receptor   =  +0.00 kcal/molUSER    (2) Final Total Internal Energy     =  -1.85 kcal/molUSER    (3) Torsional Free Energy           =  +2.39 kcal/molUSER    (4) Unbound System's Energy         =  -1.85 kcal/molUSERUSERREMARK SMILES N#Cc1cnc(-c2ccc(CNCc3ccc(-c4csnn4)cc3)cc2)c(-c2ccccc2)c1REMARK SMILES IDX 11 1 10 2 7 3 8 4 26 5 9 6 25 7 6 8 3 9 4 10 34 11 5 12REMARK SMILES IDX 27 13 2 14 1 15 28 16 29 17 33 18 30 19 32 20 31 21 12 22REMARK SMILES IDX 13 24 14 25 15 26 24 27 16 28 23 29 17 30 18 31 19 32 22 33REMARK SMILES IDX 20 34 21 35REMARK H PARENT 12 23USER                              x       y       z     vdW  Elec       q    TypeUSER                           _______ _______ _______ _____ _____    ______ ____ROOTATOM      1  C   UNL     1      42.250  45.903  19.958 -0.22 +0.03    +0.117 C  ENDROOTBRANCH   1   2ATOM      2  C   UNL     1      41.303  45.232  20.925 -0.32 -0.00    -0.034 A  ATOM      3  C   UNL     1      39.513  43.944  22.714 -0.25 +0.00    +0.001 A  ATOM      4  C   UNL     1      39.405  45.318  22.437 -0.29 +0.00    +0.011 A  ATOM      5  C   UNL     1      40.549  43.233  22.087 -0.25 +0.00    +0.011 A  ATOM      6  C   UNL     1      40.281  45.954  21.551 -0.21 +0.00    +0.006 A  ATOM      7  C   UNL     1      41.426  43.865  21.199 -0.33 +0.00    +0.006 A  BRANCH   3   8ATOM      8  C   UNL     1      38.573  43.297  23.652 -0.23 +0.00    +0.078 A  ATOM      9  C   UNL     1      37.033  42.098  25.612 -0.34 -0.01    +0.071 A  ATOM     10  C   UNL     1      38.268  42.658  25.876 -0.20 -0.00    +0.131 A  ATOM     11  C   UNL     1      36.555  42.160  24.305 -0.40 +0.00    +0.032 A  ATOM     12  N   UNL     1      39.036  43.254  24.936 -0.09 -0.01    -0.254 NA ATOM     13  C   UNL     1      37.317  42.768  23.287 -0.40 +0.00    +0.009 A  BRANCH   9  14ATOM     14  C   UNL     1      36.273  41.487  26.655 -0.49 -0.03    +0.101 C  ATOM     15  N   UNL     1      35.657  40.992  27.503 -0.49 +0.08    -0.192 NA ENDBRANCH   9  14BRANCH  13  16ATOM     16  C   UNL     1      36.750  42.849  21.930 -0.42 -0.00    -0.016 A  ATOM     17  C   UNL     1      36.326  41.688  21.258 -0.54 +0.00    +0.009 A  ATOM     18  C   UNL     1      36.600  44.083  21.277 -0.35 +0.00    +0.009 A  ATOM     19  C   UNL     1      35.783  41.759  19.973 -0.26 -0.00    +0.001 A  ATOM     20  C   UNL     1      36.059  44.155  19.992 -0.39 -0.00    +0.001 A  ATOM     21  C   UNL     1      35.651  42.993  19.340 -0.41 -0.00    +0.000 A  ENDBRANCH  13  16ENDBRANCH   3   8ENDBRANCH   1   2BRANCH   1  22ATOM     22  N   UNL     1      41.779  47.249  19.630 -0.08 -0.02    -0.309 NA ATOM     23  H   UNL     1      42.162  47.895  20.318 +0.02 +0.00    +0.123 HD BRANCH  22  24ATOM     24  C   UNL     1      42.201  47.672  18.295 -0.47 -0.00    +0.117 C  BRANCH  24  25ATOM     25  C   UNL     1      41.096  47.608  17.267 -0.48 +0.00    -0.034 A  ATOM     26  C   UNL     1      40.951  48.616  16.306 -0.57 -0.00    +0.006 A  ATOM     27  C   UNL     1      40.181  46.548  17.270 -0.48 -0.00    +0.006 A  ATOM     28  C   UNL     1      39.920  48.559  15.361 -0.56 -0.00    +0.011 A  ATOM     29  C   UNL     1      39.151  46.491  16.328 -0.43 -0.00    +0.011 A  ATOM     30  C   UNL     1      39.010  47.492  15.356 -0.49 -0.00    +0.003 A  BRANCH  30  31ATOM     31  C   UNL     1      37.924  47.402  14.384 -0.41 -0.05    +0.105 A  ATOM     32  C   UNL     1      36.669  46.880  14.650 -0.34 -0.08    +0.118 A  ATOM     33  N   UNL     1      38.083  47.875  13.083 -0.81 +0.02    -0.138 NA ATOM     34  S   UNL     1      35.743  47.001  13.210 -0.78 +0.01    -0.020 S  ATOM     35  N   UNL     1      36.991  47.712  12.356 -1.18 +0.02    -0.091 NA ENDBRANCH  30  31ENDBRANCH  24  25ENDBRANCH  22  24ENDBRANCH   1  22TORSDOF 8TERENDMDL