MODEL        2USER    Run = 2USERUSER    Estimated Free Energy of Binding    =  -7.78 kcal/mol  [=(1)+(2)+(3)-(4)]USERUSER    (1) Final Intermolecular Energy     = -12.26 kcal/molUSER        vdW + Hbond + desolv Energy     = -12.25 kcal/molUSER        Electrostatic Energy            =  -0.09 kcal/molUSER        Moving Ligand-Fixed Receptor    = -12.34 kcal/molUSER        Moving Ligand-Moving Receptor   =  +0.08 kcal/molUSER    (2) Final Total Internal Energy     =  -2.16 kcal/molUSER    (3) Torsional Free Energy           =  +4.47 kcal/molUSER    (4) Unbound System's Energy         =  -2.16 kcal/molUSERUSERREMARK SMILES COc1ccc(O)c(C(=O)c2ccc(/C=C/[C@@H]3CCCNC[C@H]3NC(=O)c3ccncc3)cc2)c1FREMARK SMILES IDX 16 1 15 2 14 3 11 4 12 5 34 6 13 7 33 8 9 9 10 10 8 11 3 12REMARK SMILES IDX 4 13 35 14 5 15 6 16 36 17 2 18 1 19 7 20 17 22 18 23 23 25REMARK SMILES IDX 22 26 21 27 20 29 19 30 24 32 25 33 26 35 27 36 28 37 32 38REMARK SMILES IDX 29 39 31 40 30 41REMARK H PARENT 7 21 21 28 24 34REMARK Flexibility Score:   99.900USER                              x       y       z     vdW  Elec       q    TypeUSER                           _______ _______ _______ _____ _____    ______ ____ROOTATOM      1  C   UNL     1      35.167  43.508  18.578 -0.39 +0.00    -0.021 C  ENDROOTBRANCH   1   2ATOM      2  C   UNL     1      35.875  42.579  19.237 -0.41 -0.00    +0.004 C  BRANCH   2   3ATOM      3  C   UNL     1      36.461  42.800  20.565 -0.43 +0.00    -0.026 A  ATOM      4  C   UNL     1      37.609  43.145  23.104 -0.36 +0.00    +0.023 A  ATOM      5  C   UNL     1      37.077  41.904  22.742 -0.49 +0.00    +0.013 A  ATOM      6  C   UNL     1      37.605  44.201  22.189 -0.37 +0.00    +0.013 A  ATOM      7  C   UNL     1      36.510  41.735  21.473 -0.56 +0.00    +0.009 A  ATOM      8  C   UNL     1      37.026  44.030  20.929 -0.40 +0.00    +0.009 A  BRANCH   4   9ATOM      9  C   UNL     1      38.244  43.353  24.423 -0.21 +0.01    +0.199 C  ATOM     10  O   UNL     1      39.216  44.105  24.502 -0.08 -0.01    -0.288 OA BRANCH   9  11ATOM     11  C   UNL     1      37.798  42.655  25.649 -0.24 -0.00    +0.104 A  ATOM     12  C   UNL     1      36.083  42.124  27.301 -0.40 -0.04    +0.155 A  ATOM     13  C   UNL     1      36.994  41.313  27.980 -0.39 -0.02    +0.053 A  ATOM     14  C   UNL     1      36.497  42.792  26.139 -0.28 -0.02    +0.179 A  ATOM     15  C   UNL     1      38.306  41.192  27.514 -0.40 -0.00    +0.051 A  ATOM     16  C   UNL     1      38.706  41.868  26.367 -0.21 -0.00    +0.130 A  ATOM     17  F   UNL     1      35.623  43.600  25.516 -0.02 -0.01    -0.202 F  BRANCH  12  18ATOM     18  O   UNL     1      34.782  42.336  27.670 -0.22 +0.15    -0.494 OA ATOM     19  C   UNL     1      34.472  43.582  28.281 -0.41 -0.07    +0.278 C  ENDBRANCH  12  18BRANCH  16  20ATOM     20  O   UNL     1      40.017  41.718  25.998 +0.03 +0.02    -0.507 OA ATOM     21  H   UNL     1      40.297  42.543  25.539 +0.11 -0.00    +0.293 HD ENDBRANCH  16  20ENDBRANCH   9  11ENDBRANCH   4   9ENDBRANCH   2   3ENDBRANCH   1   2BRANCH   1  22ATOM     22  C   UNL     1      35.661  44.894  18.170 -0.38 -0.01    +0.035 C  BRANCH  22  23ATOM     23  C   UNL     1      34.453  45.846  18.268 -0.53 -0.01    +0.011 CG0ATOM     24  G   UNL     1      33.134  45.409  17.640 +0.00 +0.00    +0.000 G0 ENDBRANCH  22  23BRANCH  22  25ATOM     25  C   UNL     1      36.442  44.988  16.823 -0.32 -0.04    +0.103 C  BRANCH  25  26ATOM     26  C   UNL     1      35.505  45.425  15.660 -0.33 -0.07    +0.106 C  BRANCH  26  27ATOM     27  N   UNL     1      34.220  44.749  15.521 -0.12 +0.20    -0.315 NA ATOM     28  H   UNL     1      34.297  43.800  15.890 +0.08 -0.06    +0.122 HD BRANCH  27  29ATOM     29  C   UNL     1      33.089  45.439  16.120 -0.28 -0.07    +0.081 C  BRANCH  29  30ATOM     30  C   UNL     1      33.134  45.408  17.641 -0.38 -0.01    +0.016 CG0ATOM     31  G   UNL     1      34.453  45.846  18.268 +0.00 +0.00    +0.000 G0 ENDBRANCH  29  30ENDBRANCH  27  29ENDBRANCH  26  27ENDBRANCH  25  26BRANCH  25  32ATOM     32  N   UNL     1      37.550  45.950  16.914 -0.14 +0.13    -0.347 N  ATOM     33  C   UNL     1      38.520  46.035  15.940 -0.27 -0.08    +0.251 C  ATOM     34  H   UNL     1      37.482  46.680  17.610 +0.08 -0.07    +0.164 HD ATOM     35  O   UNL     1      38.542  45.328  14.941 -0.23 +0.07    -0.269 OA BRANCH  33  36ATOM     36  C   UNL     1      39.558  47.078  16.141 -0.45 -0.01    +0.042 A  ATOM     37  C   UNL     1      40.493  46.993  17.173 -0.49 -0.00    +0.034 A  ATOM     38  C   UNL     1      39.607  48.145  15.246 -0.52 -0.01    +0.034 A  ATOM     39  C   UNL     1      41.427  48.006  17.278 -0.38 -0.01    +0.112 A  ATOM     40  C   UNL     1      40.579  49.108  15.441 -0.53 -0.03    +0.112 A  ATOM     41  N   UNL     1      41.483  49.066  16.443 -0.93 -0.01    -0.265 NA ENDBRANCH  33  36ENDBRANCH  25  32ENDBRANCH  22  25ENDBRANCH   1  22TORSDOF 9TERENDMDL