MODEL        10USER    Run = 10USERUSER    Estimated Free Energy of Binding    =  -6.39 kcal/mol  [=(1)+(2)+(3)-(4)]USERUSER    (1) Final Intermolecular Energy     = -10.87 kcal/molUSER        vdW + Hbond + desolv Energy     = -11.39 kcal/molUSER        Electrostatic Energy            =  -0.11 kcal/molUSER        Moving Ligand-Fixed Receptor    = -11.49 kcal/molUSER        Moving Ligand-Moving Receptor   =  +0.62 kcal/molUSER    (2) Final Total Internal Energy     =  -1.92 kcal/molUSER    (3) Torsional Free Energy           =  +4.47 kcal/molUSER    (4) Unbound System's Energy         =  -1.92 kcal/molUSERUSERREMARK SMILES COc1ccc(O)c(C(=O)c2ccc(CO[C@@H]3CCCNC[C@@H]3NC(=O)c3ccncc3)cc2)c1FREMARK SMILES IDX 16 1 15 2 14 3 11 4 12 5 34 6 13 7 33 8 9 9 10 10 8 11 3 12REMARK SMILES IDX 4 13 35 14 5 15 6 16 36 17 2 18 1 19 7 20 17 22 18 23 23 25REMARK SMILES IDX 22 26 21 27 20 29 19 30 24 32 25 33 26 35 27 36 28 37 32 38REMARK SMILES IDX 29 39 31 40 30 41REMARK H PARENT 7 21 21 28 24 34REMARK Flexibility Score:   99.900USER                              x       y       z     vdW  Elec       q    TypeUSER                           _______ _______ _______ _____ _____    ______ ____ROOTATOM      1  O   UNL     1      36.382  48.465  14.298 -0.14 +0.33    -0.371 OA ENDROOTBRANCH   1   2ATOM      2  C   UNL     1      37.348  49.288  14.949 -0.28 -0.19    +0.196 C  BRANCH   2   3ATOM      3  C   UNL     1      38.350  48.391  15.627 -0.45 +0.01    -0.022 A  ATOM      4  C   UNL     1      40.233  46.710  16.862 -0.47 -0.00    +0.023 A  ATOM      5  C   UNL     1      40.660  47.724  16.000 -0.53 -0.00    +0.012 A  ATOM      6  C   UNL     1      38.869  46.558  17.133 -0.41 -0.00    +0.012 A  ATOM      7  C   UNL     1      39.722  48.553  15.382 -0.56 -0.00    +0.007 A  ATOM      8  C   UNL     1      37.932  47.389  16.514 -0.23 -0.00    +0.007 A  BRANCH   4   9ATOM      9  C   UNL     1      41.193  45.827  17.567 -0.31 -0.01    +0.199 C  ATOM     10  O   UNL     1      41.770  44.941  16.931 +0.02 -0.03    -0.288 OA BRANCH   9  11ATOM     11  C   UNL     1      41.455  45.909  19.020 -0.39 +0.01    +0.104 A  ATOM     12  C   UNL     1      41.029  45.208  21.316 -0.22 +0.01    +0.155 A  ATOM     13  C   UNL     1      42.006  46.098  21.767 -0.25 +0.01    +0.053 A  ATOM     14  C   UNL     1      40.757  45.128  19.942 -0.28 +0.01    +0.179 A  ATOM     15  C   UNL     1      42.687  46.909  20.855 -0.35 +0.01    +0.051 A  ATOM     16  C   UNL     1      42.402  46.824  19.495 -0.39 +0.02    +0.130 A  ATOM     17  F   UNL     1      39.791  44.295  19.524 -0.09 +0.00    -0.202 F  BRANCH  12  18ATOM     18  O   UNL     1      40.287  44.377  22.112 -0.02 -0.02    -0.494 OA ATOM     19  C   UNL     1      38.921  44.714  22.314 -0.20 +0.01    +0.278 C  ENDBRANCH  12  18BRANCH  16  20ATOM     20  O   UNL     1      43.092  47.676  18.674 -0.28 -0.04    -0.507 OA ATOM     21  H   UNL     1      43.380  48.448  19.215 -0.41 -0.04    +0.293 HD ENDBRANCH  16  20ENDBRANCH   9  11ENDBRANCH   4   9ENDBRANCH   2   3ENDBRANCH   1   2BRANCH   1  22ATOM     22  C   UNL     1      36.934  47.239  13.770 -0.48 -0.07    +0.142 C  BRANCH  22  23ATOM     23  C   UNL     1      36.674  47.317  12.258 -0.73 -0.01    +0.035 CG0ATOM     24  G   UNL     1      35.977  46.153  11.562 +0.00 +0.00    +0.000 G0 ENDBRANCH  22  23BRANCH  22  25ATOM     25  C   UNL     1      36.301  46.034  14.506 -0.38 -0.07    +0.125 C  BRANCH  25  26ATOM     26  C   UNL     1      36.941  44.702  14.042 -0.35 -0.04    +0.108 C  BRANCH  26  27ATOM     27  N   UNL     1      37.604  44.709  12.740 -0.09 +0.09    -0.315 NA ATOM     28  H   UNL     1      38.177  43.867  12.666 +0.19 -0.03    +0.122 HD BRANCH  27  29ATOM     29  C   UNL     1      36.704  44.820  11.602 -0.42 -0.03    +0.081 C  BRANCH  29  30ATOM     30  C   UNL     1      35.978  46.157  11.556 -0.38 -0.01    +0.018 CG0ATOM     31  G   UNL     1      36.670  47.321  12.256 +0.00 +0.00    +0.000 G0 ENDBRANCH  29  30ENDBRANCH  27  29ENDBRANCH  26  27ENDBRANCH  25  26BRANCH  25  32ATOM     32  N   UNL     1      34.834  46.064  14.410 -0.17 +0.30    -0.345 N  ATOM     33  C   UNL     1      34.053  45.154  15.092 -0.06 -0.18    +0.251 C  ATOM     34  H   UNL     1      34.439  46.990  14.303 -0.03 -0.21    +0.164 HD ATOM     35  O   UNL     1      34.505  44.209  15.725 -0.22 +0.14    -0.269 OA BRANCH  33  36ATOM     36  C   UNL     1      32.585  45.394  15.061 -0.32 -0.03    +0.042 A  ATOM     37  C   UNL     1      31.796  44.795  16.043 -0.32 -0.02    +0.034 A  ATOM     38  C   UNL     1      31.981  46.165  14.067 -0.40 -0.03    +0.034 A  ATOM     39  C   UNL     1      30.430  45.008  15.999 -0.27 -0.04    +0.112 A  ATOM     40  C   UNL     1      30.606  46.314  14.111 -0.47 -0.06    +0.112 A  ATOM     41  N   UNL     1      29.820  45.758  15.057 -0.24 +0.12    -0.265 NA ENDBRANCH  33  36ENDBRANCH  25  32ENDBRANCH  22  25ENDBRANCH   1  22TORSDOF 9TERENDMDL