MODEL        3USER    Run = 3USERUSER    Estimated Free Energy of Binding    = -13.50 kcal/mol  [=(1)+(2)+(3)-(4)]USERUSER    (1) Final Intermolecular Energy     = -15.29 kcal/molUSER        vdW + Hbond + desolv Energy     = -15.15 kcal/molUSER        Electrostatic Energy            =  -0.14 kcal/molUSER        Moving Ligand-Fixed Receptor    = -15.29 kcal/molUSER        Moving Ligand-Moving Receptor   =  +0.00 kcal/molUSER    (2) Final Total Internal Energy     =  -2.71 kcal/molUSER    (3) Torsional Free Energy           =  +1.79 kcal/molUSER    (4) Unbound System's Energy         =  -2.71 kcal/molUSERUSERREMARK SMILES Oc1nc2ccccc2n1C1CCN(Cc2ccc(-c3nc4ccccc4nc3-c3ccccc3)cc2)CC1REMARK SMILES IDX 11 1 12 2 13 3 14 4 38 5 39 6 10 7 2 8 3 9 4 10 9 11 5 12REMARK SMILES IDX 8 13 6 14 7 15 1 16 15 18 16 19 17 20 37 21 18 22 36 23REMARK SMILES IDX 19 24 20 25 21 26 29 27 22 28 28 29 23 30 27 31 24 32 26 33REMARK SMILES IDX 25 34 30 35 31 36 35 37 32 38 34 39 33 40REMARK H PARENT 1 17USER                              x       y       z     vdW  Elec       q    TypeUSER                           _______ _______ _______ _____ _____    ______ ____ROOTATOM      1  C   UNL     1      38.537  47.258  15.317 -0.45 -0.04    +0.095 C  ATOM      2  C   UNL     1      37.597  48.443  15.038 -0.57 -0.03    +0.041 C  ATOM      3  C   UNL     1      37.038  48.403  13.616 -0.56 -0.04    +0.087 C  ATOM      4  N   UNL     1      36.599  47.071  13.189 -0.35 +0.14    -0.299 NA ATOM      5  C   UNL     1      37.663  46.059  13.291 -0.42 -0.03    +0.087 C  ATOM      6  C   UNL     1      38.923  46.519  14.031 -0.37 -0.01    +0.041 C  ENDROOTBRANCH   1   7ATOM      7  N   UNL     1      39.688  47.636  16.123 -0.27 +0.08    -0.291 N  ATOM      8  C   UNL     1      40.485  48.731  15.940 -0.33 -0.07    +0.295 A  ATOM      9  N   UNL     1      41.443  48.828  16.818 -0.95 -0.00    -0.195 NA ATOM     10  C   UNL     1      41.264  47.741  17.638 -0.45 -0.01    +0.092 A  ATOM     11  C   UNL     1      40.169  46.973  17.234 -0.45 -0.01    +0.072 A  ATOM     12  C   UNL     1      42.005  47.346  18.763 -0.51 +0.00    +0.031 A  ATOM     13  C   UNL     1      39.771  45.814  17.916 -0.43 -0.00    +0.029 A  ATOM     14  C   UNL     1      41.623  46.190  19.455 -0.45 +0.00    +0.002 A  ATOM     15  C   UNL     1      40.524  45.440  19.036 -0.45 +0.00    +0.002 A  BRANCH   8  16ATOM     16  O   UNL     1      40.323  49.627  14.987 -0.20 +0.22    -0.480 OA ATOM     17  H   UNL     1      39.540  50.110  15.309 -0.20 -0.24    +0.296 HD ENDBRANCH   8  16ENDBRANCH   1   7BRANCH   4  18ATOM     18  C   UNL     1      35.354  46.615  13.832 -0.44 -0.09    +0.120 C  BRANCH  18  19ATOM     19  C   UNL     1      35.568  45.934  15.167 -0.35 +0.03    -0.034 A  ATOM     20  C   UNL     1      35.473  46.658  16.361 -0.20 -0.01    +0.006 A  ATOM     21  C   UNL     1      35.880  44.571  15.227 -0.34 -0.00    +0.006 A  ATOM     22  C   UNL     1      35.667  46.021  17.592 -0.35 -0.01    +0.011 A  ATOM     23  C   UNL     1      36.073  43.938  16.458 -0.36 -0.00    +0.011 A  ATOM     24  C   UNL     1      35.954  44.648  17.664 -0.32 -0.00    +0.002 A  BRANCH  24  25ATOM     25  C   UNL     1      36.136  43.993  18.970 -0.29 -0.02    +0.097 A  ATOM     26  N   UNL     1      37.309  44.317  19.588 -0.22 +0.02    -0.244 NA ATOM     27  C   UNL     1      35.229  43.097  19.557 -0.35 -0.01    +0.097 A  ATOM     28  C   UNL     1      37.578  43.718  20.762 -0.31 -0.00    +0.089 A  ATOM     29  N   UNL     1      35.515  42.485  20.743 -0.31 -0.01    -0.244 NA ATOM     30  C   UNL     1      38.766  44.008  21.422 -0.29 +0.00    +0.030 A  ATOM     31  C   UNL     1      36.678  42.797  21.340 -0.39 +0.00    +0.089 A  ATOM     32  C   UNL     1      39.086  43.407  22.640 -0.28 +0.00    +0.002 A  ATOM     33  C   UNL     1      37.005  42.203  22.553 -0.47 +0.00    +0.030 A  ATOM     34  C   UNL     1      38.201  42.500  23.208 -0.33 +0.00    +0.002 A  BRANCH  27  35ATOM     35  C   UNL     1      33.909  42.738  19.005 -0.40 -0.00    +0.002 A  ATOM     36  C   UNL     1      33.751  41.559  18.255 -0.35 -0.00    +0.010 A  ATOM     37  C   UNL     1      32.768  43.529  19.227 -0.42 -0.00    +0.010 A  ATOM     38  C   UNL     1      32.509  41.197  17.725 -0.37 -0.00    +0.001 A  ATOM     39  C   UNL     1      31.526  43.171  18.696 -0.28 -0.00    +0.001 A  ATOM     40  C   UNL     1      31.397  42.007  17.943 -0.30 -0.00    +0.000 A  ENDBRANCH  27  35ENDBRANCH  24  25ENDBRANCH  18  19ENDBRANCH   4  18TORSDOF 6TERENDMDL