MODEL        8USER    Run = 8USERUSER    Estimated Free Energy of Binding    =  -6.84 kcal/mol  [=(1)+(2)+(3)-(4)]USERUSER    (1) Final Intermolecular Energy     = -11.01 kcal/molUSER        vdW + Hbond + desolv Energy     = -11.29 kcal/molUSER        Electrostatic Energy            =  -0.45 kcal/molUSER        Moving Ligand-Fixed Receptor    = -11.74 kcal/molUSER        Moving Ligand-Moving Receptor   =  +0.72 kcal/molUSER    (2) Final Total Internal Energy     =  -3.30 kcal/molUSER    (3) Torsional Free Energy           =  +4.18 kcal/molUSER    (4) Unbound System's Energy         =  -3.30 kcal/molUSERUSERREMARK SMILES COc1ccc(O)c(C(=O)c2ccc(C(=O)N[C@@H]3CCCNC[C@H]3NC(=O)c3ccncc3)cc2)c1FREMARK SMILES IDX 15 1 16 2 17 3 14 5 11 6 12 7 35 8 13 9 34 10 9 11 10 12REMARK SMILES IDX 8 13 3 14 4 15 36 16 5 17 6 18 37 19 2 20 1 21 7 22 18 24REMARK SMILES IDX 19 25 24 27 23 28 22 29 21 31 20 32 25 34 26 35 27 37 28 38REMARK SMILES IDX 29 39 33 40 30 41 32 42 31 43REMARK H PARENT 17 4 7 23 22 30 25 36REMARK Flexibility Score:   88.900USER                              x       y       z     vdW  Elec       q    TypeUSER                           _______ _______ _______ _____ _____    ______ ____ROOTATOM      1  C   UNL     1      38.650  45.261  17.332 -0.25 -0.05    +0.251 C  ATOM      2  O   UNL     1      38.071  44.207  17.095 -0.21 +0.06    -0.269 OA ATOM      3  N   UNL     1      38.480  46.405  16.578 -0.17 +0.12    -0.347 N  ATOM      4  H   UNL     1      39.140  47.160  16.708 +0.11 -0.05    +0.164 HD ENDROOTBRANCH   1   5ATOM      5  C   UNL     1      39.649  45.339  18.434 -0.41 -0.00    +0.039 A  ATOM      6  C   UNL     1      41.497  45.353  20.542 -0.34 +0.00    +0.023 A  ATOM      7  C   UNL     1      40.282  44.677  20.682 -0.34 +0.00    +0.013 A  ATOM      8  C   UNL     1      41.789  46.024  19.349 -0.43 +0.00    +0.013 A  ATOM      9  C   UNL     1      39.355  44.680  19.635 -0.37 -0.00    +0.014 A  ATOM     10  C   UNL     1      40.861  46.027  18.299 -0.48 -0.00    +0.014 A  BRANCH   6  11ATOM     11  C   UNL     1      42.477  45.253  21.646 -0.21 +0.05    +0.199 C  ATOM     12  O   UNL     1      42.809  44.129  22.026 -0.19 -0.05    -0.288 OA BRANCH  11  13ATOM     13  C   UNL     1      43.121  46.420  22.293 -0.22 +0.03    +0.104 A  ATOM     14  C   UNL     1      43.013  48.568  23.447 -0.26 +0.04    +0.155 A  ATOM     15  C   UNL     1      44.408  48.602  23.518 -0.17 +0.01    +0.053 A  ATOM     16  C   UNL     1      42.381  47.472  22.836 -0.20 +0.03    +0.179 A  ATOM     17  C   UNL     1      45.160  47.542  23.002 -0.23 +0.02    +0.051 A  ATOM     18  C   UNL     1      44.519  46.457  22.409 -0.18 +0.08    +0.130 A  ATOM     19  F   UNL     1      41.039  47.437  22.810 -0.04 -0.02    -0.202 F  BRANCH  14  20ATOM     20  O   UNL     1      42.173  49.536  23.929 -0.69 -0.19    -0.494 OA ATOM     21  C   UNL     1      41.500  49.262  25.155 -0.22 +0.05    +0.278 C  ENDBRANCH  14  20BRANCH  18  22ATOM     22  O   UNL     1      45.334  45.451  21.960 -0.23 -0.64    -0.507 OA ATOM     23  H   UNL     1      44.907  44.596  22.203 +0.10 +0.19    +0.293 HD ENDBRANCH  18  22ENDBRANCH  11  13ENDBRANCH   6  11ENDBRANCH   1   5BRANCH   3  24ATOM     24  C   UNL     1      37.742  46.368  15.310 -0.37 -0.05    +0.106 C  BRANCH  24  25ATOM     25  C   UNL     1      38.556  47.070  14.215 -0.51 -0.01    +0.028 CG0ATOM     26  G   UNL     1      37.835  47.268  12.871 +0.00 +0.00    +0.000 G0 ENDBRANCH  24  25BRANCH  24  27ATOM     27  C   UNL     1      36.310  46.945  15.499 -0.34 -0.11    +0.118 C  BRANCH  27  28ATOM     28  C   UNL     1      35.423  46.920  14.232 -0.27 -0.10    +0.108 C  BRANCH  28  29ATOM     29  N   UNL     1      35.730  45.903  13.221 -0.24 +0.17    -0.315 NA ATOM     30  H   UNL     1      35.797  44.988  13.660 +0.08 -0.05    +0.122 HD BRANCH  29  31ATOM     31  C   UNL     1      36.912  46.145  12.401 -0.62 -0.03    +0.081 C  BRANCH  31  32ATOM     32  C   UNL     1      37.828  47.272  12.869 -0.52 -0.00    +0.017 CG0ATOM     33  G   UNL     1      38.551  47.070  14.212 +0.00 +0.00    +0.000 G0 ENDBRANCH  31  32ENDBRANCH  29  31ENDBRANCH  28  29ENDBRANCH  27  28BRANCH  27  34ATOM     34  N   UNL     1      35.641  46.277  16.624 -0.14 +0.30    -0.346 N  ATOM     35  C   UNL     1      35.286  44.949  16.564 -0.20 -0.14    +0.251 C  ATOM     36  H   UNL     1      35.699  46.726  17.524 +0.09 -0.14    +0.164 HD ATOM     37  O   UNL     1      35.411  44.257  15.563 -0.23 +0.12    -0.269 OA BRANCH  35  38ATOM     38  C   UNL     1      34.752  44.354  17.814 -0.28 -0.02    +0.042 A  ATOM     39  C   UNL     1      35.396  43.235  18.342 -0.33 -0.01    +0.034 A  ATOM     40  C   UNL     1      33.618  44.863  18.450 -0.38 -0.01    +0.034 A  ATOM     41  C   UNL     1      34.892  42.683  19.503 -0.35 -0.01    +0.112 A  ATOM     42  C   UNL     1      33.192  44.237  19.607 -0.35 -0.02    +0.112 A  ATOM     43  N   UNL     1      33.808  43.162  20.150 -0.69 -0.03    -0.265 NA ENDBRANCH  35  38ENDBRANCH  27  34ENDBRANCH  24  27ENDBRANCH   3  24TORSDOF 8TERENDMDL