MODEL        8USER    Run = 8USERUSER    Estimated Free Energy of Binding    = -12.18 kcal/mol  [=(1)+(2)+(3)-(4)]USERUSER    (1) Final Intermolecular Energy     = -14.27 kcal/molUSER        vdW + Hbond + desolv Energy     = -14.13 kcal/molUSER        Electrostatic Energy            =  -0.14 kcal/molUSER        Moving Ligand-Fixed Receptor    = -14.27 kcal/molUSER        Moving Ligand-Moving Receptor   =  +0.00 kcal/molUSER    (2) Final Total Internal Energy     =  -2.20 kcal/molUSER    (3) Torsional Free Energy           =  +2.09 kcal/molUSER    (4) Unbound System's Energy         =  -2.20 kcal/molUSERUSERREMARK SMILES Oc1nc2ccccc2n1C1CCN(Cc2ccc(-c3ncccc3-c3ccc(N4CCOCC4)cc3)cc2)CC1REMARK SMILES IDX 15 1 14 2 11 3 12 4 41 5 13 6 40 7 10 8 2 9 3 10 4 11 9 12REMARK SMILES IDX 5 13 8 14 6 15 7 16 1 17 16 19 17 20 39 21 18 22 38 23 19 24REMARK SMILES IDX 20 25 21 26 25 27 22 28 24 29 23 30 26 31 27 32 37 33 28 34REMARK SMILES IDX 36 35 29 36 30 37 31 38 35 39 32 40 34 41 33 42REMARK H PARENT 1 18USER                              x       y       z     vdW  Elec       q    TypeUSER                           _______ _______ _______ _____ _____    ______ ____ROOTATOM      1  C   UNL     1      42.261  46.228  20.300 -0.35 +0.03    +0.120 C  ENDROOTBRANCH   1   2ATOM      2  N   UNL     1      41.724  46.325  18.933 -0.27 -0.02    -0.299 NA ATOM      3  C   UNL     1      40.452  46.895  16.497 -0.47 -0.01    +0.095 C  ATOM      4  C   UNL     1      39.827  45.868  17.459 -0.47 -0.01    +0.041 C  ATOM      5  C   UNL     1      41.066  48.080  17.247 -0.56 -0.00    +0.041 C  ATOM      6  C   UNL     1      40.284  46.069  18.905 -0.44 -0.00    +0.087 C  ATOM      7  C   UNL     1      42.075  47.607  18.298 -0.50 -0.00    +0.087 C  BRANCH   3   8ATOM      8  N   UNL     1      39.534  47.333  15.454 -0.25 +0.08    -0.291 N  ATOM      9  C   UNL     1      39.610  48.501  14.745 -0.29 -0.11    +0.295 A  ATOM     10  N   UNL     1      38.688  48.614  13.831 -0.38 +0.07    -0.195 NA ATOM     11  C   UNL     1      37.958  47.454  13.940 -0.44 -0.03    +0.092 A  ATOM     12  C   UNL     1      38.459  46.631  14.951 -0.38 -0.02    +0.072 A  ATOM     13  C   UNL     1      36.845  47.034  13.194 -0.56 -0.01    +0.031 A  ATOM     14  C   UNL     1      37.885  45.389  15.259 -0.34 -0.01    +0.029 A  ATOM     15  C   UNL     1      36.263  45.796  13.486 -0.48 -0.00    +0.002 A  ATOM     16  C   UNL     1      36.775  44.990  14.502 -0.40 -0.00    +0.002 A  BRANCH   9  17ATOM     17  O   UNL     1      40.518  49.439  14.936 -0.25 +0.17    -0.480 OA ATOM     18  H   UNL     1      39.953  50.229  15.023 -0.13 -0.23    +0.296 HD ENDBRANCH   9  17ENDBRANCH   3   8ENDBRANCH   1   2BRANCH   1  19ATOM     19  C   UNL     1      41.365  45.441  21.234 -0.29 -0.00    -0.034 A  ATOM     20  C   UNL     1      41.409  44.040  21.243 -0.33 +0.00    +0.006 A  ATOM     21  C   UNL     1      40.499  46.094  22.119 -0.22 +0.00    +0.006 A  ATOM     22  C   UNL     1      40.595  43.308  22.113 -0.27 +0.00    +0.011 A  ATOM     23  C   UNL     1      39.691  45.358  22.992 -0.25 +0.00    +0.011 A  ATOM     24  C   UNL     1      39.717  43.953  22.999 -0.24 +0.00    +0.001 A  BRANCH  24  25ATOM     25  C   UNL     1      38.867  43.198  23.939 -0.21 +0.00    +0.078 A  ATOM     26  N   UNL     1      39.433  43.046  25.173 -0.10 -0.00    -0.256 NA ATOM     27  C   UNL     1      37.599  42.673  23.618 -0.38 +0.00    +0.008 A  ATOM     28  C   UNL     1      38.757  42.340  26.101 -0.20 -0.00    +0.112 A  ATOM     29  C   UNL     1      36.938  41.946  24.625 -0.37 -0.00    +0.012 A  ATOM     30  C   UNL     1      37.520  41.772  25.877 -0.34 -0.00    +0.021 A  BRANCH  27  31ATOM     31  C   UNL     1      36.925  42.870  22.321 -0.42 -0.00    -0.016 A  ATOM     32  C   UNL     1      36.938  44.112  21.674 -0.37 +0.00    +0.011 A  ATOM     33  C   UNL     1      36.221  41.825  21.709 -0.54 +0.00    +0.011 A  ATOM     34  C   UNL     1      36.278  44.301  20.452 -0.33 -0.00    +0.026 A  ATOM     35  C   UNL     1      35.558  42.023  20.491 -0.40 +0.00    +0.026 A  ATOM     36  C   UNL     1      35.571  43.263  19.835 -0.41 -0.00    +0.037 A  BRANCH  36  37ATOM     37  N   UNL     1      34.883  43.401  18.623 -0.09 +0.08    -0.367 N  ATOM     38  C   UNL     1      33.443  43.054  18.736 -0.33 -0.02    +0.145 C  ATOM     39  C   UNL     1      35.148  44.565  17.752 -0.27 -0.06    +0.145 C  ATOM     40  C   UNL     1      32.664  43.572  17.517 -0.24 -0.05    +0.181 C  ATOM     41  C   UNL     1      33.979  45.559  17.804 -0.34 -0.12    +0.181 C  ATOM     42  O   UNL     1      32.728  45.000  17.368 -0.21 +0.16    -0.378 OA ENDBRANCH  36  37ENDBRANCH  27  31ENDBRANCH  24  25ENDBRANCH   1  19TORSDOF 7TERENDMDL