MODEL        5USER    Run = 5USERUSER    Estimated Free Energy of Binding    = -12.75 kcal/mol  [=(1)+(2)+(3)-(4)]USERUSER    (1) Final Intermolecular Energy     = -15.14 kcal/molUSER        vdW + Hbond + desolv Energy     = -15.08 kcal/molUSER        Electrostatic Energy            =  -0.05 kcal/molUSER        Moving Ligand-Fixed Receptor    = -15.14 kcal/molUSER        Moving Ligand-Moving Receptor   =  +0.00 kcal/molUSER    (2) Final Total Internal Energy     =  -1.81 kcal/molUSER    (3) Torsional Free Energy           =  +2.39 kcal/molUSER    (4) Unbound System's Energy         =  -1.81 kcal/molUSERUSERREMARK SMILES O=S(=O)(c1ccc(-c2cccnc2-c2ccc(CN3CC[C@@H](n4c(O)nc5ccccc54)C[C@H]3F)cc2)cc1)N1CCOCC1REMARK SMILES IDX 14 1 15 2 16 3 17 4 36 5 37 6 13 7 8 8 9 9 10 10 12 11 11 12REMARK SMILES IDX 7 13 4 14 5 15 39 16 6 17 38 18 2 19 1 20 3 21 40 22 41 23REMARK SMILES IDX 45 24 42 25 44 26 43 27 18 28 19 29 20 30 34 31 21 32 33 33REMARK SMILES IDX 22 34 35 35 23 36 24 37 32 38 26 39 31 40 27 41 30 42 28 43REMARK SMILES IDX 29 44 25 45REMARK H PARENT 25 46USER                              x       y       z     vdW  Elec       q    TypeUSER                           _______ _______ _______ _____ _____    ______ ____ROOTATOM      1  C   UNL     1      36.124  43.501  19.534 -0.40 -0.00    +0.001 A  ATOM      2  C   UNL     1      36.143  43.245  20.915 -0.42 +0.00    +0.011 A  ATOM      3  C   UNL     1      37.160  43.751  21.732 -0.39 +0.00    +0.006 A  ATOM      4  C   UNL     1      38.181  44.540  21.190 -0.34 -0.00    -0.034 A  ATOM      5  C   UNL     1      38.161  44.818  19.816 -0.34 -0.00    +0.006 A  ATOM      6  C   UNL     1      37.143  44.309  19.004 -0.35 -0.00    +0.011 A  ENDROOTBRANCH   1   7ATOM      7  C   UNL     1      35.062  42.966  18.657 -0.32 -0.02    +0.078 A  ATOM      8  C   UNL     1      34.850  43.391  17.329 -0.34 -0.00    +0.008 A  ATOM      9  C   UNL     1      33.815  42.762  16.614 -0.36 -0.01    +0.012 A  ATOM     10  C   UNL     1      33.040  41.776  17.212 -0.25 -0.01    +0.021 A  ATOM     11  N   UNL     1      34.294  42.010  19.253 -0.25 +0.01    -0.256 NA ATOM     12  C   UNL     1      33.313  41.441  18.523 -0.28 -0.02    +0.112 A  BRANCH   8  13ATOM     13  C   UNL     1      35.623  44.462  16.682 -0.31 +0.01    -0.016 A  ATOM     14  C   UNL     1      37.127  46.507  15.489 -0.33 -0.05    +0.082 A  ATOM     15  C   UNL     1      37.487  45.173  15.281 -0.35 -0.01    +0.022 A  ATOM     16  C   UNL     1      36.012  46.834  16.262 -0.29 -0.02    +0.022 A  ATOM     17  C   UNL     1      36.734  44.158  15.875 -0.36 -0.00    +0.010 A  ATOM     18  C   UNL     1      35.268  45.812  16.856 -0.35 -0.01    +0.010 A  BRANCH  14  19ATOM     19  S   UNL     1      38.104  47.787  14.741 -0.52 -0.12    +0.243 S  ATOM     20  O   UNL     1      37.951  48.996  15.523 -0.43 +0.17    -0.207 OA ATOM     21  O   UNL     1      37.814  47.772  13.324 -0.81 +0.06    -0.207 OA BRANCH  19  22ATOM     22  N   UNL     1      39.691  47.212  14.967 -0.32 +0.04    -0.193 NA ATOM     23  C   UNL     1      40.012  46.600  16.295 -0.43 -0.02    +0.131 C  ATOM     24  C   UNL     1      40.772  48.165  14.561 -0.40 -0.02    +0.131 C  ATOM     25  C   UNL     1      40.387  47.657  17.343 -0.38 -0.03    +0.177 C  ATOM     26  C   UNL     1      41.069  49.175  15.673 -0.56 -0.03    +0.177 C  ATOM     27  O   UNL     1      41.452  48.499  16.880 -0.80 +0.01    -0.379 OA ENDBRANCH  19  22ENDBRANCH  14  19ENDBRANCH   8  13ENDBRANCH   1   7BRANCH   4  28ATOM     28  C   UNL     1      39.277  45.101  22.071 -0.29 +0.01    +0.122 C  BRANCH  28  29ATOM     29  N   UNL     1      38.804  46.164  22.970 -0.21 -0.03    -0.270 NA ATOM     30  C   UNL     1      38.076  45.607  24.126 -0.27 +0.01    +0.090 C  ATOM     31  C   UNL     1      39.920  46.996  23.401 -0.17 +0.02    +0.239 C  ATOM     32  C   UNL     1      38.050  46.526  25.353 -0.33 +0.00    +0.041 C  ATOM     33  C   UNL     1      39.428  48.254  24.113 -0.35 +0.01    +0.080 C  ATOM     34  C   UNL     1      38.152  47.991  24.930 -0.39 +0.01    +0.098 C  ATOM     35  F   UNL     1      40.704  46.272  24.242 -0.00 -0.02    -0.230 F  BRANCH  34  36ATOM     36  N   UNL     1      37.996  48.920  26.040 -0.17 -0.02    -0.291 N  ATOM     37  C   UNL     1      36.892  49.677  26.320 -0.20 +0.02    +0.295 A  ATOM     38  C   UNL     1      38.931  49.204  27.014 -0.21 +0.01    +0.072 A  ATOM     39  N   UNL     1      37.030  50.421  27.383 -0.15 -0.03    -0.195 NA ATOM     40  C   UNL     1      40.235  48.751  27.262 -0.25 +0.00    +0.029 A  ATOM     41  C   UNL     1      38.296  50.141  27.832 -0.16 +0.02    +0.092 A  ATOM     42  C   UNL     1      40.893  49.280  28.379 -0.24 +0.00    +0.002 A  ATOM     43  C   UNL     1      38.976  50.658  28.946 -0.22 +0.01    +0.031 A  ATOM     44  C   UNL     1      40.278  50.218  29.209 -0.23 +0.00    +0.002 A  BRANCH  37  45ATOM     45  O   UNL     1      35.779  49.674  25.616 -0.24 +0.05    -0.480 OA ATOM     46  H   UNL     1      36.107  49.940  24.738 -0.32 -0.06    +0.296 HD ENDBRANCH  37  45ENDBRANCH  34  36ENDBRANCH  28  29ENDBRANCH   4  28TORSDOF 8TERENDMDL