REMARK SMILES Oc1nc2ccccc2n1C1CCN(Cc2ccc(-c3ncccc3-c3ccc(N4CCOCC4)cc3)cc2)CC1
REMARK SMILES IDX 15 1 14 2 11 3 12 4 41 5 13 6 40 7 10 8 2 9 3 10 4 11 9 12
REMARK SMILES IDX 5 13 8 14 6 15 7 16 1 17 16 19 17 20 39 21 18 22 38 23 19 24
REMARK SMILES IDX 20 25 21 26 25 27 22 28 24 29 23 30 26 31 27 32 37 33 28 34
REMARK SMILES IDX 36 35 29 36 30 37 31 38 35 39 32 40 34 41 33 42
REMARK H PARENT 1 18
ROOT
ATOM      1  C   UNL     1      -1.227  -1.190   1.506  1.00  0.00     0.120 C 
ENDROOT
BRANCH   1   2
ATOM      2  N   UNL     1      -2.532  -1.117   0.829  1.00  0.00    -0.299 NA
ATOM      3  C   UNL     1      -5.208  -1.042  -0.015  1.00  0.00     0.095 C 
ATOM      4  C   UNL     1      -4.437  -2.374  -0.050  1.00  0.00     0.041 C 
ATOM      5  C   UNL     1      -4.851  -0.208   1.218  1.00  0.00     0.041 C 
ATOM      6  C   UNL     1      -3.251  -2.388   0.916  1.00  0.00     0.087 C 
ATOM      7  C   UNL     1      -3.339   0.014   1.318  1.00  0.00     0.087 C 
BRANCH   3   8
ATOM      8  N   UNL     1      -6.648  -1.212  -0.154  1.00  0.00    -0.291 N 
ATOM      9  C   UNL     1      -7.471  -1.889   0.705  1.00  0.00     0.295 A 
ATOM     10  N   UNL     1      -8.729  -1.836   0.367  1.00  0.00    -0.195 NA
ATOM     11  C   UNL     1      -8.741  -1.081  -0.781  1.00  0.00     0.092 A 
ATOM     12  C   UNL     1      -7.452  -0.678  -1.139  1.00  0.00     0.072 A 
ATOM     13  C   UNL     1      -9.832  -0.694  -1.576  1.00  0.00     0.031 A 
ATOM     14  C   UNL     1      -7.200   0.103  -2.276  1.00  0.00     0.029 A 
ATOM     15  C   UNL     1      -9.598   0.088  -2.712  1.00  0.00     0.002 A 
ATOM     16  C   UNL     1      -8.303   0.477  -3.054  1.00  0.00     0.002 A 
BRANCH   9  17
ATOM     17  O   UNL     1      -7.067  -2.535   1.781  1.00  0.00    -0.480 OA
ATOM     18  H   UNL     1      -7.916  -2.864   2.130  1.00  0.00     0.296 HD
ENDBRANCH   9  17
ENDBRANCH   3   8
ENDBRANCH   1   2
BRANCH   1  19
ATOM     19  C   UNL     1      -0.336  -0.003   1.205  1.00  0.00    -0.034 A 
ATOM     20  C   UNL     1       0.205   0.169  -0.076  1.00  0.00     0.006 A 
ATOM     21  C   UNL     1      -0.057   0.954   2.188  1.00  0.00     0.006 A 
ATOM     22  C   UNL     1       1.016   1.271  -0.365  1.00  0.00     0.011 A 
ATOM     23  C   UNL     1       0.750   2.058   1.894  1.00  0.00     0.011 A 
ATOM     24  C   UNL     1       1.309   2.232   0.616  1.00  0.00     0.001 A 
BRANCH  24  25
ATOM     25  C   UNL     1       2.145   3.412   0.325  1.00  0.00     0.078 A 
ATOM     26  N   UNL     1       1.510   4.595   0.575  1.00  0.00    -0.256 NA
ATOM     27  C   UNL     1       3.464   3.349  -0.168  1.00  0.00     0.008 A 
ATOM     28  C   UNL     1       2.170   5.740   0.309  1.00  0.00     0.112 A 
ATOM     29  C   UNL     1       4.105   4.575  -0.426  1.00  0.00     0.012 A 
ATOM     30  C   UNL     1       3.455   5.782  -0.191  1.00  0.00     0.021 A 
BRANCH  27  31
ATOM     31  C   UNL     1       4.207   2.095  -0.390  1.00  0.00    -0.016 A 
ATOM     32  C   UNL     1       4.480   1.214   0.664  1.00  0.00     0.011 A 
ATOM     33  C   UNL     1       4.692   1.759  -1.660  1.00  0.00     0.011 A 
ATOM     34  C   UNL     1       5.206   0.033   0.454  1.00  0.00     0.026 A 
ATOM     35  C   UNL     1       5.422   0.581  -1.862  1.00  0.00     0.026 A 
ATOM     36  C   UNL     1       5.695  -0.308  -0.812  1.00  0.00     0.037 A 
BRANCH  36  37
ATOM     37  N   UNL     1       6.436  -1.467  -1.075  1.00  0.00    -0.367 N 
ATOM     38  C   UNL     1       7.828  -1.175  -1.504  1.00  0.00     0.145 C 
ATOM     39  C   UNL     1       6.323  -2.636  -0.177  1.00  0.00     0.145 C 
ATOM     40  C   UNL     1       8.699  -2.438  -1.413  1.00  0.00     0.181 C 
ATOM     41  C   UNL     1       7.585  -2.782   0.685  1.00  0.00     0.181 C 
ATOM     42  O   UNL     1       8.787  -2.971  -0.081  1.00  0.00    -0.378 OA
ENDBRANCH  36  37
ENDBRANCH  27  31
ENDBRANCH  24  25
ENDBRANCH   1  19
TORSDOF 7
