REMARK SMILES O=S(=O)(c1ccc(-c2cccnc2-c2ccc(CN3CC[C@@H](n4c(O)nc5ccccc54)C[C@H]3F)cc2)cc1)N1CCOCC1
REMARK SMILES IDX 14 1 15 2 16 3 17 4 36 5 37 6 13 7 8 8 9 9 10 10 12 11 11 12
REMARK SMILES IDX 7 13 4 14 5 15 39 16 6 17 38 18 2 19 1 20 3 21 40 22 41 23
REMARK SMILES IDX 45 24 42 25 44 26 43 27 18 28 19 29 20 30 34 31 21 32 33 33
REMARK SMILES IDX 22 34 35 35 23 36 24 37 32 38 26 39 31 40 27 41 30 42 28 43
REMARK SMILES IDX 29 44 25 45
REMARK H PARENT 25 46
ROOT
ATOM      1  C   UNL     1      -0.804  -2.427   1.321  1.00  0.00     0.001 A 
ATOM      2  C   UNL     1      -1.062  -1.899   0.045  1.00  0.00     0.011 A 
ATOM      3  C   UNL     1      -0.560  -0.651  -0.339  1.00  0.00     0.006 A 
ATOM      4  C   UNL     1       0.228   0.099   0.542  1.00  0.00    -0.034 A 
ATOM      5  C   UNL     1       0.509  -0.427   1.810  1.00  0.00     0.006 A 
ATOM      6  C   UNL     1       0.003  -1.674   2.189  1.00  0.00     0.011 A 
ENDROOT
BRANCH   1   7
ATOM      7  C   UNL     1      -1.335  -3.739   1.744  1.00  0.00     0.078 A 
ATOM      8  C   UNL     1      -2.704  -4.076   1.728  1.00  0.00     0.008 A 
ATOM      9  C   UNL     1      -3.047  -5.378   2.134  1.00  0.00     0.012 A 
ATOM     10  C   UNL     1      -2.065  -6.274   2.541  1.00  0.00     0.021 A 
ATOM     11  N   UNL     1      -0.370  -4.609   2.157  1.00  0.00    -0.256 NA
ATOM     12  C   UNL     1      -0.753  -5.845   2.539  1.00  0.00     0.112 A 
BRANCH   8  13
ATOM     13  C   UNL     1      -3.771  -3.138   1.346  1.00  0.00    -0.016 A 
ATOM     14  C   UNL     1      -5.771  -1.323   0.591  1.00  0.00     0.082 A 
ATOM     15  C   UNL     1      -5.534  -2.455  -0.193  1.00  0.00     0.022 A 
ATOM     16  C   UNL     1      -5.043  -1.098   1.760  1.00  0.00     0.022 A 
ATOM     17  C   UNL     1      -4.538  -3.357   0.188  1.00  0.00     0.010 A 
ATOM     18  C   UNL     1      -4.046  -2.003   2.130  1.00  0.00     0.010 A 
BRANCH  14  19
ATOM     19  S   UNL     1      -7.028  -0.176   0.084  1.00  0.00     0.243 S 
ATOM     20  O   UNL     1      -7.123   0.869   1.081  1.00  0.00    -0.207 OA
ATOM     21  O   UNL     1      -8.187  -0.955  -0.296  1.00  0.00    -0.207 OA
BRANCH  19  22
ATOM     22  N   UNL     1      -6.355   0.502  -1.326  1.00  0.00    -0.193 NA
ATOM     23  C   UNL     1      -5.122   1.335  -1.160  1.00  0.00     0.131 C 
ATOM     24  C   UNL     1      -7.333   1.196  -2.222  1.00  0.00     0.131 C 
ATOM     25  C   UNL     1      -5.452   2.785  -0.779  1.00  0.00     0.177 C 
ATOM     26  C   UNL     1      -7.592   2.631  -1.756  1.00  0.00     0.177 C 
ATOM     27  O   UNL     1      -6.366   3.377  -1.712  1.00  0.00    -0.379 OA
ENDBRANCH  19  22
ENDBRANCH  14  19
ENDBRANCH   8  13
ENDBRANCH   1   7
BRANCH   4  28
ATOM     28  C   UNL     1       0.785   1.445   0.128  1.00  0.00     0.122 C 
BRANCH  28  29
ATOM     29  N   UNL     1       2.252   1.451   0.020  1.00  0.00    -0.270 NA
ATOM     30  C   UNL     1       2.714   0.577  -1.075  1.00  0.00     0.090 C 
ATOM     31  C   UNL     1       2.741   2.813  -0.149  1.00  0.00     0.239 C 
ATOM     32  C   UNL     1       4.099   0.940  -1.625  1.00  0.00     0.041 C 
ATOM     33  C   UNL     1       4.259   2.877   0.002  1.00  0.00     0.080 C 
ATOM     34  C   UNL     1       4.946   1.615  -0.546  1.00  0.00     0.098 C 
ATOM     35  F   UNL     1       2.386   3.253  -1.385  1.00  0.00    -0.230 F 
BRANCH  34  36
ATOM     36  N   UNL     1       6.318   1.860  -0.965  1.00  0.00    -0.291 N 
ATOM     37  C   UNL     1       6.724   2.642  -2.011  1.00  0.00     0.295 A 
ATOM     38  C   UNL     1       7.460   1.350  -0.382  1.00  0.00     0.072 A 
ATOM     39  N   UNL     1       8.020   2.683  -2.155  1.00  0.00    -0.195 NA
ATOM     40  C   UNL     1       7.691   0.500   0.709  1.00  0.00     0.029 A 
ATOM     41  C   UNL     1       8.500   1.883  -1.148  1.00  0.00     0.092 A 
ATOM     42  C   UNL     1       9.024   0.196   1.012  1.00  0.00     0.002 A 
ATOM     43  C   UNL     1       9.828   1.564  -0.826  1.00  0.00     0.031 A 
ATOM     44  C   UNL     1      10.077   0.717   0.259  1.00  0.00     0.002 A 
BRANCH  37  45
ATOM     45  O   UNL     1       5.917   3.310  -2.808  1.00  0.00    -0.480 OA
ATOM     46  H   UNL     1       6.552   3.739  -3.409  1.00  0.00     0.296 HD
ENDBRANCH  37  45
ENDBRANCH  34  36
ENDBRANCH  28  29
ENDBRANCH   4  28
TORSDOF 8
