MODEL        1USER    Run = 1USERUSER    Estimated Free Energy of Binding    =  -8.08 kcal/mol  [=(1)+(2)+(3)-(4)]USERUSER    (1) Final Intermolecular Energy     =  -9.27 kcal/molUSER        vdW + Hbond + desolv Energy     =  -8.86 kcal/molUSER        Electrostatic Energy            =  -0.41 kcal/molUSER        Moving Ligand-Fixed Receptor    =  -9.27 kcal/molUSER        Moving Ligand-Moving Receptor   =  +0.00 kcal/molUSER    (2) Final Total Internal Energy     =  -1.81 kcal/molUSER    (3) Torsional Free Energy           =  +1.19 kcal/molUSER    (4) Unbound System's Energy         =  -1.81 kcal/molUSERUSERREMARK SMILES CN1CC[C@@H](n2c(O)nc3ccccc32)[C@@H](n2c(O)nc3ccccc32)C1REMARK SMILES IDX 1 1 2 2 3 3 4 4 5 5 16 6 27 7 17 8 18 9 26 10 20 11 25 12REMARK SMILES IDX 21 13 24 14 22 15 23 16 19 17 6 19 7 20 15 21 9 22 14 23REMARK SMILES IDX 10 24 13 25 11 26 12 27 8 28REMARK H PARENT 19 18 8 29USER                              x       y       z     vdW  Elec       q    TypeUSER                           _______ _______ _______ _____ _____    ______ ____ROOTATOM      1  C   UNL     1      36.933  48.414  14.509 -0.48 -0.08    +0.105 C  ATOM      2  N   UNL     1      37.173  47.309  15.432 -0.20 +0.21    -0.304 NA ATOM      3  C   UNL     1      37.755  46.150  14.761 -0.40 -0.03    +0.086 C  ATOM      4  C   UNL     1      38.209  45.113  15.792 -0.27 -0.01    +0.043 C  ATOM      5  C   UNL     1      37.121  44.767  16.835 -0.32 -0.04    +0.118 C  ATOM      6  C   UNL     1      35.792  45.502  16.551 -0.31 -0.08    +0.129 C  ATOM      7  C   UNL     1      35.970  46.998  16.229 -0.22 -0.12    +0.112 C  ENDROOTBRANCH   6   8ATOM      8  N   UNL     1      34.693  45.178  17.448 -0.15 +0.16    -0.288 N  ATOM      9  C   UNL     1      34.102  46.098  18.276 -0.28 -0.20    +0.295 A  ATOM     10  C   UNL     1      34.051  43.978  17.672 -0.25 -0.03    +0.072 A  ATOM     11  N   UNL     1      33.166  45.598  19.031 -0.26 +0.08    -0.195 NA ATOM     12  C   UNL     1      34.156  42.689  17.131 -0.37 -0.01    +0.029 A  ATOM     13  C   UNL     1      33.111  44.278  18.666 -0.32 -0.02    +0.092 A  ATOM     14  C   UNL     1      33.296  41.701  17.625 -0.40 -0.00    +0.002 A  ATOM     15  C   UNL     1      32.262  43.270  19.152 -0.37 -0.00    +0.031 A  ATOM     16  C   UNL     1      32.365  41.981  18.623 -0.37 -0.00    +0.002 A  BRANCH   9  17ATOM     17  O   UNL     1      34.428  47.374  18.331 -0.86 +0.48    -0.480 OA ATOM     18  H   UNL     1      33.879  47.736  17.610 -0.33 -0.71    +0.296 HD ENDBRANCH   9  17ENDBRANCH   6   8BRANCH   5  19ATOM     19  N   UNL     1      37.583  44.824  18.217 -0.18 +0.06    -0.289 N  ATOM     20  C   UNL     1      38.505  45.733  18.670 -0.13 -0.04    +0.295 A  ATOM     21  C   UNL     1      37.237  44.044  19.301 -0.30 -0.01    +0.072 A  ATOM     22  N   UNL     1      38.789  45.605  19.935 -0.24 +0.00    -0.195 NA ATOM     23  C   UNL     1      36.360  42.967  19.497 -0.31 -0.00    +0.029 A  ATOM     24  C   UNL     1      38.013  44.554  20.348 -0.30 -0.00    +0.092 A  ATOM     25  C   UNL     1      36.289  42.406  20.778 -0.48 +0.00    +0.002 A  ATOM     26  C   UNL     1      37.927  43.978  21.626 -0.35 +0.00    +0.031 A  ATOM     27  C   UNL     1      37.059  42.901  21.828 -0.43 +0.00    +0.002 A  BRANCH  20  28ATOM     28  O   UNL     1      39.084  46.649  17.920 -0.17 +0.11    -0.480 OA ATOM     29  H   UNL     1      38.360  46.881  17.311 +0.18 -0.11    +0.296 HD ENDBRANCH  20  28ENDBRANCH   5  19TORSDOF 4TERENDMDL