REMARK SMILES CN1CC[C@@H](n2c(O)nc3ccccc32)[C@@H](n2c(O)nc3ccccc32)C1
REMARK SMILES IDX 1 1 2 2 3 3 4 4 5 5 16 6 27 7 17 8 18 9 26 10 20 11 25 12
REMARK SMILES IDX 21 13 24 14 22 15 23 16 19 17 6 19 7 20 15 21 9 22 14 23
REMARK SMILES IDX 10 24 13 25 11 26 12 27 8 28
REMARK H PARENT 19 18 8 29
ROOT
ATOM      1  C   UNL     1      -1.358   3.506   1.984  1.00  0.00     0.105 C 
ATOM      2  N   UNL     1      -0.461   2.633   1.232  1.00  0.00    -0.304 NA
ATOM      3  C   UNL     1       0.465   3.390   0.394  1.00  0.00     0.086 C 
ATOM      4  C   UNL     1       1.534   2.460  -0.188  1.00  0.00     0.043 C 
ATOM      5  C   UNL     1       0.949   1.198  -0.862  1.00  0.00     0.118 C 
ATOM      6  C   UNL     1      -0.596   1.201  -0.854  1.00  0.00     0.129 C 
ATOM      7  C   UNL     1      -1.207   1.586   0.506  1.00  0.00     0.112 C 
ENDROOT
BRANCH   6   8
ATOM      8  N   UNL     1      -1.227   0.078  -1.532  1.00  0.00    -0.288 N 
ATOM      9  C   UNL     1      -1.605   0.112  -2.850  1.00  0.00     0.295 A 
ATOM     10  C   UNL     1      -1.576  -1.168  -1.055  1.00  0.00     0.072 A 
ATOM     11  N   UNL     1      -2.191  -0.978  -3.255  1.00  0.00    -0.195 NA
ATOM     12  C   UNL     1      -1.433  -1.828   0.173  1.00  0.00     0.029 A 
ATOM     13  C   UNL     1      -2.177  -1.795  -2.154  1.00  0.00     0.092 A 
ATOM     14  C   UNL     1      -1.922  -3.136   0.274  1.00  0.00     0.002 A 
ATOM     15  C   UNL     1      -2.667  -3.105  -2.030  1.00  0.00     0.031 A 
ATOM     16  C   UNL     1      -2.534  -3.767  -0.807  1.00  0.00     0.002 A 
BRANCH   9  17
ATOM     17  O   UNL     1      -1.412   1.135  -3.658  1.00  0.00    -0.480 OA
ATOM     18  H   UNL     1      -1.777   0.784  -4.492  1.00  0.00     0.296 HD
ENDBRANCH   9  17
ENDBRANCH   6   8
BRANCH   5  19
ATOM     19  N   UNL     1       1.573  -0.048  -0.432  1.00  0.00    -0.289 N 
ATOM     20  C   UNL     1       2.042  -1.000  -1.301  1.00  0.00     0.295 A 
ATOM     21  C   UNL     1       1.815  -0.526   0.840  1.00  0.00     0.072 A 
ATOM     22  N   UNL     1       2.552  -2.043  -0.710  1.00  0.00    -0.195 NA
ATOM     23  C   UNL     1       1.582  -0.038   2.134  1.00  0.00     0.029 A 
ATOM     24  C   UNL     1       2.416  -1.772   0.626  1.00  0.00     0.092 A 
ATOM     25  C   UNL     1       1.964  -0.843   3.215  1.00  0.00     0.002 A 
ATOM     26  C   UNL     1       2.792  -2.563   1.723  1.00  0.00     0.031 A 
ATOM     27  C   UNL     1       2.559  -2.087   3.016  1.00  0.00     0.002 A 
BRANCH  20  28
ATOM     28  O   UNL     1       1.981  -0.909  -2.614  1.00  0.00    -0.480 OA
ATOM     29  H   UNL     1       2.336  -1.776  -2.882  1.00  0.00     0.296 HD
ENDBRANCH  20  28
ENDBRANCH   5  19
TORSDOF 4
