MODEL        4USER    Run = 4USERUSER    Estimated Free Energy of Binding    =  -9.27 kcal/mol  [=(1)+(2)+(3)-(4)]USERUSER    (1) Final Intermolecular Energy     = -11.35 kcal/molUSER        vdW + Hbond + desolv Energy     = -11.22 kcal/molUSER        Electrostatic Energy            =  -0.13 kcal/molUSER        Moving Ligand-Fixed Receptor    = -11.35 kcal/molUSER        Moving Ligand-Moving Receptor   =  +0.00 kcal/molUSER    (2) Final Total Internal Energy     =  -1.05 kcal/molUSER    (3) Torsional Free Energy           =  +2.09 kcal/molUSER    (4) Unbound System's Energy         =  -1.05 kcal/molUSERUSERREMARK SMILES CO[C@@H]1CCCN(c2cc(Nc3cc(C)[nH]n3)nc(C)c2CCO)C1REMARK SMILES IDX 8 1 9 2 10 3 18 4 19 5 20 6 21 7 7 8 3 9 4 10 25 11 5 12REMARK SMILES IDX 6 13 2 14 1 15 22 16 23 17 24 18 11 20 12 22 13 23 17 24REMARK SMILES IDX 14 25 16 26 15 27REMARK H PARENT 24 19 11 21 16 28USER                              x       y       z     vdW  Elec       q    TypeUSER                           _______ _______ _______ _____ _____    ______ ____ROOTATOM      1  C   UNL     1      37.567  45.941  15.542 -0.34 -0.02    +0.046 A  ATOM      2  C   UNL     1      38.735  46.712  15.491 -0.38 -0.02    +0.073 A  ATOM      3  C   UNL     1      39.531  46.853  16.614 -0.37 -0.03    +0.133 A  ATOM      4  N   UNL     1      39.206  46.254  17.780 -0.28 +0.04    -0.236 NA ATOM      5  C   UNL     1      38.080  45.501  17.844 -0.35 -0.01    +0.045 A  ATOM      6  C   UNL     1      37.809  44.885  19.187 -0.34 -0.01    +0.067 C  ATOM      7  C   UNL     1      37.230  45.303  16.749 -0.35 +0.00    -0.001 A  ENDROOTBRANCH   1   8ATOM      8  N   UNL     1      36.739  45.780  14.410 -0.13 +0.17    -0.369 N  ATOM      9  C   UNL     1      36.596  45.215  12.005 -0.51 -0.05    +0.137 C  ATOM     10  C   UNL     1      36.184  46.647  11.625 -0.64 -0.02    +0.036 C  ATOM     11  C   UNL     1      37.494  45.244  13.255 -0.34 -0.05    +0.148 C  ATOM     12  C   UNL     1      36.189  47.612  12.812 -0.70 -0.01    +0.024 C  ATOM     13  C   UNL     1      35.841  46.916  14.125 -0.41 -0.09    +0.117 C  BRANCH   9  14ATOM     14  O   UNL     1      37.247  44.641  10.865 -0.17 +0.10    -0.380 OA ATOM     15  C   UNL     1      37.288  43.220  10.898 -0.42 -0.06    +0.195 C  ENDBRANCH   9  14ENDBRANCH   1   8BRANCH   7  16ATOM     16  C   UNL     1      35.964  44.486  16.860 -0.33 -0.03    +0.068 C  BRANCH  16  17ATOM     17  C   UNL     1      36.111  43.102  16.231 -0.38 -0.06    +0.161 C  BRANCH  17  18ATOM     18  O   UNL     1      35.383  42.136  16.988 -0.28 +0.17    -0.396 OA ATOM     19  H   UNL     1      35.262  41.355  16.423 -0.39 -0.15    +0.210 HD ENDBRANCH  17  18ENDBRANCH  16  17ENDBRANCH   7  16BRANCH   3  20ATOM     20  N   UNL     1      40.708  47.600  16.657 -0.28 +0.05    -0.323 N  ATOM     21  H   UNL     1      41.298  47.183  17.367 -0.02 -0.02    +0.170 HD BRANCH  20  22ATOM     22  C   UNL     1      41.135  48.681  15.977 -0.42 -0.01    +0.153 A  ATOM     23  C   UNL     1      41.345  48.630  14.575 -0.38 -0.01    +0.071 A  ATOM     24  N   UNL     1      41.420  49.898  16.450 -1.03 +0.01    -0.158 NA ATOM     25  C   UNL     1      41.772  49.887  14.212 -0.66 -0.01    +0.034 A  ATOM     26  N   UNL     1      41.796  50.603  15.374 -0.42 +0.05    -0.281 N  ATOM     27  C   UNL     1      42.152  50.472  12.909 -0.62 -0.02    +0.066 C  ATOM     28  H   UNL     1      42.058  51.574  15.507 -0.27 -0.06    +0.190 HD ENDBRANCH  20  22ENDBRANCH   3  20TORSDOF 7TERENDMDL