REMARK SMILES CO[C@@H]1CCCN(c2cc(Nc3cc(C)[nH]n3)nc(C)c2CCO)C1
REMARK SMILES IDX 8 1 9 2 10 3 18 4 19 5 20 6 21 7 7 8 3 9 4 10 25 11 5 12
REMARK SMILES IDX 6 13 2 14 1 15 22 16 23 17 24 18 11 20 12 22 13 23 17 24
REMARK SMILES IDX 14 25 16 26 15 27
REMARK H PARENT 24 19 11 21 16 28
ROOT
ATOM      1  C   UNL     1      -0.348  -0.805   0.249  1.00  0.00     0.046 A 
ATOM      2  C   UNL     1       0.866  -0.188  -0.078  1.00  0.00     0.073 A 
ATOM      3  C   UNL     1       1.980  -0.951  -0.380  1.00  0.00     0.133 A 
ATOM      4  N   UNL     1       1.927  -2.300  -0.369  1.00  0.00    -0.236 NA
ATOM      5  C   UNL     1       0.757  -2.912  -0.057  1.00  0.00     0.045 A 
ATOM      6  C   UNL     1       0.808  -4.413  -0.069  1.00  0.00     0.067 C 
ATOM      7  C   UNL     1      -0.415  -2.210   0.249  1.00  0.00    -0.001 A 
ENDROOT
BRANCH   1   8
ATOM      8  N   UNL     1      -1.500  -0.049   0.559  1.00  0.00    -0.369 N 
ATOM      9  C   UNL     1      -3.323   1.398  -0.281  1.00  0.00     0.137 C 
ATOM     10  C   UNL     1      -2.784   2.626   0.470  1.00  0.00     0.036 C 
ATOM     11  C   UNL     1      -2.158   0.466  -0.662  1.00  0.00     0.148 C 
ATOM     12  C   UNL     1      -1.459   2.362   1.188  1.00  0.00     0.024 C 
ATOM     13  C   UNL     1      -1.336   0.917   1.663  1.00  0.00     0.117 C 
BRANCH   9  14
ATOM     14  O   UNL     1      -4.048   1.877  -1.420  1.00  0.00    -0.380 OA
ATOM     15  C   UNL     1      -4.944   0.915  -1.962  1.00  0.00     0.195 C 
ENDBRANCH   9  14
ENDBRANCH   1   8
BRANCH   7  16
ATOM     16  C   UNL     1      -1.695  -2.919   0.625  1.00  0.00     0.068 C 
BRANCH  16  17
ATOM     17  C   UNL     1      -1.880  -3.016   2.138  1.00  0.00     0.161 C 
BRANCH  17  18
ATOM     18  O   UNL     1      -3.025  -3.809   2.445  1.00  0.00    -0.396 OA
ATOM     19  H   UNL     1      -2.845  -4.712   2.135  1.00  0.00     0.210 HD
ENDBRANCH  17  18
ENDBRANCH  16  17
ENDBRANCH   7  16
BRANCH   3  20
ATOM     20  N   UNL     1       3.227  -0.425  -0.715  1.00  0.00    -0.323 N 
ATOM     21  H   UNL     1       3.844  -1.210  -0.887  1.00  0.00     0.170 HD
BRANCH  20  22
ATOM     22  C   UNL     1       3.694   0.834  -0.827  1.00  0.00     0.153 A 
ATOM     23  C   UNL     1       5.040   1.086  -1.196  1.00  0.00     0.071 A 
ATOM     24  N   UNL     1       3.039   1.981  -0.627  1.00  0.00    -0.158 NA
ATOM     25  C   UNL     1       5.175   2.456  -1.216  1.00  0.00     0.034 A 
ATOM     26  N   UNL     1       3.946   2.938  -0.869  1.00  0.00    -0.281 N 
ATOM     27  C   UNL     1       6.319   3.340  -1.522  1.00  0.00     0.066 C 
ATOM     28  H   UNL     1       3.655   3.906  -0.777  1.00  0.00     0.190 HD
ENDBRANCH  20  22
ENDBRANCH   3  20
TORSDOF 7
