REMARK SMILES Cc1cc(Nc2cc(N3CCC[C@H](Cl)C3)c(CCOC(N)=O)c(C)n2)n[nH]1
REMARK SMILES IDX 17 1 16 2 6 3 7 4 25 5 8 6 23 7 24 8 5 9 4 11 2 12 3 13
REMARK SMILES IDX 27 14 26 15 1 16 9 18 10 19 15 20 11 21 13 22 12 23 14 24
REMARK SMILES IDX 18 25 19 26 20 27 21 28 22 29
REMARK H PARENT 5 10 27 17 21 30 21 31
ROOT
ATOM      1  C   UNL     1      -1.739   1.685   0.930  1.00  0.00     0.081 C 
ENDROOT
BRANCH   1   2
ATOM      2  C   UNL     1      -0.432   0.988   0.628  1.00  0.00     0.000 A 
ATOM      3  C   UNL     1       1.987  -0.230   0.001  1.00  0.00     0.133 A 
ATOM      4  C   UNL     1       0.815  -0.979  -0.011  1.00  0.00     0.073 A 
ATOM      5  N   UNL     1       1.968   1.075   0.326  1.00  0.00    -0.236 NA
ATOM      6  C   UNL     1      -0.410  -0.381   0.306  1.00  0.00     0.046 A 
ATOM      7  C   UNL     1       0.790   1.672   0.630  1.00  0.00     0.045 A 
ATOM      8  C   UNL     1       0.899   3.126   0.986  1.00  0.00     0.067 C 
BRANCH   3   9
ATOM      9  N   UNL     1       3.191  -0.887  -0.341  1.00  0.00    -0.323 N 
ATOM     10  H   UNL     1       3.246  -1.769   0.149  1.00  0.00     0.170 HD
BRANCH   9  11
ATOM     11  C   UNL     1       4.356  -0.329  -0.744  1.00  0.00     0.153 A 
ATOM     12  C   UNL     1       6.550  -0.162  -1.112  1.00  0.00     0.034 A 
ATOM     13  C   UNL     1       5.596  -0.997  -0.573  1.00  0.00     0.071 A 
ATOM     14  N   UNL     1       5.854   0.922  -1.566  1.00  0.00    -0.281 N 
ATOM     15  N   UNL     1       4.532   0.827  -1.387  1.00  0.00    -0.158 NA
ATOM     16  C   UNL     1       8.018  -0.276  -1.230  1.00  0.00     0.066 C 
ATOM     17  H   UNL     1       6.211   1.753  -2.023  1.00  0.00     0.190 HD
ENDBRANCH   9  11
ENDBRANCH   3   9
BRANCH   6  18
ATOM     18  N   UNL     1      -1.610  -1.121   0.318  1.00  0.00    -0.370 N 
ATOM     19  C   UNL     1      -1.613  -2.238   1.267  1.00  0.00     0.116 C 
ATOM     20  C   UNL     1      -2.095  -1.471  -1.040  1.00  0.00     0.136 C 
ATOM     21  C   UNL     1      -3.061  -2.660   1.538  1.00  0.00     0.023 C 
ATOM     22  C   UNL     1      -3.298  -2.436  -0.995  1.00  0.00     0.100 C 
ATOM     23  C   UNL     1      -4.007  -2.405   0.358  1.00  0.00     0.023 C 
ATOM     24  Cl  UNL     1      -2.767  -4.121  -1.353  1.00  0.00    -0.121 Cl
ENDBRANCH   6  18
ENDBRANCH   1   2
BRANCH   1  25
ATOM     25  C   UNL     1      -2.345   2.345  -0.307  1.00  0.00     0.240 C 
BRANCH  25  26
ATOM     26  O   UNL     1      -3.652   2.856   0.006  1.00  0.00    -0.449 OA
BRANCH  26  27
ATOM     27  C   UNL     1      -4.689   2.045  -0.298  1.00  0.00     0.404 C 
ATOM     28  N   UNL     1      -5.849   2.634   0.064  1.00  0.00    -0.335 N 
ATOM     29  O   UNL     1      -4.633   0.945  -0.824  1.00  0.00    -0.225 OA
ATOM     30  H   UNL     1      -6.720   2.165  -0.133  1.00  0.00     0.163 HD
ATOM     31  H   UNL     1      -5.839   3.560   0.459  1.00  0.00     0.163 HD
ENDBRANCH  26  27
ENDBRANCH  25  26
ENDBRANCH   1  25
TORSDOF 7
