REMARK SMILES Cc1cc(Nc2cc(N3CCC[C@H](F)C3)c(CCO)c(C)n2)n[nH]1
REMARK SMILES IDX 6 1 7 2 8 3 16 4 20 5 21 6 22 7 5 8 4 10 2 11 3 12 24 13
REMARK SMILES IDX 23 14 1 15 9 17 10 18 15 19 11 20 13 21 12 22 14 23 17 24
REMARK SMILES IDX 18 25 19 26
REMARK H PARENT 5 9 24 16 19 27
ROOT
ATOM      1  C   UNL     1       1.693  -0.747  -0.573  1.00  0.00     0.133 A 
ATOM      2  C   UNL     1       0.631   0.051  -0.190  1.00  0.00     0.073 A 
ATOM      3  C   UNL     1      -0.697  -0.373  -0.367  1.00  0.00     0.046 A 
ATOM      4  C   UNL     1      -0.929  -1.636  -0.944  1.00  0.00    -0.001 A 
ATOM      5  C   UNL     1       0.206  -2.371  -1.340  1.00  0.00     0.045 A 
ATOM      6  C   UNL     1       0.113  -3.690  -2.058  1.00  0.00     0.067 C 
ATOM      7  N   UNL     1       1.481  -1.945  -1.147  1.00  0.00    -0.236 NA
ENDROOT
BRANCH   1   8
ATOM      8  N   UNL     1       3.036  -0.406  -0.426  1.00  0.00    -0.323 N 
ATOM      9  H   UNL     1       3.577  -1.181  -0.788  1.00  0.00     0.170 HD
BRANCH   8  10
ATOM     10  C   UNL     1       3.663   0.679   0.068  1.00  0.00     0.153 A 
ATOM     11  C   UNL     1       5.379   1.974   0.664  1.00  0.00     0.034 A 
ATOM     12  C   UNL     1       5.079   0.752   0.107  1.00  0.00     0.071 A 
ATOM     13  N   UNL     1       4.169   2.552   0.920  1.00  0.00    -0.281 N 
ATOM     14  N   UNL     1       3.123   1.794   0.566  1.00  0.00    -0.158 NA
ATOM     15  C   UNL     1       6.661   2.640   0.975  1.00  0.00     0.066 C 
ATOM     16  H   UNL     1       3.982   3.459   1.334  1.00  0.00     0.190 HD
ENDBRANCH   8  10
ENDBRANCH   1   8
BRANCH   3  17
ATOM     17  N   UNL     1      -1.677   0.549   0.010  1.00  0.00    -0.368 N 
ATOM     18  C   UNL     1      -2.611   0.191   1.071  1.00  0.00     0.117 C 
ATOM     19  C   UNL     1      -2.211   1.378  -1.083  1.00  0.00     0.154 C 
ATOM     20  C   UNL     1      -3.041   1.475   1.789  1.00  0.00     0.024 C 
ATOM     21  C   UNL     1      -3.386   2.248  -0.611  1.00  0.00     0.186 C 
ATOM     22  C   UNL     1      -3.238   2.671   0.845  1.00  0.00     0.041 C 
ATOM     23  F   UNL     1      -4.545   1.533  -0.728  1.00  0.00    -0.246 F 
ENDBRANCH   3  17
BRANCH   4  24
ATOM     24  C   UNL     1      -2.320  -2.191  -1.188  1.00  0.00     0.068 C 
BRANCH  24  25
ATOM     25  C   UNL     1      -2.730  -3.313  -0.226  1.00  0.00     0.161 C 
BRANCH  25  26
ATOM     26  O   UNL     1      -3.210  -2.797   1.009  1.00  0.00    -0.396 OA
ATOM     27  H   UNL     1      -3.369  -3.557   1.594  1.00  0.00     0.210 HD
ENDBRANCH  25  26
ENDBRANCH  24  25
ENDBRANCH   4  24
TORSDOF 6
