MODEL        5USER    Run = 5USERUSER    Estimated Free Energy of Binding    = -10.33 kcal/mol  [=(1)+(2)+(3)-(4)]USERUSER    (1) Final Intermolecular Energy     = -12.41 kcal/molUSER        vdW + Hbond + desolv Energy     = -12.11 kcal/molUSER        Electrostatic Energy            =  -0.30 kcal/molUSER        Moving Ligand-Fixed Receptor    = -12.41 kcal/molUSER        Moving Ligand-Moving Receptor   =  +0.00 kcal/molUSER    (2) Final Total Internal Energy     =  -1.29 kcal/molUSER    (3) Torsional Free Energy           =  +2.09 kcal/molUSER    (4) Unbound System's Energy         =  -1.29 kcal/molUSERUSERREMARK SMILES Cc1cc(Nc2cc(N3CCC[C@H](Cl)C3)c(CCOC(N)=O)c(C)n2)n[nH]1REMARK SMILES IDX 17 1 16 2 6 3 7 4 25 5 8 6 23 7 24 8 5 9 4 11 2 12 3 13REMARK SMILES IDX 27 14 26 15 1 16 9 18 10 19 15 20 11 21 13 22 12 23 14 24REMARK SMILES IDX 18 25 19 26 20 27 21 28 22 29REMARK H PARENT 5 10 27 17 21 30 21 31USER                              x       y       z     vdW  Elec       q    TypeUSER                           _______ _______ _______ _____ _____    ______ ____ROOTATOM      1  C   UNL     1      39.182  45.572  17.482 -0.41 -0.01    +0.081 C  ENDROOTBRANCH   1   2ATOM      2  C   UNL     1      39.845  46.810  16.923 -0.48 -0.00    +0.000 A  ATOM      3  C   UNL     1      41.052  49.130  15.982 -0.50 -0.02    +0.133 A  ATOM      4  C   UNL     1      39.927  48.629  15.336 -0.51 -0.03    +0.073 A  ATOM      5  N   UNL     1      41.574  48.499  17.049 -0.77 -0.00    -0.236 NA ATOM      6  C   UNL     1      39.310  47.460  15.796 -0.46 -0.01    +0.046 A  ATOM      7  C   UNL     1      40.986  47.369  17.511 -0.49 -0.01    +0.045 A  ATOM      8  C   UNL     1      41.665  46.751  18.698 -0.54 +0.00    +0.067 C  BRANCH   3   9ATOM      9  N   UNL     1      41.623  50.322  15.478 -0.40 +0.05    -0.323 N  ATOM     10  H   UNL     1      41.154  51.119  15.884 -0.37 -0.08    +0.170 HD BRANCH   9  11ATOM     11  C   UNL     1      42.246  50.507  14.291 -0.50 -0.03    +0.153 A  ATOM     12  C   UNL     1      43.671  51.392  12.820 -0.36 -0.02    +0.034 A  ATOM     13  C   UNL     1      43.244  51.501  14.126 -0.19 -0.02    +0.071 A  ATOM     14  N   UNL     1      42.933  50.370  12.293 -0.43 +0.12    -0.281 N  ATOM     15  N   UNL     1      42.097  49.802  13.168 -0.50 +0.03    -0.158 NA ATOM     16  C   UNL     1      44.672  52.142  12.035 -0.42 -0.03    +0.066 C  ATOM     17  H   UNL     1      42.960  49.995  11.352 -0.38 -0.12    +0.190 HD ENDBRANCH   9  11ENDBRANCH   3   9BRANCH   6  18ATOM     18  N   UNL     1      38.178  46.921  15.151 -0.13 +0.15    -0.370 N  ATOM     19  C   UNL     1      38.413  45.617  14.524 -0.36 -0.03    +0.116 C  ATOM     20  C   UNL     1      37.479  47.900  14.282 -0.49 -0.07    +0.136 C  ATOM     21  C   UNL     1      37.065  44.930  14.280 -0.43 -0.01    +0.023 C  ATOM     22  C   UNL     1      36.364  47.240  13.445 -0.56 -0.06    +0.100 C  ATOM     23  C   UNL     1      35.909  45.910  14.045 -0.48 -0.01    +0.023 C  ATOM     24  Cl  UNL     1      36.922  46.972  11.752 -0.85 +0.04    -0.121 Cl ENDBRANCH   6  18ENDBRANCH   1   2BRANCH   1  25ATOM     25  C   UNL     1      37.880  45.890  18.215 -0.13 -0.06    +0.240 C  BRANCH  25  26ATOM     26  O   UNL     1      36.760  45.450  17.429 -0.10 +0.17    -0.449 OA BRANCH  26  27ATOM     27  C   UNL     1      35.541  45.820  17.881 -0.14 -0.21    +0.404 C  ATOM     28  N   UNL     1      35.133  46.932  17.233 -0.09 +0.43    -0.335 N  ATOM     29  O   UNL     1      34.874  45.262  18.738 -0.33 +0.08    -0.225 OA ATOM     30  H   UNL     1      34.221  47.312  17.437 -0.37 -0.33    +0.163 HD ATOM     31  H   UNL     1      35.707  47.329  16.508 +0.08 -0.24    +0.163 HD ENDBRANCH  26  27ENDBRANCH  25  26ENDBRANCH   1  25TORSDOF 7TERENDMDL