MODEL        10USER    Run = 10USERUSER    Estimated Free Energy of Binding    =  -8.50 kcal/mol  [=(1)+(2)+(3)-(4)]USERUSER    (1) Final Intermolecular Energy     = -10.29 kcal/molUSER        vdW + Hbond + desolv Energy     = -10.09 kcal/molUSER        Electrostatic Energy            =  -0.20 kcal/molUSER        Moving Ligand-Fixed Receptor    = -10.29 kcal/molUSER        Moving Ligand-Moving Receptor   =  +0.00 kcal/molUSER    (2) Final Total Internal Energy     =  -0.87 kcal/molUSER    (3) Torsional Free Energy           =  +1.79 kcal/molUSER    (4) Unbound System's Energy         =  -0.87 kcal/molUSERUSERREMARK SMILES Cc1cc(Nc2cc(N3CCC[C@H](F)C3)c(CCO)c(C)n2)n[nH]1REMARK SMILES IDX 6 1 7 2 8 3 16 4 20 5 21 6 22 7 5 8 4 10 2 11 3 12 24 13REMARK SMILES IDX 23 14 1 15 9 17 10 18 15 19 11 20 13 21 12 22 14 23 17 24REMARK SMILES IDX 18 25 19 26REMARK H PARENT 5 9 24 16 19 27USER                              x       y       z     vdW  Elec       q    TypeUSER                           _______ _______ _______ _____ _____    ______ ____ROOTATOM      1  C   UNL     1      40.694  48.983  15.750 -0.51 -0.03    +0.133 A  ATOM      2  C   UNL     1      39.616  48.557  14.997 -0.49 -0.03    +0.073 A  ATOM      3  C   UNL     1      38.818  47.478  15.416 -0.45 -0.02    +0.046 A  ATOM      4  C   UNL     1      39.137  46.836  16.627 -0.44 +0.00    -0.001 A  ATOM      5  C   UNL     1      40.272  47.307  17.316 -0.47 -0.01    +0.045 A  ATOM      6  C   UNL     1      40.793  46.658  18.569 -0.49 -0.00    +0.067 C  ATOM      7  N   UNL     1      41.021  48.359  16.897 -0.53 +0.03    -0.236 NA ENDROOTBRANCH   1   8ATOM      8  N   UNL     1      41.529  50.045  15.411 -0.40 +0.05    -0.323 N  ATOM      9  H   UNL     1      41.508  50.694  16.187 -0.30 -0.04    +0.170 HD BRANCH   8  10ATOM     10  C   UNL     1      42.282  50.316  14.328 -0.51 -0.03    +0.153 A  ATOM     11  C   UNL     1      43.654  51.484  13.012 -0.32 -0.02    +0.034 A  ATOM     12  C   UNL     1      43.006  51.532  14.225 -0.05 -0.02    +0.071 A  ATOM     13  N   UNL     1      43.300  50.283  12.469 -0.36 +0.13    -0.281 N  ATOM     14  N   UNL     1      42.480  49.561  13.244 -0.52 +0.03    -0.158 NA ATOM     15  C   UNL     1      44.553  52.434  12.324 -0.36 -0.03    +0.066 C  ATOM     16  H   UNL     1      43.580  49.891  11.577 -0.34 -0.16    +0.190 HD ENDBRANCH   8  10ENDBRANCH   1   8BRANCH   3  17ATOM     17  N   UNL     1      37.794  47.112  14.538 -0.15 +0.17    -0.368 N  ATOM     18  C   UNL     1      37.863  45.815  13.876 -0.40 -0.04    +0.117 C  ATOM     19  C   UNL     1      37.211  48.217  13.759 -0.50 -0.08    +0.154 C  ATOM     20  C   UNL     1      36.433  45.333  13.608 -0.48 -0.01    +0.024 C  ATOM     21  C   UNL     1      36.208  47.705  12.714 -0.57 -0.09    +0.186 C  ATOM     22  C   UNL     1      35.474  46.457  13.187 -0.56 -0.03    +0.041 C  ATOM     23  F   UNL     1      36.882  47.391  11.567 -0.21 +0.09    -0.246 F  ENDBRANCH   3  17BRANCH   4  24ATOM     24  C   UNL     1      38.349  45.659  17.172 -0.40 -0.02    +0.068 C  BRANCH  24  25ATOM     25  C   UNL     1      36.834  45.887  17.233 -0.30 -0.07    +0.161 C  BRANCH  25  26ATOM     26  O   UNL     1      36.284  45.438  18.465 -0.13 +0.12    -0.396 OA ATOM     27  H   UNL     1      35.369  45.763  18.506 +0.13 -0.09    +0.210 HD ENDBRANCH  25  26ENDBRANCH  24  25ENDBRANCH   4  24TORSDOF 6TERENDMDL