MODEL        7USER    Run = 7USERUSER    Estimated Free Energy of Binding    = -13.28 kcal/mol  [=(1)+(2)+(3)-(4)]USERUSER    (1) Final Intermolecular Energy     = -14.78 kcal/molUSER        vdW + Hbond + desolv Energy     = -14.69 kcal/molUSER        Electrostatic Energy            =  -0.09 kcal/molUSER        Moving Ligand-Fixed Receptor    = -14.78 kcal/molUSER        Moving Ligand-Moving Receptor   =  +0.00 kcal/molUSER    (2) Final Total Internal Energy     =  -1.85 kcal/molUSER    (3) Torsional Free Energy           =  +1.49 kcal/molUSER    (4) Unbound System's Energy         =  -1.85 kcal/molUSERUSERREMARK SMILES Cn1nc(-c2ccc(-n3ccnn3)c(CN3CCOCC3)c2)c2cc(-c3ccc4[nH]nc(F)c4c3)ncc21REMARK SMILES IDX 1 1 2 2 3 3 4 4 23 5 24 6 25 7 36 8 37 9 38 10 5 11 6 12REMARK SMILES IDX 22 13 7 14 14 15 8 16 15 17 16 18 17 19 21 20 18 21 20 22REMARK SMILES IDX 19 23 9 24 10 25 13 26 11 27 12 28 26 29 27 30 35 31 28 32REMARK SMILES IDX 34 33 29 34 32 35 30 36 31 37 33 38REMARK H PARENT 30 39USER                              x       y       z     vdW  Elec       q    TypeUSER                           _______ _______ _______ _____ _____    ______ ____ROOTATOM      1  C   UNL     1      37.727  42.719  21.792 -0.29 +0.01    +0.174 C  ATOM      2  N   UNL     1      37.439  43.502  20.613 -0.20 +0.00    -0.266 N  ATOM      3  N   UNL     1      38.405  44.277  20.090 -0.25 +0.00    -0.172 NA ATOM      4  C   UNL     1      37.826  44.867  19.032 -0.29 -0.01    +0.100 A  ATOM      5  C   UNL     1      36.479  44.418  18.869 -0.34 -0.01    +0.032 A  ATOM      6  C   UNL     1      35.435  44.642  17.955 -0.30 -0.01    +0.041 A  ATOM      7  C   UNL     1      34.219  43.995  18.178 -0.27 -0.02    +0.071 A  ATOM      8  N   UNL     1      34.040  43.150  19.230 -0.28 +0.03    -0.254 NA ATOM      9  C   UNL     1      35.043  42.906  20.106 -0.33 -0.00    +0.140 A  ATOM     10  C   UNL     1      36.258  43.542  19.924 -0.35 -0.01    +0.087 A  ENDROOTBRANCH   4  11ATOM     11  C   UNL     1      38.563  45.833  18.218 -0.38 -0.00    +0.003 A  ATOM     12  C   UNL     1      39.927  46.038  18.405 -0.45 -0.00    +0.013 A  ATOM     13  C   UNL     1      37.913  46.556  17.215 -0.30 -0.01    +0.017 A  ATOM     14  C   UNL     1      40.618  46.967  17.619 -0.50 -0.00    +0.029 A  ATOM     15  C   UNL     1      38.585  47.500  16.391 -0.40 +0.00    -0.007 A  ATOM     16  C   UNL     1      39.968  47.717  16.612 -0.45 -0.02    +0.071 A  BRANCH  15  17ATOM     17  C   UNL     1      37.710  48.147  15.328 -0.47 -0.09    +0.122 C  BRANCH  17  18ATOM     18  N   UNL     1      37.893  47.553  13.991 -0.32 +0.12    -0.294 NA ATOM     19  C   UNL     1      38.088  46.086  14.025 -0.40 -0.03    +0.113 C  ATOM     20  C   UNL     1      36.739  47.896  13.128 -0.59 -0.05    +0.113 C  ATOM     21  C   UNL     1      36.799  45.292  13.762 -0.38 -0.07    +0.175 C  ATOM     22  C   UNL     1      36.545  46.883  11.992 -0.62 -0.07    +0.175 C  ATOM     23  O   UNL     1      36.220  45.571  12.477 -0.31 +0.16    -0.379 OA ENDBRANCH  17  18ENDBRANCH  15  17BRANCH  16  24ATOM     24  N   UNL     1      40.753  48.663  15.879 -0.41 +0.04    -0.220 N  ATOM     25  C   UNL     1      40.977  48.719  14.514 -0.40 -0.02    +0.137 A  ATOM     26  N   UNL     1      41.451  49.667  16.460 -1.17 -0.00    -0.062 NA ATOM     27  C   UNL     1      41.812  49.793  14.329 -0.53 -0.03    +0.157 A  ATOM     28  N   UNL     1      42.089  50.360  15.530 -0.80 +0.00    -0.139 NA ENDBRANCH  16  24ENDBRANCH   4  11BRANCH   7  29ATOM     29  C   UNL     1      33.035  44.171  17.296 -0.31 -0.00    +0.001 A  ATOM     30  C   UNL     1      31.818  43.522  17.595 -0.29 -0.00    +0.012 A  ATOM     31  C   UNL     1      33.072  44.995  16.150 -0.32 -0.02    +0.025 A  ATOM     32  C   UNL     1      30.661  43.656  16.810 -0.26 -0.01    +0.029 A  ATOM     33  C   UNL     1      31.926  45.141  15.341 -0.36 -0.04    +0.057 A  ATOM     34  C   UNL     1      30.757  44.477  15.688 -0.31 -0.03    +0.068 A  ATOM     35  C   UNL     1      31.587  45.842  14.166 -0.32 -0.17    +0.240 A  ATOM     36  N   UNL     1      29.842  44.826  14.727 -0.11 +0.25    -0.275 N  ATOM     37  N   UNL     1      30.323  45.657  13.784 -0.39 +0.13    -0.144 NA ATOM     38  F   UNL     1      32.447  46.618  13.490 -0.06 +0.15    -0.182 F  ATOM     39  H   UNL     1      28.874  44.533  14.661 -0.20 -0.27    +0.190 HD ENDBRANCH   7  29TORSDOF 5TERENDMDL