MODEL        5USER    Run = 5USERUSER    Estimated Free Energy of Binding    = -12.99 kcal/mol  [=(1)+(2)+(3)-(4)]USERUSER    (1) Final Intermolecular Energy     = -14.78 kcal/molUSER        vdW + Hbond + desolv Energy     = -14.70 kcal/molUSER        Electrostatic Energy            =  -0.08 kcal/molUSER        Moving Ligand-Fixed Receptor    = -14.78 kcal/molUSER        Moving Ligand-Moving Receptor   =  +0.00 kcal/molUSER    (2) Final Total Internal Energy     =  -1.81 kcal/molUSER    (3) Torsional Free Energy           =  +1.79 kcal/molUSER    (4) Unbound System's Energy         =  -1.81 kcal/molUSERUSERREMARK SMILES Oc1nc2ccccc2n1C1CCN(Cc2ccc(-c3nc4ccccc4nc3-c3ccccc3)cc2)CC1REMARK SMILES IDX 11 1 12 2 13 3 14 4 38 5 39 6 10 7 2 8 3 9 4 10 9 11 5 12REMARK SMILES IDX 8 13 6 14 7 15 1 16 15 18 16 19 17 20 37 21 18 22 36 23REMARK SMILES IDX 19 24 20 25 21 26 29 27 22 28 28 29 23 30 27 31 24 32 26 33REMARK SMILES IDX 25 34 30 35 31 36 35 37 32 38 34 39 33 40REMARK H PARENT 1 17USER                              x       y       z     vdW  Elec       q    TypeUSER                           _______ _______ _______ _____ _____    ______ ____ROOTATOM      1  C   UNL     1      38.968  47.419  15.457 -0.47 -0.03    +0.095 C  ATOM      2  C   UNL     1      37.830  46.889  16.345 -0.42 -0.02    +0.041 C  ATOM      3  C   UNL     1      36.456  47.289  15.809 -0.32 -0.09    +0.087 C  ATOM      4  N   UNL     1      36.317  47.130  14.358 -0.22 +0.22    -0.299 NA ATOM      5  C   UNL     1      37.337  47.874  13.601 -0.56 -0.04    +0.087 C  ATOM      6  C   UNL     1      38.469  48.462  14.450 -0.56 -0.02    +0.041 C  ENDROOTBRANCH   1   7ATOM      7  N   UNL     1      40.113  47.877  16.229 -0.30 +0.07    -0.291 N  ATOM      8  C   UNL     1      40.810  49.037  16.039 -0.34 -0.06    +0.295 A  ATOM      9  N   UNL     1      41.788  49.199  16.885 -0.88 -0.04    -0.195 NA ATOM     10  C   UNL     1      41.729  48.086  17.689 -0.35 -0.00    +0.092 A  ATOM     11  C   UNL     1      40.687  47.237  17.309 -0.47 -0.01    +0.072 A  ATOM     12  C   UNL     1      42.541  47.735  18.779 -0.51 +0.00    +0.031 A  ATOM     13  C   UNL     1      40.411  46.038  17.981 -0.46 -0.00    +0.029 A  ATOM     14  C   UNL     1      42.281  46.540  19.461 -0.45 +0.00    +0.002 A  ATOM     15  C   UNL     1      41.233  45.709  19.066 -0.46 +0.00    +0.002 A  BRANCH   8  16ATOM     16  O   UNL     1      40.540  49.932  15.111 -0.21 +0.21    -0.480 OA ATOM     17  H   UNL     1      39.772  50.388  15.501 -0.21 -0.22    +0.296 HD ENDBRANCH   8  16ENDBRANCH   1   7BRANCH   4  18ATOM     18  C   UNL     1      36.227  45.728  13.914 -0.42 -0.06    +0.120 C  BRANCH  18  19ATOM     19  C   UNL     1      35.527  44.817  14.898 -0.23 +0.02    -0.034 A  ATOM     20  C   UNL     1      34.236  45.112  15.351 -0.30 -0.00    +0.006 A  ATOM     21  C   UNL     1      36.166  43.670  15.385 -0.39 -0.00    +0.006 A  ATOM     22  C   UNL     1      33.592  44.263  16.258 -0.32 -0.01    +0.011 A  ATOM     23  C   UNL     1      35.521  42.824  16.289 -0.44 -0.00    +0.011 A  ATOM     24  C   UNL     1      34.215  43.095  16.730 -0.38 -0.00    +0.002 A  BRANCH  24  25ATOM     25  C   UNL     1      33.513  42.205  17.669 -0.32 -0.03    +0.097 A  ATOM     26  N   UNL     1      32.418  41.593  17.133 -0.06 +0.11    -0.244 NA ATOM     27  C   UNL     1      33.884  41.989  19.006 -0.30 -0.01    +0.097 A  ATOM     28  C   UNL     1      31.688  40.806  17.942 -0.32 -0.02    +0.089 A  ATOM     29  N   UNL     1      33.131  41.197  19.823 -0.05 -0.06    -0.244 NA ATOM     30  C   UNL     1      30.557  40.171  17.442 -0.34 -0.00    +0.030 A  ATOM     31  C   UNL     1      32.045  40.609  19.294 -0.29 +0.01    +0.089 A  ATOM     32  C   UNL     1      29.770  39.347  18.248 -0.34 +0.00    +0.002 A  ATOM     33  C   UNL     1      31.255  39.787  20.089 -0.29 +0.00    +0.030 A  ATOM     34  C   UNL     1      30.122  39.155  19.578 -0.32 +0.00    +0.002 A  BRANCH  27  35ATOM     35  C   UNL     1      35.085  42.546  19.657 -0.44 -0.00    +0.002 A  ATOM     36  C   UNL     1      35.500  43.860  19.375 -0.38 -0.00    +0.010 A  ATOM     37  C   UNL     1      35.833  41.811  20.594 -0.42 -0.00    +0.010 A  ATOM     38  C   UNL     1      36.633  44.409  19.983 -0.34 -0.00    +0.001 A  ATOM     39  C   UNL     1      36.968  42.356  21.200 -0.45 +0.00    +0.001 A  ATOM     40  C   UNL     1      37.369  43.654  20.893 -0.39 +0.00    +0.000 A  ENDBRANCH  27  35ENDBRANCH  24  25ENDBRANCH  18  19ENDBRANCH   4  18TORSDOF 6TERENDMDL