MODEL        4USER    Run = 4USERUSER    Estimated Free Energy of Binding    =  -6.49 kcal/mol  [=(1)+(2)+(3)-(4)]USERUSER    (1) Final Intermolecular Energy     = -10.97 kcal/molUSER        vdW + Hbond + desolv Energy     = -11.80 kcal/molUSER        Electrostatic Energy            =  +0.03 kcal/molUSER        Moving Ligand-Fixed Receptor    = -11.77 kcal/molUSER        Moving Ligand-Moving Receptor   =  +0.80 kcal/molUSER    (2) Final Total Internal Energy     =  -1.71 kcal/molUSER    (3) Torsional Free Energy           =  +4.47 kcal/molUSER    (4) Unbound System's Energy         =  -1.71 kcal/molUSERUSERREMARK SMILES COc1ccc(O)c(C(=O)c2ccc(NC[C@@H]3CCCNC[C@@H]3NC(=O)c3ccncc3)cc2)c1FREMARK SMILES IDX 16 1 15 2 14 4 11 5 12 6 34 7 13 8 33 9 9 10 10 11 8 12 3 13REMARK SMILES IDX 4 14 35 15 5 16 6 17 36 18 2 19 1 20 7 21 17 23 18 24 23 26REMARK SMILES IDX 22 27 21 28 20 30 19 31 24 33 25 34 26 36 27 37 28 38 32 39REMARK SMILES IDX 29 40 31 41 30 42REMARK H PARENT 15 3 7 22 21 29 24 35REMARK Flexibility Score:   99.900USER                              x       y       z     vdW  Elec       q    TypeUSER                           _______ _______ _______ _____ _____    ______ ____ROOTATOM      1  C   UNL     1      37.625  44.512  20.233 -0.32 -0.00    +0.118 C  ENDROOTBRANCH   1   2ATOM      2  N   UNL     1      37.929  43.294  20.989 -0.06 -0.00    -0.385 N  ATOM      3  H   UNL     1      37.715  42.442  20.480 +0.12 -0.00    +0.160 HD BRANCH   2   4ATOM      4  C   UNL     1      37.725  43.193  22.362 -0.36 +0.00    +0.034 A  ATOM      5  C   UNL     1      37.259  43.158  25.154 -0.33 +0.00    +0.023 A  ATOM      6  C   UNL     1      36.848  42.089  24.354 -0.41 +0.00    +0.014 A  ATOM      7  C   UNL     1      37.851  44.271  24.556 -0.28 +0.00    +0.014 A  ATOM      8  C   UNL     1      37.074  42.114  22.972 -0.46 +0.00    +0.026 A  ATOM      9  C   UNL     1      38.073  44.282  23.173 -0.31 +0.00    +0.026 A  BRANCH   5  10ATOM     10  C   UNL     1      36.971  43.105  26.607 -0.28 -0.03    +0.199 C  ATOM     11  O   UNL     1      37.189  42.061  27.224 -0.26 +0.06    -0.288 OA BRANCH  10  12ATOM     12  C   UNL     1      36.376  44.233  27.358 -0.36 -0.02    +0.104 A  ATOM     13  C   UNL     1      36.379  46.561  28.086 -0.24 -0.04    +0.155 A  ATOM     14  C   UNL     1      35.194  46.338  28.791 -0.28 -0.01    +0.053 A  ATOM     15  C   UNL     1      36.964  45.498  27.380 -0.27 -0.03    +0.179 A  ATOM     16  C   UNL     1      34.615  45.067  28.804 -0.50 -0.01    +0.051 A  ATOM     17  C   UNL     1      35.211  44.021  28.104 -0.48 -0.04    +0.130 A  ATOM     18  F   UNL     1      38.126  45.714  26.742 -0.06 +0.01    -0.202 F  BRANCH  13  19ATOM     19  O   UNL     1      37.046  47.754  28.015 -0.10 +0.11    -0.494 OA ATOM     20  C   UNL     1      36.830  48.555  26.860 -0.26 -0.02    +0.278 C  ENDBRANCH  13  19BRANCH  17  21ATOM     21  O   UNL     1      34.597  42.800  28.196 -0.22 +0.16    -0.507 OA ATOM     22  H   UNL     1      35.279  42.138  28.452 -0.18 -0.16    +0.293 HD ENDBRANCH  17  21ENDBRANCH  10  12ENDBRANCH   5  10ENDBRANCH   2   4ENDBRANCH   1   2BRANCH   1  23ATOM     23  C   UNL     1      36.266  44.413  19.496 -0.40 -0.00    +0.032 C  BRANCH  23  24ATOM     24  C   UNL     1      35.653  43.013  19.701 -0.49 -0.00    +0.009 CG0ATOM     25  G   UNL     1      34.356  42.666  18.970 +0.00 +0.00    +0.000 G0 ENDBRANCH  23  24BRANCH  23  26ATOM     26  C   UNL     1      36.419  44.861  18.024 -0.32 -0.03    +0.101 C  BRANCH  26  27ATOM     27  C   UNL     1      36.459  43.650  17.062 -0.31 -0.03    +0.106 C  BRANCH  27  28ATOM     28  N   UNL     1      35.146  43.124  16.667 -0.19 +0.12    -0.315 NA ATOM     29  H   UNL     1      34.880  43.589  15.796 +0.07 -0.05    +0.122 HD BRANCH  28  30ATOM     30  C   UNL     1      34.102  43.392  17.657 -0.33 -0.03    +0.081 C  BRANCH  30  31ATOM     31  C   UNL     1      34.363  42.662  18.969 -0.45 -0.00    +0.016 CG0ATOM     32  G   UNL     1      35.660  43.009  19.701 +0.00 +0.00    +0.000 G0 ENDBRANCH  30  31ENDBRANCH  28  30ENDBRANCH  27  28ENDBRANCH  26  27BRANCH  26  33ATOM     33  N   UNL     1      37.591  45.703  17.798 -0.15 +0.10    -0.348 N  ATOM     34  C   UNL     1      37.650  46.670  16.824 -0.22 -0.12    +0.251 C  ATOM     35  H   UNL     1      38.410  45.443  18.335 +0.10 -0.03    +0.164 HD ATOM     36  O   UNL     1      36.722  46.903  16.058 -0.28 +0.21    -0.269 OA BRANCH  34  37ATOM     37  C   UNL     1      38.921  47.433  16.710 -0.36 -0.02    +0.042 A  ATOM     38  C   UNL     1      39.896  47.233  17.690 -0.34 -0.01    +0.034 A  ATOM     39  C   UNL     1      39.179  48.308  15.654 -0.49 -0.02    +0.034 A  ATOM     40  C   UNL     1      41.081  47.936  17.584 -0.39 -0.01    +0.112 A  ATOM     41  C   UNL     1      40.398  48.962  15.640 -0.51 -0.03    +0.112 A  ATOM     42  N   UNL     1      41.350  48.801  16.582 -0.85 +0.00    -0.265 NA ENDBRANCH  34  37ENDBRANCH  26  33ENDBRANCH  23  26ENDBRANCH   1  23TORSDOF 9TERENDMDL