MODEL        6USER    Run = 6USERUSER    Estimated Free Energy of Binding    = -11.60 kcal/mol  [=(1)+(2)+(3)-(4)]USERUSER    (1) Final Intermolecular Energy     = -13.99 kcal/molUSER        vdW + Hbond + desolv Energy     = -13.91 kcal/molUSER        Electrostatic Energy            =  -0.08 kcal/molUSER        Moving Ligand-Fixed Receptor    = -13.99 kcal/molUSER        Moving Ligand-Moving Receptor   =  +0.00 kcal/molUSER    (2) Final Total Internal Energy     =  -2.67 kcal/molUSER    (3) Torsional Free Energy           =  +2.39 kcal/molUSER    (4) Unbound System's Energy         =  -2.67 kcal/molUSERUSERREMARK SMILES N#Cc1cnc(-c2ccc(CNCc3ccc(-c4csnn4)cc3)cc2)c(-c2ccccc2)c1REMARK SMILES IDX 11 1 10 2 7 3 8 4 26 5 9 6 25 7 6 8 3 9 4 10 34 11 5 12REMARK SMILES IDX 27 13 2 14 1 15 28 16 29 17 33 18 30 19 32 20 31 21 12 22REMARK SMILES IDX 13 24 14 25 15 26 24 27 16 28 23 29 17 30 18 31 19 32 22 33REMARK SMILES IDX 20 34 21 35REMARK H PARENT 12 23USER                              x       y       z     vdW  Elec       q    TypeUSER                           _______ _______ _______ _____ _____    ______ ____ROOTATOM      1  C   UNL     1      38.663  43.389  22.660 -0.28 +0.01    +0.117 C  ENDROOTBRANCH   1   2ATOM      2  C   UNL     1      37.525  43.197  21.685 -0.37 -0.00    -0.034 A  ATOM      3  C   UNL     1      35.361  42.857  19.878 -0.45 -0.00    +0.001 A  ATOM      4  C   UNL     1      36.073  41.753  20.379 -0.41 -0.00    +0.011 A  ATOM      5  C   UNL     1      35.768  44.136  20.290 -0.36 -0.00    +0.011 A  ATOM      6  C   UNL     1      37.136  41.917  21.275 -0.40 +0.00    +0.006 A  ATOM      7  C   UNL     1      36.828  44.304  21.187 -0.35 +0.00    +0.006 A  BRANCH   3   8ATOM      8  C   UNL     1      34.241  42.655  18.936 -0.35 -0.01    +0.078 A  ATOM      9  C   UNL     1      32.033  42.081  17.371 -0.27 -0.02    +0.071 A  ATOM     10  C   UNL     1      32.158  41.634  18.672 -0.28 -0.01    +0.131 A  ATOM     11  C   UNL     1      33.064  42.860  16.847 -0.32 -0.01    +0.032 A  ATOM     12  N   UNL     1      33.225  41.906  19.457 -0.39 -0.02    -0.254 NA ATOM     13  C   UNL     1      34.198  43.171  17.624 -0.34 -0.00    +0.009 A  BRANCH   9  14ATOM     14  C   UNL     1      30.877  41.759  16.599 -0.29 -0.04    +0.101 C  ATOM     15  N   UNL     1      29.937  41.496  15.972 -0.27 +0.07    -0.192 NA ENDBRANCH   9  14BRANCH  13  16ATOM     16  C   UNL     1      35.240  44.035  17.042 -0.31 +0.01    -0.016 A  ATOM     17  C   UNL     1      36.271  43.488  16.258 -0.40 -0.00    +0.009 A  ATOM     18  C   UNL     1      35.223  45.425  17.237 -0.34 -0.01    +0.009 A  ATOM     19  C   UNL     1      37.258  44.303  15.699 -0.31 -0.00    +0.001 A  ATOM     20  C   UNL     1      36.211  46.241  16.680 -0.37 -0.00    +0.001 A  ATOM     21  C   UNL     1      37.228  45.679  15.912 -0.36 -0.00    +0.000 A  ENDBRANCH  13  16ENDBRANCH   3   8ENDBRANCH   1   2BRANCH   1  22ATOM     22  N   UNL     1      39.512  44.505  22.243 -0.10 -0.01    -0.309 NA ATOM     23  H   UNL     1      40.015  44.844  23.061 +0.06 +0.01    +0.123 HD BRANCH  22  24ATOM     24  C   UNL     1      40.480  44.110  21.220 -0.27 +0.01    +0.117 C  BRANCH  24  25ATOM     25  C   UNL     1      40.537  45.060  20.048 -0.37 -0.00    -0.034 A  ATOM     26  C   UNL     1      39.519  45.075  19.086 -0.41 -0.00    +0.006 A  ATOM     27  C   UNL     1      41.622  45.932  19.890 -0.41 +0.00    +0.006 A  ATOM     28  C   UNL     1      39.579  45.951  17.996 -0.44 -0.00    +0.011 A  ATOM     29  C   UNL     1      41.683  46.805  18.800 -0.52 +0.00    +0.011 A  ATOM     30  C   UNL     1      40.660  46.832  17.842 -0.51 -0.00    +0.003 A  BRANCH  30  31ATOM     31  C   UNL     1      40.753  47.758  16.717 -0.45 -0.02    +0.105 A  ATOM     32  C   UNL     1      40.132  47.576  15.493 -0.43 -0.02    +0.118 A  ATOM     33  N   UNL     1      41.483  48.941  16.819 -1.00 -0.01    -0.138 NA ATOM     34  S   UNL     1      40.525  48.926  14.509 -0.75 +0.01    -0.020 S  ATOM     35  N   UNL     1      41.444  49.647  15.703 -1.09 +0.01    -0.091 NA ENDBRANCH  30  31ENDBRANCH  24  25ENDBRANCH  22  24ENDBRANCH   1  22TORSDOF 8TERENDMDL