MODEL        3USER    Run = 3USERUSER    Estimated Free Energy of Binding    =  -6.88 kcal/mol  [=(1)+(2)+(3)-(4)]USERUSER    (1) Final Intermolecular Energy     = -11.05 kcal/molUSER        vdW + Hbond + desolv Energy     = -11.47 kcal/molUSER        Electrostatic Energy            =  -0.18 kcal/molUSER        Moving Ligand-Fixed Receptor    = -11.65 kcal/molUSER        Moving Ligand-Moving Receptor   =  +0.60 kcal/molUSER    (2) Final Total Internal Energy     =  -2.74 kcal/molUSER    (3) Torsional Free Energy           =  +4.18 kcal/molUSER    (4) Unbound System's Energy         =  -2.74 kcal/molUSERUSERREMARK SMILES COc1ccc(O)c(C(=O)c2ccc(C(=O)N[C@@H]3CCCNC[C@H]3NC(=O)c3ccncc3)cc2)c1FREMARK SMILES IDX 15 1 16 2 17 3 14 5 11 6 12 7 35 8 13 9 34 10 9 11 10 12REMARK SMILES IDX 8 13 3 14 4 15 36 16 5 17 6 18 37 19 2 20 1 21 7 22 18 24REMARK SMILES IDX 19 25 24 27 23 28 22 29 21 31 20 32 25 34 26 35 27 37 28 38REMARK SMILES IDX 29 39 33 40 30 41 32 42 31 43REMARK H PARENT 17 4 7 23 22 30 25 36REMARK Flexibility Score:   88.900USER                              x       y       z     vdW  Elec       q    TypeUSER                           _______ _______ _______ _____ _____    ______ ____ROOTATOM      1  C   UNL     1      39.071  44.758  19.703 -0.27 -0.01    +0.251 C  ATOM      2  O   UNL     1      40.231  44.477  19.422 -0.28 -0.00    -0.269 OA ATOM      3  N   UNL     1      38.181  45.299  18.797 -0.16 +0.05    -0.347 N  ATOM      4  H   UNL     1      37.321  45.691  19.154 +0.09 -0.02    +0.164 HD ENDROOTBRANCH   1   5ATOM      5  C   UNL     1      38.574  44.593  21.098 -0.34 +0.00    +0.039 A  ATOM      6  C   UNL     1      37.642  44.422  23.737 -0.31 +0.00    +0.023 A  ATOM      7  C   UNL     1      38.591  45.389  23.390 -0.30 +0.00    +0.013 A  ATOM      8  C   UNL     1      37.160  43.540  22.764 -0.36 +0.00    +0.013 A  ATOM      9  C   UNL     1      39.065  45.467  22.078 -0.33 +0.00    +0.014 A  ATOM     10  C   UNL     1      37.633  43.617  21.447 -0.38 +0.00    +0.014 A  BRANCH   6  11ATOM     11  C   UNL     1      37.114  44.433  25.118 -0.26 +0.01    +0.199 C  ATOM     12  O   UNL     1      36.695  45.500  25.570 -0.60 +0.00    -0.288 OA BRANCH  11  13ATOM     13  C   UNL     1      37.012  43.230  25.977 -0.28 -0.01    +0.104 A  ATOM     14  C   UNL     1      37.966  41.222  26.984 -0.32 -0.02    +0.155 A  ATOM     15  C   UNL     1      36.755  40.969  27.633 -0.49 -0.02    +0.053 A  ATOM     16  C   UNL     1      38.084  42.356  26.162 -0.20 -0.01    +0.179 A  ATOM     17  C   UNL     1      35.683  41.852  27.478 -0.54 -0.02    +0.051 A  ATOM     18  C   UNL     1      35.818  42.978  26.669 -0.37 -0.02    +0.130 A  ATOM     19  F   UNL     1      39.267  42.603  25.576 -0.04 -0.00    -0.202 F  BRANCH  14  20ATOM     20  O   UNL     1      39.088  40.441  27.071 -0.17 +0.01    -0.494 OA ATOM     21  C   UNL     1      40.119  40.880  27.950 -0.19 -0.01    +0.278 C  ENDBRANCH  14  20BRANCH  18  22ATOM     22  O   UNL     1      34.726  43.803  26.601 -0.12 +0.07    -0.507 OA ATOM     23  H   UNL     1      35.055  44.713  26.410 -0.20 -0.13    +0.293 HD ENDBRANCH  18  22ENDBRANCH  11  13ENDBRANCH   6  11ENDBRANCH   1   5BRANCH   3  24ATOM     24  C   UNL     1      38.636  45.763  17.481 -0.39 -0.02    +0.106 C  BRANCH  24  25ATOM     25  C   UNL     1      39.903  46.614  17.640 -0.52 -0.00    +0.028 CG0ATOM     26  G   UNL     1      40.314  47.435  16.406 +0.00 +0.00    +0.000 G0 ENDBRANCH  24  25BRANCH  24  27ATOM     27  C   UNL     1      37.480  46.486  16.732 -0.34 -0.06    +0.118 C  BRANCH  27  28ATOM     28  C   UNL     1      37.796  46.880  15.269 -0.40 -0.05    +0.108 C  BRANCH  28  29ATOM     29  N   UNL     1      38.957  46.242  14.641 -0.20 +0.08    -0.315 NA ATOM     30  H   UNL     1      38.910  45.234  14.768 +0.08 -0.03    +0.122 HD BRANCH  29  31ATOM     31  C   UNL     1      40.266  46.731  15.059 -0.45 -0.01    +0.081 C  BRANCH  31  32ATOM     32  C   UNL     1      40.312  47.437  16.412 -0.58 -0.00    +0.017 CG0ATOM     33  G   UNL     1      39.899  46.612  17.642 +0.00 +0.00    +0.000 G0 ENDBRANCH  31  32ENDBRANCH  29  31ENDBRANCH  28  29ENDBRANCH  27  28BRANCH  27  34ATOM     34  N   UNL     1      36.250  45.687  16.809 -0.12 +0.19    -0.346 N  ATOM     35  C   UNL     1      36.172  44.431  16.253 -0.23 -0.10    +0.251 C  ATOM     36  H   UNL     1      35.572  45.955  17.504 +0.10 -0.10    +0.164 HD ATOM     37  O   UNL     1      37.066  43.926  15.587 -0.25 +0.09    -0.269 OA BRANCH  35  38ATOM     38  C   UNL     1      34.929  43.667  16.525 -0.34 -0.02    +0.042 A  ATOM     39  C   UNL     1      35.027  42.481  17.253 -0.41 -0.01    +0.034 A  ATOM     40  C   UNL     1      33.685  44.087  16.052 -0.30 -0.02    +0.034 A  ATOM     41  C   UNL     1      33.868  41.773  17.499 -0.32 -0.05    +0.112 A  ATOM     42  C   UNL     1      32.584  43.305  16.351 -0.25 -0.05    +0.112 A  ATOM     43  N   UNL     1      32.648  42.161  17.069 -0.15 +0.11    -0.265 NA ENDBRANCH  35  38ENDBRANCH  27  34ENDBRANCH  24  27ENDBRANCH   3  24TORSDOF 8TERENDMDL