MODEL        7USER    Run = 7USERUSER    Estimated Free Energy of Binding    =  -7.83 kcal/mol  [=(1)+(2)+(3)-(4)]USERUSER    (1) Final Intermolecular Energy     = -12.31 kcal/molUSER        vdW + Hbond + desolv Energy     = -12.63 kcal/molUSER        Electrostatic Energy            =  -0.24 kcal/molUSER        Moving Ligand-Fixed Receptor    = -12.87 kcal/molUSER        Moving Ligand-Moving Receptor   =  +0.57 kcal/molUSER    (2) Final Total Internal Energy     =  -2.35 kcal/molUSER    (3) Torsional Free Energy           =  +4.47 kcal/molUSER    (4) Unbound System's Energy         =  -2.35 kcal/molUSERUSERREMARK SMILES COc1ccc(O)c(C(=O)c2ccc(/C=C/[C@@H]3CCCNC[C@H]3NC(=O)c3ccncc3)cc2)c1FREMARK SMILES IDX 16 1 15 2 14 3 11 4 12 5 34 6 13 7 33 8 9 9 10 10 8 11 3 12REMARK SMILES IDX 4 13 35 14 5 15 6 16 36 17 2 18 1 19 7 20 17 22 18 23 23 25REMARK SMILES IDX 22 26 21 27 20 29 19 30 24 32 25 33 26 35 27 36 28 37 32 38REMARK SMILES IDX 29 39 31 40 30 41REMARK H PARENT 7 21 21 28 24 34REMARK Flexibility Score:   99.900USER                              x       y       z     vdW  Elec       q    TypeUSER                           _______ _______ _______ _____ _____    ______ ____ROOTATOM      1  C   UNL     1      37.479  44.027  18.609 -0.31 +0.00    -0.021 C  ENDROOTBRANCH   1   2ATOM      2  C   UNL     1      38.340  44.401  19.569 -0.41 -0.00    +0.004 C  BRANCH   2   3ATOM      3  C   UNL     1      38.002  44.414  20.997 -0.36 -0.00    -0.026 A  ATOM      4  C   UNL     1      37.353  44.521  23.726 -0.29 +0.00    +0.023 A  ATOM      5  C   UNL     1      38.119  45.539  23.151 -0.24 +0.00    +0.013 A  ATOM      6  C   UNL     1      36.878  43.471  22.935 -0.31 +0.00    +0.013 A  ATOM      7  C   UNL     1      38.436  45.484  21.789 -0.25 +0.00    +0.009 A  ATOM      8  C   UNL     1      37.209  43.415  21.580 -0.40 +0.00    +0.009 A  BRANCH   4   9ATOM      9  C   UNL     1      36.971  44.561  25.154 -0.26 +0.01    +0.199 C  ATOM     10  O   UNL     1      36.677  45.645  25.661 -0.59 +0.01    -0.288 OA BRANCH   9  11ATOM     11  C   UNL     1      36.974  43.361  26.021 -0.28 -0.01    +0.104 A  ATOM     12  C   UNL     1      38.086  41.397  26.946 -0.32 -0.02    +0.155 A  ATOM     13  C   UNL     1      36.936  41.095  27.677 -0.48 -0.02    +0.053 A  ATOM     14  C   UNL     1      38.093  42.530  26.119 -0.19 -0.01    +0.179 A  ATOM     15  C   UNL     1      35.801  41.904  27.564 -0.51 -0.02    +0.051 A  ATOM     16  C   UNL     1      35.818  43.018  26.732 -0.38 -0.02    +0.130 A  ATOM     17  F   UNL     1      39.191  42.788  25.391 -0.04 -0.00    -0.202 F  BRANCH  12  18ATOM     18  O   UNL     1      39.247  40.672  26.960 -0.16 +0.02    -0.494 OA ATOM     19  C   UNL     1      40.259  41.077  27.873 -0.18 -0.02    +0.278 C  ENDBRANCH  12  18BRANCH  16  20ATOM     20  O   UNL     1      34.655  43.738  26.656 -0.14 +0.07    -0.507 OA ATOM     21  H   UNL     1      34.889  44.662  26.408 -0.15 -0.13    +0.293 HD ENDBRANCH  16  20ENDBRANCH   9  11ENDBRANCH   4   9ENDBRANCH   2   3ENDBRANCH   1   2BRANCH   1  22ATOM     22  C   UNL     1      36.150  44.704  18.280 -0.37 -0.01    +0.035 C  BRANCH  22  23ATOM     23  C   UNL     1      35.133  43.580  18.002 -0.37 -0.00    +0.011 CG0ATOM     24  G   UNL     1      33.649  43.926  18.014 +0.00 +0.00    +0.000 G0 ENDBRANCH  22  23BRANCH  22  25ATOM     25  C   UNL     1      36.186  45.818  17.189 -0.34 -0.06    +0.103 C  BRANCH  25  26ATOM     26  C   UNL     1      35.063  46.870  17.420 -0.08 -0.13    +0.106 C  BRANCH  26  27ATOM     27  N   UNL     1      33.769  46.399  17.899 -0.27 +0.30    -0.315 NA ATOM     28  H   UNL     1      33.086  47.154  17.822 -0.43 -0.18    +0.122 HD BRANCH  27  29ATOM     29  C   UNL     1      33.270  45.194  17.254 -0.34 -0.05    +0.081 C  BRANCH  29  30ATOM     30  C   UNL     1      33.648  43.933  18.016 -0.37 -0.00    +0.016 CG0ATOM     31  G   UNL     1      35.131  43.578  18.005 +0.00 +0.00    +0.000 G0 ENDBRANCH  29  30ENDBRANCH  27  29ENDBRANCH  26  27ENDBRANCH  25  26BRANCH  25  32ATOM     32  N   UNL     1      37.481  46.514  17.179 -0.13 +0.16    -0.347 N  ATOM     33  C   UNL     1      38.025  47.020  16.019 -0.29 -0.12    +0.251 C  ATOM     34  H   UNL     1      37.876  46.783  18.070 +0.09 -0.06    +0.164 HD ATOM     35  O   UNL     1      37.489  46.929  14.923 -0.24 +0.14    -0.269 OA BRANCH  33  36ATOM     36  C   UNL     1      39.319  47.733  16.162 -0.46 -0.02    +0.042 A  ATOM     37  C   UNL     1      40.238  47.395  17.156 -0.48 -0.01    +0.034 A  ATOM     38  C   UNL     1      39.625  48.742  15.250 -0.52 -0.01    +0.034 A  ATOM     39  C   UNL     1      41.420  48.109  17.209 -0.40 -0.01    +0.112 A  ATOM     40  C   UNL     1      40.833  49.397  15.390 -0.55 -0.03    +0.112 A  ATOM     41  N   UNL     1      41.733  49.108  16.356 -0.83 -0.04    -0.265 NA ENDBRANCH  33  36ENDBRANCH  25  32ENDBRANCH  22  25ENDBRANCH   1  22TORSDOF 9TERENDMDL