MODEL        8USER    Run = 8USERUSER    Estimated Free Energy of Binding    =  -4.93 kcal/mol  [=(1)+(2)+(3)-(4)]USERUSER    (1) Final Intermolecular Energy     =  -9.41 kcal/molUSER        vdW + Hbond + desolv Energy     =  -9.46 kcal/molUSER        Electrostatic Energy            =  -0.51 kcal/molUSER        Moving Ligand-Fixed Receptor    =  -9.97 kcal/molUSER        Moving Ligand-Moving Receptor   =  +0.56 kcal/molUSER    (2) Final Total Internal Energy     =  -3.60 kcal/molUSER    (3) Torsional Free Energy           =  +4.47 kcal/molUSER    (4) Unbound System's Energy         =  -3.60 kcal/molUSERUSERREMARK SMILES COc1ccc(O)c(C(=O)c2ccc(C(=O)O[C@@H]3CCCNC[C@H]3NC(=O)c3ccncc3)cc2)c1FREMARK SMILES IDX 17 1 15 2 16 3 14 4 11 5 12 6 35 7 13 8 34 9 9 10 10 11 8 12REMARK SMILES IDX 3 13 4 14 36 15 5 16 6 17 37 18 2 19 1 20 7 21 18 23 24 25REMARK SMILES IDX 23 26 22 27 21 29 20 30 19 31 25 33 26 34 27 36 28 37 29 38REMARK SMILES IDX 33 39 30 40 32 41 31 42REMARK H PARENT 7 22 22 28 25 35REMARK Flexibility Score:   99.900USER                              x       y       z     vdW  Elec       q    TypeUSER                           _______ _______ _______ _____ _____    ______ ____ROOTATOM      1  O   UNL     1      40.283  60.030  22.651 -0.46 -0.21    -0.457 OA ENDROOTBRANCH   1   2ATOM      2  C   UNL     1      40.563  61.358  22.645 -0.23 +0.10    +0.338 C  ATOM      3  O   UNL     1      41.012  62.008  21.712 -0.28 -0.04    -0.246 OA BRANCH   2   4ATOM      4  C   UNL     1      40.196  61.950  23.955 -0.31 +0.02    +0.060 A  ATOM      5  C   UNL     1      39.450  63.120  26.396 -0.24 +0.02    +0.023 A  ATOM      6  C   UNL     1      40.570  62.280  26.331 -0.16 +0.01    +0.013 A  ATOM      7  C   UNL     1      38.710  63.375  25.233 -0.38 +0.01    +0.013 A  ATOM      8  C   UNL     1      40.941  61.697  25.114 -0.17 +0.01    +0.016 A  ATOM      9  C   UNL     1      39.086  62.801  24.015 -0.49 +0.01    +0.016 A  BRANCH   5  10ATOM     10  C   UNL     1      38.996  63.743  27.669 -0.11 +0.22    +0.199 C  ATOM     11  O   UNL     1      39.715  64.528  28.279 -0.21 -0.39    -0.288 OA BRANCH  10  12ATOM     12  C   UNL     1      37.676  63.427  28.228 -0.15 +0.06    +0.104 A  ATOM     13  C   UNL     1      35.263  63.603  28.064 -0.20 +0.06    +0.155 A  ATOM     14  C   UNL     1      35.145  62.907  29.273 -0.27 +0.01    +0.053 A  ATOM     15  C   UNL     1      36.540  63.865  27.552 -0.18 +0.10    +0.179 A  ATOM     16  C   UNL     1      36.288  62.454  29.945 -0.14 +0.01    +0.051 A  ATOM     17  C   UNL     1      37.552  62.708  29.416 -0.06 +0.04    +0.130 A  ATOM     18  F   UNL     1      36.664  64.503  26.377 -0.12 -0.14    -0.202 F  BRANCH  13  19ATOM     19  O   UNL     1      34.218  64.047  27.297 -0.71 -0.18    -0.494 OA ATOM     20  C   UNL     1      33.987  65.449  27.255 -0.31 +0.04    +0.278 C  ENDBRANCH  13  19BRANCH  17  21ATOM     21  O   UNL     1      38.668  62.249  30.054 +0.02 -0.15    -0.507 OA ATOM     22  H   UNL     1      39.437  62.792  29.813 +0.03 +0.10    +0.293 HD ENDBRANCH  17  21ENDBRANCH  10  12ENDBRANCH   5  10ENDBRANCH   2   4ENDBRANCH   1   2BRANCH   1  23ATOM     23  C   UNL     1      41.420  59.126  22.643 -0.24 +0.03    +0.200 CG0ATOM     24  G   UNL     1      41.681  58.745  21.186 +0.00 +0.00    +0.000 G0 BRANCH  23  25ATOM     25  C   UNL     1      41.059  57.936  23.557 -0.25 +0.05    +0.137 C  BRANCH  25  26ATOM     26  C   UNL     1      42.273  57.191  24.148 -0.23 +0.05    +0.109 C  BRANCH  26  27ATOM     27  N   UNL     1      42.984  56.342  23.190 -0.09 -0.03    -0.315 NA ATOM     28  H   UNL     1      42.979  55.386  23.547 -0.53 +0.00    +0.122 HD BRANCH  27  29ATOM     29  C   UNL     1      42.455  56.332  21.823 -0.32 +0.00    +0.081 C  BRANCH  29  30ATOM     30  C   UNL     1      42.658  57.584  20.960 -0.32 -0.00    +0.019 C  BRANCH  30  31ATOM     31  C   UNL     1      41.678  58.741  21.190 -0.34 -0.00    +0.049 CG0ATOM     32  G   UNL     1      41.416  59.129  22.645 +0.00 +0.00    +0.000 G0 ENDBRANCH  30  31ENDBRANCH  29  30ENDBRANCH  27  29ENDBRANCH  26  27ENDBRANCH  25  26BRANCH  25  33ATOM     33  N   UNL     1      40.180  58.407  24.635 -0.08 -0.14    -0.344 N  ATOM     34  C   UNL     1      39.779  57.591  25.664 -0.15 +0.18    +0.251 C  ATOM     35  H   UNL     1      40.137  59.409  24.762 -0.18 +0.03    +0.164 HD ATOM     36  O   UNL     1      40.071  56.405  25.750 -0.67 -0.45    -0.269 OA BRANCH  34  37ATOM     37  C   UNL     1      38.954  58.232  26.715 -0.21 +0.02    +0.042 A  ATOM     38  C   UNL     1      39.510  59.272  27.458 -0.12 +0.01    +0.034 A  ATOM     39  C   UNL     1      37.662  57.790  26.993 -0.23 +0.01    +0.034 A  ATOM     40  C   UNL     1      38.731  59.849  28.443 -0.07 +0.03    +0.112 A  ATOM     41  C   UNL     1      36.969  58.430  28.003 -0.22 +0.03    +0.112 A  ATOM     42  N   UNL     1      37.472  59.454  28.728 -0.08 -0.07    -0.265 NA ENDBRANCH  34  37ENDBRANCH  25  33ENDBRANCH  23  25ENDBRANCH   1  23TORSDOF 9TERENDMDL