MODEL        4USER    Run = 4USERUSER    Estimated Free Energy of Binding    = -12.99 kcal/mol  [=(1)+(2)+(3)-(4)]USERUSER    (1) Final Intermolecular Energy     = -14.78 kcal/molUSER        vdW + Hbond + desolv Energy     = -14.61 kcal/molUSER        Electrostatic Energy            =  -0.16 kcal/molUSER        Moving Ligand-Fixed Receptor    = -14.78 kcal/molUSER        Moving Ligand-Moving Receptor   =  +0.00 kcal/molUSER    (2) Final Total Internal Energy     =  -0.84 kcal/molUSER    (3) Torsional Free Energy           =  +1.79 kcal/molUSER    (4) Unbound System's Energy         =  -0.84 kcal/molUSERUSERREMARK SMILES Cn1ccc2ccc3c4[nH]c5c(CCCN[C@H]6CC[C@H](O)CC6)cccc5c4c4c(c3c21)C(=O)NC4=OREMARK SMILES IDX 15 1 14 2 13 3 12 4 2 5 3 6 32 7 4 8 31 9 5 10 30 11 8 12REMARK SMILES IDX 6 13 29 14 33 15 7 16 9 17 28 18 36 19 35 20 10 21 27 22REMARK SMILES IDX 11 23 26 24 25 25 24 26 1 27 34 28 37 29 16 32 17 34 23 35REMARK SMILES IDX 18 36 22 37 19 38 20 39 21 40REMARK H PARENT 35 30 10 31 16 33 21 41USER                              x       y       z     vdW  Elec       q    TypeUSER                           _______ _______ _______ _____ _____    ______ ____ROOTATOM      1  C   UNL     1      37.515  44.395  24.222 -0.32 +0.01    +0.081 C  ENDROOTBRANCH   1   2ATOM      2  C   UNL     1      36.991  43.072  23.656 -0.42 +0.00    +0.020 C  BRANCH   2   3ATOM      3  C   UNL     1      38.005  42.361  22.753 -0.41 +0.00    +0.039 C  BRANCH   3   4ATOM      4  C   UNL     1      39.285  43.132  22.537 -0.26 -0.00    -0.024 A  ATOM      5  N   UNL     1      39.568  47.767  15.213 -0.23 +0.10    -0.350 N  ATOM      6  C   UNL     1      38.573  48.170  14.353 -0.46 -0.04    +0.086 A  ATOM      7  C   UNL     1      39.024  47.188  16.353 -0.41 -0.02    +0.057 A  ATOM      8  C   UNL     1      37.389  47.663  14.817 -0.46 -0.02    +0.028 A  ATOM      9  C   UNL     1      39.570  46.745  17.615 -0.43 -0.00    +0.022 A  ATOM     10  C   UNL     1      37.670  46.978  16.028 -0.40 -0.00    +0.000 A  ATOM     11  C   UNL     1      40.810  47.063  18.193 -0.44 -0.01    +0.063 A  ATOM     12  C   UNL     1      38.729  45.880  18.382 -0.38 -0.00    +0.009 A  ATOM     13  C   UNL     1      36.857  46.205  16.873 -0.36 -0.01    +0.011 A  ATOM     14  C   UNL     1      41.273  46.457  19.367 -0.39 +0.00    +0.063 A  ATOM     15  C   UNL     1      41.795  48.115  17.886 -0.29 -0.01    +0.259 C  ATOM     16  C   UNL     1      37.401  45.620  18.012 -0.31 -0.00    +0.012 A  ATOM     17  C   UNL     1      39.235  45.273  19.574 -0.36 -0.00    +0.055 A  ATOM     18  C   UNL     1      40.516  45.524  20.081 -0.38 +0.00    +0.022 A  ATOM     19  C   UNL     1      42.578  47.031  19.687 -0.37 +0.04    +0.259 C  ATOM     20  N   UNL     1      42.865  47.909  18.696 -0.37 -0.01    -0.288 N  ATOM     21  N   UNL     1      38.649  44.379  20.443 -0.13 +0.00    -0.354 N  ATOM     22  C   UNL     1      40.681  44.731  21.266 -0.31 +0.00    +0.008 A  ATOM     23  C   UNL     1      39.495  44.023  21.465 -0.24 +0.00    +0.050 A  ATOM     24  C   UNL     1      41.725  44.542  22.195 -0.24 +0.00    +0.011 A  ATOM     25  C   UNL     1      41.551  43.667  23.272 -0.22 +0.00    +0.001 A  ATOM     26  C   UNL     1      40.355  42.978  23.437 -0.24 +0.00    +0.006 A  ATOM     27  C   UNL     1      40.949  47.747  14.777 -0.31 -0.01    +0.149 C  ATOM     28  O   UNL     1      41.654  49.062  17.142 -0.91 -0.03    -0.269 OA ATOM     29  O   UNL     1      43.259  46.827  20.671 -0.32 -0.10    -0.269 OA ATOM     30  H   UNL     1      43.616  48.577  18.777 -0.44 -0.01    +0.173 HD ATOM     31  H   UNL     1      37.719  44.005  20.335 +0.11 -0.00    +0.167 HD ENDBRANCH   3   4ENDBRANCH   2   3ENDBRANCH   1   2BRANCH   1  32ATOM     32  N   UNL     1      36.545  44.925  25.183 -0.33 -0.02    -0.314 NA ATOM     33  H   UNL     1      36.676  45.929  25.292 -0.10 +0.01    +0.122 HD BRANCH  32  34ATOM     34  C   UNL     1      36.623  44.263  26.493 -0.40 -0.01    +0.053 C  ATOM     35  C   UNL     1      35.423  43.332  26.771 -0.54 -0.00    +0.021 C  ATOM     36  C   UNL     1      37.965  43.505  26.536 -0.30 -0.00    +0.021 C  ATOM     37  C   UNL     1      35.709  41.883  26.381 -0.55 -0.01    +0.033 C  ATOM     38  C   UNL     1      37.928  42.376  27.558 -0.41 -0.00    +0.033 C  ATOM     39  C   UNL     1      36.891  41.316  27.177 -0.49 -0.03    +0.114 C  BRANCH  39  40ATOM     40  O   UNL     1      36.418  40.717  28.383 -0.35 +0.18    -0.393 OA ATOM     41  H   UNL     1      36.514  41.374  29.094 -0.45 -0.17    +0.210 HD ENDBRANCH  39  40ENDBRANCH  32  34ENDBRANCH   1  32TORSDOF 6TERENDMDL