MODEL        4USER    Run = 4USERUSER    Estimated Free Energy of Binding    = -12.47 kcal/mol  [=(1)+(2)+(3)-(4)]USERUSER    (1) Final Intermolecular Energy     = -14.26 kcal/molUSER        vdW + Hbond + desolv Energy     = -14.15 kcal/molUSER        Electrostatic Energy            =  -0.11 kcal/molUSER        Moving Ligand-Fixed Receptor    = -14.26 kcal/molUSER        Moving Ligand-Moving Receptor   =  +0.00 kcal/molUSER    (2) Final Total Internal Energy     =  -1.94 kcal/molUSER    (3) Torsional Free Energy           =  +1.79 kcal/molUSER    (4) Unbound System's Energy         =  -1.94 kcal/molUSERUSERREMARK SMILES Oc1nc2ccccc2n1C1CCN(Cc2ccc(-c3cc4ccccc4nc3-c3ccccc3)cc2)CC1REMARK SMILES IDX 11 1 12 2 13 3 14 4 38 5 39 6 10 7 2 8 3 9 4 10 9 11 5 12REMARK SMILES IDX 8 13 6 14 7 15 1 16 15 18 16 19 17 20 37 21 18 22 36 23REMARK SMILES IDX 19 24 20 25 21 26 29 27 22 28 28 29 23 30 27 31 24 32 26 33REMARK SMILES IDX 25 34 30 35 31 36 35 37 32 38 34 39 33 40REMARK H PARENT 1 17USER                              x       y       z     vdW  Elec       q    TypeUSER                           _______ _______ _______ _____ _____    ______ ____ROOTATOM      1  C   UNL     1      31.254  39.891  17.382 -0.25 -0.01    +0.095 C  ATOM      2  C   UNL     1      32.415  40.765  17.880 -0.44 -0.01    +0.041 C  ATOM      3  C   UNL     1      32.018  42.183  18.276 -0.34 -0.01    +0.087 C  ATOM      4  N   UNL     1      31.135  42.849  17.316 -0.10 +0.08    -0.299 NA ATOM      5  C   UNL     1      29.905  42.076  17.120 -0.26 -0.02    +0.087 C  ATOM      6  C   UNL     1      30.130  40.641  16.651 -0.41 -0.01    +0.041 C  ENDROOTBRANCH   1   7ATOM      7  N   UNL     1      30.788  38.904  18.354 -0.22 -0.05    -0.291 N  ATOM      8  C   UNL     1      31.556  37.848  18.784 -0.28 +0.07    +0.295 A  ATOM      9  N   UNL     1      30.947  37.067  19.630 -0.63 -0.07    -0.195 NA ATOM     10  C   UNL     1      29.710  37.633  19.778 -0.31 +0.02    +0.092 A  ATOM     11  C   UNL     1      29.575  38.793  19.001 -0.31 +0.01    +0.072 A  ATOM     12  C   UNL     1      28.641  37.195  20.578 -0.30 -0.00    +0.031 A  ATOM     13  C   UNL     1      28.389  39.537  19.015 -0.22 +0.00    +0.029 A  ATOM     14  C   UNL     1      27.455  37.931  20.590 -0.29 -0.00    +0.002 A  ATOM     15  C   UNL     1      27.335  39.085  19.821 -0.25 -0.00    +0.002 A  BRANCH   8  16ATOM     16  O   UNL     1      32.794  37.609  18.404 -0.21 -0.03    -0.480 OA ATOM     17  H   UNL     1      32.813  38.056  17.538 +0.22 -0.02    +0.296 HD ENDBRANCH   8  16ENDBRANCH   1   7BRANCH   4  18ATOM     18  C   UNL     1      31.830  43.190  16.063 -0.31 -0.06    +0.120 C  BRANCH  18  19ATOM     19  C   UNL     1      33.219  43.749  16.286 -0.31 +0.02    -0.034 A  ATOM     20  C   UNL     1      34.354  42.944  16.125 -0.37 -0.00    +0.006 A  ATOM     21  C   UNL     1      33.390  45.089  16.658 -0.32 -0.00    +0.006 A  ATOM     22  C   UNL     1      35.632  43.469  16.335 -0.40 -0.00    +0.009 A  ATOM     23  C   UNL     1      34.668  45.609  16.876 -0.33 -0.01    +0.009 A  ATOM     24  C   UNL     1      35.807  44.806  16.723 -0.31 +0.01    -0.016 A  BRANCH  24  25ATOM     25  C   UNL     1      37.152  45.358  16.943 -0.35 -0.00    +0.009 A  ATOM     26  C   UNL     1      37.791  45.132  18.171 -0.36 -0.00    +0.021 A  ATOM     27  C   UNL     1      37.870  46.080  15.976 -0.32 -0.03    +0.079 A  ATOM     28  C   UNL     1      39.090  45.601  18.404 -0.42 -0.00    +0.001 A  ATOM     29  N   UNL     1      39.141  46.530  16.184 -0.24 +0.07    -0.247 NA ATOM     30  C   UNL     1      39.749  45.383  19.626 -0.40 -0.00    +0.010 A  ATOM     31  C   UNL     1      39.732  46.299  17.367 -0.41 -0.01    +0.071 A  ATOM     32  C   UNL     1      41.045  45.858  19.824 -0.42 +0.00    +0.001 A  ATOM     33  C   UNL     1      41.023  46.761  17.587 -0.48 -0.00    +0.029 A  ATOM     34  C   UNL     1      41.684  46.548  18.800 -0.52 +0.00    +0.002 A  BRANCH  27  35ATOM     35  C   UNL     1      37.338  46.430  14.645 -0.41 -0.00    +0.001 A  ATOM     36  C   UNL     1      37.042  47.767  14.326 -0.51 -0.01    +0.010 A  ATOM     37  C   UNL     1      37.089  45.452  13.667 -0.45 -0.00    +0.010 A  ATOM     38  C   UNL     1      36.541  48.116  13.068 -0.62 -0.00    +0.001 A  ATOM     39  C   UNL     1      36.586  45.798  12.410 -0.61 -0.00    +0.001 A  ATOM     40  C   UNL     1      36.317  47.131  12.110 -0.68 -0.00    +0.000 A  ENDBRANCH  27  35ENDBRANCH  24  25ENDBRANCH  18  19ENDBRANCH   4  18TORSDOF 6TERENDMDL