MODEL        3USER    Run = 3USERUSER    Estimated Free Energy of Binding    =  -6.95 kcal/mol  [=(1)+(2)+(3)-(4)]USERUSER    (1) Final Intermolecular Energy     = -11.43 kcal/molUSER        vdW + Hbond + desolv Energy     = -11.83 kcal/molUSER        Electrostatic Energy            =  -0.30 kcal/molUSER        Moving Ligand-Fixed Receptor    = -12.12 kcal/molUSER        Moving Ligand-Moving Receptor   =  +0.70 kcal/molUSER    (2) Final Total Internal Energy     =  -3.09 kcal/molUSER    (3) Torsional Free Energy           =  +4.47 kcal/molUSER    (4) Unbound System's Energy         =  -3.09 kcal/molUSERUSERREMARK SMILES COc1ccc(O)c(C(=O)c2ccc(CO[C@@H]3CCCNC[C@@H]3NC(=O)c3ccncc3)cc2)c1FREMARK SMILES IDX 16 1 15 2 14 3 11 4 12 5 34 6 13 7 33 8 9 9 10 10 8 11 3 12REMARK SMILES IDX 4 13 35 14 5 15 6 16 36 17 2 18 1 19 7 20 17 22 18 23 23 25REMARK SMILES IDX 22 26 21 27 20 29 19 30 24 32 25 33 26 35 27 36 28 37 32 38REMARK SMILES IDX 29 39 31 40 30 41REMARK H PARENT 7 21 21 28 24 34REMARK Flexibility Score:   99.900USER                              x       y       z     vdW  Elec       q    TypeUSER                           _______ _______ _______ _____ _____    ______ ____ROOTATOM      1  O   UNL     1      38.295  43.979  24.011 -0.10 -0.02    -0.371 OA ENDROOTBRANCH   1   2ATOM      2  C   UNL     1      39.299  43.205  23.357 -0.20 +0.01    +0.196 C  BRANCH   2   3ATOM      3  C   UNL     1      39.809  43.993  22.179 -0.25 -0.00    -0.022 A  ATOM      4  C   UNL     1      40.788  45.468  19.997 -0.39 +0.00    +0.023 A  ATOM      5  C   UNL     1      41.530  44.398  20.507 -0.32 +0.00    +0.012 A  ATOM      6  C   UNL     1      39.544  45.779  20.555 -0.25 +0.00    +0.012 A  ATOM      7  C   UNL     1      41.044  43.671  21.595 -0.31 +0.00    +0.007 A  ATOM      8  C   UNL     1      39.060  45.050  21.644 -0.34 +0.00    +0.007 A  BRANCH   4   9ATOM      9  C   UNL     1      41.247  46.246  18.821 -0.41 +0.00    +0.199 C  ATOM     10  O   UNL     1      42.419  46.630  18.778 -0.38 -0.03    -0.288 OA BRANCH   9  11ATOM     11  C   UNL     1      40.353  46.647  17.715 -0.42 -0.01    +0.104 A  ATOM     12  C   UNL     1      38.385  46.299  16.319 -0.29 -0.05    +0.155 A  ATOM     13  C   UNL     1      38.682  47.466  15.612 -0.43 -0.02    +0.053 A  ATOM     14  C   UNL     1      39.231  45.896  17.362 -0.30 -0.03    +0.179 A  ATOM     15  C   UNL     1      39.822  48.208  15.934 -0.50 -0.02    +0.051 A  ATOM     16  C   UNL     1      40.657  47.792  16.968 -0.43 -0.02    +0.130 A  ATOM     17  F   UNL     1      38.955  44.753  18.011 -0.09 +0.03    -0.202 F  BRANCH  12  18ATOM     18  O   UNL     1      37.310  45.484  16.085 -0.05 +0.20    -0.494 OA ATOM     19  C   UNL     1      36.032  46.099  15.991 -0.22 -0.21    +0.278 C  ENDBRANCH  12  18BRANCH  16  20ATOM     20  O   UNL     1      41.768  48.558  17.198 -0.63 -0.03    -0.507 OA ATOM     21  H   UNL     1      42.538  47.951  17.297 -0.30 -0.01    +0.293 HD ENDBRANCH  16  20ENDBRANCH   9  11ENDBRANCH   4   9ENDBRANCH   2   3ENDBRANCH   1   2BRANCH   1  22ATOM     22  C   UNL     1      38.239  43.761  25.437 -0.20 -0.00    +0.142 C  BRANCH  22  23ATOM     23  C   UNL     1      36.965  42.933  25.654 -0.40 -0.00    +0.035 CG0ATOM     24  G   UNL     1      36.378  42.821  27.056 +0.00 +0.00    +0.000 G0 ENDBRANCH  22  23BRANCH  22  25ATOM     25  C   UNL     1      38.293  45.125  26.166 -0.22 -0.00    +0.125 C  BRANCH  25  26ATOM     26  C   UNL     1      36.868  45.675  26.421 -0.25 -0.02    +0.108 C  BRANCH  26  27ATOM     27  N   UNL     1      36.197  45.225  27.639 -0.19 +0.09    -0.315 NA ATOM     28  H   UNL     1      35.570  45.967  27.953 -0.34 -0.05    +0.122 HD BRANCH  27  29ATOM     29  C   UNL     1      35.479  43.966  27.505 -0.52 -0.02    +0.081 C  BRANCH  29  30ATOM     30  C   UNL     1      36.377  42.823  27.055 -0.49 -0.00    +0.018 CG0ATOM     31  G   UNL     1      36.956  42.938  25.649 +0.00 +0.00    +0.000 G0 ENDBRANCH  29  30ENDBRANCH  27  29ENDBRANCH  26  27ENDBRANCH  25  26BRANCH  25  32ATOM     32  N   UNL     1      39.186  46.064  25.471 -0.04 -0.01    -0.345 N  ATOM     33  C   UNL     1      40.196  46.723  26.142 -0.10 +0.01    +0.251 C  ATOM     34  H   UNL     1      39.383  45.821  24.508 +0.07 +0.01    +0.164 HD ATOM     35  O   UNL     1      40.357  46.666  27.354 -0.52 -0.04    -0.269 OA BRANCH  33  36ATOM     36  C   UNL     1      41.142  47.505  25.301 -0.17 +0.00    +0.042 A  ATOM     37  C   UNL     1      41.875  48.526  25.906 -0.24 +0.00    +0.034 A  ATOM     38  C   UNL     1      41.287  47.269  23.935 -0.22 +0.00    +0.034 A  ATOM     39  C   UNL     1      42.741  49.261  25.116 -0.29 +0.02    +0.112 A  ATOM     40  C   UNL     1      42.178  48.061  23.232 -0.28 +0.02    +0.112 A  ATOM     41  N   UNL     1      42.910  49.046  23.794 -0.82 -0.09    -0.265 NA ENDBRANCH  33  36ENDBRANCH  25  32ENDBRANCH  22  25ENDBRANCH   1  22TORSDOF 9TERENDMDL