MODEL        8USER    Run = 8USERUSER    Estimated Free Energy of Binding    = -11.95 kcal/mol  [=(1)+(2)+(3)-(4)]USERUSER    (1) Final Intermolecular Energy     = -13.74 kcal/molUSER        vdW + Hbond + desolv Energy     = -13.55 kcal/molUSER        Electrostatic Energy            =  -0.19 kcal/molUSER        Moving Ligand-Fixed Receptor    = -13.74 kcal/molUSER        Moving Ligand-Moving Receptor   =  +0.00 kcal/molUSER    (2) Final Total Internal Energy     =  -2.08 kcal/molUSER    (3) Torsional Free Energy           =  +1.79 kcal/molUSER    (4) Unbound System's Energy         =  -2.08 kcal/molUSERUSERREMARK SMILES Oc1nc2ccccc2n1C1CCN(Cc2ccc(-c3cc4ccccc4nc3-c3ccccc3)cc2)CC1REMARK SMILES IDX 11 1 12 2 13 3 14 4 38 5 39 6 10 7 2 8 3 9 4 10 9 11 5 12REMARK SMILES IDX 8 13 6 14 7 15 1 16 15 18 16 19 17 20 37 21 18 22 36 23REMARK SMILES IDX 19 24 20 25 21 26 29 27 22 28 28 29 23 30 27 31 24 32 26 33REMARK SMILES IDX 25 34 30 35 31 36 35 37 32 38 34 39 33 40REMARK H PARENT 1 17USER                              x       y       z     vdW  Elec       q    TypeUSER                           _______ _______ _______ _____ _____    ______ ____ROOTATOM      1  C   UNL     1      40.552  47.737  18.035 -0.11 -0.01    +0.095 C  ATOM      2  C   UNL     1      42.033  48.038  18.308 -0.41 -0.00    +0.041 C  ATOM      3  C   UNL     1      42.920  46.803  18.428 +0.13 +0.01    +0.087 C  ATOM      4  N   UNL     1      42.359  45.741  19.267 +0.10 -0.07    -0.299 NA ATOM      5  C   UNL     1      41.056  45.310  18.754 -0.45 +0.00    +0.087 C  ATOM      6  C   UNL     1      40.022  46.428  18.639 -0.42 -0.00    +0.041 C  ENDROOTBRANCH   1   7ATOM      7  N   UNL     1      40.136  47.977  16.655 -0.30 +0.07    -0.291 N  ATOM      8  C   UNL     1      40.663  48.976  15.871 -0.35 -0.07    +0.295 A  ATOM      9  N   UNL     1      40.138  49.040  14.680 -0.38 +0.07    -0.195 NA ATOM     10  C   UNL     1      39.217  48.028  14.665 -0.45 -0.03    +0.092 A  ATOM     11  C   UNL     1      39.193  47.331  15.882 -0.42 -0.02    +0.072 A  ATOM     12  C   UNL     1      38.357  47.648  13.620 -0.43 -0.01    +0.031 A  ATOM     13  C   UNL     1      38.329  46.246  16.076 -0.37 -0.01    +0.029 A  ATOM     14  C   UNL     1      37.491  46.570  13.812 -0.47 -0.00    +0.002 A  ATOM     15  C   UNL     1      37.481  45.881  15.022 -0.38 -0.00    +0.002 A  BRANCH   8  16ATOM     16  O   UNL     1      41.609  49.812  16.246 -0.85 -0.02    -0.480 OA ATOM     17  H   UNL     1      41.104  50.642  16.327 -0.09 -0.10    +0.296 HD ENDBRANCH   8  16ENDBRANCH   1   7BRANCH   4  18ATOM     18  C   UNL     1      42.348  46.106  20.693 -0.31 +0.03    +0.120 C  BRANCH  18  19ATOM     19  C   UNL     1      41.315  45.344  21.496 -0.28 -0.00    -0.034 A  ATOM     20  C   UNL     1      41.413  43.957  21.663 -0.32 +0.00    +0.006 A  ATOM     21  C   UNL     1      40.240  46.021  22.086 -0.23 +0.00    +0.006 A  ATOM     22  C   UNL     1      40.452  43.263  22.404 -0.28 +0.00    +0.009 A  ATOM     23  C   UNL     1      39.276  45.323  22.819 -0.29 +0.00    +0.009 A  ATOM     24  C   UNL     1      39.365  43.934  22.984 -0.24 -0.00    -0.016 A  BRANCH  24  25ATOM     25  C   UNL     1      38.355  43.203  23.763 -0.29 +0.00    +0.009 A  ATOM     26  C   UNL     1      38.596  42.941  25.120 -0.23 +0.00    +0.021 A  ATOM     27  C   UNL     1      37.125  42.771  23.241 -0.36 +0.01    +0.079 A  ATOM     28  C   UNL     1      37.641  42.289  25.909 -0.34 -0.00    +0.001 A  ATOM     29  N   UNL     1      36.179  42.148  24.001 -0.21 -0.01    -0.247 NA ATOM     30  C   UNL     1      37.861  42.019  27.271 -0.40 -0.00    +0.010 A  ATOM     31  C   UNL     1      36.433  41.910  25.298 -0.33 -0.01    +0.071 A  ATOM     32  C   UNL     1      36.886  41.373  28.029 -0.40 -0.00    +0.001 A  ATOM     33  C   UNL     1      35.476  41.269  26.075 -0.31 -0.01    +0.029 A  ATOM     34  C   UNL     1      35.689  40.998  27.429 -0.65 -0.00    +0.002 A  BRANCH  27  35ATOM     35  C   UNL     1      36.723  42.940  21.832 -0.43 +0.00    +0.001 A  ATOM     36  C   UNL     1      36.866  44.185  21.194 -0.37 +0.00    +0.010 A  ATOM     37  C   UNL     1      36.168  41.883  21.090 -0.52 +0.00    +0.010 A  ATOM     38  C   UNL     1      36.493  44.359  19.858 -0.37 -0.00    +0.001 A  ATOM     39  C   UNL     1      35.793  42.055  19.755 -0.38 -0.00    +0.001 A  ATOM     40  C   UNL     1      35.960  43.293  19.138 -0.37 -0.00    +0.000 A  ENDBRANCH  27  35ENDBRANCH  24  25ENDBRANCH  18  19ENDBRANCH   4  18TORSDOF 6TERENDMDL