MODEL        6USER    Run = 6USERUSER    Estimated Free Energy of Binding    =  -7.25 kcal/mol  [=(1)+(2)+(3)-(4)]USERUSER    (1) Final Intermolecular Energy     = -11.72 kcal/molUSER        vdW + Hbond + desolv Energy     = -12.16 kcal/molUSER        Electrostatic Energy            =  -0.03 kcal/molUSER        Moving Ligand-Fixed Receptor    = -12.19 kcal/molUSER        Moving Ligand-Moving Receptor   =  +0.47 kcal/molUSER    (2) Final Total Internal Energy     =  -2.12 kcal/molUSER    (3) Torsional Free Energy           =  +4.47 kcal/molUSER    (4) Unbound System's Energy         =  -2.12 kcal/molUSERUSERREMARK SMILES COc1ccc(O)c(C(=O)c2ccc(CN[C@@H]3CCCNC[C@H]3NC(=O)c3ccncc3)cc2)c1FREMARK SMILES IDX 16 1 15 3 14 4 11 5 12 6 34 7 13 8 33 9 9 10 10 11 8 12 3 13REMARK SMILES IDX 4 14 35 15 5 16 6 17 36 18 2 19 1 20 7 21 17 23 18 24 23 26REMARK SMILES IDX 22 27 21 28 20 30 19 31 24 33 25 34 26 36 27 37 28 38 32 39REMARK SMILES IDX 29 40 31 41 30 42REMARK H PARENT 16 2 7 22 21 29 24 35REMARK Flexibility Score:   99.900USER                              x       y       z     vdW  Elec       q    TypeUSER                           _______ _______ _______ _____ _____    ______ ____ROOTATOM      1  N   UNL     1      38.624  45.372  18.850 -0.21 +0.03    -0.308 NA ATOM      2  H   UNL     1      37.953  45.252  18.088 +0.07 -0.03    +0.123 HD ENDROOTBRANCH   1   3ATOM      3  C   UNL     1      38.752  44.100  19.566 -0.23 -0.00    +0.117 C  BRANCH   3   4ATOM      4  C   UNL     1      38.336  44.176  21.014 -0.33 -0.00    -0.034 A  ATOM      5  C   UNL     1      37.570  44.338  23.716 -0.31 +0.00    +0.023 A  ATOM      6  C   UNL     1      38.566  45.184  23.219 -0.30 +0.00    +0.012 A  ATOM      7  C   UNL     1      36.976  43.394  22.869 -0.36 +0.00    +0.012 A  ATOM      8  C   UNL     1      38.939  45.107  21.874 -0.34 +0.00    +0.006 A  ATOM      9  C   UNL     1      37.353  43.318  21.526 -0.40 +0.00    +0.006 A  BRANCH   5  10ATOM     10  C   UNL     1      37.169  44.353  25.143 -0.26 +0.01    +0.199 C  ATOM     11  O   UNL     1      36.801  45.415  25.649 -0.50 +0.01    -0.288 OA BRANCH  10  12ATOM     12  C   UNL     1      37.126  43.139  25.987 -0.27 -0.01    +0.104 A  ATOM     13  C   UNL     1      38.185  41.173  26.965 -0.31 -0.01    +0.155 A  ATOM     14  C   UNL     1      36.983  40.841  27.593 -0.37 -0.01    +0.053 A  ATOM     15  C   UNL     1      38.247  42.328  26.171 -0.19 -0.01    +0.179 A  ATOM     16  C   UNL     1      35.864  41.666  27.444 -0.54 -0.02    +0.051 A  ATOM     17  C   UNL     1      35.943  42.814  26.661 -0.37 -0.02    +0.130 A  ATOM     18  F   UNL     1      39.419  42.658  25.604 -0.04 -0.00    -0.202 F  BRANCH  13  19ATOM     19  O   UNL     1      39.350  40.457  27.055 -0.15 +0.02    -0.494 OA ATOM     20  C   UNL     1      40.313  40.896  28.003 -0.18 -0.02    +0.278 C  ENDBRANCH  13  19BRANCH  17  21ATOM     21  O   UNL     1      34.813  43.586  26.597 -0.17 +0.06    -0.507 OA ATOM     22  H   UNL     1      35.091  44.508  26.393 -0.17 -0.10    +0.293 HD ENDBRANCH  17  21ENDBRANCH  10  12ENDBRANCH   5  10ENDBRANCH   3   4ENDBRANCH   1   3BRANCH   1  23ATOM     23  C   UNL     1      39.904  45.866  18.273 -0.46 -0.01    +0.077 C  BRANCH  23  24ATOM     24  C   UNL     1      40.805  46.273  19.446 -0.44 +0.00    +0.022 CG0ATOM     25  G   UNL     1      42.306  46.171  19.182 +0.00 +0.00    +0.000 G0 ENDBRANCH  23  24BRANCH  23  26ATOM     26  C   UNL     1      39.620  47.032  17.274 -0.44 -0.03    +0.113 C  BRANCH  26  27ATOM     27  C   UNL     1      40.924  47.729  16.815 -0.50 -0.01    +0.107 C  BRANCH  27  28ATOM     28  N   UNL     1      41.836  48.250  17.829 -0.47 +0.00    -0.315 NA ATOM     29  H   UNL     1      41.288  48.621  18.609 +0.13 -0.01    +0.122 HD BRANCH  28  30ATOM     30  C   UNL     1      42.841  47.343  18.363 -0.22 +0.00    +0.081 C  BRANCH  30  31ATOM     31  C   UNL     1      42.307  46.173  19.184 -0.35 +0.00    +0.017 CG0ATOM     32  G   UNL     1      40.804  46.266  19.446 +0.00 +0.00    +0.000 G0 ENDBRANCH  30  31ENDBRANCH  28  30ENDBRANCH  27  28ENDBRANCH  26  27BRANCH  26  33ATOM     33  N   UNL     1      38.900  46.508  16.096 -0.16 +0.10    -0.346 N  ATOM     34  C   UNL     1      38.238  47.346  15.225 -0.33 -0.12    +0.251 C  ATOM     35  H   UNL     1      38.982  45.520  15.901 +0.11 -0.04    +0.164 HD ATOM     36  O   UNL     1      38.119  48.550  15.411 -0.37 +0.18    -0.269 OA BRANCH  34  37ATOM     37  C   UNL     1      37.626  46.717  14.026 -0.43 -0.02    +0.042 A  ATOM     38  C   UNL     1      37.033  47.551  13.079 -0.58 -0.01    +0.034 A  ATOM     39  C   UNL     1      37.656  45.339  13.811 -0.39 -0.01    +0.034 A  ATOM     40  C   UNL     1      36.464  46.968  11.963 -0.60 -0.05    +0.112 A  ATOM     41  C   UNL     1      37.061  44.854  12.659 -0.38 -0.04    +0.112 A  ATOM     42  N   UNL     1      36.459  45.635  11.739 -0.37 +0.10    -0.265 NA ENDBRANCH  34  37ENDBRANCH  26  33ENDBRANCH  23  26ENDBRANCH   1  23TORSDOF 9TERENDMDL