MODEL        2USER    Run = 2USERUSER    Estimated Free Energy of Binding    =  -7.85 kcal/mol  [=(1)+(2)+(3)-(4)]USERUSER    (1) Final Intermolecular Energy     = -12.02 kcal/molUSER        vdW + Hbond + desolv Energy     = -11.96 kcal/molUSER        Electrostatic Energy            =  -0.30 kcal/molUSER        Moving Ligand-Fixed Receptor    = -12.27 kcal/molUSER        Moving Ligand-Moving Receptor   =  +0.25 kcal/molUSER    (2) Final Total Internal Energy     =  -2.41 kcal/molUSER    (3) Torsional Free Energy           =  +4.18 kcal/molUSER    (4) Unbound System's Energy         =  -2.41 kcal/molUSERUSERREMARK SMILES COc1ccc(O)c(C(=O)c2ccc(C(=O)N[C@@H]3CCCNC[C@H]3NC(=O)c3ccncc3)cc2)c1FREMARK SMILES IDX 15 1 16 2 17 3 14 5 11 6 12 7 35 8 13 9 34 10 9 11 10 12REMARK SMILES IDX 8 13 3 14 4 15 36 16 5 17 6 18 37 19 2 20 1 21 7 22 18 24REMARK SMILES IDX 19 25 24 27 23 28 22 29 21 31 20 32 25 34 26 35 27 37 28 38REMARK SMILES IDX 29 39 33 40 30 41 32 42 31 43REMARK H PARENT 17 4 7 23 22 30 25 36REMARK Flexibility Score:   88.900USER                              x       y       z     vdW  Elec       q    TypeUSER                           _______ _______ _______ _____ _____    ______ ____ROOTATOM      1  C   UNL     1      39.463  46.199  15.878 -0.29 -0.05    +0.251 C  ATOM      2  O   UNL     1      39.694  46.939  14.927 -0.31 +0.05    -0.269 OA ATOM      3  N   UNL     1      38.391  45.331  15.919 -0.10 +0.09    -0.347 N  ATOM      4  H   UNL     1      38.153  44.913  16.809 +0.11 -0.04    +0.164 HD ENDROOTBRANCH   1   5ATOM      5  C   UNL     1      40.314  46.257  17.099 -0.44 -0.00    +0.039 A  ATOM      6  C   UNL     1      41.877  46.501  19.414 -0.46 +0.00    +0.023 A  ATOM      7  C   UNL     1      41.786  47.568  18.514 -0.46 -0.00    +0.013 A  ATOM      8  C   UNL     1      41.186  45.311  19.156 -0.42 +0.00    +0.013 A  ATOM      9  C   UNL     1      41.017  47.441  17.354 -0.51 -0.00    +0.014 A  ATOM     10  C   UNL     1      40.414  45.184  17.994 -0.40 -0.00    +0.014 A  BRANCH   6  11ATOM     11  C   UNL     1      42.638  46.711  20.665 -0.32 +0.05    +0.199 C  ATOM     12  O   UNL     1      43.868  46.722  20.599 -0.37 -0.21    -0.288 OA BRANCH  11  13ATOM     13  C   UNL     1      42.013  46.957  21.985 -0.18 +0.01    +0.104 A  ATOM     14  C   UNL     1      40.336  46.476  23.693 -0.16 +0.01    +0.155 A  ATOM     15  C   UNL     1      40.882  47.469  24.511 -0.21 +0.01    +0.053 A  ATOM     16  C   UNL     1      40.912  46.228  22.435 -0.15 +0.02    +0.179 A  ATOM     17  C   UNL     1      42.002  48.188  24.084 -0.31 +0.01    +0.051 A  ATOM     18  C   UNL     1      42.568  47.922  22.839 -0.26 +0.02    +0.130 A  ATOM     19  F   UNL     1      40.397  45.245  21.677 -0.05 -0.01    -0.202 F  BRANCH  14  20ATOM     20  O   UNL     1      39.254  45.699  24.007 -0.04 -0.04    -0.494 OA ATOM     21  C   UNL     1      39.479  44.299  24.152 -0.10 +0.01    +0.278 C  ENDBRANCH  14  20BRANCH  18  22ATOM     22  O   UNL     1      43.682  48.654  22.518 -0.39 -0.10    -0.507 OA ATOM     23  H   UNL     1      43.979  48.360  21.625 -0.45 -0.01    +0.293 HD ENDBRANCH  18  22ENDBRANCH  11  13ENDBRANCH   6  11ENDBRANCH   1   5BRANCH   3  24ATOM     24  C   UNL     1      37.335  45.389  14.901 -0.37 -0.04    +0.106 C  BRANCH  24  25ATOM     25  C   UNL     1      37.955  45.275  13.503 -0.28 -0.01    +0.028 CG0ATOM     26  G   UNL     1      37.013  45.585  12.328 +0.00 +0.00    +0.000 G0 ENDBRANCH  24  25BRANCH  24  27ATOM     27  C   UNL     1      36.459  46.659  15.101 -0.37 -0.09    +0.118 C  BRANCH  27  28ATOM     28  C   UNL     1      36.872  47.878  14.243 -0.50 -0.07    +0.108 C  BRANCH  28  29ATOM     29  N   UNL     1      36.323  47.957  12.885 -0.54 +0.15    -0.315 NA ATOM     30  H   UNL     1      35.313  47.835  12.912 +0.02 -0.08    +0.122 HD BRANCH  29  31ATOM     31  C   UNL     1      36.903  47.050  11.902 -0.68 -0.03    +0.081 C  BRANCH  31  32ATOM     32  C   UNL     1      37.013  45.588  12.327 -0.59 -0.01    +0.017 CG0ATOM     33  G   UNL     1      37.955  45.274  13.501 +0.00 +0.00    +0.000 G0 ENDBRANCH  31  32ENDBRANCH  29  31ENDBRANCH  28  29ENDBRANCH  27  28BRANCH  27  34ATOM     34  N   UNL     1      35.041  46.331  14.904 -0.12 +0.35    -0.346 N  ATOM     35  C   UNL     1      34.409  45.377  15.668 -0.20 -0.21    +0.251 C  ATOM     36  H   UNL     1      34.481  47.001  14.401 -0.03 -0.22    +0.164 HD ATOM     37  O   UNL     1      34.984  44.676  16.490 -0.17 +0.14    -0.269 OA BRANCH  35  38ATOM     38  C   UNL     1      32.945  45.242  15.474 -0.31 -0.03    +0.042 A  ATOM     39  C   UNL     1      32.352  45.928  14.413 -0.32 -0.03    +0.034 A  ATOM     40  C   UNL     1      32.152  44.478  16.332 -0.30 -0.02    +0.034 A  ATOM     41  C   UNL     1      30.988  45.801  14.240 -0.46 -0.07    +0.112 A  ATOM     42  C   UNL     1      30.795  44.417  16.074 -0.25 -0.04    +0.112 A  ATOM     43  N   UNL     1      30.197  45.058  15.044 -0.22 +0.17    -0.265 NA ENDBRANCH  35  38ENDBRANCH  27  34ENDBRANCH  24  27ENDBRANCH   3  24TORSDOF 8TERENDMDL