MODEL        10USER    Run = 10USERUSER    Estimated Free Energy of Binding    = -12.21 kcal/mol  [=(1)+(2)+(3)-(4)]USERUSER    (1) Final Intermolecular Energy     = -13.99 kcal/molUSER        vdW + Hbond + desolv Energy     = -13.91 kcal/molUSER        Electrostatic Energy            =  -0.08 kcal/molUSER        Moving Ligand-Fixed Receptor    = -13.99 kcal/molUSER        Moving Ligand-Moving Receptor   =  +0.00 kcal/molUSER    (2) Final Total Internal Energy     =  -0.66 kcal/molUSER    (3) Torsional Free Energy           =  +1.79 kcal/molUSER    (4) Unbound System's Energy         =  -0.66 kcal/molUSERUSERREMARK SMILES Cn1ccc2ccc3c4[nH]c5c(CCCN[C@H]6CC[C@H](O)CC6)cccc5c4c4c(c3c21)C(=O)NC4=OREMARK SMILES IDX 15 1 14 2 13 3 12 4 2 5 3 6 32 7 4 8 31 9 5 10 30 11 8 12REMARK SMILES IDX 6 13 29 14 33 15 7 16 9 17 28 18 36 19 35 20 10 21 27 22REMARK SMILES IDX 11 23 26 24 25 25 24 26 1 27 34 28 37 29 16 32 17 34 23 35REMARK SMILES IDX 18 36 22 37 19 38 20 39 21 40REMARK H PARENT 35 30 10 31 16 33 21 41USER                              x       y       z     vdW  Elec       q    TypeUSER                           _______ _______ _______ _____ _____    ______ ____ROOTATOM      1  C   UNL     1      37.604  44.037  24.965 -0.30 +0.00    +0.081 C  ENDROOTBRANCH   1   2ATOM      2  C   UNL     1      38.460  44.209  23.707 -0.30 +0.00    +0.020 C  BRANCH   2   3ATOM      3  C   UNL     1      38.549  42.934  22.862 -0.35 +0.00    +0.039 C  BRANCH   3   4ATOM      4  C   UNL     1      37.563  42.879  21.721 -0.37 -0.00    -0.024 A  ATOM      5  N   UNL     1      39.147  48.436  15.253 -0.24 +0.16    -0.350 N  ATOM      6  C   UNL     1      40.275  49.151  14.925 -0.46 -0.03    +0.086 A  ATOM      7  C   UNL     1      39.419  47.537  16.278 -0.44 -0.02    +0.057 A  ATOM      8  C   UNL     1      41.227  48.886  15.873 -0.53 -0.00    +0.028 A  ATOM      9  C   UNL     1      38.679  46.459  16.894 -0.40 -0.01    +0.022 A  ATOM     10  C   UNL     1      40.676  47.937  16.771 -0.55 -0.00    +0.000 A  ATOM     11  C   UNL     1      37.544  45.788  16.411 -0.32 -0.02    +0.063 A  ATOM     12  C   UNL     1      39.181  46.009  18.155 -0.41 -0.00    +0.009 A  ATOM     13  C   UNL     1      41.171  47.384  17.963 -0.53 -0.00    +0.011 A  ATOM     14  C   UNL     1      36.844  44.846  17.174 -0.30 -0.02    +0.063 A  ATOM     15  C   UNL     1      36.926  45.740  15.075 -0.25 -0.12    +0.259 C  ATOM     16  C   UNL     1      40.402  46.467  18.673 -0.43 -0.00    +0.012 A  ATOM     17  C   UNL     1      38.437  45.049  18.911 -0.35 -0.01    +0.055 A  ATOM     18  C   UNL     1      37.249  44.465  18.456 -0.34 -0.00    +0.022 A  ATOM     19  C   UNL     1      35.738  44.340  16.363 -0.22 -0.11    +0.259 C  ATOM     20  N   UNL     1      35.786  45.012  15.187 -0.16 +0.15    -0.288 N  ATOM     21  N   UNL     1      38.679  44.506  20.154 -0.14 +0.01    -0.354 N  ATOM     22  C   UNL     1      36.779  43.575  19.480 -0.34 -0.00    +0.008 A  ATOM     23  C   UNL     1      37.695  43.625  20.532 -0.30 -0.00    +0.050 A  ATOM     24  C   UNL     1      35.660  42.728  19.620 -0.43 -0.00    +0.011 A  ATOM     25  C   UNL     1      35.498  41.972  20.785 -0.38 +0.00    +0.001 A  ATOM     26  C   UNL     1      36.432  42.048  21.812 -0.52 +0.00    +0.006 A  ATOM     27  C   UNL     1      37.853  48.830  14.736 -0.42 -0.10    +0.149 C  ATOM     28  O   UNL     1      37.386  46.163  14.035 -0.26 +0.11    -0.269 OA ATOM     29  O   UNL     1      34.958  43.453  16.640 -0.24 +0.11    -0.269 OA ATOM     30  H   UNL     1      35.254  44.715  14.383 +0.12 -0.08    +0.173 HD ATOM     31  H   UNL     1      39.468  44.740  20.736 +0.10 +0.00    +0.167 HD ENDBRANCH   3   4ENDBRANCH   2   3ENDBRANCH   1   2BRANCH   1  32ATOM     32  N   UNL     1      38.322  43.194  25.924 -0.07 +0.01    -0.314 NA ATOM     33  H   UNL     1      38.726  42.389  25.447 +0.06 +0.00    +0.122 HD BRANCH  32  34ATOM     34  C   UNL     1      37.471  42.743  27.034 -0.37 -0.01    +0.053 C  ATOM     35  C   UNL     1      37.218  43.844  28.086 -0.40 -0.00    +0.021 C  ATOM     36  C   UNL     1      36.157  42.225  26.413 -0.53 -0.00    +0.021 C  ATOM     37  C   UNL     1      35.922  44.611  27.828 -0.48 -0.01    +0.033 C  ATOM     38  C   UNL     1      35.022  42.247  27.428 -0.65 -0.01    +0.033 C  ATOM     39  C   UNL     1      34.706  43.678  27.876 -0.60 -0.03    +0.114 C  BRANCH  39  40ATOM     40  O   UNL     1      34.199  43.613  29.208 -0.39 +0.12    -0.393 OA ATOM     41  H   UNL     1      34.931  43.339  29.788 -0.42 -0.15    +0.210 HD ENDBRANCH  39  40ENDBRANCH  32  34ENDBRANCH   1  32TORSDOF 6TERENDMDL