MODEL        7USER    Run = 7USERUSER    Estimated Free Energy of Binding    =  -7.06 kcal/mol  [=(1)+(2)+(3)-(4)]USERUSER    (1) Final Intermolecular Energy     = -11.53 kcal/molUSER        vdW + Hbond + desolv Energy     = -11.78 kcal/molUSER        Electrostatic Energy            =  -0.30 kcal/molUSER        Moving Ligand-Fixed Receptor    = -12.07 kcal/molUSER        Moving Ligand-Moving Receptor   =  +0.54 kcal/molUSER    (2) Final Total Internal Energy     =  -2.39 kcal/molUSER    (3) Torsional Free Energy           =  +4.47 kcal/molUSER    (4) Unbound System's Energy         =  -2.39 kcal/molUSERUSERREMARK SMILES COc1ccc(O)c(C(=O)c2ccc(CO[C@@H]3CCCNC[C@@H]3NC(=O)c3ccncc3)cc2)c1FREMARK SMILES IDX 16 1 15 2 14 3 11 4 12 5 34 6 13 7 33 8 9 9 10 10 8 11 3 12REMARK SMILES IDX 4 13 35 14 5 15 6 16 36 17 2 18 1 19 7 20 17 22 18 23 23 25REMARK SMILES IDX 22 26 21 27 20 29 19 30 24 32 25 33 26 35 27 36 28 37 32 38REMARK SMILES IDX 29 39 31 40 30 41REMARK H PARENT 7 21 21 28 24 34REMARK Flexibility Score:   99.900USER                              x       y       z     vdW  Elec       q    TypeUSER                           _______ _______ _______ _____ _____    ______ ____ROOTATOM      1  O   UNL     1      38.270  46.007  16.942 -0.19 +0.11    -0.371 OA ENDROOTBRANCH   1   2ATOM      2  C   UNL     1      39.645  46.009  16.565 -0.31 -0.03    +0.196 C  BRANCH   2   3ATOM      3  C   UNL     1      40.473  46.212  17.807 -0.47 +0.00    -0.022 A  ATOM      4  C   UNL     1      41.990  46.593  20.143 -0.39 +0.00    +0.023 A  ATOM      5  C   UNL     1      41.080  45.533  20.064 -0.39 +0.00    +0.012 A  ATOM      6  C   UNL     1      42.165  47.440  19.044 -0.46 +0.00    +0.012 A  ATOM      7  C   UNL     1      40.324  45.351  18.905 -0.45 -0.00    +0.007 A  ATOM      8  C   UNL     1      41.407  47.255  17.885 -0.50 -0.00    +0.007 A  BRANCH   4   9ATOM      9  C   UNL     1      42.839  46.806  21.339 -0.29 +0.05    +0.199 C  ATOM     10  O   UNL     1      44.021  46.453  21.304 -0.42 -0.21    -0.288 OA BRANCH   9  11ATOM     11  C   UNL     1      42.328  47.366  22.607 -0.23 +0.02    +0.104 A  ATOM     12  C   UNL     1      40.619  47.538  24.338 -0.19 +0.02    +0.155 A  ATOM     13  C   UNL     1      41.416  48.453  25.031 -0.28 +0.01    +0.053 A  ATOM     14  C   UNL     1      41.082  47.008  23.125 -0.14 +0.02    +0.179 A  ATOM     15  C   UNL     1      42.650  48.844  24.505 -0.35 +0.01    +0.051 A  ATOM     16  C   UNL     1      43.094  48.314  23.296 -0.29 +0.03    +0.130 A  ATOM     17  F   UNL     1      40.292  46.158  22.450 -0.06 -0.02    -0.202 F  BRANCH  12  18ATOM     18  O   UNL     1      39.389  47.094  24.743 -0.06 -0.04    -0.494 OA ATOM     19  C   UNL     1      39.296  45.747  25.189 -0.10 +0.01    +0.278 C  ENDBRANCH  12  18BRANCH  16  20ATOM     20  O   UNL     1      44.300  48.774  22.837 -0.31 -0.14    -0.507 OA ATOM     21  H   UNL     1      44.384  48.508  21.892 -0.46 +0.02    +0.293 HD ENDBRANCH  16  20ENDBRANCH   9  11ENDBRANCH   4   9ENDBRANCH   2   3ENDBRANCH   1   2BRANCH   1  22ATOM     22  C   UNL     1      37.536  44.872  16.432 -0.30 -0.04    +0.142 C  BRANCH  22  23ATOM     23  C   UNL     1      37.196  45.250  14.983 -0.41 -0.01    +0.035 CG0ATOM     24  G   UNL     1      35.972  46.116  14.707 +0.00 +0.00    +0.000 G0 ENDBRANCH  22  23BRANCH  22  25ATOM     25  C   UNL     1      36.331  44.583  17.358 -0.30 -0.04    +0.125 C  BRANCH  25  26ATOM     26  C   UNL     1      35.337  45.770  17.362 -0.35 -0.07    +0.108 C  BRANCH  26  27ATOM     27  N   UNL     1      34.226  45.702  16.414 -0.10 +0.31    -0.315 NA ATOM     28  H   UNL     1      33.673  46.556  16.504 -0.33 -0.26    +0.122 HD BRANCH  27  29ATOM     29  C   UNL     1      34.624  45.489  15.030 -0.34 -0.06    +0.081 C  BRANCH  29  30ATOM     30  C   UNL     1      35.973  46.113  14.705 -0.45 -0.01    +0.018 CG0ATOM     31  G   UNL     1      37.197  45.245  14.978 +0.00 +0.00    +0.000 G0 ENDBRANCH  29  30ENDBRANCH  27  29ENDBRANCH  26  27ENDBRANCH  25  26BRANCH  25  32ATOM     32  N   UNL     1      36.777  44.166  18.695 -0.12 +0.06    -0.345 N  ATOM     33  C   UNL     1      35.888  43.663  19.623 -0.28 -0.03    +0.251 C  ATOM     34  H   UNL     1      37.711  43.775  18.724 +0.11 -0.02    +0.164 HD ATOM     35  O   UNL     1      34.676  43.626  19.453 -0.28 +0.03    -0.269 OA BRANCH  33  36ATOM     36  C   UNL     1      36.481  43.109  20.870 -0.41 +0.00    +0.042 A  ATOM     37  C   UNL     1      37.304  43.937  21.635 -0.37 +0.00    +0.034 A  ATOM     38  C   UNL     1      36.268  41.790  21.269 -0.52 +0.00    +0.034 A  ATOM     39  C   UNL     1      37.867  43.411  22.784 -0.29 +0.01    +0.112 A  ATOM     40  C   UNL     1      36.880  41.360  22.433 -0.46 +0.01    +0.112 A  ATOM     41  N   UNL     1      37.668  42.142  23.200 -0.25 -0.02    -0.265 NA ENDBRANCH  33  36ENDBRANCH  25  32ENDBRANCH  22  25ENDBRANCH   1  22TORSDOF 9TERENDMDL