MODEL        7USER    Run = 7USERUSER    Estimated Free Energy of Binding    =  -7.29 kcal/mol  [=(1)+(2)+(3)-(4)]USERUSER    (1) Final Intermolecular Energy     = -11.76 kcal/molUSER        vdW + Hbond + desolv Energy     = -12.52 kcal/molUSER        Electrostatic Energy            =  -0.21 kcal/molUSER        Moving Ligand-Fixed Receptor    = -12.72 kcal/molUSER        Moving Ligand-Moving Receptor   =  +0.96 kcal/molUSER    (2) Final Total Internal Energy     =  -3.34 kcal/molUSER    (3) Torsional Free Energy           =  +4.47 kcal/molUSER    (4) Unbound System's Energy         =  -3.34 kcal/molUSERUSERREMARK SMILES COc1ccc(O)c(C(=O)c2ccc(/C=C/[C@@H]3CCCNC[C@H]3NC(=O)c3ccncc3)cc2)c1FREMARK SMILES IDX 16 1 15 2 14 3 11 4 12 5 34 6 13 7 33 8 9 9 10 10 8 11 3 12REMARK SMILES IDX 4 13 35 14 5 15 6 16 36 17 2 18 1 19 7 20 17 22 18 23 23 25REMARK SMILES IDX 22 26 21 27 20 29 19 30 24 32 25 33 26 35 27 36 28 37 32 38REMARK SMILES IDX 29 39 31 40 30 41REMARK H PARENT 7 21 21 28 24 34REMARK Flexibility Score:   99.900USER                              x       y       z     vdW  Elec       q    TypeUSER                           _______ _______ _______ _____ _____    ______ ____ROOTATOM      1  C   UNL     1      39.021  45.252  18.571 -0.45 +0.00    -0.021 C  ENDROOTBRANCH   1   2ATOM      2  C   UNL     1      38.080  44.345  18.266 -0.37 -0.00    +0.004 C  BRANCH   2   3ATOM      3  C   UNL     1      36.870  44.661  17.497 -0.32 +0.01    -0.026 A  ATOM      4  C   UNL     1      34.548  45.187  16.010 -0.31 -0.02    +0.023 A  ATOM      5  C   UNL     1      35.400  44.147  15.628 -0.32 -0.01    +0.013 A  ATOM      6  C   UNL     1      34.831  45.939  17.154 -0.36 -0.01    +0.013 A  ATOM      7  C   UNL     1      36.555  43.885  16.375 -0.37 -0.00    +0.009 A  ATOM      8  C   UNL     1      35.991  45.681  17.887 -0.32 -0.00    +0.009 A  BRANCH   4   9ATOM      9  C   UNL     1      33.303  45.473  15.265 -0.21 -0.18    +0.199 C  ATOM     10  O   UNL     1      33.354  46.225  14.290 -0.30 +0.31    -0.288 OA BRANCH   9  11ATOM     11  C   UNL     1      31.984  44.936  15.667 -0.30 -0.06    +0.104 A  ATOM     12  C   UNL     1      30.558  43.097  16.399 -0.20 -0.06    +0.155 A  ATOM     13  C   UNL     1      29.463  43.961  16.424 -0.25 -0.02    +0.053 A  ATOM     14  C   UNL     1      31.813  43.595  16.016 -0.22 -0.08    +0.179 A  ATOM     15  C   UNL     1      29.617  45.299  16.048 -0.27 -0.01    +0.051 A  ATOM     16  C   UNL     1      30.865  45.776  15.660 -0.32 -0.05    +0.130 A  ATOM     17  F   UNL     1      32.852  42.745  15.959 -0.05 +0.12    -0.202 F  BRANCH  12  18ATOM     18  O   UNL     1      30.527  41.768  16.725 -0.07 +0.16    -0.494 OA ATOM     19  C   UNL     1      31.283  41.356  17.857 -0.20 -0.05    +0.278 C  ENDBRANCH  12  18BRANCH  16  20ATOM     20  O   UNL     1      30.920  47.091  15.279 -0.69 +0.21    -0.507 OA ATOM     21  H   UNL     1      31.863  47.375  15.315 -0.33 -0.56    +0.293 HD ENDBRANCH  16  20ENDBRANCH   9  11ENDBRANCH   4   9ENDBRANCH   2   3ENDBRANCH   1   2BRANCH   1  22ATOM     22  C   UNL     1      40.140  45.730  17.649 -0.48 -0.00    +0.035 C  BRANCH  22  23ATOM     23  C   UNL     1      41.431  45.755  18.491 -0.52 +0.00    +0.011 CG0ATOM     24  G   UNL     1      41.754  47.016  19.286 +0.00 +0.00    +0.000 G0 ENDBRANCH  22  23BRANCH  22  25ATOM     25  C   UNL     1      39.873  47.042  16.850 -0.48 -0.02    +0.103 C  BRANCH  25  26ATOM     26  C   UNL     1      41.203  47.768  16.497 -0.23 -0.01    +0.106 C  BRANCH  26  27ATOM     27  N   UNL     1      41.763  48.693  17.475 -0.59 -0.02    -0.315 NA ATOM     28  H   UNL     1      41.012  49.260  17.871 +0.23 -0.01    +0.122 HD BRANCH  27  29ATOM     29  C   UNL     1      42.546  48.077  18.534 -0.36 +0.00    +0.081 C  BRANCH  29  30ATOM     30  C   UNL     1      41.761  47.016  19.291 -0.47 +0.00    +0.016 CG0ATOM     31  G   UNL     1      41.426  45.757  18.499 +0.00 +0.00    +0.000 G0 ENDBRANCH  29  30ENDBRANCH  27  29ENDBRANCH  26  27ENDBRANCH  25  26BRANCH  25  32ATOM     32  N   UNL     1      39.147  46.768  15.601 -0.17 +0.10    -0.347 N  ATOM     33  C   UNL     1      37.922  47.338  15.333 -0.32 -0.13    +0.251 C  ATOM     34  H   UNL     1      39.650  46.303  14.858 +0.11 -0.03    +0.164 HD ATOM     35  O   UNL     1      37.346  48.101  16.098 -0.24 +0.25    -0.269 OA BRANCH  33  36ATOM     36  C   UNL     1      37.320  47.004  14.017 -0.45 -0.02    +0.042 A  ATOM     37  C   UNL     1      37.384  45.716  13.487 -0.44 -0.01    +0.034 A  ATOM     38  C   UNL     1      36.648  48.007  13.323 -0.57 -0.02    +0.034 A  ATOM     39  C   UNL     1      36.789  45.495  12.259 -0.48 -0.04    +0.112 A  ATOM     40  C   UNL     1      36.089  47.685  12.101 -0.40 -0.06    +0.112 A  ATOM     41  N   UNL     1      36.154  46.453  11.550 -0.41 +0.13    -0.265 NA ENDBRANCH  33  36ENDBRANCH  25  32ENDBRANCH  22  25ENDBRANCH   1  22TORSDOF 9TERENDMDL