MODEL        7USER    Run = 7USERUSER    Estimated Free Energy of Binding    =  -7.04 kcal/mol  [=(1)+(2)+(3)-(4)]USERUSER    (1) Final Intermolecular Energy     = -11.51 kcal/molUSER        vdW + Hbond + desolv Energy     = -11.77 kcal/molUSER        Electrostatic Energy            =  -0.04 kcal/molUSER        Moving Ligand-Fixed Receptor    = -11.81 kcal/molUSER        Moving Ligand-Moving Receptor   =  +0.30 kcal/molUSER    (2) Final Total Internal Energy     =  -1.94 kcal/molUSER    (3) Torsional Free Energy           =  +4.47 kcal/molUSER    (4) Unbound System's Energy         =  -1.94 kcal/molUSERUSERREMARK SMILES COc1ccc(O)c(C(=O)c2ccc(C(=O)O[C@@H]3CCCNC[C@H]3NC(=O)c3ccncc3)cc2)c1FREMARK SMILES IDX 17 1 15 2 16 3 14 4 11 5 12 6 35 7 13 8 34 9 9 10 10 11 8 12REMARK SMILES IDX 3 13 4 14 36 15 5 16 6 17 37 18 2 19 1 20 7 21 18 23 24 25REMARK SMILES IDX 23 26 22 27 21 29 20 30 19 31 25 33 26 34 27 36 28 37 29 38REMARK SMILES IDX 33 39 30 40 32 41 31 42REMARK H PARENT 7 22 22 28 25 35REMARK Flexibility Score:   99.900USER                              x       y       z     vdW  Elec       q    TypeUSER                           _______ _______ _______ _____ _____    ______ ____ROOTATOM      1  O   UNL     1      36.289  44.765  19.394 -0.12 +0.07    -0.457 OA ENDROOTBRANCH   1   2ATOM      2  C   UNL     1      37.284  43.919  19.763 -0.18 -0.02    +0.338 C  ATOM      3  O   UNL     1      38.259  43.600  19.099 -0.11 +0.02    -0.246 OA BRANCH   2   4ATOM      4  C   UNL     1      37.048  43.449  21.151 -0.37 +0.00    +0.060 A  ATOM      5  C   UNL     1      36.572  42.492  23.747 -0.37 +0.00    +0.023 A  ATOM      6  C   UNL     1      36.924  43.833  23.545 -0.28 +0.00    +0.013 A  ATOM      7  C   UNL     1      36.456  41.635  22.643 -0.51 +0.00    +0.013 A  ATOM      8  C   UNL     1      37.161  44.310  22.251 -0.32 +0.00    +0.016 A  ATOM      9  C   UNL     1      36.683  42.112  21.350 -0.50 +0.00    +0.016 A  BRANCH   5  10ATOM     10  C   UNL     1      36.336  41.928  25.104 -0.27 -0.02    +0.199 C  ATOM     11  O   UNL     1      35.554  40.998  25.273 -0.04 +0.12    -0.288 OA BRANCH  10  12ATOM     12  C   UNL     1      37.032  42.476  26.274 -0.31 -0.01    +0.104 A  ATOM     13  C   UNL     1      37.436  44.360  27.746 -0.26 -0.02    +0.155 A  ATOM     14  C   UNL     1      38.368  43.589  28.452 -0.20 -0.01    +0.053 A  ATOM     15  C   UNL     1      36.777  43.793  26.650 -0.25 -0.02    +0.179 A  ATOM     16  C   UNL     1      38.613  42.260  28.084 -0.34 -0.00    +0.051 A  ATOM     17  C   UNL     1      37.938  41.703  27.000 -0.32 -0.02    +0.130 A  ATOM     18  F   UNL     1      35.857  44.512  25.986 -0.07 +0.03    -0.202 F  BRANCH  13  19ATOM     19  O   UNL     1      37.080  45.648  28.048 -0.14 +0.10    -0.494 OA ATOM     20  C   UNL     1      37.407  46.656  27.100 -0.23 -0.04    +0.278 C  ENDBRANCH  13  19BRANCH  17  21ATOM     21  O   UNL     1      38.155  40.402  26.648 -0.06 +0.04    -0.507 OA ATOM     22  H   UNL     1      37.364  40.035  26.222 -0.26 -0.15    +0.293 HD ENDBRANCH  17  21ENDBRANCH  10  12ENDBRANCH   5  10ENDBRANCH   2   4ENDBRANCH   1   2BRANCH   1  23ATOM     23  C   UNL     1      35.141  44.170  18.733 -0.27 -0.05    +0.200 CG0ATOM     24  G   UNL     1      34.587  43.100  19.673 +0.00 +0.00    +0.000 G0 BRANCH  23  25ATOM     25  C   UNL     1      35.629  43.631  17.373 -0.30 -0.04    +0.137 C  BRANCH  25  26ATOM     26  C   UNL     1      34.564  42.857  16.570 -0.40 -0.05    +0.109 C  BRANCH  26  27ATOM     27  N   UNL     1      34.107  41.621  17.210 -0.17 +0.16    -0.315 NA ATOM     28  H   UNL     1      34.893  41.216  17.718 -0.40 -0.06    +0.122 HD BRANCH  27  29ATOM     29  C   UNL     1      32.975  41.756  18.131 -0.40 -0.02    +0.081 C  BRANCH  29  30ATOM     30  C   UNL     1      33.165  42.610  19.391 -0.42 +0.00    +0.019 C  BRANCH  30  31ATOM     31  C   UNL     1      34.589  43.102  19.677 -0.45 -0.00    +0.049 CG0ATOM     32  G   UNL     1      35.140  44.170  18.733 +0.00 +0.00    +0.000 G0 ENDBRANCH  30  31ENDBRANCH  29  30ENDBRANCH  27  29ENDBRANCH  26  27ENDBRANCH  25  26BRANCH  25  33ATOM     33  N   UNL     1      36.154  44.746  16.574 -0.09 +0.15    -0.344 N  ATOM     34  C   UNL     1      36.524  44.597  15.260 -0.26 -0.10    +0.251 C  ATOM     35  H   UNL     1      35.944  45.673  16.919 +0.11 -0.10    +0.164 HD ATOM     36  O   UNL     1      36.497  43.531  14.658 -0.23 +0.09    -0.269 OA BRANCH  34  37ATOM     37  C   UNL     1      36.963  45.831  14.567 -0.37 -0.02    +0.042 A  ATOM     38  C   UNL     1      36.507  46.069  13.272 -0.50 -0.02    +0.034 A  ATOM     39  C   UNL     1      37.846  46.725  15.171 -0.39 -0.02    +0.034 A  ATOM     40  C   UNL     1      36.937  47.219  12.637 -0.55 -0.04    +0.112 A  ATOM     41  C   UNL     1      38.221  47.842  14.447 -0.43 -0.05    +0.112 A  ATOM     42  N   UNL     1      37.781  48.112  13.198 -0.73 +0.06    -0.265 NA ENDBRANCH  34  37ENDBRANCH  25  33ENDBRANCH  23  25ENDBRANCH   1  23TORSDOF 9TERENDMDL