MODEL        8USER    Run = 8USERUSER    Estimated Free Energy of Binding    =  -7.25 kcal/mol  [=(1)+(2)+(3)-(4)]USERUSER    (1) Final Intermolecular Energy     = -11.72 kcal/molUSER        vdW + Hbond + desolv Energy     = -11.96 kcal/molUSER        Electrostatic Energy            =  -0.36 kcal/molUSER        Moving Ligand-Fixed Receptor    = -12.31 kcal/molUSER        Moving Ligand-Moving Receptor   =  +0.59 kcal/molUSER    (2) Final Total Internal Energy     =  -2.30 kcal/molUSER    (3) Torsional Free Energy           =  +4.47 kcal/molUSER    (4) Unbound System's Energy         =  -2.30 kcal/molUSERUSERREMARK SMILES COc1ccc(O)c(C(=O)c2ccc(NC[C@@H]3CCCNC[C@@H]3NC(=O)c3ccncc3)cc2)c1FREMARK SMILES IDX 16 1 15 2 14 4 11 5 12 6 34 7 13 8 33 9 9 10 10 11 8 12 3 13REMARK SMILES IDX 4 14 35 15 5 16 6 17 36 18 2 19 1 20 7 21 17 23 18 24 23 26REMARK SMILES IDX 22 27 21 28 20 30 19 31 24 33 25 34 26 36 27 37 28 38 32 39REMARK SMILES IDX 29 40 31 41 30 42REMARK H PARENT 15 3 7 22 21 29 24 35REMARK Flexibility Score:   99.900USER                              x       y       z     vdW  Elec       q    TypeUSER                           _______ _______ _______ _____ _____    ______ ____ROOTATOM      1  C   UNL     1      38.794  44.997  18.348 -0.37 -0.01    +0.118 C  ENDROOTBRANCH   1   2ATOM      2  N   UNL     1      38.062  44.027  17.528 -0.03 +0.07    -0.385 N  ATOM      3  H   UNL     1      38.670  43.411  16.997 +0.15 -0.02    +0.160 HD BRANCH   2   4ATOM      4  C   UNL     1      36.875  44.342  16.873 -0.31 -0.01    +0.034 A  ATOM      5  C   UNL     1      34.388  45.018  15.701 -0.31 -0.02    +0.023 A  ATOM      6  C   UNL     1      35.584  45.455  15.127 -0.35 -0.01    +0.014 A  ATOM      7  C   UNL     1      34.428  44.291  16.892 -0.30 -0.01    +0.014 A  ATOM      8  C   UNL     1      36.812  45.126  15.715 -0.34 -0.01    +0.026 A  ATOM      9  C   UNL     1      35.662  43.966  17.468 -0.30 -0.01    +0.026 A  BRANCH   5  10ATOM     10  C   UNL     1      33.111  45.418  15.065 -0.19 -0.17    +0.199 C  ATOM     11  O   UNL     1      33.129  46.244  14.151 -0.33 +0.29    -0.288 OA BRANCH  10  12ATOM     12  C   UNL     1      31.791  44.916  15.508 -0.31 -0.06    +0.104 A  ATOM     13  C   UNL     1      30.316  43.111  16.227 -0.20 -0.06    +0.155 A  ATOM     14  C   UNL     1      29.268  44.024  16.358 -0.25 -0.02    +0.053 A  ATOM     15  C   UNL     1      31.571  43.568  15.794 -0.23 -0.09    +0.179 A  ATOM     16  C   UNL     1      29.468  45.370  16.042 -0.23 -0.01    +0.051 A  ATOM     17  C   UNL     1      30.716  45.807  15.607 -0.33 -0.05    +0.130 A  ATOM     18  F   UNL     1      32.559  42.673  15.631 +0.01 +0.13    -0.202 F  BRANCH  13  19ATOM     19  O   UNL     1      30.236  41.769  16.489 -0.08 +0.17    -0.494 OA ATOM     20  C   UNL     1      29.400  40.989  15.643 -0.27 -0.08    +0.278 C  ENDBRANCH  13  19BRANCH  17  21ATOM     21  O   UNL     1      30.818  47.135  15.287 -0.66 +0.17    -0.507 OA ATOM     22  H   UNL     1      31.775  47.356  15.216 -0.35 -0.47    +0.293 HD ENDBRANCH  17  21ENDBRANCH  10  12ENDBRANCH   5  10ENDBRANCH   2   4ENDBRANCH   1   2BRANCH   1  23ATOM     23  C   UNL     1      40.300  45.043  17.987 -0.41 -0.00    +0.032 C  BRANCH  23  24ATOM     24  C   UNL     1      41.152  44.697  19.225 -0.42 +0.00    +0.009 CG0ATOM     25  G   UNL     1      41.409  45.787  20.266 +0.00 +0.00    +0.000 G0 ENDBRANCH  23  24BRANCH  23  26ATOM     26  C   UNL     1      40.647  46.382  17.295 -0.48 -0.01    +0.101 C  BRANCH  26  27ATOM     27  C   UNL     1      40.942  47.496  18.327 -0.32 -0.01    +0.106 C  BRANCH  27  28ATOM     28  N   UNL     1      42.332  47.557  18.798 -0.35 -0.01    -0.315 NA ATOM     29  H   UNL     1      42.924  47.195  18.047 -0.45 -0.01    +0.122 HD BRANCH  28  30ATOM     30  C   UNL     1      42.568  46.742  19.990 -0.44 +0.02    +0.081 C  BRANCH  30  31ATOM     31  C   UNL     1      41.409  45.793  20.267 -0.43 +0.00    +0.016 CG0ATOM     32  G   UNL     1      41.150  44.704  19.226 +0.00 +0.00    +0.000 G0 ENDBRANCH  30  31ENDBRANCH  28  30ENDBRANCH  27  28ENDBRANCH  26  27BRANCH  26  33ATOM     33  N   UNL     1      39.612  46.835  16.369 -0.20 +0.08    -0.348 N  ATOM     34  C   UNL     1      39.653  46.598  15.016 -0.32 -0.05    +0.251 C  ATOM     35  H   UNL     1      38.914  47.444  16.778 +0.10 -0.07    +0.164 HD ATOM     36  O   UNL     1      40.568  45.990  14.473 +0.12 +0.00    -0.269 OA BRANCH  34  37ATOM     37  C   UNL     1      38.530  47.139  14.205 -0.44 -0.01    +0.042 A  ATOM     38  C   UNL     1      38.060  46.369  13.140 -0.16 -0.01    +0.034 A  ATOM     39  C   UNL     1      37.921  48.362  14.490 -0.51 -0.02    +0.034 A  ATOM     40  C   UNL     1      37.013  46.867  12.388 -0.55 -0.04    +0.112 A  ATOM     41  C   UNL     1      36.879  48.770  13.677 -0.34 -0.06    +0.112 A  ATOM     42  N   UNL     1      36.416  48.054  12.631 -0.77 +0.11    -0.265 NA ENDBRANCH  34  37ENDBRANCH  26  33ENDBRANCH  23  26ENDBRANCH   1  23TORSDOF 9TERENDMDL