REMARK SMILES O=[SH](=O)Nc1cccc(-c2cn3ccccc3n2)c1CCN1CCOCC1
REMARK SMILES IDX 5 1 6 2 7 3 8 4 9 5 19 6 4 7 2 9 1 10 3 11 20 13 21 14 22 15
REMARK SMILES IDX 23 16 27 17 24 18 26 19 25 20 10 21 11 22 18 23 12 24 17 25
REMARK SMILES IDX 13 26 16 27 14 28 15 29
REMARK H PARENT 4 8 2 12
ROOT
ATOM      1  C   UNL     1      -0.334  -1.630  -2.352  1.00  0.00     0.052 A 
ATOM      2  C   UNL     1       0.265  -1.832  -3.599  1.00  0.00     0.027 A 
ATOM      3  C   UNL     1       1.544  -1.347  -3.844  1.00  0.00     0.003 A 
ATOM      4  C   UNL     1       2.225  -0.661  -2.841  1.00  0.00     0.011 A 
ATOM      5  C   UNL     1       1.641  -0.456  -1.578  1.00  0.00     0.007 A 
ATOM      6  C   UNL     1       0.345  -0.957  -1.313  1.00  0.00    -0.013 A 
ENDROOT
BRANCH   1   7
ATOM      7  N   UNL     1      -1.630  -2.197  -2.118  1.00  0.00    -0.285 N 
ATOM      8  H   UNL     1      -2.248  -2.147  -2.931  1.00  0.00     0.179 HD
BRANCH   7   9
ATOM      9  S   UNL     1      -1.596  -3.818  -1.596  1.00  0.00     0.222 S 
ATOM     10  O   UNL     1      -1.026  -4.609  -2.665  1.00  0.00    -0.210 OA
ATOM     11  O   UNL     1      -2.916  -4.109  -1.080  1.00  0.00    -0.210 OA
ATOM     12  H   UNL     1      -0.741  -3.897  -0.548  1.00  0.00     0.198 HD
ENDBRANCH   7   9
ENDBRANCH   1   7
BRANCH   6  13
ATOM     13  C   UNL     1      -0.338  -0.755   0.031  1.00  0.00     0.054 C 
BRANCH  13  14
ATOM     14  C   UNL     1      -1.317   0.433   0.013  1.00  0.00     0.089 C 
BRANCH  14  15
ATOM     15  N   UNL     1      -2.110   0.543   1.254  1.00  0.00    -0.298 NA
ATOM     16  C   UNL     1      -2.828   1.836   1.320  1.00  0.00     0.113 C 
ATOM     17  C   UNL     1      -3.064  -0.583   1.393  1.00  0.00     0.113 C 
ATOM     18  C   UNL     1      -4.294   1.746   0.869  1.00  0.00     0.175 C 
ATOM     19  C   UNL     1      -4.286  -0.209   2.247  1.00  0.00     0.175 C 
ATOM     20  O   UNL     1      -5.072   0.839   1.662  1.00  0.00    -0.379 OA
ENDBRANCH  14  15
ENDBRANCH  13  14
ENDBRANCH   6  13
BRANCH   5  21
ATOM     21  C   UNL     1       2.399   0.290  -0.590  1.00  0.00     0.090 A 
ATOM     22  C   UNL     1       3.693   0.013  -0.202  1.00  0.00     0.121 A 
ATOM     23  N   UNL     1       1.907   1.385   0.077  1.00  0.00    -0.229 NA
ATOM     24  N   UNL     1       4.000   0.960   0.742  1.00  0.00    -0.306 N 
ATOM     25  C   UNL     1       2.878   1.771   0.878  1.00  0.00     0.137 A 
ATOM     26  C   UNL     1       5.174   1.142   1.468  1.00  0.00     0.093 A 
ATOM     27  C   UNL     1       2.958   2.837   1.819  1.00  0.00     0.048 A 
ATOM     28  C   UNL     1       5.245   2.151   2.354  1.00  0.00     0.018 A 
ATOM     29  C   UNL     1       4.090   3.020   2.526  1.00  0.00     0.005 A 
ENDBRANCH   5  21
TORSDOF 6
