MODEL        6USER    Run = 6USERUSER    Estimated Free Energy of Binding    =  -9.60 kcal/mol  [=(1)+(2)+(3)-(4)]USERUSER    (1) Final Intermolecular Energy     = -11.39 kcal/molUSER        vdW + Hbond + desolv Energy     = -11.12 kcal/molUSER        Electrostatic Energy            =  -0.27 kcal/molUSER        Moving Ligand-Fixed Receptor    = -11.39 kcal/molUSER        Moving Ligand-Moving Receptor   =  +0.00 kcal/molUSER    (2) Final Total Internal Energy     =  -1.86 kcal/molUSER    (3) Torsional Free Energy           =  +1.79 kcal/molUSER    (4) Unbound System's Energy         =  -1.86 kcal/molUSERUSERREMARK SMILES CC(=O)NCCc1c(N[SH](=O)=O)cccc1-c1cn2ccccc2n1REMARK SMILES IDX 7 1 8 2 13 3 14 4 15 5 16 6 6 7 5 8 4 9 2 10 1 11 3 12 9 14REMARK SMILES IDX 10 16 11 17 12 18 17 20 18 21 25 22 19 23 24 24 20 25 23 26REMARK SMILES IDX 21 27 22 28REMARK H PARENT 4 13 9 15 10 19USER                              x       y       z     vdW  Elec       q    TypeUSER                           _______ _______ _______ _____ _____    ______ ____ROOTATOM      1  C   UNL     1      38.323  47.759  15.739 -0.46 +0.01    -0.013 A  ATOM      2  C   UNL     1      39.670  47.998  15.403 -0.50 -0.02    +0.052 A  ATOM      3  C   UNL     1      40.685  47.142  15.847 -0.43 -0.00    +0.027 A  ATOM      4  C   UNL     1      40.382  46.031  16.625 -0.37 -0.00    +0.003 A  ATOM      5  C   UNL     1      39.060  45.755  16.939 -0.38 -0.00    +0.011 A  ATOM      6  C   UNL     1      38.025  46.586  16.481 -0.39 -0.00    +0.007 A  ENDROOTBRANCH   1   7ATOM      7  C   UNL     1      37.217  48.698  15.265 -0.46 -0.06    +0.059 C  BRANCH   7   8ATOM      8  C   UNL     1      36.908  48.487  13.766 -0.52 -0.07    +0.120 C  BRANCH   8   9ATOM      9  N   UNL     1      36.700  47.088  13.425 -0.25 +0.18    -0.356 N  ATOM     10  C   UNL     1      36.994  46.633  12.144 -0.53 -0.07    +0.216 C  ATOM     11  C   UNL     1      36.578  45.193  11.881 -0.50 -0.04    +0.114 C  ATOM     12  O   UNL     1      37.563  47.319  11.295 -0.92 +0.04    -0.275 OA ATOM     13  H   UNL     1      36.014  46.570  13.966 +0.13 -0.11    +0.163 HD ENDBRANCH   8   9ENDBRANCH   7   8ENDBRANCH   1   7BRANCH   2  14ATOM     14  N   UNL     1      40.061  49.107  14.581 -0.27 +0.11    -0.285 N  ATOM     15  H   UNL     1      39.287  49.621  14.166 -0.22 -0.14    +0.179 HD BRANCH  14  16ATOM     16  S   UNL     1      41.096  50.221  15.334 -0.69 -0.07    +0.222 S  ATOM     17  O   UNL     1      42.125  50.587  14.387 -0.64 +0.04    -0.210 OA ATOM     18  O   UNL     1      41.423  49.663  16.629 -1.09 +0.00    -0.210 OA ATOM     19  H   UNL     1      40.382  51.344  15.575 -0.29 -0.13    +0.198 HD ENDBRANCH  14  16ENDBRANCH   2  14BRANCH   6  20ATOM     20  C   UNL     1      36.658  46.159  16.739 -0.30 -0.05    +0.090 A  ATOM     21  C   UNL     1      36.153  45.876  17.991 -0.17 -0.05    +0.121 A  ATOM     22  N   UNL     1      35.712  45.946  15.767 -0.20 +0.18    -0.229 NA ATOM     23  N   UNL     1      34.859  45.462  17.777 -0.18 +0.17    -0.306 N  ATOM     24  C   UNL     1      34.642  45.521  16.405 -0.23 -0.11    +0.137 A  ATOM     25  C   UNL     1      33.898  45.044  18.691 -0.37 -0.04    +0.093 A  ATOM     26  C   UNL     1      33.358  45.117  15.931 -0.30 -0.04    +0.048 A  ATOM     27  C   UNL     1      32.688  44.662  18.241 -0.29 -0.00    +0.018 A  ATOM     28  C   UNL     1      32.422  44.701  16.808 -0.31 -0.00    +0.005 A  ENDBRANCH   6  20TORSDOF 6TERENDMDL