MODEL        2USER    Run = 2USERUSER    Estimated Free Energy of Binding    =  -9.03 kcal/mol  [=(1)+(2)+(3)-(4)]USERUSER    (1) Final Intermolecular Energy     = -10.52 kcal/molUSER        vdW + Hbond + desolv Energy     = -10.40 kcal/molUSER        Electrostatic Energy            =  -0.12 kcal/molUSER        Moving Ligand-Fixed Receptor    = -10.52 kcal/molUSER        Moving Ligand-Moving Receptor   =  +0.00 kcal/molUSER    (2) Final Total Internal Energy     =  -0.74 kcal/molUSER    (3) Torsional Free Energy           =  +1.49 kcal/molUSER    (4) Unbound System's Energy         =  -0.74 kcal/molUSERUSERREMARK SMILES CCCc1c(N[SH](=O)=O)cccc1-c1cn2ccc(F)cc2n1REMARK SMILES IDX 4 1 5 2 10 3 11 4 12 5 13 6 3 7 2 8 1 9 6 10 7 12 8 13 9 14REMARK SMILES IDX 14 16 15 17 23 18 16 19 22 20 17 21 21 22 18 23 19 24 20 25REMARK H PARENT 6 11 7 15USER                              x       y       z     vdW  Elec       q    TypeUSER                           _______ _______ _______ _____ _____    ______ ____ROOTATOM      1  C   UNL     1      38.759  47.606  15.549 -0.47 +0.01    -0.014 A  ATOM      2  C   UNL     1      37.822  47.462  14.502 -0.45 -0.02    +0.052 A  ATOM      3  C   UNL     1      37.073  46.288  14.357 -0.40 -0.01    +0.027 A  ATOM      4  C   UNL     1      37.256  45.224  15.233 -0.37 -0.00    +0.003 A  ATOM      5  C   UNL     1      38.192  45.332  16.257 -0.32 -0.00    +0.011 A  ATOM      6  C   UNL     1      38.950  46.506  16.421 -0.42 -0.00    +0.007 A  ENDROOTBRANCH   1   7ATOM      7  C   UNL     1      39.573  48.877  15.699 -0.59 -0.02    +0.038 C  BRANCH   7   8ATOM      8  C   UNL     1      40.752  48.914  14.724 -0.68 -0.00    +0.001 C  ATOM      9  C   UNL     1      41.606  50.155  14.935 -0.76 -0.00    +0.004 C  ENDBRANCH   7   8ENDBRANCH   1   7BRANCH   2  10ATOM     10  N   UNL     1      37.555  48.511  13.563 -0.31 +0.11    -0.285 N  ATOM     11  H   UNL     1      37.205  49.377  13.973 -0.11 -0.12    +0.179 HD BRANCH  10  12ATOM     12  S   UNL     1      36.546  48.071  12.268 -0.50 -0.08    +0.222 S  ATOM     13  O   UNL     1      37.305  47.227  11.371 -1.00 +0.05    -0.210 OA ATOM     14  O   UNL     1      35.309  47.605  12.857 -0.41 +0.15    -0.210 OA ATOM     15  H   UNL     1      36.248  49.200  11.582 -0.34 -0.08    +0.198 HD ENDBRANCH  10  12ENDBRANCH   2  10BRANCH   6  16ATOM     16  C   UNL     1      39.917  46.533  17.503 -0.41 -0.01    +0.090 A  ATOM     17  C   UNL     1      39.729  45.959  18.743 -0.35 -0.01    +0.121 A  ATOM     18  N   UNL     1      41.140  47.152  17.424 -0.34 +0.03    -0.228 NA ATOM     19  N   UNL     1      40.878  46.222  19.441 -0.23 -0.01    -0.306 N  ATOM     20  C   UNL     1      41.707  46.953  18.595 -0.43 -0.00    +0.140 A  ATOM     21  C   UNL     1      41.228  45.865  20.743 -0.29 +0.01    +0.096 A  ATOM     22  C   UNL     1      42.975  47.349  19.106 -0.48 +0.01    +0.087 A  ATOM     23  C   UNL     1      42.428  46.241  21.221 -0.30 +0.01    +0.057 A  ATOM     24  C   UNL     1      43.314  47.006  20.361 -0.32 +0.05    +0.128 A  ATOM     25  F   UNL     1      44.510  47.370  20.864 -0.11 -0.16    -0.207 F  ENDBRANCH   6  16TORSDOF 5TERENDMDL