MODEL        2USER    Run = 2USERUSER    Estimated Free Energy of Binding    = -10.58 kcal/mol  [=(1)+(2)+(3)-(4)]USERUSER    (1) Final Intermolecular Energy     = -12.37 kcal/molUSER        vdW + Hbond + desolv Energy     = -12.10 kcal/molUSER        Electrostatic Energy            =  -0.27 kcal/molUSER        Moving Ligand-Fixed Receptor    = -12.37 kcal/molUSER        Moving Ligand-Moving Receptor   =  +0.00 kcal/molUSER    (2) Final Total Internal Energy     =  -0.74 kcal/molUSER    (3) Torsional Free Energy           =  +1.79 kcal/molUSER    (4) Unbound System's Energy         =  -0.74 kcal/molUSERUSERREMARK SMILES O=[SH](=O)Nc1cccc(-c2cn3ccccc3n2)c1CCN1CCOCC1REMARK SMILES IDX 5 1 6 2 7 3 8 4 9 5 19 6 4 7 2 9 1 10 3 11 20 13 21 14 22 15REMARK SMILES IDX 23 16 27 17 24 18 26 19 25 20 10 21 11 22 18 23 12 24 17 25REMARK SMILES IDX 13 26 16 27 14 28 15 29REMARK H PARENT 4 8 2 12USER                              x       y       z     vdW  Elec       q    TypeUSER                           _______ _______ _______ _____ _____    ______ ____ROOTATOM      1  C   UNL     1      40.165  47.814  16.683 -0.47 -0.01    +0.052 A  ATOM      2  C   UNL     1      41.439  47.901  17.252 -0.41 -0.00    +0.027 A  ATOM      3  C   UNL     1      41.768  47.112  18.347 -0.54 -0.00    +0.003 A  ATOM      4  C   UNL     1      40.823  46.234  18.873 -0.47 -0.00    +0.011 A  ATOM      5  C   UNL     1      39.540  46.127  18.309 -0.43 -0.00    +0.007 A  ATOM      6  C   UNL     1      39.198  46.916  17.185 -0.43 +0.00    -0.013 A  ENDROOTBRANCH   1   7ATOM      7  N   UNL     1      39.883  48.600  15.518 -0.32 +0.10    -0.285 N  ATOM      8  H   UNL     1      38.966  49.053  15.545 +0.04 -0.11    +0.179 HD BRANCH   7   9ATOM      9  S   UNL     1      41.043  49.806  15.195 -0.71 -0.06    +0.222 S  ATOM     10  O   UNL     1      42.015  49.243  14.284 -0.54 +0.01    -0.210 OA ATOM     11  O   UNL     1      41.448  50.337  16.478 -0.96 +0.03    -0.210 OA ATOM     12  H   UNL     1      40.420  50.812  14.535 -0.17 -0.16    +0.198 HD ENDBRANCH   7   9ENDBRANCH   1   7BRANCH   6  13ATOM     13  C   UNL     1      37.822  46.848  16.541 -0.38 -0.03    +0.054 C  BRANCH  13  14ATOM     14  C   UNL     1      37.686  45.650  15.584 -0.36 -0.03    +0.089 C  BRANCH  14  15ATOM     15  N   UNL     1      36.748  45.907  14.472 -0.17 +0.15    -0.298 NA ATOM     16  C   UNL     1      36.295  47.316  14.466 -0.38 -0.09    +0.113 C  ATOM     17  C   UNL     1      37.346  45.553  13.162 -0.44 -0.04    +0.113 C  ATOM     18  C   UNL     1      37.072  48.205  13.483 -0.49 -0.08    +0.175 C  ATOM     19  C   UNL     1      36.730  46.356  12.005 -0.58 -0.07    +0.175 C  ATOM     20  O   UNL     1      36.965  47.766  12.121 -1.01 +0.10    -0.379 OA ENDBRANCH  14  15ENDBRANCH  13  14ENDBRANCH   6  13BRANCH   5  21ATOM     21  C   UNL     1      38.598  45.210  18.925 -0.33 -0.01    +0.090 A  ATOM     22  C   UNL     1      38.745  44.634  20.170 -0.29 -0.00    +0.121 A  ATOM     23  N   UNL     1      37.426  44.812  18.331 -0.21 +0.05    -0.229 NA ATOM     24  N   UNL     1      37.633  43.848  20.339 -0.17 +0.01    -0.306 N  ATOM     25  C   UNL     1      36.862  43.989  19.190 -0.26 -0.02    +0.137 A  ATOM     26  C   UNL     1      37.274  43.038  21.413 -0.34 +0.00    +0.093 A  ATOM     27  C   UNL     1      35.644  43.252  19.132 -0.35 -0.01    +0.048 A  ATOM     28  C   UNL     1      36.123  42.346  21.354 -0.47 +0.00    +0.018 A  ATOM     29  C   UNL     1      35.289  42.466  20.166 -0.45 -0.00    +0.005 A  ENDBRANCH   5  21TORSDOF 6TERENDMDL