REMARK SMILES CCCc1c(N[SH](=O)=O)cccc1-c1cn2ccc(F)cc2n1
REMARK SMILES IDX 4 1 5 2 10 3 11 4 12 5 13 6 3 7 2 8 1 9 6 10 7 12 8 13 9 14
REMARK SMILES IDX 14 16 15 17 23 18 16 19 22 20 17 21 21 22 18 23 19 24 20 25
REMARK H PARENT 6 11 7 15
ROOT
ATOM      1  C   UNL     1      -1.359  -0.497  -0.293  1.00  0.00    -0.014 A 
ATOM      2  C   UNL     1      -2.620  -0.870  -0.806  1.00  0.00     0.052 A 
ATOM      3  C   UNL     1      -2.736  -1.506  -2.049  1.00  0.00     0.027 A 
ATOM      4  C   UNL     1      -1.606  -1.761  -2.817  1.00  0.00     0.003 A 
ATOM      5  C   UNL     1      -0.355  -1.379  -2.344  1.00  0.00     0.011 A 
ATOM      6  C   UNL     1      -0.218  -0.745  -1.095  1.00  0.00     0.007 A 
ENDROOT
BRANCH   1   7
ATOM      7  C   UNL     1      -1.237   0.197   1.051  1.00  0.00     0.038 C 
BRANCH   7   8
ATOM      8  C   UNL     1      -1.286   1.720   0.909  1.00  0.00     0.001 C 
ATOM      9  C   UNL     1      -1.159   2.406   2.261  1.00  0.00     0.004 C 
ENDBRANCH   7   8
ENDBRANCH   1   7
BRANCH   2  10
ATOM     10  N   UNL     1      -3.836  -0.662  -0.078  1.00  0.00    -0.285 N 
ATOM     11  H   UNL     1      -3.815   0.114   0.583  1.00  0.00     0.179 HD
BRANCH  10  12
ATOM     12  S   UNL     1      -4.439  -2.040   0.715  1.00  0.00     0.222 S 
ATOM     13  O   UNL     1      -3.431  -2.504   1.642  1.00  0.00    -0.210 OA
ATOM     14  O   UNL     1      -5.768  -1.696   1.173  1.00  0.00    -0.210 OA
ATOM     15  H   UNL     1      -4.589  -3.012  -0.216  1.00  0.00     0.198 HD
ENDBRANCH  10  12
ENDBRANCH   2  10
BRANCH   6  16
ATOM     16  C   UNL     1       1.120  -0.363  -0.681  1.00  0.00     0.090 A 
ATOM     17  C   UNL     1       1.931   0.524  -1.357  1.00  0.00     0.121 A 
ATOM     18  N   UNL     1       1.747  -0.856   0.436  1.00  0.00    -0.228 NA
ATOM     19  N   UNL     1       3.087   0.588  -0.624  1.00  0.00    -0.306 N 
ATOM     20  C   UNL     1       2.927  -0.273   0.459  1.00  0.00     0.140 A 
ATOM     21  C   UNL     1       4.241   1.338  -0.848  1.00  0.00     0.096 A 
ATOM     22  C   UNL     1       4.012  -0.378   1.374  1.00  0.00     0.087 A 
ATOM     23  C   UNL     1       5.263   1.235   0.020  1.00  0.00     0.057 A 
ATOM     24  C   UNL     1       5.125   0.345   1.159  1.00  0.00     0.128 A 
ATOM     25  F   UNL     1       6.164   0.260   2.014  1.00  0.00    -0.207 F 
ENDBRANCH   6  16
TORSDOF 5
