REMARK SMILES CC(=O)NCCc1c(N[SH](=O)=O)cccc1-c1cn2ccccc2n1
REMARK SMILES IDX 7 1 8 2 13 3 14 4 15 5 16 6 6 7 5 8 4 9 2 10 1 11 3 12 9 14
REMARK SMILES IDX 10 16 11 17 12 18 17 20 18 21 25 22 19 23 24 24 20 25 23 26
REMARK SMILES IDX 21 27 22 28
REMARK H PARENT 4 13 9 15 10 19
ROOT
ATOM      1  C   UNL     1       0.369   1.205   0.415  1.00  0.00    -0.013 A 
ATOM      2  C   UNL     1       1.234   2.055   1.132  1.00  0.00     0.052 A 
ATOM      3  C   UNL     1       0.729   3.055   1.970  1.00  0.00     0.027 A 
ATOM      4  C   UNL     1      -0.642   3.226   2.119  1.00  0.00     0.003 A 
ATOM      5  C   UNL     1      -1.514   2.379   1.452  1.00  0.00     0.011 A 
ATOM      6  C   UNL     1      -1.027   1.352   0.628  1.00  0.00     0.007 A 
ENDROOT
BRANCH   1   7
ATOM      7  C   UNL     1       0.919   0.121  -0.508  1.00  0.00     0.059 C 
BRANCH   7   8
ATOM      8  C   UNL     1       1.060  -1.227   0.233  1.00  0.00     0.120 C 
BRANCH   8   9
ATOM      9  N   UNL     1       2.387  -1.425   0.795  1.00  0.00    -0.356 N 
ATOM     10  C   UNL     1       3.438  -1.826  -0.024  1.00  0.00     0.216 C 
ATOM     11  C   UNL     1       4.724  -2.150   0.722  1.00  0.00     0.114 C 
ATOM     12  O   UNL     1       3.353  -1.893  -1.250  1.00  0.00    -0.275 OA
ATOM     13  H   UNL     1       2.450  -1.642   1.786  1.00  0.00     0.163 HD
ENDBRANCH   8   9
ENDBRANCH   7   8
ENDBRANCH   1   7
BRANCH   2  14
ATOM     14  N   UNL     1       2.661   1.925   1.053  1.00  0.00    -0.285 N 
ATOM     15  H   UNL     1       2.986   1.021   0.718  1.00  0.00     0.179 HD
BRANCH  14  16
ATOM     16  S   UNL     1       3.438   3.136   0.155  1.00  0.00     0.222 S 
ATOM     17  O   UNL     1       2.933   3.084  -1.199  1.00  0.00    -0.210 OA
ATOM     18  O   UNL     1       4.852   3.011   0.440  1.00  0.00    -0.210 OA
ATOM     19  H   UNL     1       3.054   4.330   0.660  1.00  0.00     0.198 HD
ENDBRANCH  14  16
ENDBRANCH   2  14
BRANCH   6  20
ATOM     20  C   UNL     1      -1.998   0.424   0.068  1.00  0.00     0.090 A 
ATOM     21  C   UNL     1      -2.932  -0.270   0.809  1.00  0.00     0.121 A 
ATOM     22  N   UNL     1      -2.080   0.092  -1.262  1.00  0.00    -0.229 NA
ATOM     23  N   UNL     1      -3.598  -1.063  -0.095  1.00  0.00    -0.306 N 
ATOM     24  C   UNL     1      -3.039  -0.806  -1.342  1.00  0.00     0.137 A 
ATOM     25  C   UNL     1      -4.629  -1.973   0.113  1.00  0.00     0.093 A 
ATOM     26  C   UNL     1      -3.562  -1.534  -2.452  1.00  0.00     0.048 A 
ATOM     27  C   UNL     1      -5.119  -2.659  -0.936  1.00  0.00     0.018 A 
ATOM     28  C   UNL     1      -4.555  -2.425  -2.260  1.00  0.00     0.005 A 
ENDBRANCH   6  20
TORSDOF 6
