MODEL        1USER    Run = 1USERUSER    Estimated Free Energy of Binding    =  -9.85 kcal/mol  [=(1)+(2)+(3)-(4)]USERUSER    (1) Final Intermolecular Energy     = -11.34 kcal/molUSER        vdW + Hbond + desolv Energy     = -11.27 kcal/molUSER        Electrostatic Energy            =  -0.07 kcal/molUSER        Moving Ligand-Fixed Receptor    = -11.34 kcal/molUSER        Moving Ligand-Moving Receptor   =  +0.00 kcal/molUSER    (2) Final Total Internal Energy     =  -2.14 kcal/molUSER    (3) Torsional Free Energy           =  +1.49 kcal/molUSER    (4) Unbound System's Energy         =  -2.14 kcal/molUSERUSERREMARK SMILES CN1CCN(Cc2ccc(-c3nc4ccc(F)cc4nc3-c3cnncc3N3CCN(C)CC3)cc2)CC1REMARK SMILES IDX 11 1 12 2 13 3 14 4 15 5 16 6 17 7 18 8 19 9 20 10 21 11REMARK SMILES IDX 10 12 7 13 8 14 36 15 9 16 35 17 6 18 5 19 2 20 3 21 38 22REMARK SMILES IDX 4 23 37 24 1 25 22 26 23 27 27 28 24 29 26 30 25 31 28 32REMARK SMILES IDX 29 33 34 34 30 35 33 36 31 37 32 38REMARK H PARENTUSER                              x       y       z     vdW  Elec       q    TypeUSER                           _______ _______ _______ _____ _____    ______ ____ROOTATOM      1  C   UNL     1      39.230  44.830  20.555 -0.30 +0.00    +0.097 A  ATOM      2  N   UNL     1      38.446  45.253  19.525 -0.23 +0.02    -0.244 NA ATOM      3  C   UNL     1      39.057  45.811  18.467 -0.35 -0.01    +0.090 A  ATOM      4  C   UNL     1      38.291  46.258  17.397 -0.36 -0.01    +0.033 A  ATOM      5  C   UNL     1      38.884  46.858  16.288 -0.40 -0.01    +0.041 A  ATOM      6  C   UNL     1      40.260  47.010  16.263 -0.40 -0.02    +0.125 A  ATOM      7  F   UNL     1      40.840  47.591  15.207 -0.13 +0.02    -0.207 F  ATOM      8  C   UNL     1      41.044  46.569  17.320 -0.38 -0.01    +0.069 A  ATOM      9  C   UNL     1      40.464  45.965  18.424 -0.41 -0.00    +0.092 A  ATOM     10  N   UNL     1      41.246  45.536  19.430 -0.26 -0.02    -0.244 NA ATOM     11  C   UNL     1      40.627  44.942  20.491 -0.30 +0.01    +0.101 A  ENDROOTBRANCH   1  12ATOM     12  C   UNL     1      38.481  44.328  21.721 -0.34 +0.00    +0.002 A  ATOM     13  C   UNL     1      37.052  43.346  23.965 -0.34 -0.00    -0.034 A  ATOM     14  C   UNL     1      37.397  44.699  23.879 -0.28 +0.00    +0.006 A  ATOM     15  C   UNL     1      37.413  42.490  22.917 -0.43 +0.00    +0.006 A  ATOM     16  C   UNL     1      38.099  45.182  22.770 -0.31 +0.00    +0.011 A  ATOM     17  C   UNL     1      38.109  42.978  21.806 -0.27 +0.00    +0.011 A  BRANCH  13  18ATOM     18  C   UNL     1      36.277  42.824  25.156 -0.28 +0.00    +0.120 C  BRANCH  18  19ATOM     19  N   UNL     1      36.953  43.069  26.439 -0.15 +0.03    -0.297 NA ATOM     20  N   UNL     1      38.894  41.516  28.197 -0.21 +0.01    -0.304 NA ATOM     21  C   UNL     1      37.578  40.999  27.775 -0.44 -0.02    +0.099 C  ATOM     22  C   UNL     1      39.201  42.809  27.554 -0.27 -0.00    +0.099 C  ATOM     23  C   UNL     1      36.549  42.119  27.499 -0.45 -0.03    +0.100 C  ATOM     24  C   UNL     1      38.419  43.063  26.248 -0.23 -0.00    +0.100 C  ATOM     25  C   UNL     1      39.940  40.525  27.967 -0.27 -0.00    +0.105 C  ENDBRANCH  18  19ENDBRANCH  13  18ENDBRANCH   1  12BRANCH  11  26ATOM     26  C   UNL     1      41.543  44.448  21.524 -0.28 +0.01    +0.048 A  ATOM     27  C   UNL     1      41.795  43.082  21.614 -0.24 +0.01    +0.148 A  ATOM     28  C   UNL     1      42.222  45.291  22.423 -0.18 +0.01    +0.068 A  ATOM     29  N   UNL     1      42.682  42.530  22.471 -0.25 +0.01    -0.158 NA ATOM     30  C   UNL     1      43.129  44.667  23.280 -0.09 +0.02    +0.162 A  ATOM     31  N   UNL     1      43.367  43.334  23.306 -0.16 -0.01    -0.157 NA BRANCH  28  32ATOM     32  N   UNL     1      41.942  46.672  22.470 -0.07 -0.05    -0.367 N  ATOM     33  C   UNL     1      41.370  47.076  23.784 -0.20 +0.01    +0.132 C  ATOM     34  C   UNL     1      42.948  47.615  21.922 -0.28 +0.02    +0.132 C  ATOM     35  C   UNL     1      41.389  48.612  23.957 -0.36 +0.02    +0.105 C  ATOM     36  C   UNL     1      43.652  48.415  23.041 -0.29 +0.03    +0.105 C  ATOM     37  N   UNL     1      42.724  49.237  23.850 -0.82 -0.11    -0.303 NA ATOM     38  C   UNL     1      43.300  49.538  25.157 -0.26 +0.02    +0.105 C  ENDBRANCH  28  32ENDBRANCH  11  26TORSDOF 5TERENDMDL