REMARK SMILES CN1CCN(Cc2ccc(-c3nc4ccc(F)cc4nc3-c3cnncc3N3CCN(C)CC3)cc2)CC1
REMARK SMILES IDX 11 1 12 2 13 3 14 4 15 5 16 6 17 7 18 8 19 9 20 10 21 11
REMARK SMILES IDX 10 12 7 13 8 14 36 15 9 16 35 17 6 18 5 19 2 20 3 21 38 22
REMARK SMILES IDX 4 23 37 24 1 25 22 26 23 27 27 28 24 29 26 30 25 31 28 32
REMARK SMILES IDX 29 33 34 34 30 35 33 36 31 37 32 38
REMARK H PARENT
ROOT
ATOM      1  C   UNL     1      -1.252  -2.695  -0.501  1.00  0.00     0.097 A 
ATOM      2  N   UNL     1      -1.565  -3.480  -1.570  1.00  0.00    -0.244 NA
ATOM      3  C   UNL     1      -2.704  -4.189  -1.508  1.00  0.00     0.090 A 
ATOM      4  C   UNL     1      -3.057  -5.003  -2.577  1.00  0.00     0.033 A 
ATOM      5  C   UNL     1      -4.221  -5.768  -2.546  1.00  0.00     0.041 A 
ATOM      6  C   UNL     1      -5.032  -5.711  -1.425  1.00  0.00     0.125 A 
ATOM      7  F   UNL     1      -6.149  -6.446  -1.381  1.00  0.00    -0.207 F 
ATOM      8  C   UNL     1      -4.700  -4.902  -0.347  1.00  0.00     0.069 A 
ATOM      9  C   UNL     1      -3.547  -4.133  -0.372  1.00  0.00     0.092 A 
ATOM     10  N   UNL     1      -3.253  -3.349   0.680  1.00  0.00    -0.244 NA
ATOM     11  C   UNL     1      -2.111  -2.606   0.604  1.00  0.00     0.101 A 
ENDROOT
BRANCH   1  12
ATOM     12  C   UNL     1       0.061  -2.034  -0.599  1.00  0.00     0.002 A 
ATOM     13  C   UNL     1       2.579  -0.742  -0.792  1.00  0.00    -0.034 A 
ATOM     14  C   UNL     1       2.302  -1.605   0.274  1.00  0.00     0.006 A 
ATOM     15  C   UNL     1       1.595  -0.539  -1.768  1.00  0.00     0.006 A 
ATOM     16  C   UNL     1       1.061  -2.243   0.366  1.00  0.00     0.011 A 
ATOM     17  C   UNL     1       0.357  -1.185  -1.677  1.00  0.00     0.011 A 
BRANCH  13  18
ATOM     18  C   UNL     1       3.927  -0.063  -0.903  1.00  0.00     0.120 C 
BRANCH  18  19
ATOM     19  N   UNL     1       3.845   1.403  -0.826  1.00  0.00    -0.297 NA
ATOM     20  N   UNL     1       5.388   3.586   0.631  1.00  0.00    -0.304 NA
ATOM     21  C   UNL     1       4.735   2.451   1.312  1.00  0.00     0.099 C 
ATOM     22  C   UNL     1       5.314   3.454  -0.837  1.00  0.00     0.099 C 
ATOM     23  C   UNL     1       3.522   1.896   0.531  1.00  0.00     0.100 C 
ATOM     24  C   UNL     1       5.097   2.007  -1.329  1.00  0.00     0.100 C 
ATOM     25  C   UNL     1       6.760   3.753   1.100  1.00  0.00     0.105 C 
ENDBRANCH  18  19
ENDBRANCH  13  18
ENDBRANCH   1  12
BRANCH  11  26
ATOM     26  C   UNL     1      -1.882  -1.733   1.760  1.00  0.00     0.048 A 
ATOM     27  C   UNL     1      -1.682  -2.303   3.014  1.00  0.00     0.148 A 
ATOM     28  C   UNL     1      -1.816  -0.330   1.669  1.00  0.00     0.068 A 
ATOM     29  N   UNL     1      -1.381  -1.598   4.127  1.00  0.00    -0.158 NA
ATOM     30  C   UNL     1      -1.497   0.344   2.848  1.00  0.00     0.162 A 
ATOM     31  N   UNL     1      -1.275  -0.258   4.040  1.00  0.00    -0.157 NA
BRANCH  28  32
ATOM     32  N   UNL     1      -2.114   0.330   0.459  1.00  0.00    -0.367 N 
ATOM     33  C   UNL     1      -3.582   0.448   0.241  1.00  0.00     0.132 C 
ATOM     34  C   UNL     1      -1.341   1.548   0.111  1.00  0.00     0.132 C 
ATOM     35  C   UNL     1      -3.904   1.457  -0.885  1.00  0.00     0.105 C 
ATOM     36  C   UNL     1      -2.203   2.825   0.227  1.00  0.00     0.105 C 
ATOM     37  N   UNL     1      -3.382   2.823  -0.668  1.00  0.00    -0.303 NA
ATOM     38  C   UNL     1      -4.410   3.736  -0.177  1.00  0.00     0.105 C 
ENDBRANCH  28  32
ENDBRANCH  11  26
TORSDOF 5
