MODEL        5USER    Run = 5USERUSER    Estimated Free Energy of Binding    =  -6.75 kcal/mol  [=(1)+(2)+(3)-(4)]USERUSER    (1) Final Intermolecular Energy     = -10.63 kcal/molUSER        vdW + Hbond + desolv Energy     = -10.83 kcal/molUSER        Electrostatic Energy            =  -0.40 kcal/molUSER        Moving Ligand-Fixed Receptor    = -11.22 kcal/molUSER        Moving Ligand-Moving Receptor   =  +0.60 kcal/molUSER    (2) Final Total Internal Energy     =  -2.52 kcal/molUSER    (3) Torsional Free Energy           =  +3.88 kcal/molUSER    (4) Unbound System's Energy         =  -2.52 kcal/molUSERUSERREMARK SMILES COc1ncc(F)cc1C(=O)N[C@@H]1CCCN(C)C[C@H]1n1nc(C(=O)c2cnc(N3CCN(C)CC3)c(F)c2)o1REMARK SMILES IDX 20 1 13 2 12 3 10 4 11 5 9 7 3 8 4 9 5 10 8 11 6 12 7 13REMARK SMILES IDX 2 14 1 15 14 16 19 18 17 19 18 20 16 21 15 22 21 24 22 25REMARK SMILES IDX 40 26 23 27 24 28 25 29 26 30 27 31 39 32 28 33 37 34 29 35REMARK SMILES IDX 38 36 30 37 31 38 36 39 32 40 35 41 33 42 34 43REMARK H PARENT 12 6REMARK Flexibility Score:  127.900USER                              x       y       z     vdW  Elec       q    TypeUSER                           _______ _______ _______ _____ _____    ______ ____ROOTATOM      1  C   UNL     1      30.578  41.483  17.231 -0.24 -0.04    +0.182 C  ENDROOTBRANCH   1   2ATOM      2  C   UNL     1      31.468  40.618  18.180 -0.36 -0.01    +0.111 C  BRANCH   2   3ATOM      3  N   UNL     1      30.653  39.860  19.136 -0.11 -0.02    -0.347 N  ATOM      4  C   UNL     1      31.199  39.097  20.138 -0.31 +0.04    +0.257 C  ATOM      5  O   UNL     1      32.413  39.022  20.329 -0.98 -0.14    -0.269 OA ATOM      6  H   UNL     1      29.677  39.702  18.880 +0.09 +0.01    +0.164 HD BRANCH   4   7ATOM      7  C   UNL     1      30.274  38.256  20.950 -0.29 +0.01    +0.104 A  ATOM      8  C   UNL     1      28.931  38.006  20.640 -0.15 +0.00    +0.226 A  ATOM      9  N   UNL     1      28.123  37.208  21.391 -0.17 +0.05    -0.218 NA ATOM     10  C   UNL     1      28.670  36.641  22.493 -0.25 -0.01    +0.154 A  ATOM     11  C   UNL     1      30.792  37.659  22.107 -0.42 +0.00    +0.060 A  ATOM     12  C   UNL     1      29.979  36.843  22.879 -0.34 +0.01    +0.142 A  ATOM     13  F   UNL     1      30.470  36.241  23.973 -0.16 -0.07    -0.205 F  BRANCH   8  14ATOM     14  O   UNL     1      28.379  38.606  19.524 -0.07 -0.04    -0.480 OA ATOM     15  C   UNL     1      26.967  38.481  19.434 -0.16 -0.02    +0.280 C  ENDBRANCH   8  14ENDBRANCH   4   7ENDBRANCH   2   3BRANCH   2  16ATOM     16  C   UNL     1      32.446  41.500  18.976 -0.42 -0.00    +0.028 CG0ATOM     17  G   UNL     1      33.538  42.172  18.155 +0.00 +0.00    +0.000 G0 ENDBRANCH   2  16ENDBRANCH   1   2BRANCH   1  18ATOM     18  C   UNL     1      31.414  42.515  16.425 -0.28 -0.05    +0.117 C  BRANCH  18  19ATOM     19  N   UNL     1      31.859  43.726  17.145 -0.12 +0.09    -0.304 NA ATOM     20  C   UNL     1      31.780  44.879  16.238 -0.31 -0.04    +0.105 C  BRANCH  19  21ATOM     21  C   UNL     1      33.241  43.578  17.629 -0.31 -0.03    +0.084 C  BRANCH  21  22ATOM     22  C   UNL     1      33.536  42.177  18.156 -0.45 -0.00    +0.018 CG0ATOM     23  G   UNL     1      32.444  41.505  18.978 +0.00 +0.00    +0.000 G0 ENDBRANCH  21  22ENDBRANCH  19  21ENDBRANCH  18  19ENDBRANCH   1  18BRANCH   1  24ATOM     24  N   UNL     1      29.833  40.605  16.271 -0.37 +0.02    -0.114 N  ATOM     25  N   UNL     1      28.696  39.987  16.705 -0.27 -0.02    -0.095 NA ATOM     26  O   UNL     1      29.016  41.433  15.426 -0.24 +0.16    -0.336 OA ATOM     27  C   UNL     1      28.018  40.685  15.850 -0.15 -0.03    +0.315 A  BRANCH  27  28ATOM     28  C   UNL     1      26.617  40.768  15.391 -0.26 -0.04    +0.253 C  ATOM     29  O   UNL     1      25.969  39.740  15.260 -0.87 -0.05    -0.283 OA BRANCH  28  30ATOM     30  C   UNL     1      26.035  42.104  15.154 -0.29 -0.02    +0.049 A  ATOM     31  C   UNL     1      25.346  42.349  13.973 -0.14 -0.06    +0.126 A  ATOM     32  C   UNL     1      26.131  43.140  16.078 -0.25 -0.01    +0.057 A  ATOM     33  N   UNL     1      24.727  43.525  13.690 -0.20 +0.02    -0.236 NA ATOM     34  C   UNL     1      25.496  44.345  15.800 -0.25 -0.00    +0.166 A  ATOM     35  C   UNL     1      24.775  44.521  14.606 -0.24 -0.00    +0.164 A  ATOM     36  F   UNL     1      25.579  45.326  16.715 -0.12 -0.06    -0.203 F  BRANCH  35  37ATOM     37  N   UNL     1      24.095  45.730  14.362 -0.13 -0.06    -0.352 N  ATOM     38  C   UNL     1      22.931  45.535  13.468 -0.19 +0.01    +0.133 C  ATOM     39  C   UNL     1      24.966  46.820  13.868 -0.23 +0.01    +0.133 C  ATOM     40  C   UNL     1      22.140  46.853  13.315 -0.16 -0.00    +0.105 C  ATOM     41  C   UNL     1      24.148  48.126  13.748 -0.36 -0.00    +0.105 C  ATOM     42  N   UNL     1      22.980  47.980  12.854 -0.06 +0.04    -0.303 NA ATOM     43  C   UNL     1      22.198  49.216  12.824 -0.26 -0.02    +0.105 C  ENDBRANCH  35  37ENDBRANCH  28  30ENDBRANCH  27  28ENDBRANCH   1  24TORSDOF 7TERENDMDL