MODEL        9USER    Run = 9USERUSER    Estimated Free Energy of Binding    = -12.80 kcal/mol  [=(1)+(2)+(3)-(4)]USERUSER    (1) Final Intermolecular Energy     = -14.89 kcal/molUSER        vdW + Hbond + desolv Energy     = -14.85 kcal/molUSER        Electrostatic Energy            =  -0.04 kcal/molUSER        Moving Ligand-Fixed Receptor    = -14.89 kcal/molUSER        Moving Ligand-Moving Receptor   =  +0.00 kcal/molUSER    (2) Final Total Internal Energy     =  -1.68 kcal/molUSER    (3) Torsional Free Energy           =  +2.09 kcal/molUSER    (4) Unbound System's Energy         =  -1.68 kcal/molUSERUSERREMARK SMILES CN1CCN(c2cncc(-c3nc4ccc(F)cc4nc3-c3ccc(CN4CCC(n5c(O)nc6cc(F)ccc65)CC4)cc3)c2)CC1REMARK SMILES IDX 22 1 23 2 24 3 25 4 44 5 45 6 21 7 11 8 12 9 13 10 20 11REMARK SMILES IDX 14 12 19 13 15 14 18 15 16 16 17 17 10 18 6 19 7 20 46 21REMARK SMILES IDX 8 22 9 23 5 24 2 25 3 26 48 27 4 28 47 29 1 30 26 31 27 32REMARK SMILES IDX 28 33 43 34 29 35 42 36 30 37 31 38 32 39 41 40 34 41 40 42REMARK SMILES IDX 35 43 39 44 36 45 37 46 38 47 33 48REMARK H PARENT 33 49USER                              x       y       z     vdW  Elec       q    TypeUSER                           _______ _______ _______ _____ _____    ______ ____ROOTATOM      1  C   UNL     1      38.727  45.804  24.021 -0.29 +0.00    +0.002 A  ATOM      2  C   UNL     1      40.107  46.049  23.933 -0.20 +0.00    +0.011 A  ATOM      3  C   UNL     1      40.883  45.464  22.926 -0.20 +0.00    +0.006 A  ATOM      4  C   UNL     1      40.298  44.607  21.986 -0.24 -0.00    -0.034 A  ATOM      5  C   UNL     1      38.927  44.345  22.074 -0.30 +0.00    +0.006 A  ATOM      6  C   UNL     1      38.156  44.929  23.083 -0.32 +0.00    +0.011 A  ENDROOTBRANCH   1   7ATOM      7  C   UNL     1      37.923  46.435  25.083 -0.24 +0.01    +0.097 A  ATOM      8  C   UNL     1      37.373  45.757  26.183 -0.28 -0.01    +0.099 A  ATOM      9  N   UNL     1      36.701  46.425  27.162 -0.19 +0.06    -0.244 NA ATOM     10  C   UNL     1      36.547  47.752  27.014 -0.30 -0.02    +0.090 A  ATOM     11  N   UNL     1      37.758  47.780  24.935 -0.50 -0.03    -0.244 NA ATOM     12  C   UNL     1      35.856  48.473  27.982 -0.33 -0.00    +0.033 A  ATOM     13  C   UNL     1      37.074  48.435  25.891 -0.38 +0.00    +0.092 A  ATOM     14  C   UNL     1      35.671  49.849  27.860 -0.22 +0.00    +0.041 A  ATOM     15  C   UNL     1      36.887  49.803  25.778 -0.35 +0.00    +0.069 A  ATOM     16  C   UNL     1      36.188  50.502  26.754 -0.26 +0.01    +0.125 A  ATOM     17  F   UNL     1      36.010  51.822  26.624 -0.08 -0.04    -0.207 F  BRANCH   8  18ATOM     18  C   UNL     1      37.424  44.305  26.373 -0.29 -0.00    +0.023 A  ATOM     19  C   UNL     1      38.547  42.301  27.255 -0.31 -0.00    +0.056 A  ATOM     20  C   UNL     1      37.490  41.589  26.677 -0.32 -0.02    +0.136 A  ATOM     21  C   UNL     1      38.468  43.693  27.093 -0.23 -0.00    +0.039 A  ATOM     22  N   UNL     1      36.449  42.120  25.988 -0.25 +0.04    -0.262 NA ATOM     23  C   UNL     1      36.445  43.464  25.856 -0.30 -0.01    +0.121 A  BRANCH  19  24ATOM     24  N   UNL     1      39.587  41.692  27.933 -0.15 +0.01    -0.368 N  ATOM     25  N   UNL     1      42.104  40.434  28.937 -0.06 +0.04    -0.303 NA ATOM     26  C   UNL     1      40.816  39.724  28.837 -0.21 -0.00    +0.105 C  ATOM     27  C   UNL     1      41.941  41.890  28.735 -0.13 -0.00    +0.105 C  ATOM     28  C   UNL     1      39.919  40.274  27.705 -0.21 -0.01    +0.132 C  ATOM     29  C   UNL     1      40.494  42.441  28.816 -0.20 +0.01    +0.132 C  ATOM     30  C   UNL     1      42.780  40.125  30.190 -0.10 -0.01    +0.105 C  ENDBRANCH  19  24ENDBRANCH   8  18ENDBRANCH   1   7BRANCH   4  31ATOM     31  C   UNL     1      41.135  43.966  20.900 -0.29 +0.01    +0.120 C  BRANCH  31  32ATOM     32  N   UNL     1      41.015  44.636  19.594 -0.20 -0.02    -0.299 NA ATOM     33  C   UNL     1      41.163  46.083  19.731 -0.41 +0.01    +0.087 C  ATOM     34  C   UNL     1      39.776  44.261  18.896 -0.33 -0.00    +0.087 C  ATOM     35  C   UNL     1      41.343  46.721  18.354 -0.56 -0.00    +0.041 C  ATOM     36  C   UNL     1      39.251  45.334  17.938 -0.44 -0.01    +0.041 C  ATOM     37  C   UNL     1      40.396  46.124  17.301 -0.46 -0.01    +0.095 C  BRANCH  37  38ATOM     38  N   UNL     1      39.913  47.117  16.351 -0.27 +0.06    -0.291 N  ATOM     39  C   UNL     1      40.513  48.319  16.095 -0.32 -0.06    +0.295 A  ATOM     40  C   UNL     1      38.807  47.039  15.527 -0.40 -0.03    +0.072 A  ATOM     41  N   UNL     1      39.910  49.011  15.168 -0.39 +0.08    -0.195 NA ATOM     42  C   UNL     1      37.799  46.080  15.344 -0.36 -0.01    +0.032 A  ATOM     43  C   UNL     1      38.842  48.231  14.797 -0.45 -0.04    +0.095 A  ATOM     44  C   UNL     1      36.816  46.361  14.390 -0.39 -0.02    +0.041 A  ATOM     45  C   UNL     1      37.852  48.489  13.838 -0.44 -0.03    +0.070 A  ATOM     46  C   UNL     1      36.851  47.541  13.655 -0.46 -0.06    +0.125 A  ATOM     47  F   UNL     1      35.889  47.773  12.749 -0.21 +0.12    -0.207 F  BRANCH  39  48ATOM     48  O   UNL     1      41.590  48.768  16.705 -0.75 -0.03    -0.480 OA ATOM     49  H   UNL     1      42.219  48.040  16.546 -0.29 -0.00    +0.296 HD ENDBRANCH  39  48ENDBRANCH  37  38ENDBRANCH  31  32ENDBRANCH   4  31TORSDOF 7TERENDMDL