REMARK SMILES COc1ncc(F)cc1C(=O)N[C@@H]1CCCN(C)C[C@H]1n1nc(C(=O)c2cnc(N3CCN(C)CC3)c(F)c2)o1
REMARK SMILES IDX 20 1 13 2 12 3 10 4 11 5 9 7 3 8 4 9 5 10 8 11 6 12 7 13
REMARK SMILES IDX 2 14 1 15 14 16 19 18 17 19 18 20 16 21 15 22 21 24 22 25
REMARK SMILES IDX 40 26 23 27 24 28 25 29 26 30 27 31 39 32 28 33 37 34 29 35
REMARK SMILES IDX 38 36 30 37 31 38 36 39 32 40 35 41 33 42 34 43
REMARK H PARENT 12 6
REMARK Flexibility Score:  127.900
ROOT
ATOM      1  C   UNL     1      -2.817  -0.718   1.302  1.00  0.00     0.182 C 
ENDROOT
BRANCH   1   2
ATOM      2  C   UNL     1      -4.128  -1.119   0.554  1.00  0.00     0.111 C 
BRANCH   2   3
ATOM      3  N   UNL     1      -4.350  -0.279  -0.628  1.00  0.00    -0.347 N 
ATOM      4  C   UNL     1      -5.031  -0.717  -1.736  1.00  0.00     0.257 C 
ATOM      5  O   UNL     1      -5.537  -1.838  -1.804  1.00  0.00    -0.269 OA
ATOM      6  H   UNL     1      -3.761   0.552  -0.715  1.00  0.00     0.164 HD
BRANCH   4   7
ATOM      7  C   UNL     1      -5.061   0.176  -2.929  1.00  0.00     0.104 A 
ATOM      8  C   UNL     1      -4.716   1.533  -2.928  1.00  0.00     0.226 A 
ATOM      9  N   UNL     1      -4.727   2.312  -4.044  1.00  0.00    -0.218 NA
ATOM     10  C   UNL     1      -5.099   1.720  -5.204  1.00  0.00     0.154 A 
ATOM     11  C   UNL     1      -5.452  -0.390  -4.150  1.00  0.00     0.060 A 
ATOM     12  C   UNL     1      -5.466   0.393  -5.294  1.00  0.00     0.142 A 
ATOM     13  F   UNL     1      -5.810  -0.143  -6.475  1.00  0.00    -0.205 F 
BRANCH   8  14
ATOM     14  O   UNL     1      -4.357   2.131  -1.734  1.00  0.00    -0.480 OA
ATOM     15  C   UNL     1      -4.042   3.512  -1.846  1.00  0.00     0.280 C 
ENDBRANCH   8  14
ENDBRANCH   4   7
ENDBRANCH   2   3
BRANCH   2  16
ATOM     16  C   UNL     1      -5.353  -0.984   1.475  1.00  0.00     0.028 CG0
ATOM     17  G   UNL     1      -5.644  -2.190   2.358  1.00  0.00     0.000 G0
ENDBRANCH   2  16
ENDBRANCH   1   2
BRANCH   1  18
ATOM     18  C   UNL     1      -2.390  -1.786   2.347  1.00  0.00     0.117 C 
BRANCH  18  19
ATOM     19  N   UNL     1      -3.374  -2.128   3.395  1.00  0.00    -0.304 NA
ATOM     20  C   UNL     1      -2.686  -2.830   4.487  1.00  0.00     0.105 C 
BRANCH  19  21
ATOM     21  C   UNL     1      -4.443  -2.986   2.859  1.00  0.00     0.084 C 
BRANCH  21  22
ATOM     22  C   UNL     1      -5.644  -2.190   2.358  1.00  0.00     0.018 CG0
ATOM     23  G   UNL     1      -5.353  -0.984   1.475  1.00  0.00     0.000 G0
ENDBRANCH  21  22
ENDBRANCH  19  21
ENDBRANCH  18  19
ENDBRANCH   1  18
BRANCH   1  24
ATOM     24  N   UNL     1      -1.698  -0.522   0.323  1.00  0.00    -0.114 N 
ATOM     25  N   UNL     1      -1.647   0.648  -0.378  1.00  0.00    -0.095 NA
ATOM     26  O   UNL     1      -0.526  -0.100   1.041  1.00  0.00    -0.336 OA
ATOM     27  C   UNL     1      -0.535   0.933   0.222  1.00  0.00     0.315 A 
BRANCH  27  28
ATOM     28  C   UNL     1       0.485   1.999   0.160  1.00  0.00     0.253 C 
ATOM     29  O   UNL     1       0.144   3.162   0.313  1.00  0.00    -0.283 OA
BRANCH  28  30
ATOM     30  C   UNL     1       1.895   1.609  -0.039  1.00  0.00     0.049 A 
ATOM     31  C   UNL     1       2.904   2.508   0.279  1.00  0.00     0.126 A 
ATOM     32  C   UNL     1       2.267   0.357  -0.521  1.00  0.00     0.057 A 
ATOM     33  N   UNL     1       4.229   2.221   0.187  1.00  0.00    -0.236 NA
ATOM     34  C   UNL     1       3.620   0.052  -0.614  1.00  0.00     0.166 A 
ATOM     35  C   UNL     1       4.598   0.988  -0.236  1.00  0.00     0.164 A 
ATOM     36  F   UNL     1       3.961  -1.170  -1.059  1.00  0.00    -0.203 F 
BRANCH  35  37
ATOM     37  N   UNL     1       5.963   0.645  -0.288  1.00  0.00    -0.352 N 
ATOM     38  C   UNL     1       6.300  -0.417   0.688  1.00  0.00     0.133 C 
ATOM     39  C   UNL     1       6.878   1.800  -0.151  1.00  0.00     0.133 C 
ATOM     40  C   UNL     1       7.773  -0.853   0.526  1.00  0.00     0.105 C 
ATOM     41  C   UNL     1       8.339   1.331  -0.341  1.00  0.00     0.105 C 
ATOM     42  N   UNL     1       8.723   0.277   0.622  1.00  0.00    -0.303 NA
ATOM     43  C   UNL     1      10.087  -0.183   0.363  1.00  0.00     0.105 C 
ENDBRANCH  35  37
ENDBRANCH  28  30
ENDBRANCH  27  28
ENDBRANCH   1  24
TORSDOF 7
