MODEL        6USER    Run = 6USERUSER    Estimated Free Energy of Binding    =  -6.31 kcal/mol  [=(1)+(2)+(3)-(4)]USERUSER    (1) Final Intermolecular Energy     = -10.78 kcal/molUSER        vdW + Hbond + desolv Energy     = -11.12 kcal/molUSER        Electrostatic Energy            =  -0.22 kcal/molUSER        Moving Ligand-Fixed Receptor    = -11.34 kcal/molUSER        Moving Ligand-Moving Receptor   =  +0.55 kcal/molUSER    (2) Final Total Internal Energy     =  -2.74 kcal/molUSER    (3) Torsional Free Energy           =  +4.47 kcal/molUSER    (4) Unbound System's Energy         =  -2.74 kcal/molUSERUSERREMARK SMILES COc1ccc(O)c(C(=O)c2ccc(CN[C@@H]3CCCNC[C@H]3NC(=O)c3ccncc3)cc2)c1FREMARK SMILES IDX 16 1 15 3 14 4 11 5 12 6 34 7 13 8 33 9 9 10 10 11 8 12 3 13REMARK SMILES IDX 4 14 35 15 5 16 6 17 36 18 2 19 1 20 7 21 17 23 18 24 23 26REMARK SMILES IDX 22 27 21 28 20 30 19 31 24 33 25 34 26 36 27 37 28 38 32 39REMARK SMILES IDX 29 40 31 41 30 42REMARK H PARENT 16 2 7 22 21 29 24 35REMARK Flexibility Score:   99.900USER                              x       y       z     vdW  Elec       q    TypeUSER                           _______ _______ _______ _____ _____    ______ ____ROOTATOM      1  N   UNL     1      36.864  45.639  25.208 -0.64 -0.03    -0.308 NA ATOM      2  H   UNL     1      36.370  46.236  25.874 -0.40 -0.02    +0.123 HD ENDROOTBRANCH   1   3ATOM      3  C   UNL     1      38.291  45.966  25.254 -0.26 +0.01    +0.117 C  BRANCH   3   4ATOM      4  C   UNL     1      39.019  45.683  23.963 -0.25 -0.00    -0.034 A  ATOM      5  C   UNL     1      40.389  45.140  21.567 -0.28 +0.00    +0.023 A  ATOM      6  C   UNL     1      40.968  44.805  22.796 -0.19 +0.00    +0.012 A  ATOM      7  C   UNL     1      39.139  45.769  21.539 -0.26 +0.00    +0.012 A  ATOM      8  C   UNL     1      40.281  45.069  23.984 -0.15 +0.00    +0.006 A  ATOM      9  C   UNL     1      38.456  46.033  22.728 -0.22 +0.00    +0.006 A  BRANCH   5  10ATOM     10  C   UNL     1      41.095  44.919  20.282 -0.30 +0.02    +0.199 C  ATOM     11  O   UNL     1      42.140  44.266  20.279 -0.08 -0.07    -0.288 OA BRANCH  10  12ATOM     12  C   UNL     1      40.577  45.391  18.980 -0.38 +0.00    +0.104 A  ATOM     13  C   UNL     1      38.872  45.422  17.238 -0.27 -0.03    +0.155 A  ATOM     14  C   UNL     1      39.650  46.312  16.495 -0.41 -0.01    +0.053 A  ATOM     15  C   UNL     1      39.342  44.974  18.481 -0.29 -0.02    +0.179 A  ATOM     16  C   UNL     1      40.873  46.763  17.001 -0.37 -0.01    +0.051 A  ATOM     17  C   UNL     1      41.322  46.317  18.241 -0.41 -0.00    +0.130 A  ATOM     18  F   UNL     1      38.566  44.149  19.204 -0.08 +0.01    -0.202 F  BRANCH  13  19ATOM     19  O   UNL     1      37.651  44.929  16.857 -0.07 +0.14    -0.494 OA ATOM     20  C   UNL     1      36.693  45.863  16.378 -0.23 -0.15    +0.278 C  ENDBRANCH  13  19BRANCH  17  21ATOM     21  O   UNL     1      42.512  46.836  18.680 -0.23 -0.04    -0.507 OA ATOM     22  H   UNL     1      43.091  46.964  17.893 -0.38 -0.05    +0.293 HD ENDBRANCH  17  21ENDBRANCH  10  12ENDBRANCH   5  10ENDBRANCH   3   4ENDBRANCH   1   3BRANCH   1  23ATOM     23  C   UNL     1      36.564  44.220  25.543 -0.34 -0.00    +0.077 C  BRANCH  23  24ATOM     24  C   UNL     1      36.989  43.996  27.000 -0.40 -0.00    +0.022 CG0ATOM     25  G   UNL     1      36.144  42.990  27.779 +0.00 +0.00    +0.000 G0 ENDBRANCH  23  24BRANCH  23  26ATOM     26  C   UNL     1      37.284  43.273  24.532 -0.33 +0.01    +0.113 C  BRANCH  26  27ATOM     27  C   UNL     1      37.087  41.781  24.899 -0.30 -0.01    +0.107 C  BRANCH  27  28ATOM     28  N   UNL     1      37.340  41.356  26.272 -0.16 +0.06    -0.315 NA ATOM     29  H   UNL     1      38.188  41.815  26.612 +0.07 -0.01    +0.122 HD BRANCH  28  30ATOM     30  C   UNL     1      36.281  41.566  27.249 -0.56 -0.03    +0.081 C  BRANCH  30  31ATOM     31  C   UNL     1      36.143  42.991  27.780 -0.40 -0.01    +0.017 CG0ATOM     32  G   UNL     1      36.995  43.998  27.008 +0.00 +0.00    +0.000 G0 ENDBRANCH  30  31ENDBRANCH  28  30ENDBRANCH  27  28ENDBRANCH  26  27BRANCH  26  33ATOM     33  N   UNL     1      36.768  43.519  23.171 -0.12 -0.05    -0.346 N  ATOM     34  C   UNL     1      36.983  42.622  22.147 -0.34 +0.02    +0.251 C  ATOM     35  H   UNL     1      36.176  44.325  23.036 +0.09 +0.05    +0.164 HD ATOM     36  O   UNL     1      37.683  41.624  22.262 -0.36 -0.02    -0.269 OA BRANCH  34  37ATOM     37  C   UNL     1      36.340  42.930  20.843 -0.42 +0.00    +0.042 A  ATOM     38  C   UNL     1      36.137  44.270  20.511 -0.32 -0.00    +0.034 A  ATOM     39  C   UNL     1      35.968  41.932  19.942 -0.32 -0.00    +0.034 A  ATOM     40  C   UNL     1      35.541  44.557  19.299 -0.29 -0.02    +0.112 A  ATOM     41  C   UNL     1      35.381  42.324  18.752 -0.31 -0.02    +0.112 A  ATOM     42  N   UNL     1      35.151  43.611  18.417 -0.14 +0.06    -0.265 NA ENDBRANCH  34  37ENDBRANCH  26  33ENDBRANCH  23  26ENDBRANCH   1  23TORSDOF 9TERENDMDL