MODEL        10USER    Run = 10USERUSER    Estimated Free Energy of Binding    = -13.07 kcal/mol  [=(1)+(2)+(3)-(4)]USERUSER    (1) Final Intermolecular Energy     = -14.86 kcal/molUSER        vdW + Hbond + desolv Energy     = -14.79 kcal/molUSER        Electrostatic Energy            =  -0.07 kcal/molUSER        Moving Ligand-Fixed Receptor    = -14.86 kcal/molUSER        Moving Ligand-Moving Receptor   =  +0.00 kcal/molUSER    (2) Final Total Internal Energy     =  -1.95 kcal/molUSER    (3) Torsional Free Energy           =  +1.79 kcal/molUSER    (4) Unbound System's Energy         =  -1.95 kcal/molUSERUSERREMARK SMILES Oc1nc2ccccc2n1C1CCN(Cc2ccc(-c3cc4ccccc4nc3-c3ccccc3)cc2)CC1REMARK SMILES IDX 11 1 12 2 13 3 14 4 38 5 39 6 10 7 2 8 3 9 4 10 9 11 5 12REMARK SMILES IDX 8 13 6 14 7 15 1 16 15 18 16 19 17 20 37 21 18 22 36 23REMARK SMILES IDX 19 24 20 25 21 26 29 27 22 28 28 29 23 30 27 31 24 32 26 33REMARK SMILES IDX 25 34 30 35 31 36 35 37 32 38 34 39 33 40REMARK H PARENT 1 17USER                              x       y       z     vdW  Elec       q    TypeUSER                           _______ _______ _______ _____ _____    ______ ____ROOTATOM      1  C   UNL     1      39.015  46.489  15.681 -0.42 -0.03    +0.095 C  ATOM      2  C   UNL     1      38.704  46.988  14.262 -0.50 -0.01    +0.041 C  ATOM      3  C   UNL     1      37.399  47.767  14.135 -0.53 -0.05    +0.087 C  ATOM      4  N   UNL     1      36.260  47.146  14.815 -0.19 +0.25    -0.299 NA ATOM      5  C   UNL     1      36.542  46.971  16.243 -0.34 -0.07    +0.087 C  ATOM      6  C   UNL     1      37.791  46.145  16.543 -0.41 -0.02    +0.041 C  ENDROOTBRANCH   1   7ATOM      7  N   UNL     1      40.044  47.260  16.375 -0.28 +0.06    -0.291 N  ATOM      8  C   UNL     1      40.464  48.502  15.962 -0.33 -0.07    +0.295 A  ATOM      9  N   UNL     1      41.410  49.009  16.701 -0.98 -0.00    -0.195 NA ATOM     10  C   UNL     1      41.630  48.059  17.662 -0.37 -0.00    +0.092 A  ATOM     11  C   UNL     1      40.786  46.951  17.497 -0.46 -0.01    +0.072 A  ATOM     12  C   UNL     1      42.553  48.089  18.720 -0.36 +0.00    +0.031 A  ATOM     13  C   UNL     1      40.836  45.868  18.383 -0.46 -0.00    +0.029 A  ATOM     14  C   UNL     1      42.610  47.007  19.602 -0.50 +0.00    +0.002 A  ATOM     15  C   UNL     1      41.762  45.917  19.433 -0.42 +0.00    +0.002 A  BRANCH   8  16ATOM     16  O   UNL     1      39.985  49.156  14.924 -0.20 +0.21    -0.480 OA ATOM     17  H   UNL     1      39.652  49.966  15.351 -0.15 -0.21    +0.296 HD ENDBRANCH   8  16ENDBRANCH   1   7BRANCH   4  18ATOM     18  C   UNL     1      35.813  45.916  14.141 -0.40 -0.07    +0.120 C  BRANCH  18  19ATOM     19  C   UNL     1      35.101  44.953  15.066 -0.23 +0.02    -0.034 A  ATOM     20  C   UNL     1      35.741  43.800  15.537 -0.34 -0.00    +0.006 A  ATOM     21  C   UNL     1      33.782  45.204  15.467 -0.31 -0.00    +0.006 A  ATOM     22  C   UNL     1      35.074  42.916  16.391 -0.43 -0.00    +0.009 A  ATOM     23  C   UNL     1      33.114  44.314  16.313 -0.32 -0.00    +0.009 A  ATOM     24  C   UNL     1      33.748  43.156  16.783 -0.34 +0.01    -0.016 A  BRANCH  24  25ATOM     25  C   UNL     1      33.047  42.226  17.680 -0.37 -0.00    +0.009 A  ATOM     26  C   UNL     1      31.899  41.564  17.218 -0.24 -0.01    +0.021 A  ATOM     27  C   UNL     1      33.476  41.921  18.982 -0.33 -0.00    +0.079 A  ATOM     28  C   UNL     1      31.230  40.636  18.025 -0.36 -0.00    +0.001 A  ATOM     29  N   UNL     1      32.842  41.008  19.773 -0.25 -0.06    -0.247 NA ATOM     30  C   UNL     1      30.080  39.960  17.581 -0.35 +0.00    +0.010 A  ATOM     31  C   UNL     1      31.747  40.387  19.308 -0.31 +0.01    +0.071 A  ATOM     32  C   UNL     1      29.440  39.037  18.407 -0.34 +0.00    +0.001 A  ATOM     33  C   UNL     1      31.093  39.462  20.112 -0.36 +0.00    +0.029 A  ATOM     34  C   UNL     1      29.949  38.787  19.676 -0.35 +0.00    +0.002 A  BRANCH  27  35ATOM     35  C   UNL     1      34.644  42.545  19.633 -0.43 -0.00    +0.001 A  ATOM     36  C   UNL     1      35.494  41.783  20.453 -0.28 -0.00    +0.010 A  ATOM     37  C   UNL     1      34.934  43.911  19.477 -0.39 -0.00    +0.010 A  ATOM     38  C   UNL     1      36.606  42.359  21.074 -0.48 +0.00    +0.001 A  ATOM     39  C   UNL     1      36.045  44.490  20.097 -0.27 -0.00    +0.001 A  ATOM     40  C   UNL     1      36.883  43.711  20.893 -0.41 +0.00    +0.000 A  ENDBRANCH  27  35ENDBRANCH  24  25ENDBRANCH  18  19ENDBRANCH   4  18TORSDOF 6TERENDMDL