MODEL        8USER    Run = 8USERUSER    Estimated Free Energy of Binding    =  -6.85 kcal/mol  [=(1)+(2)+(3)-(4)]USERUSER    (1) Final Intermolecular Energy     = -11.02 kcal/molUSER        vdW + Hbond + desolv Energy     = -11.98 kcal/molUSER        Electrostatic Energy            =  -0.03 kcal/molUSER        Moving Ligand-Fixed Receptor    = -12.01 kcal/molUSER        Moving Ligand-Moving Receptor   =  +0.98 kcal/molUSER    (2) Final Total Internal Energy     =  -2.32 kcal/molUSER    (3) Torsional Free Energy           =  +4.18 kcal/molUSER    (4) Unbound System's Energy         =  -2.32 kcal/molUSERUSERREMARK SMILES COc1ccc(O)c(C(=O)c2ccc(C(=O)N[C@@H]3CCCNC[C@H]3NC(=O)c3ccncc3)cc2)c1FREMARK SMILES IDX 15 1 16 2 17 3 14 5 11 6 12 7 35 8 13 9 34 10 9 11 10 12REMARK SMILES IDX 8 13 3 14 4 15 36 16 5 17 6 18 37 19 2 20 1 21 7 22 18 24REMARK SMILES IDX 19 25 24 27 23 28 22 29 21 31 20 32 25 34 26 35 27 37 28 38REMARK SMILES IDX 29 39 33 40 30 41 32 42 31 43REMARK H PARENT 17 4 7 23 22 30 25 36REMARK Flexibility Score:   88.900USER                              x       y       z     vdW  Elec       q    TypeUSER                           _______ _______ _______ _____ _____    ______ ____ROOTATOM      1  C   UNL     1      35.234  43.190  19.828 -0.31 -0.02    +0.251 C  ATOM      2  O   UNL     1      34.856  42.190  19.229 -0.29 +0.02    -0.269 OA ATOM      3  N   UNL     1      34.904  44.474  19.442 -0.17 +0.07    -0.347 N  ATOM      4  H   UNL     1      35.418  45.240  19.856 +0.03 -0.03    +0.164 HD ENDROOTBRANCH   1   5ATOM      5  C   UNL     1      36.156  43.067  20.991 -0.41 +0.00    +0.039 A  ATOM      6  C   UNL     1      37.860  42.967  23.216 -0.35 +0.00    +0.023 A  ATOM      7  C   UNL     1      37.759  44.141  22.462 -0.35 +0.00    +0.013 A  ATOM      8  C   UNL     1      37.109  41.842  22.856 -0.48 +0.00    +0.013 A  ATOM      9  C   UNL     1      36.919  44.187  21.346 -0.37 +0.00    +0.014 A  ATOM     10  C   UNL     1      36.265  41.887  21.738 -0.53 +0.00    +0.014 A  BRANCH   6  11ATOM     11  C   UNL     1      38.700  42.993  24.432 -0.19 +0.01    +0.199 C  ATOM     12  O   UNL     1      39.749  43.639  24.398 -0.10 -0.01    -0.288 OA BRANCH  11  13ATOM     13  C   UNL     1      38.338  42.330  25.707 -0.21 -0.00    +0.104 A  ATOM     14  C   UNL     1      36.691  41.562  27.337 -0.41 -0.04    +0.155 A  ATOM     15  C   UNL     1      37.718  41.050  28.134 -0.33 -0.01    +0.053 A  ATOM     16  C   UNL     1      37.013  42.197  26.125 -0.27 -0.02    +0.179 A  ATOM     17  C   UNL     1      39.046  41.153  27.714 -0.36 -0.00    +0.051 A  ATOM     18  C   UNL     1      39.349  41.774  26.505 -0.18 -0.00    +0.130 A  ATOM     19  F   UNL     1      36.012  42.651  25.353 -0.09 +0.00    -0.202 F  BRANCH  14  20ATOM     20  O   UNL     1      35.355  41.507  27.634 -0.26 +0.20    -0.494 OA ATOM     21  C   UNL     1      34.550  40.633  26.850 -0.33 -0.15    +0.278 C  ENDBRANCH  14  20BRANCH  18  22ATOM     22  O   UNL     1      40.674  41.801  26.159 +0.00 +0.06    -0.507 OA ATOM     23  H   UNL     1      40.823  42.617  25.624 +0.10 -0.01    +0.293 HD ENDBRANCH  18  22ENDBRANCH  11  13ENDBRANCH   6  11ENDBRANCH   1   5BRANCH   3  24ATOM     24  C   UNL     1      34.239  44.727  18.158 -0.34 -0.04    +0.106 C  BRANCH  24  25ATOM     25  C   UNL     1      32.739  44.432  18.284 -0.38 -0.01    +0.028 CG0ATOM     26  G   UNL     1      31.896  44.715  17.029 +0.00 +0.00    +0.000 G0 ENDBRANCH  24  25BRANCH  24  27ATOM     27  C   UNL     1      34.945  43.939  17.018 -0.30 -0.05    +0.118 C  BRANCH  27  28ATOM     28  C   UNL     1      34.204  42.664  16.551 -0.38 -0.05    +0.108 C  BRANCH  28  29ATOM     29  N   UNL     1      33.005  42.850  15.728 -0.05 +0.18    -0.315 NA ATOM     30  H   UNL     1      33.183  42.530  14.779 -0.33 -0.08    +0.122 HD BRANCH  29  31ATOM     31  C   UNL     1      32.447  44.197  15.698 -0.35 -0.04    +0.081 C  BRANCH  31  32ATOM     32  C   UNL     1      31.906  44.725  17.025 -0.28 -0.00    +0.017 CG0ATOM     33  G   UNL     1      32.742  44.433  18.282 +0.00 +0.00    +0.000 G0 ENDBRANCH  31  32ENDBRANCH  29  31ENDBRANCH  28  29ENDBRANCH  27  28BRANCH  27  34ATOM     34  N   UNL     1      35.224  44.831  15.885 -0.10 +0.19    -0.346 N  ATOM     35  C   UNL     1      36.103  45.884  15.997 -0.24 -0.17    +0.251 C  ATOM     36  H   UNL     1      34.980  44.496  14.966 +0.11 -0.08    +0.164 HD ATOM     37  O   UNL     1      36.641  46.211  17.047 -0.25 +0.15    -0.269 OA BRANCH  35  38ATOM     38  C   UNL     1      36.412  46.619  14.746 -0.38 -0.03    +0.042 A  ATOM     39  C   UNL     1      35.753  46.240  13.576 -0.47 -0.02    +0.034 A  ATOM     40  C   UNL     1      37.354  47.648  14.706 -0.46 -0.02    +0.034 A  ATOM     41  C   UNL     1      36.048  46.926  12.414 -0.57 -0.06    +0.112 A  ATOM     42  C   UNL     1      37.579  48.271  13.492 -0.36 -0.04    +0.112 A  ATOM     43  N   UNL     1      36.942  47.935  12.347 -1.00 +0.07    -0.265 NA ENDBRANCH  35  38ENDBRANCH  27  34ENDBRANCH  24  27ENDBRANCH   3  24TORSDOF 8TERENDMDL