MODEL        4USER    Run = 4USERUSER    Estimated Free Energy of Binding    =  -6.67 kcal/mol  [=(1)+(2)+(3)-(4)]USERUSER    (1) Final Intermolecular Energy     = -11.14 kcal/molUSER        vdW + Hbond + desolv Energy     = -11.36 kcal/molUSER        Electrostatic Energy            =  -0.25 kcal/molUSER        Moving Ligand-Fixed Receptor    = -11.61 kcal/molUSER        Moving Ligand-Moving Receptor   =  +0.46 kcal/molUSER    (2) Final Total Internal Energy     =  -2.65 kcal/molUSER    (3) Torsional Free Energy           =  +4.47 kcal/molUSER    (4) Unbound System's Energy         =  -2.65 kcal/molUSERUSERREMARK SMILES COc1ccc(O)c(C(=O)c2ccc(C(=O)O[C@@H]3CCCNC[C@H]3NC(=O)c3ccncc3)cc2)c1FREMARK SMILES IDX 17 1 15 2 16 3 14 4 11 5 12 6 35 7 13 8 34 9 9 10 10 11 8 12REMARK SMILES IDX 3 13 4 14 36 15 5 16 6 17 37 18 2 19 1 20 7 21 18 23 24 25REMARK SMILES IDX 23 26 22 27 21 29 20 30 19 31 25 33 26 34 27 36 28 37 29 38REMARK SMILES IDX 33 39 30 40 32 41 31 42REMARK H PARENT 7 22 22 28 25 35REMARK Flexibility Score:   99.900USER                              x       y       z     vdW  Elec       q    TypeUSER                           _______ _______ _______ _____ _____    ______ ____ROOTATOM      1  O   UNL     1      37.960  44.136  17.860 -0.08 +0.08    -0.457 OA ENDROOTBRANCH   1   2ATOM      2  C   UNL     1      38.377  45.419  17.712 -0.22 -0.07    +0.338 C  ATOM      3  O   UNL     1      37.884  46.272  16.988 -0.28 +0.09    -0.246 OA BRANCH   2   4ATOM      4  C   UNL     1      39.527  45.677  18.614 -0.39 -0.01    +0.060 A  ATOM      5  C   UNL     1      41.726  46.223  20.273 -0.38 +0.00    +0.023 A  ATOM      6  C   UNL     1      40.984  45.047  20.452 -0.36 +0.00    +0.013 A  ATOM      7  C   UNL     1      41.364  47.120  19.258 -0.07 +0.00    +0.013 A  ATOM      8  C   UNL     1      39.888  44.775  19.625 -0.39 -0.00    +0.016 A  ATOM      9  C   UNL     1      40.276  46.844  18.425 -0.36 -0.00    +0.016 A  BRANCH   5  10ATOM     10  C   UNL     1      42.883  46.573  21.142 -0.29 +0.06    +0.199 C  ATOM     11  O   UNL     1      43.977  46.840  20.657 -0.43 -0.21    -0.288 OA BRANCH  10  12ATOM     12  C   UNL     1      42.740  46.601  22.602 -0.20 +0.02    +0.104 A  ATOM     13  C   UNL     1      42.346  45.392  24.667 -0.03 +0.01    +0.155 A  ATOM     14  C   UNL     1      42.402  46.603  25.369 -0.07 +0.00    +0.053 A  ATOM     15  C   UNL     1      42.510  45.405  23.277 -0.08 +0.02    +0.179 A  ATOM     16  C   UNL     1      42.649  47.805  24.692 -0.20 +0.01    +0.051 A  ATOM     17  C   UNL     1      42.825  47.800  23.309 -0.26 +0.02    +0.130 A  ATOM     18  F   UNL     1      42.491  44.246  22.598 -0.04 -0.02    -0.202 F  BRANCH  13  19ATOM     19  O   UNL     1      42.164  44.157  25.229 +0.01 -0.01    -0.494 OA ATOM     20  C   UNL     1      42.366  44.040  26.632 -0.03 +0.00    +0.278 C  ENDBRANCH  13  19BRANCH  17  21ATOM     21  O   UNL     1      43.088  48.964  22.646 -0.63 -0.14    -0.507 OA ATOM     22  H   UNL     1      43.524  48.774  21.799 -0.42 -0.03    +0.293 HD ENDBRANCH  17  21ENDBRANCH  10  12ENDBRANCH   5  10ENDBRANCH   2   4ENDBRANCH   1   2BRANCH   1  23ATOM     23  C   UNL     1      36.533  43.932  18.032 -0.23 -0.05    +0.200 CG0ATOM     24  G   UNL     1      36.356  42.941  19.182 +0.00 +0.00    +0.000 G0 BRANCH  23  25ATOM     25  C   UNL     1      35.978  43.441  16.679 -0.35 -0.05    +0.137 C  BRANCH  25  26ATOM     26  C   UNL     1      34.447  43.267  16.639 -0.36 -0.04    +0.109 C  BRANCH  26  27ATOM     27  N   UNL     1      33.919  42.337  17.640 -0.17 +0.11    -0.315 NA ATOM     28  H   UNL     1      34.540  41.529  17.682 -0.17 -0.05    +0.122 HD BRANCH  27  29ATOM     29  C   UNL     1      33.759  42.874  18.994 -0.39 -0.01    +0.081 C  BRANCH  29  30ATOM     30  C   UNL     1      35.000  42.952  19.893 -0.48 -0.00    +0.019 C  BRANCH  30  31ATOM     31  C   UNL     1      36.360  42.942  19.186 -0.22 -0.01    +0.049 CG0ATOM     32  G   UNL     1      36.534  43.933  18.036 +0.00 +0.00    +0.000 G0 ENDBRANCH  30  31ENDBRANCH  29  30ENDBRANCH  27  29ENDBRANCH  26  27ENDBRANCH  25  26BRANCH  25  33ATOM     33  N   UNL     1      36.411  44.362  15.619 -0.15 +0.13    -0.344 N  ATOM     34  C   UNL     1      35.527  45.161  14.935 -0.22 -0.14    +0.251 C  ATOM     35  H   UNL     1      37.390  44.613  15.627 +0.11 -0.05    +0.164 HD ATOM     36  O   UNL     1      34.316  45.144  15.107 -0.23 +0.19    -0.269 OA BRANCH  34  37ATOM     37  C   UNL     1      36.126  46.090  13.948 -0.42 -0.02    +0.042 A  ATOM     38  C   UNL     1      36.202  45.691  12.615 -0.50 -0.01    +0.034 A  ATOM     39  C   UNL     1      36.645  47.324  14.337 -0.44 -0.02    +0.034 A  ATOM     40  C   UNL     1      36.776  46.565  11.711 -0.56 -0.04    +0.112 A  ATOM     41  C   UNL     1      37.204  48.121  13.356 -0.45 -0.04    +0.112 A  ATOM     42  N   UNL     1      37.274  47.772  12.052 -0.93 +0.03    -0.265 NA ENDBRANCH  34  37ENDBRANCH  25  33ENDBRANCH  23  25ENDBRANCH   1  23TORSDOF 9TERENDMDL