MODEL        9USER    Run = 9USERUSER    Estimated Free Energy of Binding    = -12.92 kcal/mol  [=(1)+(2)+(3)-(4)]USERUSER    (1) Final Intermolecular Energy     = -14.71 kcal/molUSER        vdW + Hbond + desolv Energy     = -14.40 kcal/molUSER        Electrostatic Energy            =  -0.31 kcal/molUSER        Moving Ligand-Fixed Receptor    = -14.71 kcal/molUSER        Moving Ligand-Moving Receptor   =  +0.00 kcal/molUSER    (2) Final Total Internal Energy     =  -2.02 kcal/molUSER    (3) Torsional Free Energy           =  +1.79 kcal/molUSER    (4) Unbound System's Energy         =  -2.02 kcal/molUSERUSERREMARK SMILES Cn1ccc2ccc3c4[nH]c5c(CCCN[C@H]6CC[C@H](O)CC6)cccc5c4c4c(c3c21)C(=O)NC4=OREMARK SMILES IDX 15 1 14 2 13 3 12 4 2 5 3 6 32 7 4 8 31 9 5 10 30 11 8 12REMARK SMILES IDX 6 13 29 14 33 15 7 16 9 17 28 18 36 19 35 20 10 21 27 22REMARK SMILES IDX 11 23 26 24 25 25 24 26 1 27 34 28 37 29 16 32 17 34 23 35REMARK SMILES IDX 18 36 22 37 19 38 20 39 21 40REMARK H PARENT 35 30 10 31 16 33 21 41USER                              x       y       z     vdW  Elec       q    TypeUSER                           _______ _______ _______ _____ _____    ______ ____ROOTATOM      1  C   UNL     1      35.565  42.575  20.642 -0.44 +0.00    +0.081 C  ENDROOTBRANCH   1   2ATOM      2  C   UNL     1      36.902  41.907  20.974 -0.51 +0.00    +0.020 C  BRANCH   2   3ATOM      3  C   UNL     1      37.494  42.379  22.307 -0.47 +0.00    +0.039 C  BRANCH   3   4ATOM      4  C   UNL     1      38.811  43.105  22.174 -0.23 -0.00    -0.024 A  ATOM      5  N   UNL     1      39.618  47.926  15.010 -0.23 +0.10    -0.350 N  ATOM      6  C   UNL     1      38.681  48.391  14.117 -0.40 -0.03    +0.086 A  ATOM      7  C   UNL     1      38.998  47.337  16.106 -0.42 -0.02    +0.057 A  ATOM      8  C   UNL     1      37.458  47.918  14.511 -0.50 -0.02    +0.028 A  ATOM      9  C   UNL     1      39.467  46.839  17.379 -0.43 -0.01    +0.022 A  ATOM     10  C   UNL     1      37.655  47.190  15.713 -0.43 -0.00    +0.000 A  ATOM     11  C   UNL     1      40.689  47.092  18.023 -0.45 -0.01    +0.063 A  ATOM     12  C   UNL     1      38.558  45.987  18.080 -0.36 -0.00    +0.009 A  ATOM     13  C   UNL     1      36.774  46.426  16.495 -0.36 -0.01    +0.011 A  ATOM     14  C   UNL     1      41.072  46.436  19.199 -0.40 +0.00    +0.063 A  ATOM     15  C   UNL     1      41.727  48.113  17.794 -0.28 -0.01    +0.259 C  ATOM     16  C   UNL     1      37.240  45.789  17.640 -0.33 -0.00    +0.012 A  ATOM     17  C   UNL     1      38.983  45.328  19.276 -0.36 -0.00    +0.055 A  ATOM     18  C   UNL     1      40.247  45.515  19.849 -0.39 +0.00    +0.022 A  ATOM     19  C   UNL     1      42.381  46.950  19.597 -0.36 +0.04    +0.259 C  ATOM     20  N   UNL     1      42.748  47.843  18.646 -0.38 -0.01    -0.288 N  ATOM     21  N   UNL     1      38.323  44.433  20.090 -0.14 +0.01    -0.354 N  ATOM     22  C   UNL     1      40.325  44.683  21.017 -0.32 +0.00    +0.008 A  ATOM     23  C   UNL     1      39.105  44.016  21.139 -0.24 +0.00    +0.050 A  ATOM     24  C   UNL     1      41.316  44.428  21.988 -0.26 +0.00    +0.011 A  ATOM     25  C   UNL     1      41.058  43.531  23.029 -0.25 +0.00    +0.001 A  ATOM     26  C   UNL     1      39.830  42.885  23.118 -0.26 +0.00    +0.006 A  ATOM     27  C   UNL     1      41.017  47.864  14.639 -0.28 -0.01    +0.149 C  ATOM     28  O   UNL     1      41.657  49.085  17.072 -0.93 -0.03    -0.269 OA ATOM     29  O   UNL     1      43.006  46.693  20.605 -0.31 -0.09    -0.269 OA ATOM     30  H   UNL     1      43.519  48.479  18.782 -0.39 -0.01    +0.173 HD ATOM     31  H   UNL     1      37.386  44.099  19.928 +0.11 -0.01    +0.167 HD ENDBRANCH   3   4ENDBRANCH   2   3ENDBRANCH   1   2BRANCH   1  32ATOM     32  N   UNL     1      35.695  43.315  19.386 -0.16 +0.04    -0.314 NA ATOM     33  H   UNL     1      36.050  44.253  19.568 +0.08 -0.02    +0.122 HD BRANCH  32  34ATOM     34  C   UNL     1      34.433  43.392  18.636 -0.38 -0.01    +0.053 C  ATOM     35  C   UNL     1      33.567  44.605  19.036 -0.48 -0.01    +0.021 C  ATOM     36  C   UNL     1      34.799  43.412  17.138 -0.40 -0.01    +0.021 C  ATOM     37  C   UNL     1      33.804  45.814  18.132 -0.51 -0.02    +0.033 C  ATOM     38  C   UNL     1      33.681  44.024  16.306 -0.36 -0.02    +0.033 C  ATOM     39  C   UNL     1      33.455  45.494  16.674 -0.28 -0.10    +0.114 C  BRANCH  39  40ATOM     40  O   UNL     1      32.083  45.797  16.428 -0.49 +0.25    -0.393 OA ATOM     41  H   UNL     1      32.040  46.707  16.085 -0.41 -0.31    +0.210 HD ENDBRANCH  39  40ENDBRANCH  32  34ENDBRANCH   1  32TORSDOF 6TERENDMDL