MODEL        2USER    Run = 2USERUSER    Estimated Free Energy of Binding    =  -4.87 kcal/mol  [=(1)+(2)+(3)-(4)]USERUSER    (1) Final Intermolecular Energy     =  -9.35 kcal/molUSER        vdW + Hbond + desolv Energy     =  -9.48 kcal/molUSER        Electrostatic Energy            =  -0.28 kcal/molUSER        Moving Ligand-Fixed Receptor    =  -9.77 kcal/molUSER        Moving Ligand-Moving Receptor   =  +0.42 kcal/molUSER    (2) Final Total Internal Energy     =  -4.14 kcal/molUSER    (3) Torsional Free Energy           =  +4.47 kcal/molUSER    (4) Unbound System's Energy         =  -4.14 kcal/molUSERUSERREMARK SMILES COc1ccc(O)c(C(=O)c2ccc(CO[C@@H]3CCCNC[C@@H]3NC(=O)c3ccncc3)cc2)c1FREMARK SMILES IDX 16 1 15 2 14 3 11 4 12 5 34 6 13 7 33 8 9 9 10 10 8 11 3 12REMARK SMILES IDX 4 13 35 14 5 15 6 16 36 17 2 18 1 19 7 20 17 22 18 23 23 25REMARK SMILES IDX 22 26 21 27 20 29 19 30 24 32 25 33 26 35 27 36 28 37 32 38REMARK SMILES IDX 29 39 31 40 30 41REMARK H PARENT 7 21 21 28 24 34REMARK Flexibility Score:   99.900USER                              x       y       z     vdW  Elec       q    TypeUSER                           _______ _______ _______ _____ _____    ______ ____ROOTATOM      1  O   UNL     1      40.307  60.099  22.371 -0.62 -0.17    -0.371 OA ENDROOTBRANCH   1   2ATOM      2  C   UNL     1      40.779  61.443  22.448 -0.34 +0.05    +0.196 C  BRANCH   2   3ATOM      3  C   UNL     1      40.352  62.017  23.774 -0.34 -0.01    -0.022 A  ATOM      4  C   UNL     1      39.560  63.057  26.261 -0.23 +0.02    +0.023 A  ATOM      5  C   UNL     1      40.756  62.342  26.151 -0.16 +0.01    +0.012 A  ATOM      6  C   UNL     1      38.777  63.280  25.122 -0.40 +0.01    +0.012 A  ATOM      7  C   UNL     1      41.144  61.821  24.915 -0.17 +0.00    +0.007 A  ATOM      8  C   UNL     1      39.168  62.758  23.887 -0.52 +0.00    +0.007 A  BRANCH   4   9ATOM      9  C   UNL     1      39.124  63.659  27.544 -0.10 +0.23    +0.199 C  ATOM     10  O   UNL     1      39.927  64.334  28.192 -0.27 -0.38    -0.288 OA BRANCH   9  11ATOM     11  C   UNL     1      37.783  63.441  28.127 -0.15 +0.06    +0.104 A  ATOM     12  C   UNL     1      35.360  63.707  28.085 -0.24 +0.06    +0.155 A  ATOM     13  C   UNL     1      35.262  62.982  29.276 -0.26 +0.01    +0.053 A  ATOM     14  C   UNL     1      36.625  63.936  27.526 -0.19 +0.10    +0.179 A  ATOM     15  C   UNL     1      36.417  62.511  29.904 -0.13 +0.01    +0.051 A  ATOM     16  C   UNL     1      37.668  62.752  29.341 -0.06 +0.05    +0.130 A  ATOM     17  F   UNL     1      36.710  64.665  26.401 -0.14 -0.15    -0.202 F  BRANCH  12  18ATOM     18  O   UNL     1      34.304  64.231  27.389 -0.75 -0.15    -0.494 OA ATOM     19  C   UNL     1      34.086  65.633  27.490 -0.28 +0.05    +0.278 C  ENDBRANCH  12  18BRANCH  16  20ATOM     20  O   UNL     1      38.749  62.282  30.037 +0.02 -0.15    -0.507 OA ATOM     21  H   UNL     1      39.533  62.819  29.775 +0.03 +0.11    +0.293 HD ENDBRANCH  16  20ENDBRANCH   9  11ENDBRANCH   4   9ENDBRANCH   2   3ENDBRANCH   1   2BRANCH   1  22ATOM     22  C   UNL     1      41.364  59.116  22.422 -0.28 +0.02    +0.142 C  BRANCH  22  23ATOM     23  C   UNL     1      40.865  57.963  21.539 -0.45 +0.00    +0.035 CG0ATOM     24  G   UNL     1      40.412  56.664  22.195 +0.00 +0.00    +0.000 G0 ENDBRANCH  22  23BRANCH  22  25ATOM     25  C   UNL     1      41.661  58.759  23.899 -0.17 +0.03    +0.125 C  BRANCH  25  26ATOM     26  C   UNL     1      42.631  57.556  23.994 -0.17 +0.03    +0.108 C  BRANCH  26  27ATOM     27  N   UNL     1      42.029  56.225  24.019 -0.55 -0.19    -0.315 NA ATOM     28  H   UNL     1      41.291  56.218  24.725 +0.02 +0.13    +0.122 HD BRANCH  27  29ATOM     29  C   UNL     1      41.516  55.768  22.736 -0.34 +0.02    +0.081 C  BRANCH  29  30ATOM     30  C   UNL     1      40.413  56.664  22.192 -0.41 +0.00    +0.018 CG0ATOM     31  G   UNL     1      40.866  57.962  21.534 +0.00 +0.00    +0.000 G0 ENDBRANCH  29  30ENDBRANCH  27  29ENDBRANCH  26  27ENDBRANCH  25  26BRANCH  25  32ATOM     32  N   UNL     1      40.417  58.593  24.665 -0.12 -0.13    -0.345 N  ATOM     33  C   UNL     1      40.428  58.078  25.945 -0.17 +0.16    +0.251 C  ATOM     34  H   UNL     1      39.713  59.296  24.479 -0.42 +0.02    +0.164 HD ATOM     35  O   UNL     1      41.428  57.630  26.489 -0.14 -0.25    -0.269 OA BRANCH  33  36ATOM     36  C   UNL     1      39.137  58.126  26.684 -0.22 +0.02    +0.042 A  ATOM     37  C   UNL     1      38.584  59.375  26.968 -0.01 +0.01    +0.034 A  ATOM     38  C   UNL     1      38.493  56.971  27.125 -0.23 +0.03    +0.034 A  ATOM     39  C   UNL     1      37.393  59.414  27.670 -0.21 +0.02    +0.112 A  ATOM     40  C   UNL     1      37.307  57.118  27.822 -0.18 +0.05    +0.112 A  ATOM     41  N   UNL     1      36.742  58.312  28.098 -0.15 -0.07    -0.265 NA ENDBRANCH  33  36ENDBRANCH  25  32ENDBRANCH  22  25ENDBRANCH   1  22TORSDOF 9TERENDMDL