MODEL        7USER    Run = 7USERUSER    Estimated Free Energy of Binding    =  -6.81 kcal/mol  [=(1)+(2)+(3)-(4)]USERUSER    (1) Final Intermolecular Energy     = -11.28 kcal/molUSER        vdW + Hbond + desolv Energy     = -11.71 kcal/molUSER        Electrostatic Energy            =  -0.32 kcal/molUSER        Moving Ligand-Fixed Receptor    = -12.03 kcal/molUSER        Moving Ligand-Moving Receptor   =  +0.75 kcal/molUSER    (2) Final Total Internal Energy     =  -1.78 kcal/molUSER    (3) Torsional Free Energy           =  +4.47 kcal/molUSER    (4) Unbound System's Energy         =  -1.78 kcal/molUSERUSERREMARK SMILES COc1ccc(O)c(C(=O)c2ccc(NC[C@@H]3CCCNC[C@@H]3NC(=O)c3ccncc3)cc2)c1FREMARK SMILES IDX 16 1 15 2 14 4 11 5 12 6 34 7 13 8 33 9 9 10 10 11 8 12 3 13REMARK SMILES IDX 4 14 35 15 5 16 6 17 36 18 2 19 1 20 7 21 17 23 18 24 23 26REMARK SMILES IDX 22 27 21 28 20 30 19 31 24 33 25 34 26 36 27 37 28 38 32 39REMARK SMILES IDX 29 40 31 41 30 42REMARK H PARENT 15 3 7 22 21 29 24 35REMARK Flexibility Score:   99.900USER                              x       y       z     vdW  Elec       q    TypeUSER                           _______ _______ _______ _____ _____    ______ ____ROOTATOM      1  C   UNL     1      39.090  46.139  15.738 -0.37 -0.03    +0.118 C  ENDROOTBRANCH   1   2ATOM      2  N   UNL     1      40.167  47.083  16.051 -0.19 +0.07    -0.385 N  ATOM      3  H   UNL     1      40.767  47.285  15.257 +0.12 -0.01    +0.160 HD BRANCH   2   4ATOM      4  C   UNL     1      40.836  47.079  17.272 -0.47 -0.00    +0.034 A  ATOM      5  C   UNL     1      42.208  46.894  19.741 -0.43 +0.00    +0.023 A  ATOM      6  C   UNL     1      42.536  47.892  18.822 -0.43 +0.00    +0.014 A  ATOM      7  C   UNL     1      41.234  45.952  19.408 -0.44 +0.00    +0.014 A  ATOM      8  C   UNL     1      41.861  47.975  17.597 -0.27 -0.00    +0.026 A  ATOM      9  C   UNL     1      40.565  46.047  18.181 -0.47 -0.00    +0.026 A  BRANCH   5  10ATOM     10  C   UNL     1      42.971  46.823  21.010 -0.31 +0.06    +0.199 C  ATOM     11  O   UNL     1      44.144  46.447  20.983 -0.41 -0.27    -0.288 OA BRANCH  10  12ATOM     12  C   UNL     1      42.380  47.129  22.331 -0.23 +0.02    +0.104 A  ATOM     13  C   UNL     1      40.636  46.855  24.014 -0.15 +0.01    +0.155 A  ATOM     14  C   UNL     1      41.314  47.739  24.856 -0.21 +0.01    +0.053 A  ATOM     15  C   UNL     1      41.175  46.565  22.751 -0.14 +0.02    +0.179 A  ATOM     16  C   UNL     1      42.504  48.336  24.433 -0.30 +0.01    +0.051 A  ATOM     17  C   UNL     1      43.023  48.043  23.174 -0.28 +0.03    +0.130 A  ATOM     18  F   UNL     1      40.491  45.747  21.934 -0.06 -0.01    -0.202 F  BRANCH  13  19ATOM     19  O   UNL     1      39.457  46.225  24.311 -0.03 -0.04    -0.494 OA ATOM     20  C   UNL     1      38.402  47.026  24.830 -0.23 +0.03    +0.278 C  ENDBRANCH  13  19BRANCH  17  21ATOM     21  O   UNL     1      44.174  48.696  22.825 -0.36 -0.14    -0.507 OA ATOM     22  H   UNL     1      44.445  48.375  21.934 -0.41 +0.04    +0.293 HD ENDBRANCH  17  21ENDBRANCH  10  12ENDBRANCH   5  10ENDBRANCH   2   4ENDBRANCH   1   2BRANCH   1  23ATOM     23  C   UNL     1      38.570  46.312  14.289 -0.46 -0.01    +0.032 C  BRANCH  23  24ATOM     24  C   UNL     1      38.033  47.744  14.087 -0.59 -0.00    +0.009 CG0ATOM     25  G   UNL     1      36.596  47.927  13.598 +0.00 +0.00    +0.000 G0 ENDBRANCH  23  24BRANCH  23  26ATOM     26  C   UNL     1      37.582  45.177  13.932 -0.38 -0.03    +0.101 C  BRANCH  26  27ATOM     27  C   UNL     1      37.276  45.144  12.417 -0.35 -0.03    +0.106 C  BRANCH  27  28ATOM     28  N   UNL     1      37.303  46.451  11.747 -0.40 +0.09    -0.315 NA ATOM     29  H   UNL     1      38.210  46.879  11.949 +0.08 -0.01    +0.122 HD BRANCH  28  30ATOM     30  C   UNL     1      36.261  47.360  12.227 -0.68 -0.04    +0.081 C  BRANCH  30  31ATOM     31  C   UNL     1      36.598  47.939  13.595 -0.62 -0.01    +0.016 CG0ATOM     32  G   UNL     1      38.033  47.746  14.087 +0.00 +0.00    +0.000 G0 ENDBRANCH  30  31ENDBRANCH  28  30ENDBRANCH  27  28ENDBRANCH  26  27BRANCH  26  33ATOM     33  N   UNL     1      36.331  45.249  14.682 -0.14 +0.17    -0.348 N  ATOM     34  C   UNL     1      36.012  44.387  15.704 -0.25 -0.11    +0.251 C  ATOM     35  H   UNL     1      35.654  45.909  14.317 +0.12 -0.11    +0.164 HD ATOM     36  O   UNL     1      36.752  43.480  16.067 -0.29 +0.09    -0.269 OA BRANCH  34  37ATOM     37  C   UNL     1      34.691  44.580  16.358 -0.29 -0.02    +0.042 A  ATOM     38  C   UNL     1      33.564  44.043  15.733 -0.25 -0.02    +0.034 A  ATOM     39  C   UNL     1      34.547  45.248  17.575 -0.34 -0.02    +0.034 A  ATOM     40  C   UNL     1      32.336  44.216  16.342 -0.25 -0.05    +0.112 A  ATOM     41  C   UNL     1      33.273  45.366  18.102 -0.29 -0.05    +0.112 A  ATOM     42  N   UNL     1      32.166  44.871  17.511 -0.28 +0.06    -0.265 NA ENDBRANCH  34  37ENDBRANCH  26  33ENDBRANCH  23  26ENDBRANCH   1  23TORSDOF 9TERENDMDL