MODEL        6USER    Run = 6USERUSER    Estimated Free Energy of Binding    = -12.73 kcal/mol  [=(1)+(2)+(3)-(4)]USERUSER    (1) Final Intermolecular Energy     = -14.52 kcal/molUSER        vdW + Hbond + desolv Energy     = -14.43 kcal/molUSER        Electrostatic Energy            =  -0.09 kcal/molUSER        Moving Ligand-Fixed Receptor    = -14.52 kcal/molUSER        Moving Ligand-Moving Receptor   =  +0.00 kcal/molUSER    (2) Final Total Internal Energy     =  -2.62 kcal/molUSER    (3) Torsional Free Energy           =  +1.79 kcal/molUSER    (4) Unbound System's Energy         =  -2.62 kcal/molUSERUSERREMARK SMILES Oc1nc2ccccc2n1C1CCN(Cc2ccc(-c3nc4ccccc4nc3-c3ccccc3)cc2)CC1REMARK SMILES IDX 11 1 12 2 13 3 14 4 38 5 39 6 10 7 2 8 3 9 4 10 9 11 5 12REMARK SMILES IDX 8 13 6 14 7 15 1 16 15 18 16 19 17 20 37 21 18 22 36 23REMARK SMILES IDX 19 24 20 25 21 26 29 27 22 28 28 29 23 30 27 31 24 32 26 33REMARK SMILES IDX 25 34 30 35 31 36 35 37 32 38 34 39 33 40REMARK H PARENT 1 17USER                              x       y       z     vdW  Elec       q    TypeUSER                           _______ _______ _______ _____ _____    ______ ____ROOTATOM      1  C   UNL     1      39.364  47.085  16.010 -0.46 -0.03    +0.095 C  ATOM      2  C   UNL     1      38.562  48.374  15.766 -0.48 -0.02    +0.041 C  ATOM      3  C   UNL     1      38.210  48.554  14.289 -0.48 -0.04    +0.087 C  ATOM      4  N   UNL     1      37.740  47.328  13.638 -0.36 +0.11    -0.299 NA ATOM      5  C   UNL     1      38.703  46.219  13.747 -0.11 -0.02    +0.087 C  ATOM      6  C   UNL     1      39.874  46.472  14.701 -0.44 -0.01    +0.041 C  ENDROOTBRANCH   1   7ATOM      7  N   UNL     1      40.412  47.258  17.003 -0.30 +0.05    -0.291 N  ATOM      8  C   UNL     1      41.343  48.259  17.036 -0.21 -0.02    +0.295 A  ATOM      9  N   UNL     1      42.161  48.173  18.048 -0.53 -0.00    -0.195 NA ATOM     10  C   UNL     1      41.741  47.057  18.731 -0.46 +0.00    +0.092 A  ATOM     11  C   UNL     1      40.642  46.461  18.106 -0.45 -0.01    +0.072 A  ATOM     12  C   UNL     1      42.254  46.493  19.910 -0.40 +0.01    +0.031 A  ATOM     13  C   UNL     1      40.020  45.312  18.615 -0.43 -0.00    +0.029 A  ATOM     14  C   UNL     1      41.646  45.344  20.431 -0.35 +0.00    +0.002 A  ATOM     15  C   UNL     1      40.549  44.766  19.792 -0.40 +0.00    +0.002 A  BRANCH   8  16ATOM     16  O   UNL     1      41.428  49.235  16.156 -0.86 +0.00    -0.480 OA ATOM     17  H   UNL     1      41.436  50.018  16.738 +0.15 -0.01    +0.296 HD ENDBRANCH   8  16ENDBRANCH   1   7BRANCH   4  18ATOM     18  C   UNL     1      36.387  46.912  14.046 -0.45 -0.08    +0.120 C  BRANCH  18  19ATOM     19  C   UNL     1      36.347  46.153  15.354 -0.35 +0.02    -0.034 A  ATOM     20  C   UNL     1      35.802  46.736  16.503 -0.30 -0.01    +0.006 A  ATOM     21  C   UNL     1      36.871  44.857  15.439 -0.36 -0.00    +0.006 A  ATOM     22  C   UNL     1      35.764  46.026  17.708 -0.32 -0.01    +0.011 A  ATOM     23  C   UNL     1      36.831  44.150  16.644 -0.34 -0.00    +0.011 A  ATOM     24  C   UNL     1      36.262  44.716  17.797 -0.33 -0.00    +0.002 A  BRANCH  24  25ATOM     25  C   UNL     1      36.196  43.979  19.070 -0.30 -0.02    +0.097 A  ATOM     26  N   UNL     1      37.297  44.145  19.859 -0.22 +0.02    -0.244 NA ATOM     27  C   UNL     1      35.132  43.155  19.471 -0.35 -0.01    +0.097 A  ATOM     28  C   UNL     1      37.340  43.462  21.016 -0.33 +0.00    +0.089 A  ATOM     29  N   UNL     1      35.190  42.456  20.642 -0.34 -0.02    -0.244 NA ATOM     30  C   UNL     1      38.447  43.590  21.846 -0.30 +0.00    +0.030 A  ATOM     31  C   UNL     1      36.283  42.612  21.407 -0.39 +0.00    +0.089 A  ATOM     32  C   UNL     1      38.534  42.896  23.054 -0.32 +0.00    +0.002 A  ATOM     33  C   UNL     1      36.378  41.925  22.611 -0.46 +0.00    +0.030 A  ATOM     34  C   UNL     1      37.494  42.060  23.438 -0.37 +0.00    +0.002 A  BRANCH  27  35ATOM     35  C   UNL     1      33.874  42.967  18.726 -0.38 -0.00    +0.002 A  ATOM     36  C   UNL     1      33.068  44.073  18.403 -0.35 -0.00    +0.010 A  ATOM     37  C   UNL     1      33.450  41.700  18.287 -0.40 -0.00    +0.010 A  ATOM     38  C   UNL     1      31.872  43.919  17.694 -0.29 -0.00    +0.001 A  ATOM     39  C   UNL     1      32.254  41.542  17.581 -0.35 -0.00    +0.001 A  ATOM     40  C   UNL     1      31.464  42.651  17.287 -0.30 -0.00    +0.000 A  ENDBRANCH  27  35ENDBRANCH  24  25ENDBRANCH  18  19ENDBRANCH   4  18TORSDOF 6TERENDMDL