MODEL        1USER    Run = 1USERUSER    Estimated Free Energy of Binding    = -11.76 kcal/mol  [=(1)+(2)+(3)-(4)]USERUSER    (1) Final Intermolecular Energy     = -14.14 kcal/molUSER        vdW + Hbond + desolv Energy     = -14.06 kcal/molUSER        Electrostatic Energy            =  -0.08 kcal/molUSER        Moving Ligand-Fixed Receptor    = -14.14 kcal/molUSER        Moving Ligand-Moving Receptor   =  +0.00 kcal/molUSER    (2) Final Total Internal Energy     =  -2.57 kcal/molUSER    (3) Torsional Free Energy           =  +2.39 kcal/molUSER    (4) Unbound System's Energy         =  -2.57 kcal/molUSERUSERREMARK SMILES N#Cc1cnc(-c2ccc(CNCc3ccc(-c4csnn4)cc3)cc2)c(-c2ccccc2)c1REMARK SMILES IDX 11 1 10 2 7 3 8 4 26 5 9 6 25 7 6 8 3 9 4 10 34 11 5 12REMARK SMILES IDX 27 13 2 14 1 15 28 16 29 17 33 18 30 19 32 20 31 21 12 22REMARK SMILES IDX 13 24 14 25 15 26 24 27 16 28 23 29 17 30 18 31 19 32 22 33REMARK SMILES IDX 20 34 21 35REMARK H PARENT 12 23USER                              x       y       z     vdW  Elec       q    TypeUSER                           _______ _______ _______ _____ _____    ______ ____ROOTATOM      1  C   UNL     1      38.627  43.473  22.605 -0.28 +0.01    +0.117 C  ENDROOTBRANCH   1   2ATOM      2  C   UNL     1      37.464  43.267  21.664 -0.37 -0.00    -0.034 A  ATOM      3  C   UNL     1      35.300  42.854  19.872 -0.45 -0.00    +0.001 A  ATOM      4  C   UNL     1      35.823  44.139  20.100 -0.39 -0.00    +0.011 A  ATOM      5  C   UNL     1      35.875  41.783  20.575 -0.42 -0.00    +0.011 A  ATOM      6  C   UNL     1      36.894  44.345  20.977 -0.36 +0.00    +0.006 A  ATOM      7  C   UNL     1      36.947  41.984  21.451 -0.50 +0.00    +0.006 A  BRANCH   3   8ATOM      8  C   UNL     1      34.171  42.664  18.938 -0.35 -0.01    +0.078 A  ATOM      9  C   UNL     1      31.945  42.114  17.391 -0.27 -0.02    +0.071 A  ATOM     10  C   UNL     1      32.079  41.659  18.688 -0.27 -0.01    +0.131 A  ATOM     11  C   UNL     1      32.976  42.888  16.862 -0.32 -0.01    +0.032 A  ATOM     12  N   UNL     1      33.155  41.920  19.465 -0.40 -0.02    -0.254 NA ATOM     13  C   UNL     1      34.119  43.188  17.629 -0.33 -0.00    +0.009 A  BRANCH   9  14ATOM     14  C   UNL     1      30.780  41.803  16.627 -0.30 -0.04    +0.101 C  ATOM     15  N   UNL     1      29.832  41.552  16.008 -0.26 +0.07    -0.192 NA ENDBRANCH   9  14BRANCH  13  16ATOM     16  C   UNL     1      35.161  44.048  17.042 -0.31 +0.01    -0.016 A  ATOM     17  C   UNL     1      35.059  45.448  17.111 -0.34 -0.01    +0.009 A  ATOM     18  C   UNL     1      36.290  43.496  16.415 -0.39 -0.00    +0.009 A  ATOM     19  C   UNL     1      36.047  46.269  16.561 -0.37 -0.00    +0.001 A  ATOM     20  C   UNL     1      37.277  44.316  15.862 -0.33 -0.00    +0.001 A  ATOM     21  C   UNL     1      37.155  45.702  15.935 -0.36 -0.00    +0.000 A  ENDBRANCH  13  16ENDBRANCH   3   8ENDBRANCH   1   2BRANCH   1  22ATOM     22  N   UNL     1      39.502  44.537  22.113 -0.10 -0.01    -0.309 NA ATOM     23  H   UNL     1      40.077  44.860  22.890 +0.07 +0.01    +0.123 HD BRANCH  22  24ATOM     24  C   UNL     1      40.377  44.077  21.035 -0.25 +0.01    +0.117 C  BRANCH  24  25ATOM     25  C   UNL     1      40.515  45.074  19.907 -0.38 -0.00    -0.034 A  ATOM     26  C   UNL     1      41.627  45.921  19.831 -0.41 +0.00    +0.006 A  ATOM     27  C   UNL     1      39.521  45.182  18.927 -0.42 -0.00    +0.006 A  ATOM     28  C   UNL     1      41.747  46.850  18.790 -0.52 +0.00    +0.011 A  ATOM     29  C   UNL     1      39.639  46.110  17.889 -0.44 -0.00    +0.011 A  ATOM     30  C   UNL     1      40.757  46.952  17.802 -0.52 -0.00    +0.003 A  BRANCH  30  31ATOM     31  C   UNL     1      40.852  47.909  16.704 -0.44 -0.02    +0.105 A  ATOM     32  C   UNL     1      40.282  47.732  15.454 -0.44 -0.02    +0.118 A  ATOM     33  N   UNL     1      41.529  49.117  16.859 -0.98 -0.01    -0.138 NA ATOM     34  S   UNL     1      40.653  49.121  14.516 -0.78 +0.01    -0.020 S  ATOM     35  N   UNL     1      41.501  49.849  15.759 -1.07 +0.01    -0.091 NA ENDBRANCH  30  31ENDBRANCH  24  25ENDBRANCH  22  24ENDBRANCH   1  22TORSDOF 8TERENDMDL