MODEL        3USER    Run = 3USERUSER    Estimated Free Energy of Binding    =  -7.31 kcal/mol  [=(1)+(2)+(3)-(4)]USERUSER    (1) Final Intermolecular Energy     = -11.79 kcal/molUSER        vdW + Hbond + desolv Energy     = -12.02 kcal/molUSER        Electrostatic Energy            =  -0.18 kcal/molUSER        Moving Ligand-Fixed Receptor    = -12.20 kcal/molUSER        Moving Ligand-Moving Receptor   =  +0.42 kcal/molUSER    (2) Final Total Internal Energy     =  -2.12 kcal/molUSER    (3) Torsional Free Energy           =  +4.47 kcal/molUSER    (4) Unbound System's Energy         =  -2.12 kcal/molUSERUSERREMARK SMILES COc1ccc(O)c(C(=O)c2ccc(/C=C/[C@@H]3CCCNC[C@H]3NC(=O)c3ccncc3)cc2)c1FREMARK SMILES IDX 16 1 15 2 14 3 11 4 12 5 34 6 13 7 33 8 9 9 10 10 8 11 3 12REMARK SMILES IDX 4 13 35 14 5 15 6 16 36 17 2 18 1 19 7 20 17 22 18 23 23 25REMARK SMILES IDX 22 26 21 27 20 29 19 30 24 32 25 33 26 35 27 36 28 37 32 38REMARK SMILES IDX 29 39 31 40 30 41REMARK H PARENT 7 21 21 28 24 34REMARK Flexibility Score:   99.900USER                              x       y       z     vdW  Elec       q    TypeUSER                           _______ _______ _______ _____ _____    ______ ____ROOTATOM      1  C   UNL     1      32.023  43.261  16.887 -0.35 +0.01    -0.021 C  ENDROOTBRANCH   1   2ATOM      2  C   UNL     1      31.459  42.086  16.568 -0.25 -0.00    +0.004 C  BRANCH   2   3ATOM      3  C   UNL     1      31.361  40.956  17.499 -0.32 +0.01    -0.026 A  ATOM      4  C   UNL     1      31.256  38.799  19.294 -0.43 +0.00    +0.023 A  ATOM      5  C   UNL     1      32.378  38.973  18.477 -0.25 +0.00    +0.013 A  ATOM      6  C   UNL     1      30.206  39.720  19.245 -0.17 +0.00    +0.013 A  ATOM      7  C   UNL     1      32.428  40.053  17.587 -0.37 -0.00    +0.009 A  ATOM      8  C   UNL     1      30.257  40.788  18.346 -0.14 -0.00    +0.009 A  BRANCH   4   9ATOM      9  C   UNL     1      31.181  37.690  20.268 -0.41 +0.04    +0.199 C  ATOM     10  O   UNL     1      32.211  37.076  20.551 -0.32 -0.07    -0.288 OA BRANCH   9  11ATOM     11  C   UNL     1      29.910  37.246  20.884 -0.31 +0.01    +0.104 A  ATOM     12  C   UNL     1      27.529  36.736  20.739 -0.23 -0.06    +0.155 A  ATOM     13  C   UNL     1      27.523  36.399  22.094 -0.31 -0.02    +0.053 A  ATOM     14  C   UNL     1      28.728  37.160  20.146 -0.19 +0.01    +0.179 A  ATOM     15  C   UNL     1      28.694  36.509  22.848 -0.31 +0.00    +0.051 A  ATOM     16  C   UNL     1      29.873  36.942  22.250 -0.32 +0.00    +0.130 A  ATOM     17  F   UNL     1      28.713  37.518  18.851 -0.07 -0.09    -0.202 F  BRANCH  12  18ATOM     18  O   UNL     1      26.445  36.687  19.905 -0.10 +0.42    -0.494 OA ATOM     19  C   UNL     1      25.841  37.924  19.548 -0.12 -0.18    +0.278 C  ENDBRANCH  12  18BRANCH  16  20ATOM     20  O   UNL     1      30.966  37.050  23.068 -0.15 +0.02    -0.507 OA ATOM     21  H   UNL     1      31.655  37.562  22.584 -0.08 -0.04    +0.293 HD ENDBRANCH  16  20ENDBRANCH   9  11ENDBRANCH   4   9ENDBRANCH   2   3ENDBRANCH   1   2BRANCH   1  22ATOM     22  C   UNL     1      33.479  43.654  16.649 -0.36 -0.02    +0.035 C  BRANCH  22  23ATOM     23  C   UNL     1      34.348  42.573  17.322 -0.46 -0.00    +0.011 CG0ATOM     24  G   UNL     1      34.254  42.406  18.835 +0.00 +0.00    +0.000 G0 ENDBRANCH  22  23BRANCH  22  25ATOM     25  C   UNL     1      33.877  45.116  17.018 -0.32 -0.07    +0.103 C  BRANCH  25  26ATOM     26  C   UNL     1      34.850  45.145  18.232 -0.37 -0.05    +0.106 C  BRANCH  26  27ATOM     27  N   UNL     1      34.326  44.776  19.542 -0.14 +0.09    -0.315 NA ATOM     28  H   UNL     1      33.776  45.550  19.916 -0.31 -0.07    +0.122 HD BRANCH  27  29ATOM     29  C   UNL     1      33.556  43.542  19.577 -0.42 -0.00    +0.081 C  BRANCH  29  30ATOM     30  C   UNL     1      34.249  42.408  18.837 -0.46 -0.00    +0.016 CG0ATOM     31  G   UNL     1      34.345  42.573  17.324 +0.00 +0.00    +0.000 G0 ENDBRANCH  29  30ENDBRANCH  27  29ENDBRANCH  26  27ENDBRANCH  25  26BRANCH  25  32ATOM     32  N   UNL     1      34.524  45.795  15.887 -0.09 +0.35    -0.347 N  ATOM     33  C   UNL     1      35.615  45.254  15.242 -0.23 -0.15    +0.251 C  ATOM     34  H   UNL     1      34.038  46.575  15.467 -0.12 -0.32    +0.164 HD ATOM     35  O   UNL     1      36.127  44.187  15.554 -0.25 +0.11    -0.269 OA BRANCH  33  36ATOM     36  C   UNL     1      36.143  46.028  14.091 -0.41 -0.02    +0.042 A  ATOM     37  C   UNL     1      36.489  45.412  12.888 -0.47 -0.01    +0.034 A  ATOM     38  C   UNL     1      36.258  47.411  14.219 -0.39 -0.03    +0.034 A  ATOM     39  C   UNL     1      36.965  46.213  11.868 -0.51 -0.04    +0.112 A  ATOM     40  C   UNL     1      36.748  48.122  13.140 -0.50 -0.05    +0.112 A  ATOM     41  N   UNL     1      37.113  47.552  11.972 -0.99 +0.06    -0.265 NA ENDBRANCH  33  36ENDBRANCH  25  32ENDBRANCH  22  25ENDBRANCH   1  22TORSDOF 9TERENDMDL