MODEL        7USER    Run = 7USERUSER    Estimated Free Energy of Binding    =  -9.11 kcal/mol  [=(1)+(2)+(3)-(4)]USERUSER    (1) Final Intermolecular Energy     = -11.49 kcal/molUSER        vdW + Hbond + desolv Energy     = -11.27 kcal/molUSER        Electrostatic Energy            =  -0.22 kcal/molUSER        Moving Ligand-Fixed Receptor    = -11.49 kcal/molUSER        Moving Ligand-Moving Receptor   =  +0.00 kcal/molUSER    (2) Final Total Internal Energy     =  -2.68 kcal/molUSER    (3) Torsional Free Energy           =  +2.39 kcal/molUSER    (4) Unbound System's Energy         =  -2.68 kcal/molUSERUSERREMARK SMILES Nc1ncc(N2CC[C@@H](CN3CCOCC3)C2)c(-c2cc(F)ccc2C(=O)c2ccc(F)cc2O)n1REMARK SMILES IDX 19 1 20 2 21 3 22 4 23 5 24 6 25 7 18 8 2 9 3 10 36 11 4 12REMARK SMILES IDX 5 13 1 14 6 17 7 18 17 19 8 20 9 21 10 22 11 23 12 24 16 25REMARK SMILES IDX 13 26 15 27 14 28 26 29 27 30 28 31 29 32 34 33 30 34 33 35REMARK SMILES IDX 31 36 32 37 35 38REMARK H PARENT 1 15 1 16 35 39USER                              x       y       z     vdW  Elec       q    TypeUSER                           _______ _______ _______ _____ _____    ______ ____ROOTATOM      1  C   UNL     1      41.450  45.104  20.397 -0.35 +0.00    +0.017 A  ATOM      2  C   UNL     1      40.633  44.713  19.316 -0.38 +0.00    +0.050 A  ATOM      3  C   UNL     1      40.464  45.541  18.212 -0.38 -0.01    +0.123 A  ATOM      4  F   UNL     1      39.671  45.146  17.207 -0.04 +0.02    -0.207 F  ATOM      5  C   UNL     1      41.105  46.767  18.135 -0.49 -0.00    +0.040 A  ATOM      6  C   UNL     1      41.934  47.172  19.180 -0.42 +0.00    +0.016 A  ATOM      7  C   UNL     1      42.108  46.352  20.314 -0.37 +0.01    +0.032 A  ENDROOTBRANCH   1   8ATOM      8  C   UNL     1      41.577  44.183  21.542 -0.26 +0.01    +0.100 A  ATOM      9  C   UNL     1      43.045  42.810  22.652 -0.20 -0.00    +0.220 A  ATOM     10  N   UNL     1      42.156  42.499  23.591 -0.12 +0.02    -0.220 NA ATOM     11  N   UNL     1      42.814  43.622  21.626 -0.21 -0.04    -0.211 NA ATOM     12  C   UNL     1      40.929  43.050  23.453 -0.18 +0.00    +0.143 A  ATOM     13  C   UNL     1      40.532  43.902  22.433 -0.21 +0.00    +0.082 A  BRANCH   9  14ATOM     14  N   UNL     1      44.314  42.279  22.773 -0.17 +0.01    -0.368 N  ATOM     15  H   UNL     1      44.984  42.971  22.466 +0.05 +0.03    +0.159 HD ATOM     16  H   UNL     1      44.333  41.389  22.295 -0.31 -0.03    +0.159 HD ENDBRANCH   9  14BRANCH  13  17ATOM     17  N   UNL     1      39.230  44.387  22.272 -0.08 -0.02    -0.368 N  ATOM     18  C   UNL     1      38.257  43.352  21.868 -0.29 +0.00    +0.117 C  ATOM     19  C   UNL     1      38.623  45.265  23.291 -0.28 +0.01    +0.121 C  ATOM     20  C   UNL     1      36.923  43.883  22.379 -0.38 +0.00    +0.028 C  ATOM     21  C   UNL     1      37.298  44.589  23.679 -0.32 +0.00    +0.024 C  BRANCH  21  22ATOM     22  C   UNL     1      37.492  43.678  24.907 -0.31 +0.00    +0.090 C  BRANCH  22  23ATOM     23  N   UNL     1      36.208  43.236  25.468 -0.19 +0.00    -0.298 NA ATOM     24  C   UNL     1      36.129  41.772  25.680 -0.39 -0.02    +0.113 C  ATOM     25  C   UNL     1      35.895  43.953  26.724 -0.40 -0.02    +0.113 C  ATOM     26  C   UNL     1      36.239  41.347  27.154 -0.49 -0.06    +0.175 C  ATOM     27  C   UNL     1      34.811  43.227  27.534 -0.52 -0.04    +0.175 C  ATOM     28  O   UNL     1      35.230  41.931  27.986 -0.33 +0.16    -0.379 OA ENDBRANCH  22  23ENDBRANCH  21  22ENDBRANCH  13  17ENDBRANCH   1   8BRANCH   7  29ATOM     29  C   UNL     1      43.043  46.822  21.379 -0.30 +0.06    +0.197 C  ATOM     30  O   UNL     1      44.255  46.674  21.271 -0.56 -0.25    -0.288 OA BRANCH  29  31ATOM     31  C   UNL     1      42.491  47.471  22.595 -0.26 +0.01    +0.065 A  ATOM     32  C   UNL     1      41.210  47.108  23.040 -0.20 +0.00    +0.019 A  ATOM     33  C   UNL     1      43.236  48.415  23.312 -0.29 +0.03    +0.129 A  ATOM     34  C   UNL     1      40.691  47.679  24.202 -0.26 +0.00    +0.040 A  ATOM     35  C   UNL     1      42.718  48.982  24.476 -0.33 +0.02    +0.086 A  ATOM     36  C   UNL     1      41.450  48.606  24.909 -0.27 +0.02    +0.126 A  ATOM     37  F   UNL     1      40.948  49.153  26.022 -0.10 -0.03    -0.207 F  BRANCH  33  38ATOM     38  O   UNL     1      44.453  48.827  22.849 -0.24 -0.14    -0.507 OA ATOM     39  H   UNL     1      44.487  48.729  21.884 -0.45 -0.00    +0.293 HD ENDBRANCH  33  38ENDBRANCH  29  31ENDBRANCH   7  29TORSDOF 8TERENDMDL