REMARK SMILES Nc1ncc(N2CC[C@@H](CN3CCOCC3)C2)c(-c2cc(F)ccc2C(=O)c2ccc(F)cc2O)n1
REMARK SMILES IDX 19 1 20 2 21 3 22 4 23 5 24 6 25 7 18 8 2 9 3 10 36 11 4 12
REMARK SMILES IDX 5 13 1 14 6 17 7 18 17 19 8 20 9 21 10 22 11 23 12 24 16 25
REMARK SMILES IDX 13 26 15 27 14 28 26 29 27 30 28 31 29 32 34 33 30 34 33 35
REMARK SMILES IDX 31 36 32 37 35 38
REMARK H PARENT 1 15 1 16 35 39
ROOT
ATOM      1  C   UNL     1      -2.075  -2.241   0.508  1.00  0.00     0.017 A 
ATOM      2  C   UNL     1      -1.973  -3.037   1.668  1.00  0.00     0.050 A 
ATOM      3  C   UNL     1      -2.900  -2.922   2.698  1.00  0.00     0.123 A 
ATOM      4  F   UNL     1      -2.768  -3.683   3.792  1.00  0.00    -0.207 F 
ATOM      5  C   UNL     1      -3.959  -2.033   2.608  1.00  0.00     0.040 A 
ATOM      6  C   UNL     1      -4.096  -1.246   1.466  1.00  0.00     0.016 A 
ATOM      7  C   UNL     1      -3.159  -1.339   0.416  1.00  0.00     0.032 A 
ENDROOT
BRANCH   1   8
ATOM      8  C   UNL     1      -1.052  -2.405  -0.541  1.00  0.00     0.100 A 
ATOM      9  C   UNL     1      -0.187  -3.896  -2.058  1.00  0.00     0.220 A 
ATOM     10  N   UNL     1       0.668  -3.006  -2.554  1.00  0.00    -0.220 NA
ATOM     11  N   UNL     1      -1.044  -3.658  -1.071  1.00  0.00    -0.211 NA
ATOM     12  C   UNL     1       0.652  -1.783  -1.978  1.00  0.00     0.143 A 
ATOM     13  C   UNL     1      -0.171  -1.388  -0.934  1.00  0.00     0.082 A 
BRANCH   9  14
ATOM     14  N   UNL     1      -0.211  -5.150  -2.636  1.00  0.00    -0.368 N 
ATOM     15  H   UNL     1       0.115  -5.072  -3.589  1.00  0.00     0.159 HD
ATOM     16  H   UNL     1      -1.133  -5.543  -2.504  1.00  0.00     0.159 HD
ENDBRANCH   9  14
BRANCH  13  17
ATOM     17  N   UNL     1      -0.102  -0.141  -0.303  1.00  0.00    -0.368 N 
ATOM     18  C   UNL     1       0.500  -0.190   1.044  1.00  0.00     0.117 C 
ATOM     19  C   UNL     1       0.403   1.041  -1.027  1.00  0.00     0.121 C 
ATOM     20  C   UNL     1       1.065   1.211   1.245  1.00  0.00     0.028 C 
ATOM     21  C   UNL     1       1.533   1.607  -0.153  1.00  0.00     0.024 C 
BRANCH  21  22
ATOM     22  C   UNL     1       2.897   1.038  -0.591  1.00  0.00     0.090 C 
BRANCH  22  23
ATOM     23  N   UNL     1       4.000   1.581   0.213  1.00  0.00    -0.298 NA
ATOM     24  C   UNL     1       4.437   0.678   1.303  1.00  0.00     0.113 C 
ATOM     25  C   UNL     1       5.153   1.953  -0.637  1.00  0.00     0.113 C 
ATOM     26  C   UNL     1       5.775  -0.029   1.030  1.00  0.00     0.175 C 
ATOM     27  C   UNL     1       6.437   2.110   0.190  1.00  0.00     0.175 C 
ATOM     28  O   UNL     1       6.857   0.882   0.802  1.00  0.00    -0.379 OA
ENDBRANCH  22  23
ENDBRANCH  21  22
ENDBRANCH  13  17
ENDBRANCH   1   8
BRANCH   7  29
ATOM     29  C   UNL     1      -3.386  -0.502  -0.799  1.00  0.00     0.197 C 
ATOM     30  O   UNL     1      -3.173  -0.943  -1.923  1.00  0.00    -0.288 OA
BRANCH  29  31
ATOM     31  C   UNL     1      -3.869   0.893  -0.640  1.00  0.00     0.065 A 
ATOM     32  C   UNL     1      -3.160   1.769   0.196  1.00  0.00     0.019 A 
ATOM     33  C   UNL     1      -5.000   1.350  -1.329  1.00  0.00     0.129 A 
ATOM     34  C   UNL     1      -3.576   3.094   0.328  1.00  0.00     0.040 A 
ATOM     35  C   UNL     1      -5.413   2.675  -1.200  1.00  0.00     0.086 A 
ATOM     36  C   UNL     1      -4.694   3.534  -0.373  1.00  0.00     0.126 A 
ATOM     37  F   UNL     1      -5.092   4.805  -0.243  1.00  0.00    -0.207 F 
BRANCH  33  38
ATOM     38  O   UNL     1      -5.737   0.488  -2.089  1.00  0.00    -0.507 OA
ATOM     39  H   UNL     1      -6.308   0.989  -2.694  1.00  0.00     0.293 HD
ENDBRANCH  33  38
ENDBRANCH  29  31
ENDBRANCH   7  29
TORSDOF 8
