MODEL        4USER    Run = 4USERUSER    Estimated Free Energy of Binding    = -10.22 kcal/mol  [=(1)+(2)+(3)-(4)]USERUSER    (1) Final Intermolecular Energy     = -12.61 kcal/molUSER        vdW + Hbond + desolv Energy     = -12.61 kcal/molUSER        Electrostatic Energy            =  +0.00 kcal/molUSER        Moving Ligand-Fixed Receptor    = -12.61 kcal/molUSER        Moving Ligand-Moving Receptor   =  +0.00 kcal/molUSER    (2) Final Total Internal Energy     =  -2.06 kcal/molUSER    (3) Torsional Free Energy           =  +2.39 kcal/molUSER    (4) Unbound System's Energy         =  -2.06 kcal/molUSERUSERREMARK SMILES Cc1cc(NC2=NC=C3C2=CN=C3C=C2C=CC(NC(=O)NCCNC(C)C)=C2)ccn1REMARK SMILES IDX 19 1 20 2 21 3 22 4 18 7 15 8 16 9 29 10 17 11 14 12 13 13REMARK SMILES IDX 5 14 6 15 7 16 10 17 8 18 9 19 11 20 12 21 4 23 2 24 3 25REMARK SMILES IDX 32 26 31 27 30 28 1 29 23 30 24 31 25 32 26 34 27 35 28 36REMARK H PARENT 19 5 22 6 5 22 25 33USER                              x       y       z     vdW  Elec       q    TypeUSER                           _______ _______ _______ _____ _____    ______ ____ROOTATOM      1  N   UNL     1      37.210  44.455  24.360 -0.17 -0.04    -0.308 N  ATOM      2  C   UNL     1      36.533  43.381  24.898 -0.17 +0.02    +0.319 C  ATOM      3  O   UNL     1      36.522  42.241  24.456 -0.35 -0.00    -0.249 OA ATOM      4  N   UNL     1      35.861  43.755  26.047 -0.18 +0.03    -0.337 N  ATOM      5  H   UNL     1      37.269  45.274  24.946 +0.07 +0.02    +0.171 HD ATOM      6  H   UNL     1      35.499  44.696  26.023 -0.36 -0.04    +0.165 HD ENDROOTBRANCH   1   7ATOM      7  C   UNL     1      37.924  44.473  23.199 -0.35 +0.00    +0.043 C  ATOM      8  C   UNL     1      39.416  44.762  21.540 -0.35 -0.00    -0.021 C  ATOM      9  C   UNL     1      38.351  43.922  21.025 -0.36 +0.00    +0.010 C  ATOM     10  C   UNL     1      39.079  45.094  22.917 -0.31 +0.00    +0.034 C  ATOM     11  C   UNL     1      37.471  43.747  22.026 -0.42 +0.00    +0.027 C  BRANCH   8  12ATOM     12  C   UNL     1      40.512  45.220  20.922 -0.37 +0.00    +0.037 C  BRANCH  12  13ATOM     13  C   UNL     1      40.553  45.943  19.645 -0.41 +0.00    +0.073 C  ATOM     14  N   UNL     1      39.001  47.332  15.364 -0.20 +0.12    -0.340 N  ATOM     15  C   UNL     1      38.912  46.637  16.542 -0.39 -0.04    +0.139 C  ATOM     16  N   UNL     1      37.940  45.846  16.969 -0.22 +0.08    -0.238 NA ATOM     17  C   UNL     1      39.963  46.683  17.580 -0.51 -0.01    +0.046 C  ATOM     18  C   UNL     1      38.319  45.385  18.228 -0.36 -0.02    +0.124 C  ATOM     19  C   UNL     1      39.490  45.863  18.640 -0.47 -0.00    +0.031 C  ATOM     20  C   UNL     1      41.156  47.141  17.956 -0.50 -0.01    +0.124 C  ATOM     21  N   UNL     1      41.550  46.689  19.217 -0.31 -0.01    -0.255 NA ATOM     22  H   UNL     1      39.831  47.895  15.234 +0.13 -0.05    +0.168 HD BRANCH  14  23ATOM     23  C   UNL     1      38.106  47.361  14.278 -0.46 -0.02    +0.043 A  ATOM     24  C   UNL     1      37.064  46.195  12.430 -0.55 -0.01    +0.039 A  ATOM     25  C   UNL     1      37.931  46.194  13.521 -0.36 -0.01    +0.049 A  ATOM     26  N   UNL     1      36.369  47.290  12.055 -0.62 +0.12    -0.261 NA ATOM     27  C   UNL     1      36.548  48.408  12.788 -0.35 -0.04    +0.113 A  ATOM     28  C   UNL     1      37.392  48.491  13.885 -0.52 -0.02    +0.046 A  ATOM     29  C   UNL     1      36.876  44.950  11.615 -0.50 -0.02    +0.067 C  ENDBRANCH  14  23ENDBRANCH  12  13ENDBRANCH   8  12ENDBRANCH   1   7BRANCH   4  30ATOM     30  C   UNL     1      35.032  42.791  26.760 -0.41 -0.02    +0.133 C  BRANCH  30  31ATOM     31  C   UNL     1      35.838  41.901  27.722 -0.51 -0.04    +0.102 C  BRANCH  31  32ATOM     32  N   UNL     1      36.846  41.074  27.047 -0.27 +0.09    -0.313 NA ATOM     33  H   UNL     1      36.539  40.900  26.089 -0.33 -0.05    +0.123 HD BRANCH  32  34ATOM     34  C   UNL     1      38.197  41.649  27.026 -0.43 -0.00    +0.047 C  ATOM     35  C   UNL     1      39.273  40.621  27.385 -0.38 -0.00    +0.024 C  ATOM     36  C   UNL     1      38.224  42.797  28.038 -0.39 -0.00    +0.024 C  ENDBRANCH  32  34ENDBRANCH  31  32ENDBRANCH  30  31ENDBRANCH   4  30TORSDOF 8TERENDMDL