MODEL        2USER    Run = 2USERUSER    Estimated Free Energy of Binding    = -10.40 kcal/mol  [=(1)+(2)+(3)-(4)]USERUSER    (1) Final Intermolecular Energy     = -11.59 kcal/molUSER        vdW + Hbond + desolv Energy     = -11.33 kcal/molUSER        Electrostatic Energy            =  -0.26 kcal/molUSER        Moving Ligand-Fixed Receptor    = -11.59 kcal/molUSER        Moving Ligand-Moving Receptor   =  +0.00 kcal/molUSER    (2) Final Total Internal Energy     =  -1.02 kcal/molUSER    (3) Torsional Free Energy           =  +1.19 kcal/molUSER    (4) Unbound System's Energy         =  -1.02 kcal/molUSERUSERREMARK SMILES Cc1cc(NC2=NC=C3C2=CN=C3C=C2C=CC(NC(=O)N3CCOCC3)=C2)ccn1REMARK SMILES IDX 14 1 13 2 5 3 6 4 7 5 10 6 8 7 9 8 11 9 12 10 4 12 2 13 3 14REMARK SMILES IDX 31 15 30 16 29 17 1 18 15 19 16 20 28 21 17 22 18 23 19 24REMARK SMILES IDX 20 25 22 26 23 27 27 28 24 29 26 30 25 31 21 33REMARK H PARENT 5 11 19 32USER                              x       y       z     vdW  Elec       q    TypeUSER                           _______ _______ _______ _____ _____    ______ ____ROOTATOM      1  C   UNL     1      35.235  45.404  15.315 -0.38 -0.03    +0.037 C  ENDROOTBRANCH   1   2ATOM      2  C   UNL     1      36.694  45.611  15.322 -0.38 -0.04    +0.073 C  ATOM      3  N   UNL     1      40.824  46.350  17.583 -0.24 +0.03    -0.340 N  ATOM      4  C   UNL     1      39.471  46.137  17.521 -0.41 -0.02    +0.139 C  ATOM      5  N   UNL     1      38.596  46.051  18.511 -0.21 +0.04    -0.238 NA ATOM      6  C   UNL     1      38.746  45.966  16.245 -0.41 -0.01    +0.046 C  ATOM      7  C   UNL     1      37.348  45.834  17.933 -0.27 -0.04    +0.124 C  ATOM      8  C   UNL     1      37.385  45.778  16.606 -0.40 -0.01    +0.031 C  ATOM      9  C   UNL     1      38.794  45.907  14.916 -0.37 -0.03    +0.124 C  ATOM     10  N   UNL     1      37.547  45.693  14.326 -0.22 +0.09    -0.255 NA ATOM     11  H   UNL     1      41.312  46.402  16.699 -0.16 -0.01    +0.168 HD BRANCH   3  12ATOM     12  C   UNL     1      41.656  46.463  18.712 -0.49 +0.00    +0.043 A  ATOM     13  C   UNL     1      42.244  45.686  20.929 -0.28 +0.01    +0.039 A  ATOM     14  C   UNL     1      41.432  45.606  19.798 -0.38 +0.01    +0.049 A  ATOM     15  N   UNL     1      43.265  46.563  21.028 -0.23 -0.11    -0.261 NA ATOM     16  C   UNL     1      43.477  47.376  19.972 -0.21 +0.03    +0.113 A  ATOM     17  C   UNL     1      42.714  47.361  18.815 -0.51 +0.00    +0.046 A  ATOM     18  C   UNL     1      42.014  44.766  22.090 -0.25 +0.01    +0.067 C  ENDBRANCH   3  12ENDBRANCH   1   2BRANCH   1  19ATOM     19  C   UNL     1      34.548  44.764  16.270 -0.36 +0.01    -0.021 C  ATOM     20  C   UNL     1      34.088  45.254  17.555 -0.42 -0.01    +0.010 C  ATOM     21  C   UNL     1      34.121  43.376  16.161 -0.39 -0.02    +0.034 C  ATOM     22  C   UNL     1      33.441  44.241  18.156 -0.38 -0.01    +0.027 C  ATOM     23  C   UNL     1      33.459  43.077  17.291 -0.37 -0.02    +0.043 C  BRANCH  23  24ATOM     24  N   UNL     1      32.918  41.853  17.568 -0.18 +0.11    -0.308 N  ATOM     25  C   UNL     1      32.390  41.418  18.763 -0.23 -0.02    +0.321 C  ATOM     26  N   UNL     1      32.035  40.075  18.776 -0.21 -0.01    -0.320 N  ATOM     27  C   UNL     1      32.449  39.067  17.795 -0.29 -0.02    +0.150 C  ATOM     28  C   UNL     1      31.334  39.551  19.950 -0.34 +0.03    +0.150 C  ATOM     29  C   UNL     1      32.504  37.669  18.420 -0.35 +0.02    +0.181 C  ATOM     30  C   UNL     1      30.502  38.319  19.585 -0.35 +0.03    +0.181 C  ATOM     31  O   UNL     1      31.255  37.254  18.984 -0.84 -0.14    -0.378 OA ATOM     32  H   UNL     1      32.748  41.260  16.772 -0.40 -0.12    +0.171 HD ATOM     33  O   UNL     1      32.221  42.129  19.749 -0.43 -0.03    -0.248 OA ENDBRANCH  23  24ENDBRANCH   1  19TORSDOF 4TERENDMDL