REMARK SMILES Cc1cc(NC2=NC=C3C2=CN=C3C=C2C=CC(NC(=O)NCCO)=C2)ccn1
REMARK SMILES IDX 15 1 16 2 17 3 18 4 26 5 14 6 13 7 5 8 6 9 7 10 10 11 8 12
REMARK SMILES IDX 9 13 11 14 12 15 4 17 2 18 3 19 29 20 28 21 27 22 1 23 19 24
REMARK SMILES IDX 20 25 22 26 21 28 23 30 24 31 25 32
REMARK H PARENT 5 16 19 27 22 29 25 33
ROOT
ATOM      1  C   UNL     1       1.914  -0.896   0.578  1.00  0.00    -0.021 C 
ATOM      2  C   UNL     1       1.285  -1.154  -0.704  1.00  0.00     0.010 C 
ATOM      3  C   UNL     1       2.220  -0.953  -1.648  1.00  0.00     0.027 C 
ATOM      4  C   UNL     1       3.471  -0.576  -1.014  1.00  0.00     0.043 C 
ATOM      5  C   UNL     1       3.303  -0.550   0.317  1.00  0.00     0.034 C 
ENDROOT
BRANCH   1   6
ATOM      6  C   UNL     1       1.398  -0.978   1.811  1.00  0.00     0.037 C 
BRANCH   6   7
ATOM      7  C   UNL     1       0.006  -1.296   2.150  1.00  0.00     0.073 C 
ATOM      8  N   UNL     1      -4.735  -0.977   1.871  1.00  0.00    -0.340 N 
ATOM      9  C   UNL     1      -3.454  -0.654   1.504  1.00  0.00     0.139 C 
ATOM     10  N   UNL     1      -3.041   0.189   0.571  1.00  0.00    -0.238 NA
ATOM     11  C   UNL     1      -2.264  -1.249   2.149  1.00  0.00     0.046 C 
ATOM     12  C   UNL     1      -1.648   0.164   0.588  1.00  0.00     0.124 C 
ATOM     13  C   UNL     1      -1.144  -0.678   1.485  1.00  0.00     0.031 C 
ATOM     14  C   UNL     1      -1.780  -2.070   3.079  1.00  0.00     0.124 C 
ATOM     15  N   UNL     1      -0.384  -2.106   3.111  1.00  0.00    -0.255 NA
ATOM     16  H   UNL     1      -4.832  -1.652   2.617  1.00  0.00     0.168 HD
BRANCH   8  17
ATOM     17  C   UNL     1      -5.956  -0.493   1.366  1.00  0.00     0.043 A 
ATOM     18  C   UNL     1      -7.321   0.873  -0.083  1.00  0.00     0.039 A 
ATOM     19  C   UNL     1      -6.062   0.460   0.353  1.00  0.00     0.049 A 
ATOM     20  N   UNL     1      -8.471   0.387   0.436  1.00  0.00    -0.261 NA
ATOM     21  C   UNL     1      -8.359  -0.533   1.412  1.00  0.00     0.113 A 
ATOM     22  C   UNL     1      -7.147  -0.996   1.900  1.00  0.00     0.046 A 
ATOM     23  C   UNL     1      -7.436   1.899  -1.171  1.00  0.00     0.067 C 
ENDBRANCH   8  17
ENDBRANCH   6   7
ENDBRANCH   1   6
BRANCH   4  24
ATOM     24  N   UNL     1       4.586  -0.314  -1.753  1.00  0.00    -0.308 N 
ATOM     25  C   UNL     1       5.843  -0.011  -1.278  1.00  0.00     0.319 C 
ATOM     26  N   UNL     1       6.714   0.242  -2.318  1.00  0.00    -0.336 N 
ATOM     27  H   UNL     1       4.517  -0.440  -2.751  1.00  0.00     0.171 HD
ATOM     28  O   UNL     1       6.184   0.025  -0.102  1.00  0.00    -0.249 OA
ATOM     29  H   UNL     1       6.304   0.714  -3.112  1.00  0.00     0.165 HD
BRANCH  26  30
ATOM     30  C   UNL     1       8.075   0.670  -2.033  1.00  0.00     0.146 C 
BRANCH  30  31
ATOM     31  C   UNL     1       8.130   2.149  -1.649  1.00  0.00     0.177 C 
BRANCH  31  32
ATOM     32  O   UNL     1       7.654   2.937  -2.743  1.00  0.00    -0.395 OA
ATOM     33  H   UNL     1       7.663   3.862  -2.439  1.00  0.00     0.210 HD
ENDBRANCH  31  32
ENDBRANCH  30  31
ENDBRANCH  26  30
ENDBRANCH   4  24
TORSDOF 7
