REMARK SMILES Cc1cc(NC2=NC=C3C2=CN=C3C=C2C=CC(NC(=O)NCCNC(C)C)=C2)ccn1
REMARK SMILES IDX 19 1 20 2 21 3 22 4 18 7 15 8 16 9 29 10 17 11 14 12 13 13
REMARK SMILES IDX 5 14 6 15 7 16 10 17 8 18 9 19 11 20 12 21 4 23 2 24 3 25
REMARK SMILES IDX 32 26 31 27 30 28 1 29 23 30 24 31 25 32 26 34 27 35 28 36
REMARK H PARENT 19 5 22 6 5 22 25 33
ROOT
ATOM      1  N   UNL     1       2.879   0.721   0.376  1.00  0.00    -0.308 N 
ATOM      2  C   UNL     1       3.979  -0.090   0.559  1.00  0.00     0.319 C 
ATOM      3  O   UNL     1       4.022  -1.299   0.376  1.00  0.00    -0.249 OA
ATOM      4  N   UNL     1       5.070   0.653   0.968  1.00  0.00    -0.337 N 
ATOM      5  H   UNL     1       3.060   1.713   0.386  1.00  0.00     0.171 HD
ATOM      6  H   UNL     1       4.836   1.431   1.567  1.00  0.00     0.165 HD
ENDROOT
BRANCH   1   7
ATOM      7  C   UNL     1       1.619   0.326   0.038  1.00  0.00     0.043 C 
ATOM      8  C   UNL     1      -0.285  -0.768  -0.452  1.00  0.00    -0.021 C 
ATOM      9  C   UNL     1      -0.568   0.653  -0.529  1.00  0.00     0.010 C 
ATOM     10  C   UNL     1       1.122  -0.912  -0.107  1.00  0.00     0.034 C 
ATOM     11  C   UNL     1       0.572   1.297  -0.225  1.00  0.00     0.027 C 
BRANCH   8  12
ATOM     12  C   UNL     1      -1.095  -1.810  -0.676  1.00  0.00     0.037 C 
BRANCH  12  13
ATOM     13  C   UNL     1      -2.526  -1.746  -0.997  1.00  0.00     0.073 C 
ATOM     14  N   UNL     1      -7.039  -0.294  -0.552  1.00  0.00    -0.340 N 
ATOM     15  C   UNL     1      -5.711  -0.315  -0.213  1.00  0.00     0.139 C 
ATOM     16  N   UNL     1      -5.081   0.378   0.723  1.00  0.00    -0.238 NA
ATOM     17  C   UNL     1      -4.722  -1.171  -0.901  1.00  0.00     0.046 C 
ATOM     18  C   UNL     1      -3.739   0.006   0.667  1.00  0.00     0.124 C 
ATOM     19  C   UNL     1      -3.474  -0.886  -0.283  1.00  0.00     0.031 C 
ATOM     20  C   UNL     1      -4.485  -2.095  -1.831  1.00  0.00     0.124 C 
ATOM     21  N   UNL     1      -3.144  -2.478  -1.901  1.00  0.00    -0.255 NA
ATOM     22  H   UNL     1      -7.319  -0.898  -1.313  1.00  0.00     0.168 HD
BRANCH  14  23
ATOM     23  C   UNL     1      -8.094   0.436   0.027  1.00  0.00     0.043 A 
ATOM     24  C   UNL     1     -10.425   1.088  -0.024  1.00  0.00     0.039 A 
ATOM     25  C   UNL     1      -9.363   0.364  -0.564  1.00  0.00     0.049 A 
ATOM     26  N   UNL     1     -10.288   1.875   1.064  1.00  0.00    -0.261 NA
ATOM     27  C   UNL     1      -9.062   1.939   1.622  1.00  0.00     0.113 A 
ATOM     28  C   UNL     1      -7.955   1.253   1.146  1.00  0.00     0.046 A 
ATOM     29  C   UNL     1     -11.784   1.017  -0.654  1.00  0.00     0.067 C 
ENDBRANCH  14  23
ENDBRANCH  12  13
ENDBRANCH   8  12
ENDBRANCH   1   7
BRANCH   4  30
ATOM     30  C   UNL     1       6.334  -0.004   1.274  1.00  0.00     0.133 C 
BRANCH  30  31
ATOM     31  C   UNL     1       7.067  -0.511   0.019  1.00  0.00     0.102 C 
BRANCH  31  32
ATOM     32  N   UNL     1       8.407  -1.042   0.300  1.00  0.00    -0.313 NA
ATOM     33  H   UNL     1       8.691  -1.641  -0.476  1.00  0.00     0.123 HD
BRANCH  32  34
ATOM     34  C   UNL     1       9.436  -0.020   0.525  1.00  0.00     0.047 C 
ATOM     35  C   UNL     1       9.872   0.663  -0.774  1.00  0.00     0.024 C 
ATOM     36  C   UNL     1      10.639  -0.712   1.171  1.00  0.00     0.024 C 
ENDBRANCH  32  34
ENDBRANCH  31  32
ENDBRANCH  30  31
ENDBRANCH   4  30
TORSDOF 8
