MODEL        2USER    Run = 2USERUSER    Estimated Free Energy of Binding    = -11.01 kcal/mol  [=(1)+(2)+(3)-(4)]USERUSER    (1) Final Intermolecular Energy     = -12.20 kcal/molUSER        vdW + Hbond + desolv Energy     = -12.11 kcal/molUSER        Electrostatic Energy            =  -0.09 kcal/molUSER        Moving Ligand-Fixed Receptor    = -12.20 kcal/molUSER        Moving Ligand-Moving Receptor   =  +0.00 kcal/molUSER    (2) Final Total Internal Energy     =  -0.92 kcal/molUSER    (3) Torsional Free Energy           =  +1.19 kcal/molUSER    (4) Unbound System's Energy         =  -0.92 kcal/molUSERUSERREMARK SMILES Cc1cc(NC2=NC=C3C2=CN=C3C=C2C=CC(NC(=O)N3CCN(C)CC3)=C2)ccn1REMARK SMILES IDX 14 1 13 2 5 3 6 4 7 5 10 6 8 7 9 8 11 9 12 10 4 12 2 13 3 14REMARK SMILES IDX 32 15 31 16 30 17 1 18 15 19 16 20 29 21 17 22 18 23 19 24REMARK SMILES IDX 20 25 22 26 23 27 28 28 24 29 27 30 25 31 21 33 26 34REMARK H PARENT 5 11 19 32USER                              x       y       z     vdW  Elec       q    TypeUSER                           _______ _______ _______ _____ _____    ______ ____ROOTATOM      1  C   UNL     1      38.887  48.067  13.854 -0.44 -0.01    +0.037 C  ENDROOTBRANCH   1   2ATOM      2  C   UNL     1      37.561  47.435  13.969 -0.53 -0.03    +0.073 C  ATOM      3  N   UNL     1      34.195  45.143  16.440 -0.10 +0.24    -0.340 N  ATOM      4  C   UNL     1      35.424  45.728  16.280 -0.31 -0.11    +0.139 C  ATOM      5  N   UNL     1      36.406  45.859  17.158 -0.20 +0.12    -0.238 NA ATOM      6  C   UNL     1      35.855  46.344  15.007 -0.41 -0.04    +0.046 C  ATOM      7  C   UNL     1      37.443  46.528  16.511 -0.35 -0.06    +0.124 C  ATOM      8  C   UNL     1      37.166  46.834  15.247 -0.45 -0.02    +0.031 C  ATOM      9  C   UNL     1      35.565  46.644  13.742 -0.46 -0.09    +0.124 C  ATOM     10  N   UNL     1      36.596  47.317  13.084 -0.46 +0.12    -0.255 NA ATOM     11  H   UNL     1      33.585  45.152  15.634 +0.10 -0.13    +0.168 HD BRANCH   3  12ATOM     12  C   UNL     1      33.660  44.489  17.565 -0.29 -0.02    +0.043 A  ATOM     13  C   UNL     1      32.774  42.459  18.546 -0.34 -0.01    +0.039 A  ATOM     14  C   UNL     1      33.315  43.134  17.453 -0.30 -0.02    +0.049 A  ATOM     15  N   UNL     1      32.559  43.060  19.735 -0.63 -0.02    -0.261 NA ATOM     16  C   UNL     1      32.889  44.363  19.830 -0.31 -0.01    +0.113 A  ATOM     17  C   UNL     1      33.430  45.106  18.791 -0.39 -0.02    +0.046 A  ATOM     18  C   UNL     1      32.400  41.013  18.427 -0.43 -0.01    +0.067 C  ENDBRANCH   3  12ENDBRANCH   1   2BRANCH   1  19ATOM     19  C   UNL     1      39.706  48.318  14.883 -0.61 +0.01    -0.021 C  ATOM     20  C   UNL     1      40.315  49.571  15.287 -0.55 -0.00    +0.010 C  ATOM     21  C   UNL     1      40.150  47.298  15.820 -0.55 -0.01    +0.034 C  ATOM     22  C   UNL     1      41.062  49.313  16.373 -0.54 -0.00    +0.027 C  ATOM     23  C   UNL     1      40.961  47.901  16.702 -0.56 -0.01    +0.043 C  BRANCH  23  24ATOM     24  N   UNL     1      41.616  47.379  17.779 -0.28 +0.03    -0.308 N  ATOM     25  C   UNL     1      41.083  46.573  18.761 -0.32 -0.00    +0.321 C  ATOM     26  N   UNL     1      41.954  46.319  19.827 -0.22 -0.05    -0.322 N  ATOM     27  C   UNL     1      42.905  47.331  20.310 -0.35 +0.02    +0.137 C  ATOM     28  C   UNL     1      41.428  45.436  20.872 -0.31 +0.02    +0.137 C  ATOM     29  C   UNL     1      43.961  46.750  21.271 -0.28 +0.07    +0.106 C  ATOM     30  C   UNL     1      42.523  44.900  21.813 -0.24 +0.02    +0.106 C  ATOM     31  N   UNL     1      43.424  45.928  22.371 -0.10 -0.10    -0.303 NA ATOM     32  H   UNL     1      42.622  47.421  17.748 -0.41 -0.03    +0.171 HD ATOM     33  O   UNL     1      39.953  46.093  18.718 -0.33 +0.02    -0.248 OA ATOM     34  C   UNL     1      42.755  46.742  23.384 -0.18 +0.02    +0.105 C  ENDBRANCH  23  24ENDBRANCH   1  19TORSDOF 4TERENDMDL