REMARK SMILES Cc1cc(NC2=NC=C3C2=CN=C3C=C2C=CC(NC(=O)NC[C@H](C)N)=C2)ccn1
REMARK SMILES IDX 15 1 16 2 17 3 18 4 27 5 14 6 13 7 5 8 6 9 7 10 10 11 8 12
REMARK SMILES IDX 9 13 11 14 12 15 4 17 2 18 3 19 30 20 29 21 28 22 1 23 19 24
REMARK SMILES IDX 20 25 22 26 21 28 23 30 24 31 25 32 26 33
REMARK H PARENT 5 16 19 27 22 29 26 34 26 35
ROOT
ATOM      1  C   UNL     1      -1.153  -0.156  -0.002  1.00  0.00    -0.021 C 
ATOM      2  C   UNL     1      -1.423  -0.873  -1.232  1.00  0.00     0.010 C 
ATOM      3  C   UNL     1      -2.758  -0.919  -1.377  1.00  0.00     0.027 C 
ATOM      4  C   UNL     1      -3.389  -0.241  -0.261  1.00  0.00     0.043 C 
ATOM      5  C   UNL     1      -2.438   0.217   0.571  1.00  0.00     0.034 C 
ENDROOT
BRANCH   1   6
ATOM      6  C   UNL     1       0.024   0.147   0.562  1.00  0.00     0.037 C 
BRANCH   6   7
ATOM      7  C   UNL     1       1.341  -0.214   0.008  1.00  0.00     0.073 C 
ATOM      8  N   UNL     1       6.104  -0.067   0.054  1.00  0.00    -0.340 N 
ATOM      9  C   UNL     1       4.855   0.243   0.528  1.00  0.00     0.139 C 
ATOM     10  N   UNL     1       4.521   0.987   1.571  1.00  0.00    -0.238 NA
ATOM     11  C   UNL     1       3.615  -0.248  -0.109  1.00  0.00     0.046 C 
ATOM     12  C   UNL     1       3.129   0.999   1.632  1.00  0.00     0.124 C 
ATOM     13  C   UNL     1       2.553   0.288   0.667  1.00  0.00     0.031 C 
ATOM     14  C   UNL     1       3.049  -0.963  -1.079  1.00  0.00     0.124 C 
ATOM     15  N   UNL     1       1.654  -0.959  -1.027  1.00  0.00    -0.255 NA
ATOM     16  H   UNL     1       6.139  -0.652  -0.769  1.00  0.00     0.168 HD
BRANCH   8  17
ATOM     17  C   UNL     1       7.365   0.317   0.547  1.00  0.00     0.043 A 
ATOM     18  C   UNL     1       9.775   0.257   0.322  1.00  0.00     0.039 A 
ATOM     19  C   UNL     1       8.511  -0.109  -0.138  1.00  0.00     0.049 A 
ATOM     20  N   UNL     1       9.954   1.019   1.422  1.00  0.00    -0.261 NA
ATOM     21  C   UNL     1       8.845   1.423   2.073  1.00  0.00     0.113 A 
ATOM     22  C   UNL     1       7.554   1.104   1.680  1.00  0.00     0.046 A 
ATOM     23  C   UNL     1      11.004  -0.195  -0.409  1.00  0.00     0.067 C 
ENDBRANCH   8  17
ENDBRANCH   6   7
ENDBRANCH   1   6
BRANCH   4  24
ATOM     24  N   UNL     1      -4.729  -0.092  -0.059  1.00  0.00    -0.308 N 
ATOM     25  C   UNL     1      -5.755  -0.459  -0.904  1.00  0.00     0.319 C 
ATOM     26  N   UNL     1      -6.980  -0.202  -0.319  1.00  0.00    -0.336 N 
ATOM     27  H   UNL     1      -5.011   0.436   0.752  1.00  0.00     0.171 HD
ATOM     28  O   UNL     1      -5.641  -0.929  -2.027  1.00  0.00    -0.249 OA
ATOM     29  H   UNL     1      -7.012  -0.380   0.674  1.00  0.00     0.165 HD
BRANCH  26  30
ATOM     30  C   UNL     1      -8.197  -0.624  -0.998  1.00  0.00     0.136 C 
BRANCH  30  31
ATOM     31  C   UNL     1      -9.457   0.040  -0.406  1.00  0.00     0.066 C 
ATOM     32  C   UNL     1      -9.606   1.481  -0.895  1.00  0.00     0.026 C 
BRANCH  31  33
ATOM     33  N   UNL     1      -9.435   0.020   1.069  1.00  0.00    -0.326 NA
ATOM     34  H   UNL     1     -10.357   0.294   1.411  1.00  0.00     0.119 HD
ATOM     35  H   UNL     1      -8.807   0.756   1.393  1.00  0.00     0.119 HD
ENDBRANCH  31  33
ENDBRANCH  30  31
ENDBRANCH  26  30
ENDBRANCH   4  24
TORSDOF 7
