REMARK SMILES CC(=O)N1CCN(C(=O)NC2=CC(=CC3=NC=C4C3=CN=C4Nc3ccnc(C)c3)C=C2)CC1
REMARK SMILES IDX 14 1 13 2 11 3 12 4 32 5 31 6 10 7 2 8 4 9 5 10 34 11 6 12
REMARK SMILES IDX 33 13 7 14 8 15 1 16 3 17 9 18 15 20 16 21 19 22 17 23 18 24
REMARK SMILES IDX 20 25 22 26 21 27 23 28 24 30 25 31 30 32 26 33 28 34 27 35
REMARK SMILES IDX 29 36
REMARK H PARENT 10 19 23 29
ROOT
ATOM      1  C   UNL     1       1.244  -0.150  -0.247  1.00  0.00     0.037 C 
ENDROOT
BRANCH   1   2
ATOM      2  C   UNL     1       0.032  -0.723  -0.258  1.00  0.00    -0.021 C 
ATOM      3  C   UNL     1      -2.200  -0.896  -0.527  1.00  0.00     0.043 C 
ATOM      4  C   UNL     1      -1.179  -0.035  -0.679  1.00  0.00     0.034 C 
ATOM      5  C   UNL     1      -1.684  -2.158  -0.031  1.00  0.00     0.027 C 
ATOM      6  C   UNL     1      -0.354  -2.063   0.138  1.00  0.00     0.010 C 
BRANCH   3   7
ATOM      7  N   UNL     1      -3.505  -0.598  -0.802  1.00  0.00    -0.308 N 
ATOM      8  C   UNL     1      -9.512   1.312  -1.290  1.00  0.00     0.219 C 
ATOM      9  N   UNL     1      -8.408   0.475  -1.289  1.00  0.00    -0.339 N 
ATOM     10  C   UNL     1      -8.206  -0.622  -0.334  1.00  0.00     0.141 C 
ATOM     11  C   UNL     1      -7.377   0.649  -2.314  1.00  0.00     0.141 C 
ATOM     12  C   UNL     1      -7.057  -1.561  -0.725  1.00  0.00     0.143 C 
ATOM     13  C   UNL     1      -5.964   0.427  -1.755  1.00  0.00     0.143 C 
ATOM     14  N   UNL     1      -5.818  -0.825  -0.998  1.00  0.00    -0.321 N 
ATOM     15  C   UNL     1      -4.612  -1.394  -0.598  1.00  0.00     0.321 C 
ATOM     16  C   UNL     1     -10.532   1.099  -0.198  1.00  0.00     0.114 C 
ATOM     17  O   UNL     1      -9.677   2.191  -2.134  1.00  0.00    -0.275 OA
ATOM     18  O   UNL     1      -4.575  -2.515  -0.098  1.00  0.00    -0.248 OA
ATOM     19  H   UNL     1      -3.676   0.348  -1.097  1.00  0.00     0.171 HD
ENDBRANCH   3   7
ENDBRANCH   1   2
BRANCH   1  20
ATOM     20  C   UNL     1       2.483  -0.808   0.202  1.00  0.00     0.073 C 
ATOM     21  N   UNL     1       2.704  -2.051   0.563  1.00  0.00    -0.255 NA
ATOM     22  C   UNL     1       3.719  -0.020   0.285  1.00  0.00     0.031 C 
ATOM     23  C   UNL     1       4.060  -2.112   0.891  1.00  0.00     0.124 C 
ATOM     24  C   UNL     1       4.690  -0.948   0.747  1.00  0.00     0.046 C 
ATOM     25  C   UNL     1       4.359   1.136   0.139  1.00  0.00     0.124 C 
ATOM     26  C   UNL     1       5.951  -0.183   0.847  1.00  0.00     0.139 C 
ATOM     27  N   UNL     1       5.710   1.064   0.471  1.00  0.00    -0.238 NA
ATOM     28  N   UNL     1       7.128  -0.747   1.268  1.00  0.00    -0.340 N 
ATOM     29  H   UNL     1       7.090  -1.724   1.526  1.00  0.00     0.168 HD
BRANCH  28  30
ATOM     30  C   UNL     1       8.395  -0.154   1.422  1.00  0.00     0.043 A 
ATOM     31  C   UNL     1       9.450  -0.944   1.897  1.00  0.00     0.046 A 
ATOM     32  C   UNL     1       8.676   1.180   1.130  1.00  0.00     0.049 A 
ATOM     33  C   UNL     1      10.705  -0.376   2.054  1.00  0.00     0.113 A 
ATOM     34  C   UNL     1       9.969   1.673   1.310  1.00  0.00     0.039 A 
ATOM     35  N   UNL     1      10.985   0.910   1.774  1.00  0.00    -0.261 NA
ATOM     36  C   UNL     1      10.274   3.108   0.998  1.00  0.00     0.067 C 
ENDBRANCH  28  30
ENDBRANCH   1  20
TORSDOF 4
