REMARK SMILES Cc1cc(NC2=NC=C3C2=CN=C3C=C2C=CC(NC(=O)N3CCOCC3)=C2)ccn1
REMARK SMILES IDX 14 1 13 2 5 3 6 4 7 5 10 6 8 7 9 8 11 9 12 10 4 12 2 13 3 14
REMARK SMILES IDX 31 15 30 16 29 17 1 18 15 19 16 20 28 21 17 22 18 23 19 24
REMARK SMILES IDX 20 25 22 26 23 27 27 28 24 29 26 30 25 31 21 33
REMARK H PARENT 5 11 19 32
ROOT
ATOM      1  C   UNL     1      -0.102   0.577  -0.095  1.00  0.00     0.037 C 
ENDROOT
BRANCH   1   2
ATOM      2  C   UNL     1       1.189  -0.130  -0.021  1.00  0.00     0.073 C 
ATOM      3  N   UNL     1       5.954  -0.180   0.075  1.00  0.00    -0.340 N 
ATOM      4  C   UNL     1       4.726   0.428   0.026  1.00  0.00     0.139 C 
ATOM      5  N   UNL     1       4.439   1.719  -0.041  1.00  0.00    -0.238 NA
ATOM      6  C   UNL     1       3.457  -0.329   0.036  1.00  0.00     0.046 C 
ATOM      7  C   UNL     1       3.051   1.826  -0.075  1.00  0.00     0.124 C 
ATOM      8  C   UNL     1       2.431   0.651  -0.033  1.00  0.00     0.031 C 
ATOM      9  C   UNL     1       2.846  -1.511   0.082  1.00  0.00     0.124 C 
ATOM     10  N   UNL     1       1.454  -1.415   0.046  1.00  0.00    -0.255 NA
ATOM     11  H   UNL     1       5.954  -1.191   0.104  1.00  0.00     0.168 HD
BRANCH   3  12
ATOM     12  C   UNL     1       7.233   0.402   0.141  1.00  0.00     0.043 A 
ATOM     13  C   UNL     1       9.637   0.109   0.154  1.00  0.00     0.039 A 
ATOM     14  C   UNL     1       8.355  -0.437   0.099  1.00  0.00     0.049 A 
ATOM     15  N   UNL     1       9.856   1.438   0.240  1.00  0.00    -0.261 NA
ATOM     16  C   UNL     1       8.769   2.236   0.271  1.00  0.00     0.113 A 
ATOM     17  C   UNL     1       7.464   1.772   0.223  1.00  0.00     0.046 A 
ATOM     18  C   UNL     1      10.840  -0.784   0.100  1.00  0.00     0.067 C 
ENDBRANCH   3  12
ENDBRANCH   1   2
BRANCH   1  19
ATOM     19  C   UNL     1      -1.303  -0.008   0.001  1.00  0.00    -0.021 C 
ATOM     20  C   UNL     1      -1.629  -1.407   0.199  1.00  0.00     0.010 C 
ATOM     21  C   UNL     1      -2.561   0.720  -0.083  1.00  0.00     0.034 C 
ATOM     22  C   UNL     1      -2.969  -1.499   0.232  1.00  0.00     0.027 C 
ATOM     23  C   UNL     1      -3.548  -0.180   0.060  1.00  0.00     0.043 C 
BRANCH  23  24
ATOM     24  N   UNL     1      -4.880   0.122   0.020  1.00  0.00    -0.308 N 
ATOM     25  C   UNL     1      -5.940  -0.714   0.293  1.00  0.00     0.321 C 
ATOM     26  N   UNL     1      -7.187  -0.157   0.039  1.00  0.00    -0.320 N 
ATOM     27  C   UNL     1      -7.444   1.051  -0.752  1.00  0.00     0.150 C 
ATOM     28  C   UNL     1      -8.380  -0.911   0.430  1.00  0.00     0.150 C 
ATOM     29  C   UNL     1      -8.827   1.004  -1.410  1.00  0.00     0.181 C 
ATOM     30  C   UNL     1      -9.568   0.027   0.660  1.00  0.00     0.181 C 
ATOM     31  O   UNL     1      -9.895   0.854  -0.467  1.00  0.00    -0.378 OA
ATOM     32  H   UNL     1      -5.104   1.099  -0.068  1.00  0.00     0.171 HD
ATOM     33  O   UNL     1      -5.832  -1.854   0.736  1.00  0.00    -0.248 OA
ENDBRANCH  23  24
ENDBRANCH   1  19
TORSDOF 4
