MODEL        8USER    Run = 8USERUSER    Estimated Free Energy of Binding    = -10.28 kcal/mol  [=(1)+(2)+(3)-(4)]USERUSER    (1) Final Intermolecular Energy     = -12.37 kcal/molUSER        vdW + Hbond + desolv Energy     = -12.14 kcal/molUSER        Electrostatic Energy            =  -0.22 kcal/molUSER        Moving Ligand-Fixed Receptor    = -12.37 kcal/molUSER        Moving Ligand-Moving Receptor   =  +0.00 kcal/molUSER    (2) Final Total Internal Energy     =  -1.72 kcal/molUSER    (3) Torsional Free Energy           =  +2.09 kcal/molUSER    (4) Unbound System's Energy         =  -1.72 kcal/molUSERUSERREMARK SMILES Cc1cc(NC2=NC=C3C2=CN=C3C=C2C=CC(NC(=O)NC[C@H](C)N)=C2)ccn1REMARK SMILES IDX 15 1 16 2 17 3 18 4 27 5 14 6 13 7 5 8 6 9 7 10 10 11 8 12REMARK SMILES IDX 9 13 11 14 12 15 4 17 2 18 3 19 30 20 29 21 28 22 1 23 19 24REMARK SMILES IDX 20 25 22 26 21 28 23 30 24 31 25 32 26 33REMARK H PARENT 5 16 19 27 22 29 26 34 26 35USER                              x       y       z     vdW  Elec       q    TypeUSER                           _______ _______ _______ _____ _____    ______ ____ROOTATOM      1  C   UNL     1      37.035  42.809  22.786 -0.47 -0.00    -0.021 C  ATOM      2  C   UNL     1      36.860  41.762  23.773 -0.48 +0.00    +0.010 C  ATOM      3  C   UNL     1      36.698  42.365  24.963 -0.45 -0.00    +0.027 C  ATOM      4  C   UNL     1      36.760  43.803  24.789 -0.34 +0.00    +0.043 C  ATOM      5  C   UNL     1      36.965  44.081  23.490 -0.28 +0.01    +0.034 C  ENDROOTBRANCH   1   6ATOM      6  C   UNL     1      37.226  42.705  21.464 -0.45 +0.00    +0.037 C  BRANCH   6   7ATOM      7  C   UNL     1      36.429  43.404  20.441 -0.44 -0.00    +0.073 C  ATOM      8  N   UNL     1      36.043  46.031  16.483 -0.14 +0.24    -0.340 N  ATOM      9  C   UNL     1      36.739  45.368  17.462 -0.31 -0.05    +0.139 C  ATOM     10  N   UNL     1      38.048  45.244  17.614 -0.22 +0.06    -0.238 NA ATOM     11  C   UNL     1      36.072  44.648  18.567 -0.38 -0.01    +0.046 C  ATOM     12  C   UNL     1      38.253  44.481  18.762 -0.33 -0.01    +0.124 C  ATOM     13  C   UNL     1      37.123  44.108  19.355 -0.40 -0.00    +0.031 C  ATOM     14  C   UNL     1      34.934  44.279  19.152 -0.36 -0.03    +0.124 C  ATOM     15  N   UNL     1      35.128  43.513  20.303 -0.28 +0.00    -0.255 NA ATOM     16  H   UNL     1      35.036  46.009  16.556 +0.09 -0.16    +0.168 HD BRANCH   8  17ATOM     17  C   UNL     1      36.529  46.753  15.377 -0.36 -0.03    +0.043 A  ATOM     18  C   UNL     1      36.612  47.040  12.975 -0.59 -0.02    +0.039 A  ATOM     19  C   UNL     1      36.151  46.344  14.091 -0.42 -0.03    +0.049 A  ATOM     20  N   UNL     1      37.426  48.113  13.073 -0.84 +0.07    -0.261 NA ATOM     21  C   UNL     1      37.783  48.497  14.315 -0.45 -0.06    +0.113 A  ATOM     22  C   UNL     1      37.367  47.861  15.475 -0.41 -0.04    +0.046 A  ATOM     23  C   UNL     1      36.208  46.607  11.597 -0.61 -0.03    +0.067 C  ENDBRANCH   8  17ENDBRANCH   6   7ENDBRANCH   1   6BRANCH   4  24ATOM     24  N   UNL     1      36.646  44.742  25.771 -0.19 +0.02    -0.308 N  ATOM     25  C   UNL     1      37.060  46.056  25.733 -0.14 -0.00    +0.319 C  ATOM     26  N   UNL     1      36.711  46.708  26.900 -0.11 +0.07    -0.336 N  ATOM     27  H   UNL     1      36.313  44.424  26.668 +0.05 -0.03    +0.171 HD ATOM     28  O   UNL     1      37.670  46.602  24.825 -0.76 -0.05    -0.249 OA ATOM     29  H   UNL     1      35.813  46.438  27.275 -0.45 -0.08    +0.165 HD BRANCH  26  30ATOM     30  C   UNL     1      36.953  48.139  27.018 -0.33 -0.01    +0.136 C  BRANCH  30  31ATOM     31  C   UNL     1      35.801  48.870  27.737 -0.35 -0.01    +0.066 C  ATOM     32  C   UNL     1      36.325  50.027  28.588 -0.24 +0.00    +0.026 C  BRANCH  31  33ATOM     33  N   UNL     1      35.023  47.948  28.585 -0.21 +0.05    -0.326 NA ATOM     34  H   UNL     1      35.673  47.396  29.146 +0.02 -0.02    +0.119 HD ATOM     35  H   UNL     1      34.557  47.269  27.982 -0.54 -0.05    +0.119 HD ENDBRANCH  31  33ENDBRANCH  30  31ENDBRANCH  26  30ENDBRANCH   4  24TORSDOF 7TERENDMDL