MODEL        8USER    Run = 8USERUSER    Estimated Free Energy of Binding    = -11.55 kcal/mol  [=(1)+(2)+(3)-(4)]USERUSER    (1) Final Intermolecular Energy     = -12.75 kcal/molUSER        vdW + Hbond + desolv Energy     = -12.65 kcal/molUSER        Electrostatic Energy            =  -0.09 kcal/molUSER        Moving Ligand-Fixed Receptor    = -12.75 kcal/molUSER        Moving Ligand-Moving Receptor   =  +0.00 kcal/molUSER    (2) Final Total Internal Energy     =  -1.00 kcal/molUSER    (3) Torsional Free Energy           =  +1.19 kcal/molUSER    (4) Unbound System's Energy         =  -1.00 kcal/molUSERUSERREMARK SMILES CC(=O)N1CCN(C(=O)NC2=CC(=CC3=NC=C4C3=CN=C4Nc3ccnc(C)c3)C=C2)CC1REMARK SMILES IDX 14 1 13 2 11 3 12 4 32 5 31 6 10 7 2 8 4 9 5 10 34 11 6 12REMARK SMILES IDX 33 13 7 14 8 15 1 16 3 17 9 18 15 20 16 21 19 22 17 23 18 24REMARK SMILES IDX 20 25 22 26 21 27 23 28 24 30 25 31 30 32 26 33 28 34 27 35REMARK SMILES IDX 29 36REMARK H PARENT 10 19 23 29USER                              x       y       z     vdW  Elec       q    TypeUSER                           _______ _______ _______ _____ _____    ______ ____ROOTATOM      1  C   UNL     1      39.099  46.657  13.858 -0.24 -0.01    +0.037 C  ENDROOTBRANCH   1   2ATOM      2  C   UNL     1      39.760  47.275  14.847 -0.53 +0.00    -0.021 C  ATOM      3  C   UNL     1      40.931  47.502  16.761 -0.50 -0.01    +0.043 C  ATOM      4  C   UNL     1      40.401  46.571  15.948 -0.48 -0.00    +0.034 C  ATOM      5  C   UNL     1      40.671  48.817  16.206 -0.63 -0.01    +0.027 C  ATOM      6  C   UNL     1      39.968  48.692  15.068 -0.63 -0.00    +0.010 C  BRANCH   3   7ATOM      7  N   UNL     1      41.599  47.221  17.919 -0.31 +0.02    -0.308 N  ATOM      8  C   UNL     1      45.066  45.193  22.802 -0.12 +0.12    +0.219 C  ATOM      9  N   UNL     1      43.980  45.666  22.084 -0.09 -0.18    -0.339 N  ATOM     10  C   UNL     1      42.734  44.915  21.883 -0.21 +0.03    +0.141 C  ATOM     11  C   UNL     1      44.034  47.010  21.505 -0.30 +0.08    +0.141 C  ATOM     12  C   UNL     1      41.599  45.769  21.302 -0.28 +0.02    +0.143 C  ATOM     13  C   UNL     1      43.366  47.071  20.124 -0.33 +0.05    +0.143 C  ATOM     14  N   UNL     1      42.018  46.485  20.093 -0.22 -0.05    -0.321 N  ATOM     15  C   UNL     1      41.099  46.623  19.056 -0.28 +0.00    +0.321 C  ATOM     16  C   UNL     1      44.961  43.794  23.358 -0.15 +0.02    +0.114 C  ATOM     17  O   UNL     1      46.078  45.866  22.994 -0.18 -0.19    -0.275 OA ATOM     18  O   UNL     1      39.944  46.223  19.177 -0.32 +0.01    -0.248 OA ATOM     19  H   UNL     1      42.590  47.386  17.893 -0.35 -0.02    +0.171 HD ENDBRANCH   3   7ENDBRANCH   1   2BRANCH   1  20ATOM     20  C   UNL     1      37.707  46.942  13.468 -0.52 -0.02    +0.073 C  ATOM     21  N   UNL     1      37.229  47.754  12.553 -0.99 +0.06    -0.255 NA ATOM     22  C   UNL     1      36.615  46.247  14.160 -0.48 -0.02    +0.031 C  ATOM     23  C   UNL     1      35.841  47.622  12.621 -0.55 -0.07    +0.124 C  ATOM     24  C   UNL     1      35.439  46.755  13.548 -0.53 -0.03    +0.046 C  ATOM     25  C   UNL     1      36.203  45.379  15.079 -0.34 -0.07    +0.124 C  ATOM     26  C   UNL     1      34.315  46.077  14.228 -0.16 -0.13    +0.139 C  ATOM     27  N   UNL     1      34.817  45.257  15.140 -0.19 +0.17    -0.238 NA ATOM     28  N   UNL     1      33.003  46.315  13.908 -0.08 +0.32    -0.340 N  ATOM     29  H   UNL     1      32.836  46.999  13.183 -0.44 -0.16    +0.168 HD BRANCH  28  30ATOM     30  C   UNL     1      31.836  45.760  14.464 -0.44 -0.03    +0.043 A  ATOM     31  C   UNL     1      30.594  46.246  14.036 -0.54 -0.03    +0.046 A  ATOM     32  C   UNL     1      31.830  44.747  15.422 -0.35 -0.03    +0.049 A  ATOM     33  C   UNL     1      29.433  45.710  14.573 -0.11 -0.08    +0.113 A  ATOM     34  C   UNL     1      30.616  44.257  15.908 -0.30 -0.02    +0.039 A  ATOM     35  N   UNL     1      29.419  44.732  15.497 -0.18 +0.15    -0.261 NA ATOM     36  C   UNL     1      30.607  43.169  16.940 -0.29 -0.02    +0.067 C  ENDBRANCH  28  30ENDBRANCH   1  20TORSDOF 4TERENDMDL