REMARK SMILES Cc1cc(NC2=NC=C3C2=CN=C3C=C2C=CC(NC(=O)N3CCN(C)CC3)=C2)ccn1
REMARK SMILES IDX 14 1 13 2 5 3 6 4 7 5 10 6 8 7 9 8 11 9 12 10 4 12 2 13 3 14
REMARK SMILES IDX 32 15 31 16 30 17 1 18 15 19 16 20 29 21 17 22 18 23 19 24
REMARK SMILES IDX 20 25 22 26 23 27 28 28 24 29 27 30 25 31 21 33 26 34
REMARK H PARENT 5 11 19 32
ROOT
ATOM      1  C   UNL     1       0.535  -0.097   0.124  1.00  0.00     0.037 C 
ENDROOT
BRANCH   1   2
ATOM      2  C   UNL     1       1.862   0.528  -0.010  1.00  0.00     0.073 C 
ATOM      3  N   UNL     1       6.619   0.390   0.214  1.00  0.00    -0.340 N 
ATOM      4  C   UNL     1       5.362  -0.143   0.340  1.00  0.00     0.139 C 
ATOM      5  N   UNL     1       5.007  -1.361   0.717  1.00  0.00    -0.238 NA
ATOM      6  C   UNL     1       4.135   0.627   0.045  1.00  0.00     0.046 C 
ATOM      7  C   UNL     1       3.615  -1.409   0.679  1.00  0.00     0.124 C 
ATOM      8  C   UNL     1       3.058  -0.266   0.290  1.00  0.00     0.031 C 
ATOM      9  C   UNL     1       3.590   1.778  -0.345  1.00  0.00     0.124 C 
ATOM     10  N   UNL     1       2.195   1.742  -0.390  1.00  0.00    -0.255 NA
ATOM     11  H   UNL     1       6.670   1.351  -0.095  1.00  0.00     0.168 HD
BRANCH   3  12
ATOM     12  C   UNL     1       7.867  -0.198   0.489  1.00  0.00     0.043 A 
ATOM     13  C   UNL     1      10.282  -0.011   0.487  1.00  0.00     0.039 A 
ATOM     14  C   UNL     1       9.029   0.545   0.234  1.00  0.00     0.049 A 
ATOM     15  N   UNL     1      10.436  -1.259   0.975  1.00  0.00    -0.261 NA
ATOM     16  C   UNL     1       9.313  -1.966   1.211  1.00  0.00     0.113 A 
ATOM     17  C   UNL     1       8.031  -1.487   0.986  1.00  0.00     0.046 A 
ATOM     18  C   UNL     1      11.525   0.779   0.210  1.00  0.00     0.067 C 
ENDBRANCH   3  12
ENDBRANCH   1   2
BRANCH   1  19
ATOM     19  C   UNL     1      -0.630   0.558   0.041  1.00  0.00    -0.021 C 
ATOM     20  C   UNL     1      -0.875   1.971  -0.182  1.00  0.00     0.010 C 
ATOM     21  C   UNL     1      -1.925  -0.090   0.177  1.00  0.00     0.034 C 
ATOM     22  C   UNL     1      -2.207   2.145  -0.174  1.00  0.00     0.027 C 
ATOM     23  C   UNL     1      -2.858   0.866   0.051  1.00  0.00     0.043 C 
BRANCH  23  24
ATOM     24  N   UNL     1      -4.218   0.763   0.088  1.00  0.00    -0.308 N 
ATOM     25  C   UNL     1      -4.955  -0.350   0.427  1.00  0.00     0.321 C 
ATOM     26  N   UNL     1      -6.332  -0.208   0.222  1.00  0.00    -0.322 N 
ATOM     27  C   UNL     1      -6.873   0.569  -0.903  1.00  0.00     0.137 C 
ATOM     28  C   UNL     1      -7.148  -1.364   0.606  1.00  0.00     0.137 C 
ATOM     29  C   UNL     1      -8.383   0.847  -0.767  1.00  0.00     0.106 C 
ATOM     30  C   UNL     1      -8.648  -1.033   0.709  1.00  0.00     0.106 C 
ATOM     31  N   UNL     1      -9.214  -0.332  -0.461  1.00  0.00    -0.303 NA
ATOM     32  H   UNL     1      -4.728   1.631   0.058  1.00  0.00     0.171 HD
ATOM     33  O   UNL     1      -4.471  -1.381   0.888  1.00  0.00    -0.248 OA
ATOM     34  C   UNL     1      -9.345  -1.221  -1.613  1.00  0.00     0.105 C 
ENDBRANCH  23  24
ENDBRANCH   1  19
TORSDOF 4
