REMARK SMILES Cc1cc(NC2=NC=C3C2=CN=C3C=C2C=CC(NC(=O)N3CCN(O)CC3)=C2)ccn1
REMARK SMILES IDX 15 1 16 2 17 3 18 4 29 5 14 6 13 7 5 8 6 9 7 10 10 11 8 12
REMARK SMILES IDX 9 13 11 14 12 15 4 17 2 18 3 19 32 20 31 21 30 22 1 23 19 24
REMARK SMILES IDX 20 25 22 26 23 27 28 28 24 29 27 30 25 31 21 33 26 34
REMARK H PARENT 5 16 19 32 26 35
ROOT
ATOM      1  C   UNL     1      -0.545  -1.470   0.698  1.00  0.00    -0.021 C 
ATOM      2  C   UNL     1      -0.295  -0.889  -0.608  1.00  0.00     0.010 C 
ATOM      3  C   UNL     1      -1.465  -0.397  -1.049  1.00  0.00     0.027 C 
ATOM      4  C   UNL     1      -2.498  -0.651  -0.060  1.00  0.00     0.043 C 
ATOM      5  C   UNL     1      -1.963  -1.308   0.980  1.00  0.00     0.034 C 
ENDROOT
BRANCH   1   6
ATOM      6  C   UNL     1       0.301  -2.088   1.532  1.00  0.00     0.037 C 
BRANCH   6   7
ATOM      7  C   UNL     1       1.746  -2.255   1.337  1.00  0.00     0.073 C 
ATOM      8  N   UNL     1       6.196  -0.893   0.338  1.00  0.00    -0.340 N 
ATOM      9  C   UNL     1       4.847  -0.693   0.474  1.00  0.00     0.139 C 
ATOM     10  N   UNL     1       4.144   0.409   0.266  1.00  0.00    -0.238 NA
ATOM     11  C   UNL     1       3.920  -1.761   0.904  1.00  0.00     0.046 C 
ATOM     12  C   UNL     1       2.815   0.099   0.545  1.00  0.00     0.124 C 
ATOM     13  C   UNL     1       2.629  -1.166   0.910  1.00  0.00     0.031 C 
ATOM     14  C   UNL     1       3.759  -3.026   1.294  1.00  0.00     0.124 C 
ATOM     15  N   UNL     1       2.433  -3.353   1.581  1.00  0.00    -0.255 NA
ATOM     16  H   UNL     1       6.535  -1.822   0.549  1.00  0.00     0.168 HD
BRANCH   8  17
ATOM     17  C   UNL     1       7.203   0.024  -0.014  1.00  0.00     0.043 A 
ATOM     18  C   UNL     1       8.040   2.198  -0.642  1.00  0.00     0.039 A 
ATOM     19  C   UNL     1       6.973   1.369  -0.299  1.00  0.00     0.049 A 
ATOM     20  N   UNL     1       9.315   1.758  -0.717  1.00  0.00    -0.261 NA
ATOM     21  C   UNL     1       9.528   0.457  -0.445  1.00  0.00     0.113 A 
ATOM     22  C   UNL     1       8.524  -0.433  -0.098  1.00  0.00     0.046 A 
ATOM     23  C   UNL     1       7.795   3.642  -0.949  1.00  0.00     0.067 C 
ENDBRANCH   8  17
ENDBRANCH   6   7
ENDBRANCH   1   6
BRANCH   4  24
ATOM     24  N   UNL     1      -3.787  -0.252  -0.268  1.00  0.00    -0.308 N 
ATOM     25  C   UNL     1      -4.838  -0.353   0.617  1.00  0.00     0.321 C 
ATOM     26  N   UNL     1      -6.063   0.060   0.111  1.00  0.00    -0.322 N 
ATOM     27  C   UNL     1      -7.219   0.098   1.015  1.00  0.00     0.139 C 
ATOM     28  C   UNL     1      -6.355   0.362  -1.298  1.00  0.00     0.139 C 
ATOM     29  C   UNL     1      -8.195   1.224   0.629  1.00  0.00     0.136 C 
ATOM     30  C   UNL     1      -7.859   0.290  -1.613  1.00  0.00     0.136 C 
ATOM     31  N   UNL     1      -8.666   1.201  -0.774  1.00  0.00    -0.189 NA
ATOM     32  H   UNL     1      -3.956   0.272  -1.111  1.00  0.00     0.171 HD
ATOM     33  O   UNL     1      -4.727  -0.761   1.770  1.00  0.00    -0.248 OA
BRANCH  31  34
ATOM     34  O   UNL     1      -9.992   0.600  -0.750  1.00  0.00    -0.314 OA
ATOM     35  H   UNL     1     -10.544   1.341  -1.058  1.00  0.00     0.238 HD
ENDBRANCH  31  34
ENDBRANCH   4  24
TORSDOF 5
