MODEL        10USER    Run = 10USERUSER    Estimated Free Energy of Binding    = -10.43 kcal/mol  [=(1)+(2)+(3)-(4)]USERUSER    (1) Final Intermolecular Energy     = -11.92 kcal/molUSER        vdW + Hbond + desolv Energy     = -11.78 kcal/molUSER        Electrostatic Energy            =  -0.14 kcal/molUSER        Moving Ligand-Fixed Receptor    = -11.92 kcal/molUSER        Moving Ligand-Moving Receptor   =  +0.00 kcal/molUSER    (2) Final Total Internal Energy     =  -0.93 kcal/molUSER    (3) Torsional Free Energy           =  +1.49 kcal/molUSER    (4) Unbound System's Energy         =  -0.93 kcal/molUSERUSERREMARK SMILES Cc1cc(NC2=NC=C3C2=CN=C3C=C2C=CC(NC(=O)N3CCN(O)CC3)=C2)ccn1REMARK SMILES IDX 15 1 16 2 17 3 18 4 29 5 14 6 13 7 5 8 6 9 7 10 10 11 8 12REMARK SMILES IDX 9 13 11 14 12 15 4 17 2 18 3 19 32 20 31 21 30 22 1 23 19 24REMARK SMILES IDX 20 25 22 26 23 27 28 28 24 29 27 30 25 31 21 33 26 34REMARK H PARENT 5 16 19 32 26 35USER                              x       y       z     vdW  Elec       q    TypeUSER                           _______ _______ _______ _____ _____    ______ ____ROOTATOM      1  C   UNL     1      40.601  45.271  20.574 -0.40 -0.00    -0.021 C  ATOM      2  C   UNL     1      41.801  45.858  20.006 -0.44 +0.00    +0.010 C  ATOM      3  C   UNL     1      41.452  46.401  18.828 -0.55 +0.00    +0.027 C  ATOM      4  C   UNL     1      40.036  46.177  18.594 -0.48 -0.00    +0.043 C  ATOM      5  C   UNL     1      39.522  45.486  19.623 -0.43 -0.00    +0.034 C  ENDROOTBRANCH   1   6ATOM      6  C   UNL     1      40.440  44.609  21.727 -0.30 +0.00    +0.037 C  BRANCH   6   7ATOM      7  C   UNL     1      39.382  44.838  22.719 -0.27 +0.00    +0.073 C  ATOM      8  N   UNL     1      36.810  47.333  25.851 -0.19 +0.01    -0.340 N  ATOM      9  C   UNL     1      37.834  47.160  24.957 -0.19 +0.02    +0.139 C  ATOM     10  N   UNL     1      38.770  48.020  24.587 -0.27 -0.03    -0.238 NA ATOM     11  C   UNL     1      38.053  45.894  24.227 -0.26 +0.01    +0.046 C  ATOM     12  C   UNL     1      39.573  47.367  23.655 -0.27 +0.01    +0.124 C  ATOM     13  C   UNL     1      39.202  46.112  23.419 -0.33 +0.00    +0.031 C  ATOM     14  C   UNL     1      37.648  44.647  23.985 -0.29 +0.01    +0.124 C  ATOM     15  N   UNL     1      38.439  43.979  23.049 -0.15 -0.02    -0.255 NA ATOM     16  H   UNL     1      36.199  46.540  25.992 -0.47 -0.05    +0.168 HD BRANCH   8  17ATOM     17  C   UNL     1      36.448  48.479  26.583 -0.39 -0.00    +0.043 A  ATOM     18  C   UNL     1      35.955  50.826  26.842 -0.26 +0.00    +0.039 A  ATOM     19  C   UNL     1      36.316  49.752  26.030 -0.42 -0.00    +0.049 A  ATOM     20  N   UNL     1      35.723  50.699  28.166 -0.11 -0.03    -0.261 NA ATOM     21  C   UNL     1      35.856  49.467  28.693 -0.21 -0.00    +0.113 A  ATOM     22  C   UNL     1      36.213  48.348  27.957 -0.32 -0.01    +0.046 A  ATOM     23  C   UNL     1      35.814  52.194  26.251 -0.37 +0.01    +0.067 C  ENDBRANCH   8  17ENDBRANCH   6   7ENDBRANCH   1   6BRANCH   4  24ATOM     24  N   UNL     1      39.428  46.629  17.458 -0.25 +0.07    -0.308 N  ATOM     25  C   UNL     1      38.579  45.922  16.636 -0.23 -0.09    +0.321 C  ATOM     26  N   UNL     1      38.168  46.608  15.500 -0.16 +0.13    -0.322 N  ATOM     27  C   UNL     1      37.173  45.980  14.623 -0.36 -0.06    +0.139 C  ATOM     28  C   UNL     1      38.725  47.879  15.014 -0.47 -0.06    +0.139 C  ATOM     29  C   UNL     1      36.276  47.034  13.949 -0.45 -0.09    +0.136 C  ATOM     30  C   UNL     1      38.437  48.110  13.520 -0.28 -0.03    +0.136 C  ATOM     31  N   UNL     1      36.994  48.093  13.204 -0.82 +0.07    -0.189 NA ATOM     32  H   UNL     1      39.522  47.614  17.270 +0.10 -0.05    +0.171 HD ATOM     33  O   UNL     1      38.191  44.781  16.869 -0.24 +0.06    -0.248 OA BRANCH  31  34ATOM     34  O   UNL     1      36.930  47.718  11.798 -1.02 +0.09    -0.314 OA ATOM     35  H   UNL     1      36.390  48.440  11.431 -0.24 -0.13    +0.238 HD ENDBRANCH  31  34ENDBRANCH   4  24TORSDOF 5TERENDMDL