MODEL        10USER    Run = 10USERUSER    Estimated Free Energy of Binding    = -10.54 kcal/mol  [=(1)+(2)+(3)-(4)]USERUSER    (1) Final Intermolecular Energy     = -12.63 kcal/molUSER        vdW + Hbond + desolv Energy     = -12.56 kcal/molUSER        Electrostatic Energy            =  -0.07 kcal/molUSER        Moving Ligand-Fixed Receptor    = -12.63 kcal/molUSER        Moving Ligand-Moving Receptor   =  +0.00 kcal/molUSER    (2) Final Total Internal Energy     =  -1.78 kcal/molUSER    (3) Torsional Free Energy           =  +2.09 kcal/molUSER    (4) Unbound System's Energy         =  -1.78 kcal/molUSERUSERREMARK SMILES Cc1cc(NC2=NC=C3C2=CN=C3C=C2C=CC(NC(=O)NCCO)=C2)ccn1REMARK SMILES IDX 15 1 16 2 17 3 18 4 26 5 14 6 13 7 5 8 6 9 7 10 10 11 8 12REMARK SMILES IDX 9 13 11 14 12 15 4 17 2 18 3 19 29 20 28 21 27 22 1 23 19 24REMARK SMILES IDX 20 25 22 26 21 28 23 30 24 31 25 32REMARK H PARENT 5 16 19 27 22 29 25 33USER                              x       y       z     vdW  Elec       q    TypeUSER                           _______ _______ _______ _____ _____    ______ ____ROOTATOM      1  C   UNL     1      40.104  47.674  15.082 -0.57 +0.00    -0.021 C  ATOM      2  C   UNL     1      40.344  48.076  16.456 -0.61 -0.00    +0.010 C  ATOM      3  C   UNL     1      41.172  49.133  16.417 -0.52 -0.00    +0.027 C  ATOM      4  C   UNL     1      41.481  49.453  15.035 -0.67 -0.01    +0.043 C  ATOM      5  C   UNL     1      40.839  48.594  14.227 -0.36 -0.01    +0.034 C  ENDROOTBRANCH   1   6ATOM      6  C   UNL     1      39.337  46.685  14.606 -0.49 -0.01    +0.037 C  BRANCH   6   7ATOM      7  C   UNL     1      37.984  46.825  14.055 -0.47 -0.03    +0.073 C  ATOM      8  N   UNL     1      33.262  46.250  13.884 -0.10 +0.32    -0.340 N  ATOM      9  C   UNL     1      34.502  46.105  14.451 -0.23 -0.13    +0.139 C  ATOM     10  N   UNL     1      34.834  45.517  15.589 -0.19 +0.19    -0.238 NA ATOM     11  C   UNL     1      35.735  46.623  13.821 -0.52 -0.03    +0.046 C  ATOM     12  C   UNL     1      36.217  45.633  15.718 -0.33 -0.07    +0.124 C  ATOM     13  C   UNL     1      36.789  46.290  14.714 -0.44 -0.02    +0.031 C  ATOM     14  C   UNL     1      36.292  47.251  12.787 -0.62 -0.06    +0.124 C  ATOM     15  N   UNL     1      37.679  47.375  12.900 -0.79 +0.06    -0.255 NA ATOM     16  H   UNL     1      33.227  46.737  12.998 -0.43 -0.17    +0.168 HD BRANCH   8  17ATOM     17  C   UNL     1      32.011  45.807  14.350 -0.40 -0.03    +0.043 A  ATOM     18  C   UNL     1      30.556  44.525  15.788 -0.32 -0.02    +0.039 A  ATOM     19  C   UNL     1      31.841  44.900  15.396 -0.36 -0.03    +0.049 A  ATOM     20  N   UNL     1      29.440  45.005  15.194 -0.17 +0.17    -0.261 NA ATOM     21  C   UNL     1      29.613  45.880  14.187 -0.23 -0.09    +0.113 A  ATOM     22  C   UNL     1      30.855  46.303  13.738 -0.55 -0.03    +0.046 A  ATOM     23  C   UNL     1      30.372  43.549  16.912 -0.28 -0.02    +0.067 C  ENDBRANCH   8  17ENDBRANCH   6   7ENDBRANCH   1   6BRANCH   4  24ATOM     24  N   UNL     1      42.306  50.490  14.717 -0.41 +0.04    -0.308 N  ATOM     25  C   UNL     1      42.903  50.732  13.499 -0.39 -0.10    +0.319 C  ATOM     26  N   UNL     1      43.711  51.848  13.561 -0.12 +0.12    -0.336 N  ATOM     27  H   UNL     1      42.428  51.210  15.412 -0.18 -0.02    +0.171 HD ATOM     28  O   UNL     1      42.751  50.077  12.475 -0.59 +0.09    -0.249 OA ATOM     29  H   UNL     1      44.195  51.976  14.439 -0.22 -0.04    +0.165 HD BRANCH  26  30ATOM     30  C   UNL     1      44.507  52.229  12.404 -0.33 -0.07    +0.146 C  BRANCH  30  31ATOM     31  C   UNL     1      45.920  52.651  12.808 -0.25 -0.06    +0.177 C  BRANCH  31  32ATOM     32  O   UNL     1      46.031  52.620  14.233 -0.19 +0.11    -0.395 OA ATOM     33  H   UNL     1      46.096  51.681  14.483 -0.22 -0.13    +0.210 HD ENDBRANCH  31  32ENDBRANCH  30  31ENDBRANCH  26  30ENDBRANCH   4  24TORSDOF 7TERENDMDL