MODEL        4USER    Run = 4USERUSER    Estimated Free Energy of Binding    = -11.94 kcal/mol  [=(1)+(2)+(3)-(4)]USERUSER    (1) Final Intermolecular Energy     = -14.03 kcal/molUSER        vdW + Hbond + desolv Energy     = -14.06 kcal/molUSER        Electrostatic Energy            =  +0.03 kcal/molUSER        Moving Ligand-Fixed Receptor    = -14.03 kcal/molUSER        Moving Ligand-Moving Receptor   =  +0.00 kcal/molUSER    (2) Final Total Internal Energy     =  -1.58 kcal/molUSER    (3) Torsional Free Energy           =  +2.09 kcal/molUSER    (4) Unbound System's Energy         =  -1.58 kcal/molUSERUSERREMARK SMILES CNC1=C(c2ccc(C(N)=O)cc2)C=C(c2ccc3cc(F)ccc3c2OC2CCOCC2)N[C@H]1NREMARK SMILES IDX 3 1 4 2 14 3 15 4 34 5 35 6 2 8 1 9 5 11 6 12 13 13 7 14REMARK SMILES IDX 12 15 8 16 9 17 10 18 11 19 36 22 16 25 17 26 26 27 18 28REMARK SMILES IDX 25 29 19 30 24 31 20 32 23 33 21 34 22 35 27 36 28 37 29 38REMARK SMILES IDX 33 39 30 40 32 41 31 42REMARK H PARENT 34 7 2 10 10 20 10 21 36 23 36 24USER                              x       y       z     vdW  Elec       q    TypeUSER                           _______ _______ _______ _____ _____    ______ ____ROOTATOM      1  C   UNL     1      40.181  47.816  16.459 -0.56 -0.01    +0.056 C  ATOM      2  C   UNL     1      40.044  46.945  17.498 -0.54 -0.00    +0.006 C  ATOM      3  C   UNL     1      38.874  46.082  17.582 -0.45 -0.01    +0.037 C  ATOM      4  C   UNL     1      37.944  46.073  16.615 -0.41 -0.02    +0.047 C  ATOM      5  N   UNL     1      38.100  46.840  15.479 -0.14 +0.16    -0.364 N  ATOM      6  C   UNL     1      39.078  47.889  15.353 -0.43 -0.08    +0.193 C  ATOM      7  H   UNL     1      37.235  47.064  15.001 +0.13 -0.10    +0.162 HD ENDROOTBRANCH   1   8ATOM      8  N   UNL     1      41.248  48.739  16.346 -0.25 +0.02    -0.388 N  ATOM      9  C   UNL     1      41.320  49.726  15.278 -0.62 -0.02    +0.139 C  ATOM     10  H   UNL     1      42.154  48.288  16.498 -0.30 +0.02    +0.160 HD ENDBRANCH   1   8BRANCH   2  11ATOM     11  C   UNL     1      41.077  46.862  18.553 -0.48 +0.00    -0.016 A  ATOM     12  C   UNL     1      42.336  47.442  18.358 -0.47 -0.00    +0.009 A  ATOM     13  C   UNL     1      40.790  46.220  19.764 -0.35 +0.00    +0.009 A  ATOM     14  C   UNL     1      43.297  47.386  19.372 -0.46 +0.00    +0.014 A  ATOM     15  C   UNL     1      41.751  46.161  20.777 -0.35 +0.00    +0.014 A  ATOM     16  C   UNL     1      43.005  46.759  20.592 -0.36 +0.01    +0.039 A  BRANCH  16  17ATOM     17  C   UNL     1      44.059  46.747  21.647 -0.22 +0.15    +0.248 C  ATOM     18  N   UNL     1      44.223  47.880  22.397 -0.14 -0.11    -0.366 N  ATOM     19  O   UNL     1      44.786  45.778  21.817 -0.45 -0.29    -0.270 OA ATOM     20  H   UNL     1      43.874  48.778  22.096 -0.52 +0.01    +0.159 HD ATOM     21  H   UNL     1      45.026  47.882  23.013 +0.03 +0.06    +0.159 HD ENDBRANCH  16  17ENDBRANCH   2  11BRANCH   6  22ATOM     22  N   UNL     1      38.529  49.241  15.330 -0.19 +0.22    -0.306 NA ATOM     23  H   UNL     1      39.283  49.835  15.669 -0.24 -0.08    +0.121 HD ATOM     24  H   UNL     1      38.453  49.480  14.341 -0.44 -0.10    +0.121 HD ENDBRANCH   6  22BRANCH   4  25ATOM     25  C   UNL     1      36.752  45.197  16.708 -0.32 -0.02    +0.040 A  ATOM     26  C   UNL     1      36.821  44.083  17.555 -0.30 -0.00    +0.015 A  ATOM     27  C   UNL     1      35.548  45.430  16.006 -0.24 -0.09    +0.136 A  ATOM     28  C   UNL     1      35.720  43.244  17.733 -0.33 -0.00    +0.010 A  ATOM     29  C   UNL     1      34.393  44.632  16.231 -0.30 -0.01    +0.025 A  ATOM     30  C   UNL     1      34.503  43.512  17.094 -0.33 +0.00    -0.012 A  ATOM     31  C   UNL     1      33.129  44.903  15.655 -0.32 -0.01    +0.015 A  ATOM     32  C   UNL     1      33.391  42.686  17.318 -0.33 -0.02    +0.048 A  ATOM     33  C   UNL     1      32.027  44.079  15.893 -0.32 -0.02    +0.040 A  ATOM     34  C   UNL     1      32.172  42.974  16.717 -0.23 -0.05    +0.123 A  ATOM     35  F   UNL     1      31.118  42.180  16.949 -0.04 +0.07    -0.207 F  BRANCH  27  36ATOM     36  O   UNL     1      35.475  46.507  15.144 -0.09 +0.49    -0.489 OA BRANCH  36  37ATOM     37  C   UNL     1      35.637  46.126  13.762 -0.38 -0.11    +0.178 C  ATOM     38  C   UNL     1      36.105  47.374  13.001 -0.63 -0.04    +0.073 C  ATOM     39  C   UNL     1      36.675  45.016  13.610 -0.43 -0.03    +0.073 C  ATOM     40  C   UNL     1      36.960  47.029  11.789 -0.58 -0.05    +0.164 C  ATOM     41  C   UNL     1      36.912  44.687  12.139 -0.45 -0.05    +0.164 C  ATOM     42  O   UNL     1      36.577  45.765  11.263 -0.22 +0.14    -0.381 OA ENDBRANCH  36  37ENDBRANCH  27  36ENDBRANCH   4  25TORSDOF 7TERENDMDL