REMARK SMILES CNC1=C(c2ccc(C(N)=O)cc2)C=C(c2ccc3cc(F)ccc3c2OC2CCOCC2)N[C@H]1N
REMARK SMILES IDX 3 1 4 2 14 3 15 4 34 5 35 6 2 8 1 9 5 11 6 12 13 13 7 14
REMARK SMILES IDX 12 15 8 16 9 17 10 18 11 19 36 22 16 25 17 26 26 27 18 28
REMARK SMILES IDX 25 29 19 30 24 31 20 32 23 33 21 34 22 35 27 36 28 37 29 38
REMARK SMILES IDX 33 39 30 40 32 41 31 42
REMARK H PARENT 34 7 2 10 10 20 10 21 36 23 36 24
ROOT
ATOM      1  C   UNL     1       2.512  -1.300  -0.887  1.00  0.00     0.056 C 
ATOM      2  C   UNL     1       2.035  -0.459   0.073  1.00  0.00     0.006 C 
ATOM      3  C   UNL     1       0.675  -0.612   0.572  1.00  0.00     0.037 C 
ATOM      4  C   UNL     1      -0.112  -1.615   0.154  1.00  0.00     0.047 C 
ATOM      5  N   UNL     1       0.366  -2.570  -0.719  1.00  0.00    -0.364 N 
ATOM      6  C   UNL     1       1.597  -2.433  -1.455  1.00  0.00     0.193 C 
ATOM      7  H   UNL     1      -0.350  -3.045  -1.256  1.00  0.00     0.162 HD
ENDROOT
BRANCH   1   8
ATOM      8  N   UNL     1       3.792  -1.170  -1.476  1.00  0.00    -0.388 N 
ATOM      9  C   UNL     1       4.691  -2.302  -1.655  1.00  0.00     0.139 C 
ATOM     10  H   UNL     1       4.291  -0.352  -1.117  1.00  0.00     0.160 HD
ENDBRANCH   1   8
BRANCH   2  11
ATOM     11  C   UNL     1       2.886   0.618   0.622  1.00  0.00    -0.016 A 
ATOM     12  C   UNL     1       2.804   1.917   0.108  1.00  0.00     0.009 A 
ATOM     13  C   UNL     1       3.765   0.346   1.678  1.00  0.00     0.009 A 
ATOM     14  C   UNL     1       3.589   2.937   0.653  1.00  0.00     0.014 A 
ATOM     15  C   UNL     1       4.553   1.364   2.222  1.00  0.00     0.014 A 
ATOM     16  C   UNL     1       4.457   2.670   1.722  1.00  0.00     0.039 A 
BRANCH  16  17
ATOM     17  C   UNL     1       5.255   3.799   2.279  1.00  0.00     0.248 C 
ATOM     18  N   UNL     1       5.818   3.634   3.515  1.00  0.00    -0.366 N 
ATOM     19  O   UNL     1       5.375   4.858   1.678  1.00  0.00    -0.270 OA
ATOM     20  H   UNL     1       5.499   2.926   4.160  1.00  0.00     0.159 HD
ATOM     21  H   UNL     1       6.243   4.461   3.915  1.00  0.00     0.159 HD
ENDBRANCH  16  17
ENDBRANCH   2  11
BRANCH   6  22
ATOM     22  N   UNL     1       1.434  -2.226  -2.890  1.00  0.00    -0.306 NA
ATOM     23  H   UNL     1       0.872  -1.382  -2.970  1.00  0.00     0.121 HD
ATOM     24  H   UNL     1       2.356  -1.941  -3.224  1.00  0.00     0.121 HD
ENDBRANCH   6  22
BRANCH   4  25
ATOM     25  C   UNL     1      -1.497  -1.763   0.660  1.00  0.00     0.040 A 
ATOM     26  C   UNL     1      -1.887  -3.018   1.146  1.00  0.00     0.015 A 
ATOM     27  C   UNL     1      -2.438  -0.710   0.696  1.00  0.00     0.136 A 
ATOM     28  C   UNL     1      -3.158  -3.218   1.686  1.00  0.00     0.010 A 
ATOM     29  C   UNL     1      -3.710  -0.874   1.310  1.00  0.00     0.025 A 
ATOM     30  C   UNL     1      -4.069  -2.159   1.788  1.00  0.00    -0.012 A 
ATOM     31  C   UNL     1      -4.635   0.182   1.490  1.00  0.00     0.015 A 
ATOM     32  C   UNL     1      -5.327  -2.364   2.376  1.00  0.00     0.048 A 
ATOM     33  C   UNL     1      -5.880  -0.032   2.085  1.00  0.00     0.040 A 
ATOM     34  C   UNL     1      -6.216  -1.306   2.515  1.00  0.00     0.123 A 
ATOM     35  F   UNL     1      -7.409  -1.517   3.087  1.00  0.00    -0.207 F 
BRANCH  27  36
ATOM     36  O   UNL     1      -2.078   0.525   0.193  1.00  0.00    -0.489 OA
BRANCH  36  37
ATOM     37  C   UNL     1      -2.646   0.783  -1.108  1.00  0.00     0.178 C 
ATOM     38  C   UNL     1      -2.882   2.297  -1.206  1.00  0.00     0.073 C 
ATOM     39  C   UNL     1      -1.703   0.340  -2.224  1.00  0.00     0.073 C 
ATOM     40  C   UNL     1      -2.795   2.807  -2.638  1.00  0.00     0.164 C 
ATOM     41  C   UNL     1      -2.267   0.705  -3.594  1.00  0.00     0.164 C 
ATOM     42  O   UNL     1      -3.196   1.789  -3.546  1.00  0.00    -0.381 OA
ENDBRANCH  36  37
ENDBRANCH  27  36
ENDBRANCH   4  25
TORSDOF 7
