MODEL        10USER    Run = 10USERUSER    Estimated Free Energy of Binding    = -12.82 kcal/mol  [=(1)+(2)+(3)-(4)]USERUSER    (1) Final Intermolecular Energy     = -14.91 kcal/molUSER        vdW + Hbond + desolv Energy     = -14.66 kcal/molUSER        Electrostatic Energy            =  -0.25 kcal/molUSER        Moving Ligand-Fixed Receptor    = -14.91 kcal/molUSER        Moving Ligand-Moving Receptor   =  +0.00 kcal/molUSER    (2) Final Total Internal Energy     =  -1.50 kcal/molUSER    (3) Torsional Free Energy           =  +2.09 kcal/molUSER    (4) Unbound System's Energy         =  -1.50 kcal/molUSERUSERREMARK SMILES CN1CCN(C(=O)c2ccc(-c3nc4ccccc4nc3-c3ccc(CN4CCC(n5c(O)nc6cc(F)ccc65)CC4)cc3)cc2)CC1REMARK SMILES IDX 22 1 23 2 24 3 25 4 44 5 45 6 21 7 12 8 13 9 14 10 20 11REMARK SMILES IDX 15 12 19 13 16 14 18 15 17 16 11 17 8 18 9 19 47 20 10 21REMARK SMILES IDX 46 22 6 23 2 24 3 25 49 26 4 27 48 28 5 29 1 30 7 31 26 32REMARK SMILES IDX 27 33 28 34 43 35 29 36 42 37 30 38 31 39 32 40 41 41 34 42REMARK SMILES IDX 40 43 35 44 39 45 36 46 37 47 38 48 33 49REMARK H PARENT 33 50USER                              x       y       z     vdW  Elec       q    TypeUSER                           _______ _______ _______ _____ _____    ______ ____ROOTATOM      1  C   UNL     1      37.265  43.711  20.215 -0.37 -0.00    +0.002 A  ATOM      2  C   UNL     1      37.021  44.511  21.342 -0.26 +0.00    +0.011 A  ATOM      3  C   UNL     1      36.761  43.937  22.593 -0.14 +0.00    +0.006 A  ATOM      4  C   UNL     1      36.721  42.543  22.749 -0.40 -0.00    -0.034 A  ATOM      5  C   UNL     1      36.964  41.741  21.625 -0.53 +0.00    +0.006 A  ATOM      6  C   UNL     1      37.212  42.315  20.375 +0.09 -0.00    +0.011 A  ENDROOTBRANCH   1   7ATOM      7  C   UNL     1      37.570  44.294  18.901 -0.27 -0.01    +0.097 A  ATOM      8  C   UNL     1      38.750  44.974  18.557 -0.33 -0.01    +0.097 A  ATOM      9  N   UNL     1      38.890  45.508  17.305 -0.23 +0.05    -0.244 NA ATOM     10  C   UNL     1      37.879  45.354  16.429 -0.29 -0.03    +0.089 A  ATOM     11  N   UNL     1      36.552  44.132  18.007 -0.16 +0.06    -0.244 NA ATOM     12  C   UNL     1      37.985  45.884  15.146 -0.36 -0.01    +0.030 A  ATOM     13  C   UNL     1      36.702  44.663  16.786 -0.28 -0.03    +0.089 A  ATOM     14  C   UNL     1      36.949  45.750  14.220 -0.42 -0.00    +0.002 A  ATOM     15  C   UNL     1      35.677  44.541  15.861 -0.33 -0.01    +0.030 A  ATOM     16  C   UNL     1      35.787  45.082  14.580 -0.33 -0.00    +0.002 A  BRANCH   8  17ATOM     17  C   UNL     1      39.917  45.224  19.444 -0.42 -0.00    +0.002 A  ATOM     18  C   UNL     1      42.161  45.599  21.168 -0.29 +0.01    +0.040 A  ATOM     19  C   UNL     1      41.920  46.476  20.101 -0.39 +0.00    +0.014 A  ATOM     20  C   UNL     1      41.239  44.578  21.415 -0.30 +0.00    +0.014 A  ATOM     21  C   UNL     1      40.806  46.300  19.270 -0.41 +0.00    +0.011 A  ATOM     22  C   UNL     1      40.155  44.377  20.551 -0.32 +0.00    +0.011 A  BRANCH  18  23ATOM     23  C   UNL     1      43.320  45.876  22.066 -0.17 +0.09    +0.253 C  ATOM     24  N   UNL     1      43.489  49.358  24.671 -0.47 -0.08    -0.303 NA ATOM     25  C   UNL     1      44.651  48.863  23.901 -0.13 +0.03    +0.105 C  ATOM     26  C   UNL     1      42.230  48.941  24.016 -0.39 +0.03    +0.105 C  ATOM     27  C   UNL     1      44.593  47.370  23.515 -0.20 +0.04    +0.135 C  ATOM     28  C   UNL     1      42.149  47.443  23.650 -0.23 +0.02    +0.135 C  ATOM     29  N   UNL     1      43.324  47.024  22.869 -0.10 -0.08    -0.336 N  ATOM     30  C   UNL     1      43.548  48.932  26.068 -0.21 +0.01    +0.105 C  ATOM     31  O   UNL     1      44.274  45.096  22.037 -0.17 -0.17    -0.269 OA ENDBRANCH  18  23ENDBRANCH   8  17ENDBRANCH   1   7BRANCH   4  32ATOM     32  C   UNL     1      36.511  41.934  24.124 -0.37 -0.00    +0.120 C  BRANCH  32  33ATOM     33  N   UNL     1      37.593  42.245  25.077 -0.17 +0.00    -0.299 NA ATOM     34  C   UNL     1      37.311  41.775  26.444 -0.40 -0.01    +0.087 C  ATOM     35  C   UNL     1      37.980  43.659  25.042 -0.26 +0.00    +0.087 C  ATOM     36  C   UNL     1      36.331  42.658  27.228 -0.49 -0.01    +0.041 C  ATOM     37  C   UNL     1      37.003  44.591  25.762 -0.37 -0.00    +0.041 C  ATOM     38  C   UNL     1      36.803  44.118  27.207 -0.39 -0.02    +0.095 C  BRANCH  38  39ATOM     39  N   UNL     1      35.990  45.058  27.965 -0.26 +0.08    -0.291 N  ATOM     40  C   UNL     1      34.856  44.800  28.684 -0.30 -0.08    +0.295 A  ATOM     41  C   UNL     1      36.201  46.424  28.031 -0.23 -0.02    +0.072 A  ATOM     42  N   UNL     1      34.359  45.864  29.259 -0.43 +0.04    -0.195 NA ATOM     43  C   UNL     1      37.157  47.276  27.459 -0.30 -0.01    +0.032 A  ATOM     44  C   UNL     1      35.175  46.893  28.854 -0.34 -0.02    +0.095 A  ATOM     45  C   UNL     1      37.052  48.641  27.755 -0.27 -0.00    +0.041 A  ATOM     46  C   UNL     1      35.088  48.258  29.144 -0.33 -0.01    +0.070 A  ATOM     47  C   UNL     1      36.039  49.112  28.584 -0.23 -0.01    +0.125 A  ATOM     48  F   UNL     1      35.976  50.424  28.854 -0.03 -0.02    -0.207 F  BRANCH  40  49ATOM     49  O   UNL     1      34.287  43.616  28.814 -0.36 +0.13    -0.480 OA ATOM     50  H   UNL     1      34.903  43.176  29.433 -0.33 -0.20    +0.296 HD ENDBRANCH  40  49ENDBRANCH  38  39ENDBRANCH  32  33ENDBRANCH   4  32TORSDOF 7TERENDMDL