MODEL        8USER    Run = 8USERUSER    Estimated Free Energy of Binding    = -13.61 kcal/mol  [=(1)+(2)+(3)-(4)]USERUSER    (1) Final Intermolecular Energy     = -16.00 kcal/molUSER        vdW + Hbond + desolv Energy     = -15.83 kcal/molUSER        Electrostatic Energy            =  -0.17 kcal/molUSER        Moving Ligand-Fixed Receptor    = -16.00 kcal/molUSER        Moving Ligand-Moving Receptor   =  +0.00 kcal/molUSER    (2) Final Total Internal Energy     =  -1.72 kcal/molUSER    (3) Torsional Free Energy           =  +2.39 kcal/molUSER    (4) Unbound System's Energy         =  -1.72 kcal/molUSERUSERREMARK SMILES CN1CCN(C(=O)c2ccc(-c3nc4ccc(O)cc4nc3-c3ccc(CN4CCC(n5c(O)nc6ccccc65)CC4)cc3)cc2)CC1REMARK SMILES IDX 23 1 24 2 25 3 26 4 44 5 45 6 22 7 12 8 13 9 14 10 21 11REMARK SMILES IDX 15 12 20 13 16 14 19 15 17 16 11 17 8 18 9 19 47 20 10 21REMARK SMILES IDX 46 22 6 23 2 24 3 25 49 26 4 27 48 28 5 29 1 30 7 31 18 32REMARK SMILES IDX 27 34 28 35 29 36 43 37 30 38 42 39 31 40 32 41 33 42 41 43REMARK SMILES IDX 35 44 40 45 36 46 39 47 37 48 38 49 34 50REMARK H PARENT 18 33 34 51USER                              x       y       z     vdW  Elec       q    TypeUSER                           _______ _______ _______ _____ _____    ______ ____ROOTATOM      1  C   UNL     1      35.757  45.737  17.088 -0.35 -0.00    +0.002 A  ATOM      2  C   UNL     1      35.390  44.856  16.059 -0.32 -0.01    +0.011 A  ATOM      3  C   UNL     1      34.057  44.453  15.899 -0.31 -0.00    +0.006 A  ATOM      4  C   UNL     1      33.054  44.924  16.757 -0.30 +0.02    -0.034 A  ATOM      5  C   UNL     1      33.418  45.796  17.791 -0.37 -0.00    +0.006 A  ATOM      6  C   UNL     1      34.746  46.204  17.945 -0.46 -0.01    +0.011 A  ENDROOTBRANCH   1   7ATOM      7  C   UNL     1      37.144  46.201  17.256 -0.26 -0.04    +0.097 A  ATOM      8  C   UNL     1      38.057  45.732  18.212 -0.27 -0.02    +0.097 A  ATOM      9  N   UNL     1      39.344  46.187  18.221 -0.28 +0.04    -0.244 NA ATOM     10  C   UNL     1      39.698  47.116  17.316 -0.38 -0.02    +0.090 A  ATOM     11  N   UNL     1      37.503  47.152  16.347 -0.22 +0.15    -0.244 NA ATOM     12  C   UNL     1      40.998  47.610  17.302 -0.50 -0.00    +0.034 A  ATOM     13  C   UNL     1      38.768  47.605  16.375 -0.35 -0.04    +0.093 A  ATOM     14  C   UNL     1      41.391  48.581  16.379 -0.39 -0.00    +0.048 A  ATOM     15  C   UNL     1      39.167  48.571  15.457 -0.46 -0.04    +0.076 A  ATOM     16  C   UNL     1      40.469  49.057  15.463 -0.51 -0.03    +0.117 A  BRANCH   8  17ATOM     17  C   UNL     1      37.771  44.773  19.300 -0.35 -0.00    +0.002 A  ATOM     18  C   UNL     1      37.223  43.040  21.471 -0.39 +0.00    +0.040 A  ATOM     19  C   UNL     1      36.299  43.180  20.432 -0.43 -0.00    +0.014 A  ATOM     20  C   UNL     1      38.403  43.787  21.453 -0.31 +0.00    +0.014 A  ATOM     21  C   UNL     1      36.572  44.039  19.361 -0.37 -0.00    +0.011 A  ATOM     22  C   UNL     1      38.676  44.632  20.373 -0.36 -0.00    +0.011 A  BRANCH  18  23ATOM     23  C   UNL     1      36.874  42.186  22.634 -0.37 +0.02    +0.253 C  ATOM     24  N   UNL     1      36.760  43.706  26.667 -0.16 +0.04    -0.303 NA ATOM     25  C   UNL     1      35.805  42.677  26.200 -0.41 -0.01    +0.105 C  ATOM     26  C   UNL     1      37.094  44.612  25.548 -0.32 -0.00    +0.105 C  ATOM     27  C   UNL     1      36.339  41.884  24.990 -0.31 -0.01    +0.135 C  ATOM     28  C   UNL     1      37.669  43.843  24.343 -0.28 +0.01    +0.135 C  ATOM     29  N   UNL     1      36.774  42.764  23.904 -0.19 -0.03    -0.336 N  ATOM     30  C   UNL     1      36.196  44.456  27.787 -0.45 -0.03    +0.105 C  ATOM     31  O   UNL     1      36.644  40.998  22.417 -0.48 -0.01    -0.269 OA ENDBRANCH  18  23ENDBRANCH   8  17BRANCH  16  32ATOM     32  O   UNL     1      40.880  50.010  14.578 -0.20 +0.20    -0.508 OA ATOM     33  H   UNL     1      40.396  50.835  14.754 -0.13 -0.23    +0.293 HD ENDBRANCH  16  32ENDBRANCH   1   7BRANCH   4  34ATOM     34  C   UNL     1      31.614  44.491  16.572 -0.28 -0.04    +0.120 C  BRANCH  34  35ATOM     35  N   UNL     1      31.223  43.203  17.161 -0.11 +0.08    -0.299 NA ATOM     36  C   UNL     1      32.069  42.770  18.278 -0.32 -0.01    +0.087 C  ATOM     37  C   UNL     1      30.961  42.140  16.197 -0.30 -0.04    +0.087 C  ATOM     38  C   UNL     1      31.870  41.293  18.650 -0.38 -0.00    +0.041 C  ATOM     39  C   UNL     1      30.099  41.054  16.847 -0.38 -0.01    +0.041 C  ATOM     40  C   UNL     1      30.443  40.834  18.331 -0.19 -0.01    +0.095 C  BRANCH  40  41ATOM     41  N   UNL     1      30.163  39.472  18.765 -0.16 -0.03    -0.291 N  ATOM     42  C   UNL     1      31.030  38.416  18.745 -0.25 +0.06    +0.295 A  ATOM     43  C   UNL     1      28.960  38.992  19.243 -0.25 +0.01    +0.072 A  ATOM     44  N   UNL     1      30.503  37.304  19.183 -0.64 -0.09    -0.195 NA ATOM     45  C   UNL     1      27.708  39.578  19.475 -0.20 -0.00    +0.029 A  ATOM     46  C   UNL     1      29.209  37.642  19.496 -0.30 +0.02    +0.092 A  ATOM     47  C   UNL     1      26.694  38.750  19.975 -0.27 -0.00    +0.002 A  ATOM     48  C   UNL     1      28.179  36.830  20.001 -0.26 -0.00    +0.031 A  ATOM     49  C   UNL     1      26.922  37.399  20.236 -0.30 -0.00    +0.002 A  BRANCH  42  50ATOM     50  O   UNL     1      32.277  38.468  18.323 -0.24 -0.03    -0.480 OA ATOM     51  H   UNL     1      32.147  38.594  17.365 +0.22 -0.01    +0.296 HD ENDBRANCH  42  50ENDBRANCH  40  41ENDBRANCH  34  35ENDBRANCH   4  34TORSDOF 8TERENDMDL