MODEL        7USER    Run = 7USERUSER    Estimated Free Energy of Binding    = -13.65 kcal/mol  [=(1)+(2)+(3)-(4)]USERUSER    (1) Final Intermolecular Energy     = -15.74 kcal/molUSER        vdW + Hbond + desolv Energy     = -15.50 kcal/molUSER        Electrostatic Energy            =  -0.24 kcal/molUSER        Moving Ligand-Fixed Receptor    = -15.74 kcal/molUSER        Moving Ligand-Moving Receptor   =  +0.00 kcal/molUSER    (2) Final Total Internal Energy     =  -2.01 kcal/molUSER    (3) Torsional Free Energy           =  +2.09 kcal/molUSER    (4) Unbound System's Energy         =  -2.01 kcal/molUSERUSERREMARK SMILES O=C(c1ccc(-c2nc3ccccc3nc2-c2ccc(CN3CCC(n4c(O)nc5ccccc54)CC3)cc2)cc1)N1CCOCC1REMARK SMILES IDX 17 1 18 2 19 3 20 4 38 5 39 6 16 7 7 8 8 9 9 10 15 11 10 12REMARK SMILES IDX 14 13 11 14 13 15 12 16 6 17 3 18 4 19 41 20 5 21 40 22 2 23REMARK SMILES IDX 42 24 43 25 47 26 44 27 46 28 45 29 1 30 21 31 22 32 23 33REMARK SMILES IDX 37 34 24 35 36 36 25 37 26 38 27 39 35 40 29 41 34 42 30 43REMARK SMILES IDX 33 44 31 45 32 46 28 47REMARK H PARENT 28 48USER                              x       y       z     vdW  Elec       q    TypeUSER                           _______ _______ _______ _____ _____    ______ ____ROOTATOM      1  C   UNL     1      37.798  43.957  21.217 -0.38 +0.00    +0.002 A  ATOM      2  C   UNL     1      38.334  44.544  22.374 -0.34 +0.00    +0.011 A  ATOM      3  C   UNL     1      38.156  43.955  23.631 -0.30 +0.00    +0.006 A  ATOM      4  C   UNL     1      37.448  42.754  23.766 -0.36 -0.00    -0.034 A  ATOM      5  C   UNL     1      36.924  42.155  22.615 -0.50 +0.00    +0.006 A  ATOM      6  C   UNL     1      37.106  42.744  21.359 -0.42 +0.00    +0.011 A  ENDROOTBRANCH   1   7ATOM      7  C   UNL     1      37.960  44.568  19.887 -0.29 -0.00    +0.097 A  ATOM      8  C   UNL     1      37.050  44.444  18.824 -0.29 -0.02    +0.097 A  ATOM      9  N   UNL     1      37.256  45.092  17.642 -0.20 +0.07    -0.244 NA ATOM     10  C   UNL     1      38.375  45.830  17.524 -0.33 -0.02    +0.089 A  ATOM     11  N   UNL     1      39.097  45.307  19.757 -0.24 +0.01    -0.244 NA ATOM     12  C   UNL     1      38.636  46.501  16.335 -0.39 -0.01    +0.030 A  ATOM     13  C   UNL     1      39.300  45.936  18.587 -0.35 -0.01    +0.089 A  ATOM     14  C   UNL     1      39.785  47.275  16.172 -0.50 -0.00    +0.002 A  ATOM     15  C   UNL     1      40.441  46.711  18.416 -0.42 -0.00    +0.030 A  ATOM     16  C   UNL     1      40.692  47.382  17.218 -0.53 -0.00    +0.002 A  BRANCH   8  17ATOM     17  C   UNL     1      35.824  43.625  18.846 -0.35 -0.00    +0.002 A  ATOM     18  C   UNL     1      33.467  42.075  18.932 -0.38 -0.00    +0.040 A  ATOM     19  C   UNL     1      33.613  43.167  19.789 -0.34 +0.00    +0.014 A  ATOM     20  C   UNL     1      34.490  41.742  18.042 -0.36 -0.00    +0.014 A  ATOM     21  C   UNL     1      34.778  43.939  19.735 -0.40 -0.00    +0.011 A  ATOM     22  C   UNL     1      35.651  42.520  17.991 -0.23 -0.00    +0.011 A  BRANCH  18  23ATOM     23  C   UNL     1      32.268  41.208  18.997 -0.26 -0.00    +0.254 C  ATOM     24  N   UNL     1      31.230  41.422  18.100 -0.11 +0.05    -0.334 N  ATOM     25  C   UNL     1      31.322  42.221  16.871 -0.27 -0.05    +0.148 C  ATOM     26  C   UNL     1      30.013  40.624  18.236 -0.16 -0.00    +0.148 C  ATOM     27  C   UNL     1      30.410  41.656  15.776 -0.24 -0.09    +0.181 C  ATOM     28  C   UNL     1      28.827  41.316  17.560 -0.16 -0.02    +0.181 C  ATOM     29  O   UNL     1      29.031  41.589  16.165 -0.14 +0.12    -0.378 OA ATOM     30  O   UNL     1      32.243  40.330  19.857 -0.85 -0.08    -0.269 OA ENDBRANCH  18  23ENDBRANCH   8  17ENDBRANCH   1   7BRANCH   4  31ATOM     31  C   UNL     1      37.245  42.127  25.130 -0.36 -0.01    +0.120 C  BRANCH  31  32ATOM     32  N   UNL     1      36.810  43.031  26.195 -0.16 +0.03    -0.299 NA ATOM     33  C   UNL     1      35.415  43.447  26.132 -0.18 -0.01    +0.087 C  ATOM     34  C   UNL     1      37.327  42.749  27.521 -0.37 -0.02    +0.087 C  ATOM     35  C   UNL     1      34.797  43.806  27.486 -0.56 -0.01    +0.041 C  ATOM     36  C   UNL     1      37.203  44.007  28.376 -0.30 -0.01    +0.041 C  ATOM     37  C   UNL     1      35.754  44.514  28.457 -0.45 -0.03    +0.095 C  BRANCH  37  38ATOM     38  N   UNL     1      35.647  45.969  28.414 -0.23 +0.08    -0.291 N  ATOM     39  C   UNL     1      34.649  46.741  28.944 -0.17 -0.06    +0.295 A  ATOM     40  C   UNL     1      36.546  46.838  27.822 -0.28 -0.02    +0.072 A  ATOM     41  N   UNL     1      34.824  48.021  28.754 -0.29 +0.03    -0.195 NA ATOM     42  C   UNL     1      37.748  46.659  27.123 -0.28 -0.00    +0.029 A  ATOM     43  C   UNL     1      36.000  48.103  28.053 -0.30 -0.02    +0.092 A  ATOM     44  C   UNL     1      38.396  47.808  26.652 -0.27 -0.00    +0.002 A  ATOM     45  C   UNL     1      36.666  49.241  27.573 -0.29 -0.00    +0.031 A  ATOM     46  C   UNL     1      37.865  49.081  26.873 -0.28 +0.00    +0.002 A  BRANCH  39  47ATOM     47  O   UNL     1      33.593  46.281  29.579 -0.59 +0.07    -0.480 OA ATOM     48  H   UNL     1      34.006  45.827  30.337 -0.06 -0.20    +0.296 HD ENDBRANCH  39  47ENDBRANCH  37  38ENDBRANCH  31  32ENDBRANCH   4  31TORSDOF 7TERENDMDL