REMARK SMILES CN1CCN(C(=O)c2ccc(-c3nc4ccccc4nc3-c3ccc(CN4CCC(n5c(O)nc6cc(F)ccc65)CC4)cc3)cc2)CC1
REMARK SMILES IDX 22 1 23 2 24 3 25 4 44 5 45 6 21 7 12 8 13 9 14 10 20 11
REMARK SMILES IDX 15 12 19 13 16 14 18 15 17 16 11 17 8 18 9 19 47 20 10 21
REMARK SMILES IDX 46 22 6 23 2 24 3 25 49 26 4 27 48 28 5 29 1 30 7 31 26 32
REMARK SMILES IDX 27 33 28 34 43 35 29 36 42 37 30 38 31 39 32 40 41 41 34 42
REMARK SMILES IDX 40 43 35 44 39 45 36 46 37 47 38 48 33 49
REMARK H PARENT 33 50
ROOT
ATOM      1  C   UNL     1      -0.374  -2.708   0.208  1.00  0.00     0.002 A 
ATOM      2  C   UNL     1      -0.276  -1.570   1.023  1.00  0.00     0.011 A 
ATOM      3  C   UNL     1       0.716  -0.606   0.801  1.00  0.00     0.006 A 
ATOM      4  C   UNL     1       1.650  -0.762  -0.234  1.00  0.00    -0.034 A 
ATOM      5  C   UNL     1       1.555  -1.899  -1.050  1.00  0.00     0.006 A 
ATOM      6  C   UNL     1       0.572  -2.865  -0.820  1.00  0.00     0.011 A 
ENDROOT
BRANCH   1   7
ATOM      7  C   UNL     1      -1.426  -3.715   0.405  1.00  0.00     0.097 A 
ATOM      8  C   UNL     1      -2.803  -3.514   0.212  1.00  0.00     0.097 A 
ATOM      9  N   UNL     1      -3.684  -4.528   0.473  1.00  0.00    -0.244 NA
ATOM     10  C   UNL     1      -3.193  -5.705   0.906  1.00  0.00     0.089 A 
ATOM     11  N   UNL     1      -0.932  -4.912   0.834  1.00  0.00    -0.244 NA
ATOM     12  C   UNL     1      -4.059  -6.759   1.183  1.00  0.00     0.030 A 
ATOM     13  C   UNL     1      -1.807  -5.894   1.090  1.00  0.00     0.089 A 
ATOM     14  C   UNL     1      -3.580  -7.987   1.643  1.00  0.00     0.002 A 
ATOM     15  C   UNL     1      -1.343  -7.115   1.553  1.00  0.00     0.030 A 
ATOM     16  C   UNL     1      -2.217  -8.164   1.837  1.00  0.00     0.002 A 
BRANCH   8  17
ATOM     17  C   UNL     1      -3.459  -2.258  -0.239  1.00  0.00     0.002 A 
ATOM     18  C   UNL     1      -4.772   0.155  -1.014  1.00  0.00     0.040 A 
ATOM     19  C   UNL     1      -3.506  -0.168  -1.521  1.00  0.00     0.014 A 
ATOM     20  C   UNL     1      -5.412  -0.764  -0.177  1.00  0.00     0.014 A 
ATOM     21  C   UNL     1      -2.874  -1.364  -1.153  1.00  0.00     0.011 A 
ATOM     22  C   UNL     1      -4.754  -1.933   0.226  1.00  0.00     0.011 A 
BRANCH  18  23
ATOM     23  C   UNL     1      -5.432   1.404  -1.495  1.00  0.00     0.253 C 
ATOM     24  N   UNL     1      -8.572   3.412   0.752  1.00  0.00    -0.303 NA
ATOM     25  C   UNL     1      -8.607   3.242  -0.718  1.00  0.00     0.105 C 
ATOM     26  C   UNL     1      -7.732   2.361   1.365  1.00  0.00     0.105 C 
ATOM     27  C   UNL     1      -7.230   3.050  -1.387  1.00  0.00     0.135 C 
ATOM     28  C   UNL     1      -6.340   2.178   0.721  1.00  0.00     0.135 C 
ATOM     29  N   UNL     1      -6.450   1.994  -0.735  1.00  0.00    -0.336 N 
ATOM     30  C   UNL     1      -8.134   4.754   1.128  1.00  0.00     0.105 C 
ATOM     31  O   UNL     1      -5.087   1.857  -2.588  1.00  0.00    -0.269 OA
ENDBRANCH  18  23
ENDBRANCH   8  17
ENDBRANCH   1   7
BRANCH   4  32
ATOM     32  C   UNL     1       2.674   0.325  -0.509  1.00  0.00     0.120 C 
BRANCH  32  33
ATOM     33  N   UNL     1       3.959  -0.192  -1.017  1.00  0.00    -0.299 NA
ATOM     34  C   UNL     1       4.777  -0.831   0.027  1.00  0.00     0.087 C 
ATOM     35  C   UNL     1       4.708   0.817  -1.773  1.00  0.00     0.087 C 
ATOM     36  C   UNL     1       5.507   0.153   0.951  1.00  0.00     0.041 C 
ATOM     37  C   UNL     1       5.409   1.859  -0.898  1.00  0.00     0.041 C 
ATOM     38  C   UNL     1       6.317   1.157   0.118  1.00  0.00     0.095 C 
BRANCH  38  39
ATOM     39  N   UNL     1       7.107   2.117   0.876  1.00  0.00    -0.291 N 
ATOM     40  C   UNL     1       6.743   2.806   1.999  1.00  0.00     0.295 A 
ATOM     41  C   UNL     1       8.375   2.553   0.535  1.00  0.00     0.072 A 
ATOM     42  N   UNL     1       7.686   3.594   2.447  1.00  0.00    -0.195 NA
ATOM     43  C   UNL     1       9.237   2.258  -0.532  1.00  0.00     0.032 A 
ATOM     44  C   UNL     1       8.710   3.462   1.540  1.00  0.00     0.095 A 
ATOM     45  C   UNL     1      10.475   2.912  -0.550  1.00  0.00     0.041 A 
ATOM     46  C   UNL     1       9.953   4.103   1.510  1.00  0.00     0.070 A 
ATOM     47  C   UNL     1      10.819   3.810   0.455  1.00  0.00     0.125 A 
ATOM     48  F   UNL     1      12.017   4.410   0.411  1.00  0.00    -0.207 F 
BRANCH  40  49
ATOM     49  O   UNL     1       5.574   2.716   2.605  1.00  0.00    -0.480 OA
ATOM     50  H   UNL     1       5.696   3.340   3.348  1.00  0.00     0.296 HD
ENDBRANCH  40  49
ENDBRANCH  38  39
ENDBRANCH  32  33
ENDBRANCH   4  32
TORSDOF 7
