REMARK SMILES CN1CCN(C(=O)c2ccc(-c3nc4ccc(O)cc4nc3-c3ccc(CN4CCC(n5c(O)nc6ccccc65)CC4)cc3)cc2)CC1
REMARK SMILES IDX 23 1 24 2 25 3 26 4 44 5 45 6 22 7 12 8 13 9 14 10 21 11
REMARK SMILES IDX 15 12 20 13 16 14 19 15 17 16 11 17 8 18 9 19 47 20 10 21
REMARK SMILES IDX 46 22 6 23 2 24 3 25 49 26 4 27 48 28 5 29 1 30 7 31 18 32
REMARK SMILES IDX 27 34 28 35 29 36 43 37 30 38 42 39 31 40 32 41 33 42 41 43
REMARK SMILES IDX 35 44 40 45 36 46 39 47 37 48 38 49 34 50
REMARK H PARENT 18 33 34 51
ROOT
ATOM      1  C   UNL     1      -0.357  -1.898   0.622  1.00  0.00     0.002 A 
ATOM      2  C   UNL     1      -0.440  -0.750  -0.181  1.00  0.00     0.011 A 
ATOM      3  C   UNL     1       0.400   0.348   0.045  1.00  0.00     0.006 A 
ATOM      4  C   UNL     1       1.351   0.328   1.075  1.00  0.00    -0.034 A 
ATOM      5  C   UNL     1       1.431  -0.812   1.885  1.00  0.00     0.006 A 
ATOM      6  C   UNL     1       0.598  -1.911   1.653  1.00  0.00     0.011 A 
ENDROOT
BRANCH   1   7
ATOM      7  C   UNL     1      -1.205  -3.078   0.383  1.00  0.00     0.097 A 
ATOM      8  C   UNL     1      -2.607  -3.088   0.348  1.00  0.00     0.097 A 
ATOM      9  N   UNL     1      -3.283  -4.233   0.041  1.00  0.00    -0.244 NA
ATOM     10  C   UNL     1      -2.572  -5.350  -0.192  1.00  0.00     0.090 A 
ATOM     11  N   UNL     1      -0.487  -4.215   0.158  1.00  0.00    -0.244 NA
ATOM     12  C   UNL     1      -3.227  -6.538  -0.498  1.00  0.00     0.034 A 
ATOM     13  C   UNL     1      -1.163  -5.341  -0.128  1.00  0.00     0.093 A 
ATOM     14  C   UNL     1      -2.515  -7.715  -0.736  1.00  0.00     0.048 A 
ATOM     15  C   UNL     1      -0.459  -6.516  -0.368  1.00  0.00     0.076 A 
ATOM     16  C   UNL     1      -1.132  -7.695  -0.666  1.00  0.00     0.117 A 
BRANCH   8  17
ATOM     17  C   UNL     1      -3.499  -1.950   0.657  1.00  0.00     0.002 A 
ATOM     18  C   UNL     1      -5.308   0.141   1.269  1.00  0.00     0.040 A 
ATOM     19  C   UNL     1      -4.183  -0.075   2.071  1.00  0.00     0.014 A 
ATOM     20  C   UNL     1      -5.556  -0.704   0.185  1.00  0.00     0.014 A 
ATOM     21  C   UNL     1      -3.292  -1.110   1.767  1.00  0.00     0.011 A 
ATOM     22  C   UNL     1      -4.654  -1.727  -0.122  1.00  0.00     0.011 A 
BRANCH  18  23
ATOM     23  C   UNL     1      -6.279   1.192   1.661  1.00  0.00     0.253 C 
ATOM     24  N   UNL     1      -8.001   3.929  -1.191  1.00  0.00    -0.303 NA
ATOM     25  C   UNL     1      -8.779   3.418  -0.040  1.00  0.00     0.105 C 
ATOM     26  C   UNL     1      -7.056   2.889  -1.647  1.00  0.00     0.105 C 
ATOM     27  C   UNL     1      -7.877   2.948   1.118  1.00  0.00     0.135 C 
ATOM     28  C   UNL     1      -6.116   2.434  -0.514  1.00  0.00     0.135 C 
ATOM     29  N   UNL     1      -6.862   1.991   0.672  1.00  0.00    -0.336 N 
ATOM     30  C   UNL     1      -8.895   4.326  -2.277  1.00  0.00     0.105 C 
ATOM     31  O   UNL     1      -6.562   1.287   2.854  1.00  0.00    -0.269 OA
ENDBRANCH  18  23
ENDBRANCH   8  17
BRANCH  16  32
ATOM     32  O   UNL     1      -0.464  -8.861  -0.897  1.00  0.00    -0.508 OA
ATOM     33  H   UNL     1       0.493  -8.691  -0.853  1.00  0.00     0.293 HD
ENDBRANCH  16  32
ENDBRANCH   1   7
BRANCH   4  34
ATOM     34  C   UNL     1       2.262   1.516   1.308  1.00  0.00     0.120 C 
BRANCH  34  35
ATOM     35  N   UNL     1       3.608   1.450   0.724  1.00  0.00    -0.299 NA
ATOM     36  C   UNL     1       3.632   1.498  -0.742  1.00  0.00     0.087 C 
ATOM     37  C   UNL     1       4.467   0.408   1.275  1.00  0.00     0.087 C 
ATOM     38  C   UNL     1       4.986   1.086  -1.338  1.00  0.00     0.041 C 
ATOM     39  C   UNL     1       5.934   0.744   0.991  1.00  0.00     0.041 C 
ATOM     40  C   UNL     1       6.133   1.418  -0.378  1.00  0.00     0.095 C 
BRANCH  40  41
ATOM     41  N   UNL     1       7.451   1.151  -0.937  1.00  0.00    -0.291 N 
ATOM     42  C   UNL     1       7.905  -0.044  -1.419  1.00  0.00     0.295 A 
ATOM     43  C   UNL     1       8.494   2.049  -1.050  1.00  0.00     0.072 A 
ATOM     44  N   UNL     1       9.137   0.004  -1.849  1.00  0.00    -0.195 NA
ATOM     45  C   UNL     1       8.646   3.402  -0.718  1.00  0.00     0.029 A 
ATOM     46  C   UNL     1       9.525   1.302  -1.624  1.00  0.00     0.092 A 
ATOM     47  C   UNL     1       9.889   3.993  -0.982  1.00  0.00     0.002 A 
ATOM     48  C   UNL     1      10.762   1.915  -1.884  1.00  0.00     0.031 A 
ATOM     49  C   UNL     1      10.931   3.265  -1.556  1.00  0.00     0.002 A 
BRANCH  42  50
ATOM     50  O   UNL     1       7.206  -1.161  -1.454  1.00  0.00    -0.480 OA
ATOM     51  H   UNL     1       7.852  -1.776  -1.848  1.00  0.00     0.296 HD
ENDBRANCH  42  50
ENDBRANCH  40  41
ENDBRANCH  34  35
ENDBRANCH   4  34
TORSDOF 8
