REMARK SMILES O=C(c1ccc(-c2nc3ccccc3nc2-c2ccc(CN3CCC(n4c(O)nc5ccccc54)CC3)cc2)cc1)N1CCOCC1
REMARK SMILES IDX 17 1 18 2 19 3 20 4 38 5 39 6 16 7 7 8 8 9 9 10 15 11 10 12
REMARK SMILES IDX 14 13 11 14 13 15 12 16 6 17 3 18 4 19 41 20 5 21 40 22 2 23
REMARK SMILES IDX 42 24 43 25 47 26 44 27 46 28 45 29 1 30 21 31 22 32 23 33
REMARK SMILES IDX 37 34 24 35 36 36 25 37 26 38 27 39 35 40 29 41 34 42 30 43
REMARK SMILES IDX 33 44 31 45 32 46 28 47
REMARK H PARENT 28 48
ROOT
ATOM      1  C   UNL     1      -0.884  -0.083   1.672  1.00  0.00     0.002 A 
ATOM      2  C   UNL     1      -0.619  -0.553   0.376  1.00  0.00     0.011 A 
ATOM      3  C   UNL     1       0.344   0.061  -0.432  1.00  0.00     0.006 A 
ATOM      4  C   UNL     1       1.080   1.157   0.037  1.00  0.00    -0.034 A 
ATOM      5  C   UNL     1       0.832   1.622   1.333  1.00  0.00     0.006 A 
ATOM      6  C   UNL     1      -0.129   1.004   2.141  1.00  0.00     0.011 A 
ENDROOT
BRANCH   1   7
ATOM      7  C   UNL     1      -1.904  -0.705   2.533  1.00  0.00     0.097 A 
ATOM      8  C   UNL     1      -3.248  -0.906   2.178  1.00  0.00     0.097 A 
ATOM      9  N   UNL     1      -4.111  -1.542   3.021  1.00  0.00    -0.244 NA
ATOM     10  C   UNL     1      -3.633  -1.944   4.213  1.00  0.00     0.089 A 
ATOM     11  N   UNL     1      -1.429  -1.104   3.746  1.00  0.00    -0.244 NA
ATOM     12  C   UNL     1      -4.476  -2.587   5.112  1.00  0.00     0.030 A 
ATOM     13  C   UNL     1      -2.286  -1.722   4.577  1.00  0.00     0.089 A 
ATOM     14  C   UNL     1      -4.020  -3.018   6.358  1.00  0.00     0.002 A 
ATOM     15  C   UNL     1      -1.840  -2.156   5.819  1.00  0.00     0.030 A 
ATOM     16  C   UNL     1      -2.695  -2.803   6.713  1.00  0.00     0.002 A 
BRANCH   8  17
ATOM     17  C   UNL     1      -3.870  -0.462   0.916  1.00  0.00     0.002 A 
ATOM     18  C   UNL     1      -5.063   0.340  -1.512  1.00  0.00     0.040 A 
ATOM     19  C   UNL     1      -5.182  -0.983  -1.082  1.00  0.00     0.014 A 
ATOM     20  C   UNL     1      -4.344   1.262  -0.749  1.00  0.00     0.014 A 
ATOM     21  C   UNL     1      -4.599  -1.373   0.128  1.00  0.00     0.011 A 
ATOM     22  C   UNL     1      -3.766   0.866   0.461  1.00  0.00     0.011 A 
BRANCH  18  23
ATOM     23  C   UNL     1      -5.626   0.775  -2.811  1.00  0.00     0.254 C 
ATOM     24  N   UNL     1      -6.965   0.529  -3.083  1.00  0.00    -0.334 N 
ATOM     25  C   UNL     1      -7.980   0.162  -2.087  1.00  0.00     0.148 C 
ATOM     26  C   UNL     1      -7.485   0.876  -4.405  1.00  0.00     0.148 C 
ATOM     27  C   UNL     1      -9.355   0.722  -2.467  1.00  0.00     0.181 C 
ATOM     28  C   UNL     1      -8.760   0.089  -4.714  1.00  0.00     0.181 C 
ATOM     29  O   UNL     1      -9.811   0.281  -3.754  1.00  0.00    -0.378 OA
ATOM     30  O   UNL     1      -4.871   1.336  -3.603  1.00  0.00    -0.269 OA
ENDBRANCH  18  23
ENDBRANCH   8  17
ENDBRANCH   1   7
BRANCH   4  31
ATOM     31  C   UNL     1       2.112   1.829  -0.846  1.00  0.00     0.120 C 
BRANCH  31  32
ATOM     32  N   UNL     1       3.459   1.261  -0.807  1.00  0.00    -0.299 NA
ATOM     33  C   UNL     1       4.252   1.609   0.365  1.00  0.00     0.087 C 
ATOM     34  C   UNL     1       3.588  -0.106  -1.275  1.00  0.00     0.087 C 
ATOM     35  C   UNL     1       5.315   0.574   0.743  1.00  0.00     0.041 C 
ATOM     36  C   UNL     1       5.048  -0.368  -1.636  1.00  0.00     0.041 C 
ATOM     37  C   UNL     1       5.994  -0.110  -0.453  1.00  0.00     0.095 C 
BRANCH  37  38
ATOM     38  N   UNL     1       7.250   0.524  -0.843  1.00  0.00    -0.291 N 
ATOM     39  C   UNL     1       7.412   1.754  -1.419  1.00  0.00     0.295 A 
ATOM     40  C   UNL     1       8.516  -0.015  -0.699  1.00  0.00     0.072 A 
ATOM     41  N   UNL     1       8.660   2.060  -1.652  1.00  0.00    -0.195 NA
ATOM     42  C   UNL     1       9.000  -1.228  -0.188  1.00  0.00     0.029 A 
ATOM     43  C   UNL     1       9.365   0.968  -1.214  1.00  0.00     0.092 A 
ATOM     44  C   UNL     1      10.386  -1.429  -0.213  1.00  0.00     0.002 A 
ATOM     45  C   UNL     1      10.750   0.746  -1.228  1.00  0.00     0.031 A 
ATOM     46  C   UNL     1      11.250  -0.459  -0.724  1.00  0.00     0.002 A 
BRANCH  39  47
ATOM     47  O   UNL     1       6.435   2.576  -1.734  1.00  0.00    -0.480 OA
ATOM     48  H   UNL     1       6.926   3.314  -2.140  1.00  0.00     0.296 HD
ENDBRANCH  39  47
ENDBRANCH  37  38
ENDBRANCH  31  32
ENDBRANCH   4  31
TORSDOF 7
