
     RDKit          3D

 45 48  0  0  0  0  0  0  0  0999 V2000
   -7.3268   -1.2491    1.4124 C   0  0  0  0  0  0  0  0  0  0  0  0
   -6.2203   -0.5149    0.7091 C   0  0  0  0  0  0  0  0  0  0  0  0
   -5.3701   -1.2260   -0.1557 C   0  0  0  0  0  0  0  0  0  0  0  0
   -4.3276   -0.5852   -0.8515 C   0  0  0  0  0  0  0  0  0  0  0  0
   -3.4362   -1.3742   -1.7848 C   0  0  0  0  0  0  0  0  0  0  0  0
   -2.1767   -2.3453   -0.9122 S   0  0  0  0  0  0  0  0  0  0  0  0
   -0.8492   -1.2292   -0.8737 C   0  0  0  0  0  0  0  0  0  0  0  0
   -0.9240    0.0582   -1.1379 N   0  0  0  0  0  0  0  0  0  0  0  0
    0.3505    0.5673   -1.0059 N   0  0  0  0  0  0  0  0  0  0  0  0
    1.1238   -0.4473   -0.6700 C   0  0  0  0  0  0  0  0  0  0  0  0
    2.5564   -0.4895   -0.4073 C   0  0  0  0  0  0  0  0  0  0  0  0
    3.2197   -1.6842   -0.1013 C   0  0  0  0  0  0  0  0  0  0  0  0
    4.5987   -1.6945    0.1361 C   0  0  0  0  0  0  0  0  0  0  0  0
    5.3537   -0.5200    0.0545 C   0  0  0  0  0  0  0  0  0  0  0  0
    4.6889    0.6911   -0.1967 C   0  0  0  0  0  0  0  0  0  0  0  0
    3.3065    0.6940   -0.4509 C   0  0  0  0  0  0  0  0  0  0  0  0
    5.4506    1.9919   -0.2457 C   0  0  0  0  0  0  0  0  0  0  0  0
    6.8170    1.8780    0.4205 C   0  0  0  0  0  0  0  0  0  0  0  0
    7.5060    0.5979   -0.0266 C   0  0  0  0  0  0  0  0  0  0  0  0
    6.7186   -0.5623    0.3712 N   0  0  0  0  0  0  0  0  0  0  0  0
    0.4282   -1.6228   -0.5687 O   0  0  0  0  0  0  0  0  0  0  0  0
   -4.1285    0.7917   -0.6685 C   0  0  0  0  0  0  0  0  0  0  0  0
   -4.9661    1.5232    0.1748 C   0  0  0  0  0  0  0  0  0  0  0  0
   -6.0085    0.8688    0.8419 C   0  0  0  0  0  0  0  0  0  0  0  0
   -6.8788    1.6813    1.6815 N   0  0  0  0  0  0  0  0  0  0  0  0
   -6.3393    2.3483    2.5755 O   0  0  0  0  0  0  0  0  0  0  0  0
   -8.0937    1.6558    1.4353 O   0  0  0  0  0  0  0  0  0  0  0  0
   -7.1019   -2.3188    1.4894 H   0  0  0  0  0  0  0  0  0  0  0  0
   -7.4592   -0.8831    2.4362 H   0  0  0  0  0  0  0  0  0  0  0  0
   -8.2639   -1.1346    0.8584 H   0  0  0  0  0  0  0  0  0  0  0  0
   -5.5184   -2.2982   -0.2924 H   0  0  0  0  0  0  0  0  0  0  0  0
   -4.0632   -2.0771   -2.3477 H   0  0  0  0  0  0  0  0  0  0  0  0
   -2.9846   -0.7237   -2.5427 H   0  0  0  0  0  0  0  0  0  0  0  0
    2.6746   -2.6236   -0.0367 H   0  0  0  0  0  0  0  0  0  0  0  0
    5.0817   -2.6349    0.3931 H   0  0  0  0  0  0  0  0  0  0  0  0
    2.8112    1.6369   -0.6761 H   0  0  0  0  0  0  0  0  0  0  0  0
    5.5700    2.2862   -1.2962 H   0  0  0  0  0  0  0  0  0  0  0  0
    4.8785    2.7804    0.2598 H   0  0  0  0  0  0  0  0  0  0  0  0
    7.4283    2.7527    0.1724 H   0  0  0  0  0  0  0  0  0  0  0  0
    6.6945    1.8663    1.5123 H   0  0  0  0  0  0  0  0  0  0  0  0
    7.6666    0.5923   -1.1123 H   0  0  0  0  0  0  0  0  0  0  0  0
    8.4900    0.5280    0.4487 H   0  0  0  0  0  0  0  0  0  0  0  0
    7.1473   -1.4506    0.1233 H   0  0  0  0  0  0  0  0  0  0  0  0
   -3.3199    1.3061   -1.1861 H   0  0  0  0  0  0  0  0  0  0  0  0
   -4.8046    2.5927    0.3010 H   0  0  0  0  0  0  0  0  0  0  0  0
  1  2  1  0
  2  3  2  0
  3  4  1  0
  4  5  1  0
  5  6  1  0
  6  7  1  0
  7  8  2  0
  8  9  1  0
  9 10  2  0
 10 11  1  0
 11 12  2  0
 12 13  1  0
 13 14  2  0
 14 15  1  0
 15 16  2  0
 15 17  1  0
 17 18  1  0
 18 19  1  0
 19 20  1  0
 10 21  1  0
  4 22  2  0
 22 23  1  0
 23 24  2  0
 24 25  1  0
 25 26  2  0
 25 27  1  0
 24  2  1  0
 21  7  1  0
 16 11  1  0
 20 14  1  0
  1 28  1  0
  1 29  1  0
  1 30  1  0
  3 31  1  0
  5 32  1  0
  5 33  1  0
 12 34  1  0
 13 35  1  0
 16 36  1  0
 17 37  1  0
 17 38  1  0
 18 39  1  0
 18 40  1  0
 19 41  1  0
 19 42  1  0
 20 43  1  0
 22 44  1  0
 23 45  1  0
M  CHG  2  25   1  27  -1
M  END
$$$$
