
     RDKit          3D

 61 62  0  0  0  0  0  0  0  0999 V2000
   -0.7332   -0.2344    4.2334 C   0  0  0  0  0  0  0  0  0  0  0  0
   -1.0584    0.4046    3.0272 O   0  0  0  0  0  0  0  0  0  0  0  0
   -2.2239    0.2136    2.3386 C   0  0  0  0  0  0  0  0  0  0  0  0
   -3.1662   -0.6651    2.8466 C   0  0  0  0  0  0  0  0  0  0  0  0
   -4.3529   -0.8764    2.1749 C   0  0  0  0  0  0  0  0  0  0  0  0
   -4.5749   -0.1959    0.9945 C   0  0  0  0  0  0  0  0  0  0  0  0
   -5.8399   -0.4460    0.3156 C   0  0  0  0  0  0  0  0  0  0  0  0
   -6.8986   -0.6484   -0.2305 C   0  0  0  0  0  0  0  0  0  0  0  0
   -8.5057   -0.9454   -1.0261 Si  0  0  0  0  0  4  0  0  0  0  0  0
   -9.6633   -1.6675    0.2432 C   0  0  0  0  0  0  0  0  0  0  0  0
   -9.2368    0.6213   -1.7331 C   0  0  0  0  0  0  0  0  0  0  0  0
   -8.2448   -2.0473   -2.3224 O   0  0  0  0  0  0  0  0  0  0  0  0
   -3.6474    0.6821    0.4750 C   0  0  0  0  0  0  0  0  0  0  0  0
   -2.4441    0.8942    1.1586 C   0  0  0  0  0  0  0  0  0  0  0  0
   -1.5134    1.8155    0.5468 C   0  0  0  0  0  0  0  0  0  0  0  0
   -0.3127    1.6480    0.1154 C   0  0  0  0  0  0  0  0  0  0  0  0
    0.4903    2.7453   -0.4780 C   0  0  0  0  0  0  0  0  0  0  0  0
    0.1143    4.1052   -0.6525 N   0  0  0  0  0  0  0  0  0  0  0  0
    1.6115    2.2781   -0.8219 N   0  0  0  0  0  0  0  0  0  0  0  0
    1.7490    0.8620   -0.5347 C   0  0  0  0  0  0  0  0  0  0  0  0
    2.9860    0.2442   -0.7627 N   0  0  0  0  0  0  0  0  0  0  0  0
    3.4582   -1.0270   -0.4445 C   0  0  0  0  0  0  0  0  0  0  0  0
    2.7592   -1.8309    0.1576 O   0  0  0  0  0  0  0  0  0  0  0  0
    4.8186   -1.4809   -0.8099 C   0  0  0  0  0  0  0  0  0  0  0  0
    5.6848   -0.7564   -1.4482 C   0  0  0  0  0  0  0  0  0  0  0  0
    7.0466   -1.3132   -1.7729 C   0  0  0  0  0  0  0  0  0  0  0  0
    8.0366   -0.3966   -1.0867 C   0  0  0  0  0  0  0  0  0  0  0  0
    9.4478   -0.8610   -1.3446 C   0  0  0  0  0  0  0  0  0  0  0  0
    7.8897    1.0007   -1.6444 C   0  0  0  0  0  0  0  0  0  0  0  0
    0.6068    0.5034    0.0113 C   0  0  0  0  0  0  0  0  0  0  0  0
    0.1807   -0.8668    0.3683 C   0  0  0  0  0  0  0  0  0  0  0  0
    0.3127   -0.0086    4.4821 H   0  0  0  0  0  0  0  0  0  0  0  0
   -1.4529   -0.0618    5.0502 H   0  0  0  0  0  0  0  0  0  0  0  0
   -0.7562   -1.3352    4.0142 H   0  0  0  0  0  0  0  0  0  0  0  0
   -2.9983   -1.2004    3.7692 H   0  0  0  0  0  0  0  0  0  0  0  0
   -5.1042   -1.5620    2.5577 H   0  0  0  0  0  0  0  0  0  0  0  0
  -10.4552   -2.2574   -0.2639 H   0  0  0  0  0  0  0  0  0  0  0  0
   -9.1468   -2.3821    0.9143 H   0  0  0  0  0  0  0  0  0  0  0  0
  -10.1579   -0.8586    0.8266 H   0  0  0  0  0  0  0  0  0  0  0  0
   -8.8973    0.7322   -2.7827 H   0  0  0  0  0  0  0  0  0  0  0  0
  -10.3440    0.4672   -1.7119 H   0  0  0  0  0  0  0  0  0  0  0  0
   -8.9079    1.5275   -1.2110 H   0  0  0  0  0  0  0  0  0  0  0  0
   -3.8723    1.1909   -0.4561 H   0  0  0  0  0  0  0  0  0  0  0  0
   -1.9476    2.8476    0.4457 H   0  0  0  0  0  0  0  0  0  0  0  0
   -0.7136    4.2871   -1.2837 H   0  0  0  0  0  0  0  0  0  0  0  0
    0.6422    4.8698   -0.1727 H   0  0  0  0  0  0  0  0  0  0  0  0
    3.7104    0.8497   -1.2837 H   0  0  0  0  0  0  0  0  0  0  0  0
    5.1353   -2.4956   -0.5309 H   0  0  0  0  0  0  0  0  0  0  0  0
    5.5041    0.2446   -1.7764 H   0  0  0  0  0  0  0  0  0  0  0  0
    7.1965   -1.3155   -2.8659 H   0  0  0  0  0  0  0  0  0  0  0  0
    7.1377   -2.3356   -1.3382 H   0  0  0  0  0  0  0  0  0  0  0  0
    7.7950   -0.3767   -0.0129 H   0  0  0  0  0  0  0  0  0  0  0  0
   10.1295   -0.0860   -0.9390 H   0  0  0  0  0  0  0  0  0  0  0  0
    9.5602   -0.9714   -2.4543 H   0  0  0  0  0  0  0  0  0  0  0  0
    9.6026   -1.8221   -0.8083 H   0  0  0  0  0  0  0  0  0  0  0  0
    7.7983    0.9681   -2.7405 H   0  0  0  0  0  0  0  0  0  0  0  0
    7.0127    1.5277   -1.2294 H   0  0  0  0  0  0  0  0  0  0  0  0
    8.7998    1.5792   -1.3855 H   0  0  0  0  0  0  0  0  0  0  0  0
   -0.9701   -0.9379    0.2630 H   0  0  0  0  0  0  0  0  0  0  0  0
    0.4476   -1.5907   -0.4627 H   0  0  0  0  0  0  0  0  0  0  0  0
    0.4757   -1.2529    1.3186 H   0  0  0  0  0  0  0  0  0  0  0  0
  1  2  1  0
  2  3  1  0
  3  4  2  0
  4  5  1  0
  5  6  2  0
  6  7  1  0
  7  8  3  0
  8  9  1  0
  9 10  1  0
  9 11  1  0
  9 12  1  0
  6 13  1  0
 13 14  2  0
 14 15  1  0
 15 16  2  3
 16 17  1  0
 17 18  1  0
 17 19  2  0
 19 20  1  0
 20 21  1  0
 21 22  1  0
 22 23  2  0
 22 24  1  0
 24 25  2  0
 25 26  1  0
 26 27  1  0
 27 28  1  0
 27 29  1  0
 20 30  2  0
 30 31  1  0
 14  3  1  0
 30 16  1  0
  1 32  1  0
  1 33  1  0
  1 34  1  0
  4 35  1  0
  5 36  1  0
 10 37  1  0
 10 38  1  0
 10 39  1  0
 11 40  1  0
 11 41  1  0
 11 42  1  0
 13 43  1  0
 15 44  1  0
 18 45  1  0
 18 46  1  0
 21 47  1  0
 24 48  1  0
 25 49  1  0
 26 50  1  0
 26 51  1  0
 27 52  1  0
 28 53  1  0
 28 54  1  0
 28 55  1  0
 29 56  1  0
 29 57  1  0
 29 58  1  0
 31 59  1  0
 31 60  1  0
 31 61  1  0
M  CHG  1  12  -1
M  END
$$$$
