
     RDKit          3D

 51 54  0  0  0  0  0  0  0  0999 V2000
   -5.2954   -0.4207   -1.1723 O   0  0  0  0  0  0  0  0  0  0  0  0
   -5.9603   -0.3882   -0.1468 C   0  0  0  0  0  0  0  0  0  0  0  0
   -5.3908   -0.1383    1.2007 C   0  0  0  0  0  0  0  0  0  0  0  0
   -6.2623   -0.3512    2.2823 C   0  0  0  0  0  0  0  0  0  0  0  0
   -5.8248   -0.1629    3.5927 C   0  0  0  0  0  0  0  0  0  0  0  0
   -4.5159    0.2389    3.8325 C   0  0  0  0  0  0  0  0  0  0  0  0
   -3.6463    0.4582    2.7634 C   0  0  0  0  0  0  0  0  0  0  0  0
   -4.0667    0.2819    1.4300 C   0  0  0  0  0  0  0  0  0  0  0  0
   -3.0553    0.5543    0.3352 C   0  0  0  0  0  0  0  0  0  0  0  0
   -2.3385   -0.7162   -0.1411 C   0  0  0  0  0  0  0  0  0  0  0  0
   -1.0969   -0.3886   -0.8452 N   0  0  0  0  0  0  0  0  0  0  0  0
   -1.0440   -0.0812   -2.2096 C   0  0  0  0  0  0  0  0  0  0  0  0
   -2.1963    0.0837   -2.9955 C   0  0  0  0  0  0  0  0  0  0  0  0
   -2.2240    0.4163   -4.3096 N   0  0  0  0  0  0  0  0  0  0  0  0
   -1.0375    0.6283   -4.8910 C   0  0  0  0  0  0  0  0  0  0  0  0
    0.1686    0.5315   -4.2195 C   0  0  0  0  0  0  0  0  0  0  0  0
    0.1952    0.1805   -2.8542 C   0  0  0  0  0  0  0  0  0  0  0  0
    1.5175    0.1642   -2.1730 C   0  0  0  0  0  0  0  0  0  0  0  0
    2.7355    0.1483   -2.7559 C   0  0  0  0  0  0  0  0  0  0  0  0
    3.7730    0.2397   -1.7592 C   0  0  0  0  0  0  0  0  0  0  0  0
    3.2028    0.2878   -0.5476 C   0  0  0  0  0  0  0  0  0  0  0  0
    3.8300    0.4666    0.7671 C   0  0  0  0  0  0  0  0  0  0  0  0
    3.2214    1.0061    1.6836 O   0  0  0  0  0  0  0  0  0  0  0  0
    5.1036   -0.0460    0.8663 N   0  0  0  0  0  0  0  0  0  0  0  0
    5.8472   -0.0006    2.0846 C   0  0  0  0  0  0  0  0  0  0  0  0
    6.8701    1.0773    2.3115 C   0  0  0  0  0  0  0  0  0  0  0  0
    7.3123   -0.3409    2.1021 C   0  0  0  0  0  0  0  0  0  0  0  0
    1.7138    0.2047   -0.6672 C   0  0  0  0  0  0  0  0  0  0  0  0
    1.2819   -0.9601   -0.0994 F   0  0  0  0  0  0  0  0  0  0  0  0
   -7.0479   -0.5710   -0.1838 H   0  0  0  0  0  0  0  0  0  0  0  0
   -7.2884   -0.6730    2.1179 H   0  0  0  0  0  0  0  0  0  0  0  0
   -6.5030   -0.3321    4.4255 H   0  0  0  0  0  0  0  0  0  0  0  0
   -4.1679    0.3853    4.8525 H   0  0  0  0  0  0  0  0  0  0  0  0
   -2.6260    0.7756    2.9777 H   0  0  0  0  0  0  0  0  0  0  0  0
   -2.3090    1.2641    0.7198 H   0  0  0  0  0  0  0  0  0  0  0  0
   -3.5250    1.0930   -0.4944 H   0  0  0  0  0  0  0  0  0  0  0  0
   -2.9821   -1.3759   -0.7321 H   0  0  0  0  0  0  0  0  0  0  0  0
   -2.0527   -1.3055    0.7401 H   0  0  0  0  0  0  0  0  0  0  0  0
   -0.3447   -1.0339   -0.5863 H   0  0  0  0  0  0  0  0  0  0  0  0
   -3.1896   -0.0638   -2.5824 H   0  0  0  0  0  0  0  0  0  0  0  0
   -1.0751    0.9005   -5.9415 H   0  0  0  0  0  0  0  0  0  0  0  0
    1.0703    0.7598   -4.7756 H   0  0  0  0  0  0  0  0  0  0  0  0
    2.9600    0.1141   -3.8115 H   0  0  0  0  0  0  0  0  0  0  0  0
    4.8234    0.3194   -1.9928 H   0  0  0  0  0  0  0  0  0  0  0  0
    5.4777   -0.5883    0.0989 H   0  0  0  0  0  0  0  0  0  0  0  0
    5.2652   -0.3114    2.9508 H   0  0  0  0  0  0  0  0  0  0  0  0
    7.0459    1.7934    1.5176 H   0  0  0  0  0  0  0  0  0  0  0  0
    6.9414    1.4963    3.3087 H   0  0  0  0  0  0  0  0  0  0  0  0
    7.8073   -0.5814    1.1693 H   0  0  0  0  0  0  0  0  0  0  0  0
    7.6932   -0.8842    2.9595 H   0  0  0  0  0  0  0  0  0  0  0  0
    1.2092    1.0582   -0.2027 H   0  0  0  0  0  0  0  0  0  0  0  0
  1  2  2  0
  2  3  1  0
  3  4  2  0
  4  5  1  0
  5  6  2  0
  6  7  1  0
  7  8  2  0
  8  9  1  0
  9 10  1  0
 10 11  1  0
 11 12  1  0
 12 13  2  0
 13 14  1  0
 14 15  2  0
 15 16  1  0
 16 17  2  0
 17 18  1  0
 18 19  2  0
 19 20  1  0
 20 21  2  0
 21 22  1  0
 22 23  2  0
 22 24  1  0
 24 25  1  0
 25 26  1  0
 26 27  1  0
 21 28  1  0
 28 29  1  0
  8  3  1  0
 17 12  1  0
 28 18  1  0
 27 25  1  0
  2 30  1  0
  4 31  1  0
  5 32  1  0
  6 33  1  0
  7 34  1  0
  9 35  1  0
  9 36  1  0
 10 37  1  0
 10 38  1  0
 11 39  1  0
 13 40  1  0
 15 41  1  0
 16 42  1  0
 19 43  1  0
 20 44  1  0
 24 45  1  0
 25 46  1  0
 26 47  1  0
 26 48  1  0
 27 49  1  0
 27 50  1  0
 28 51  1  0
M  END
$$$$
