
     RDKit          3D

 39 42  0  0  0  0  0  0  0  0999 V2000
    8.3335   -0.4883   -0.6318 O   0  0  0  0  0  0  0  0  0  0  0  0
    7.4068    0.2923   -0.5340 C   0  0  0  0  0  0  0  0  0  0  0  0
    7.0252    1.0924   -1.5419 O   0  0  0  0  0  0  0  0  0  0  0  0
    6.6625    0.5775    0.6883 C   0  0  0  0  0  0  0  0  0  0  0  0
    5.3382    0.4611    0.8416 C   0  0  0  0  0  0  0  0  0  0  0  0
    4.2722   -0.0525   -0.1382 C   0  0  0  0  0  0  0  0  0  0  0  0
    2.9437   -0.2140   -0.1521 C   0  0  0  0  0  0  0  0  0  0  0  0
    1.7390   -0.0004    0.7692 C   0  0  0  0  0  0  0  0  0  0  0  0
    1.9006    0.2083    2.0807 N   0  0  0  0  0  0  0  0  0  0  0  0
    0.6437    0.3197    2.5425 N   0  0  0  0  0  0  0  0  0  0  0  0
   -0.3147    0.2214    1.5730 C   0  0  0  0  0  0  0  0  0  0  0  0
   -1.7046    0.2942    1.6255 C   0  0  0  0  0  0  0  0  0  0  0  0
   -2.3740    0.1494    0.4098 C   0  0  0  0  0  0  0  0  0  0  0  0
   -3.7789    0.1819    0.4404 N   0  0  0  0  0  0  0  0  0  0  0  0
   -4.4177    0.0762   -0.8646 C   0  0  0  0  0  0  0  0  0  0  0  0
   -5.9201    0.0432   -0.7309 C   0  0  0  0  0  0  0  0  0  0  0  0
   -6.5984   -1.2336   -0.2909 C   0  0  0  0  0  0  0  0  0  0  0  0
   -6.6625   -0.0209    0.5888 C   0  0  0  0  0  0  0  0  0  0  0  0
   -1.7235   -0.0597   -0.7535 N   0  0  0  0  0  0  0  0  0  0  0  0
   -0.3662   -0.1261   -0.7865 C   0  0  0  0  0  0  0  0  0  0  0  0
    0.3758    0.0062    0.3868 C   0  0  0  0  0  0  0  0  0  0  0  0
    3.0141   -0.7588   -1.4675 C   0  0  0  0  0  0  0  0  0  0  0  0
    4.3522   -0.5940   -1.4557 C   0  0  0  0  0  0  0  0  0  0  0  0
    5.3450   -0.8622   -2.3155 F   0  0  0  0  0  0  0  0  0  0  0  0
    7.5701    0.7929   -2.2987 H   0  0  0  0  0  0  0  0  0  0  0  0
    7.2813    0.8946    1.5201 H   0  0  0  0  0  0  0  0  0  0  0  0
    4.9238    0.7544    1.8074 H   0  0  0  0  0  0  0  0  0  0  0  0
    0.5060    0.4667    3.5359 H   0  0  0  0  0  0  0  0  0  0  0  0
   -2.2395    0.4449    2.5539 H   0  0  0  0  0  0  0  0  0  0  0  0
   -4.0804    1.0210    0.9254 H   0  0  0  0  0  0  0  0  0  0  0  0
   -4.1489    0.9456   -1.4788 H   0  0  0  0  0  0  0  0  0  0  0  0
   -4.0975   -0.8270   -1.3963 H   0  0  0  0  0  0  0  0  0  0  0  0
   -6.3916    0.5793   -1.5489 H   0  0  0  0  0  0  0  0  0  0  0  0
   -7.5021   -1.5362   -0.8063 H   0  0  0  0  0  0  0  0  0  0  0  0
   -5.9727   -2.0598    0.0302 H   0  0  0  0  0  0  0  0  0  0  0  0
   -7.6069    0.5055    0.6598 H   0  0  0  0  0  0  0  0  0  0  0  0
   -6.1136   -0.0607    1.5228 H   0  0  0  0  0  0  0  0  0  0  0  0
    0.0729   -0.2714   -1.7646 H   0  0  0  0  0  0  0  0  0  0  0  0
    2.3068   -1.1631   -2.1811 H   0  0  0  0  0  0  0  0  0  0  0  0
  1  2  2  0
  2  3  1  0
  2  4  1  0
  4  5  2  3
  5  6  1  0
  6  7  2  0
  7  8  1  0
  8  9  2  0
  9 10  1  0
 10 11  1  0
 11 12  2  0
 12 13  1  0
 13 14  1  0
 14 15  1  0
 15 16  1  0
 16 17  1  0
 17 18  1  0
 13 19  2  0
 19 20  1  0
 20 21  2  0
  7 22  1  0
 22 23  2  0
 23 24  1  0
 23  6  1  0
 21  8  1  0
 21 11  1  0
 18 16  1  0
  3 25  1  0
  4 26  1  0
  5 27  1  0
 10 28  1  0
 12 29  1  0
 14 30  1  0
 15 31  1  0
 15 32  1  0
 16 33  1  0
 17 34  1  0
 17 35  1  0
 18 36  1  0
 18 37  1  0
 20 38  1  0
 22 39  1  0
M  END
$$$$
