
     RDKit          3D

 44 46  0  0  0  0  0  0  0  0999 V2000
   -4.3671    1.4042   -2.4682 O   0  0  0  0  0  0  0  0  0  0  0  0
   -4.4167    1.3532   -1.2538 C   0  0  0  0  0  0  0  0  0  0  0  0
   -4.4708    2.4672   -0.5055 O   0  0  0  0  0  0  0  0  0  0  0  0
   -4.5458    0.1262   -0.4398 C   0  0  0  0  0  0  0  0  0  0  0  0
   -5.4884   -0.8086   -0.8997 C   0  0  0  0  0  0  0  0  0  0  0  0
   -5.6980   -2.0004   -0.2086 C   0  0  0  0  0  0  0  0  0  0  0  0
   -4.9595   -2.2706    0.9382 C   0  0  0  0  0  0  0  0  0  0  0  0
   -4.0073   -1.3545    1.3902 C   0  0  0  0  0  0  0  0  0  0  0  0
   -3.7796   -0.1406    0.7127 C   0  0  0  0  0  0  0  0  0  0  0  0
   -2.6743    0.7648    1.2191 C   0  0  0  0  0  0  0  0  0  0  0  0
   -1.3782    0.5904    0.4793 C   0  0  0  0  0  0  0  0  0  0  0  0
   -0.9514    1.4054   -0.5023 C   0  0  0  0  0  0  0  0  0  0  0  0
    0.3086    1.1890   -1.1721 C   0  0  0  0  0  0  0  0  0  0  0  0
    1.1118    0.1776   -0.8039 C   0  0  0  0  0  0  0  0  0  0  0  0
    2.4342   -0.1198   -1.4815 C   0  0  0  0  0  0  0  0  0  0  0  0
    3.5862    0.5449   -0.8549 N   0  0  0  0  0  0  0  0  0  0  0  0
    3.8339    0.0774    0.5264 C   0  0  0  0  0  0  0  0  0  0  0  0
    5.2878    0.3167    0.9608 C   0  0  0  0  0  0  0  0  0  0  0  0
    6.2249   -0.4349    0.1766 O   0  0  0  0  0  0  0  0  0  0  0  0
    5.7787   -0.6645   -1.1661 C   0  0  0  0  0  0  0  0  0  0  0  0
    4.8104    0.4145   -1.6753 C   0  0  0  0  0  0  0  0  0  0  0  0
    0.6986   -0.6593    0.2115 N   0  0  0  0  0  0  0  0  0  0  0  0
   -0.4785   -0.5265    0.9068 C   0  0  0  0  0  0  0  0  0  0  0  0
   -0.7595   -1.2817    1.8319 O   0  0  0  0  0  0  0  0  0  0  0  0
   -4.4848    3.1939   -1.1628 H   0  0  0  0  0  0  0  0  0  0  0  0
   -6.0641   -0.6058   -1.8009 H   0  0  0  0  0  0  0  0  0  0  0  0
   -6.4309   -2.7182   -0.5678 H   0  0  0  0  0  0  0  0  0  0  0  0
   -5.1101   -3.2030    1.4772 H   0  0  0  0  0  0  0  0  0  0  0  0
   -3.4192   -1.6059    2.2731 H   0  0  0  0  0  0  0  0  0  0  0  0
   -2.9946    1.8110    1.1950 H   0  0  0  0  0  0  0  0  0  0  0  0
   -2.5125    0.5812    2.2903 H   0  0  0  0  0  0  0  0  0  0  0  0
   -1.5488    2.2488   -0.8336 H   0  0  0  0  0  0  0  0  0  0  0  0
    0.5868    1.8702   -1.9705 H   0  0  0  0  0  0  0  0  0  0  0  0
    2.3511    0.2236   -2.5220 H   0  0  0  0  0  0  0  0  0  0  0  0
    2.5896   -1.2057   -1.5401 H   0  0  0  0  0  0  0  0  0  0  0  0
    3.1630    0.6029    1.2144 H   0  0  0  0  0  0  0  0  0  0  0  0
    3.6355   -0.9994    0.6063 H   0  0  0  0  0  0  0  0  0  0  0  0
    5.5505    1.3788    0.8897 H   0  0  0  0  0  0  0  0  0  0  0  0
    5.4227    0.0179    2.0053 H   0  0  0  0  0  0  0  0  0  0  0  0
    5.3096   -1.6545   -1.2047 H   0  0  0  0  0  0  0  0  0  0  0  0
    6.6680   -0.7020   -1.8035 H   0  0  0  0  0  0  0  0  0  0  0  0
    5.3240    1.3835   -1.6333 H   0  0  0  0  0  0  0  0  0  0  0  0
    4.5775    0.2400   -2.7323 H   0  0  0  0  0  0  0  0  0  0  0  0
    1.2868   -1.4275    0.5065 H   0  0  0  0  0  0  0  0  0  0  0  0
  1  2  2  0
  2  3  1  0
  2  4  1  0
  4  5  2  0
  5  6  1  0
  6  7  2  0
  7  8  1  0
  8  9  2  0
  9 10  1  0
 10 11  1  0
 11 12  2  0
 12 13  1  0
 13 14  2  0
 14 15  1  0
 15 16  1  0
 16 17  1  0
 17 18  1  0
 18 19  1  0
 19 20  1  0
 20 21  1  0
 14 22  1  0
 22 23  1  0
 23 24  2  0
  9  4  1  0
 23 11  1  0
 21 16  1  0
  3 25  1  0
  5 26  1  0
  6 27  1  0
  7 28  1  0
  8 29  1  0
 10 30  1  0
 10 31  1  0
 12 32  1  0
 13 33  1  0
 15 34  1  0
 15 35  1  0
 17 36  1  0
 17 37  1  0
 18 38  1  0
 18 39  1  0
 20 40  1  0
 20 41  1  0
 21 42  1  0
 21 43  1  0
 22 44  1  0
M  END
$$$$
