MODEL        5USER    Run = 5USERUSER    Estimated Free Energy of Binding    =  -9.26 kcal/mol  [=(1)+(2)+(3)-(4)]USERUSER    (1) Final Intermolecular Energy     = -11.65 kcal/molUSER        vdW + Hbond + desolv Energy     = -11.39 kcal/molUSER        Electrostatic Energy            =  -0.26 kcal/molUSER        Moving Ligand-Fixed Receptor    = -11.65 kcal/molUSER        Moving Ligand-Moving Receptor   =  +0.00 kcal/molUSER    (2) Final Total Internal Energy     =  -1.92 kcal/molUSER    (3) Torsional Free Energy           =  +2.39 kcal/molUSER    (4) Unbound System's Energy         =  -1.92 kcal/molUSERUSERREMARK SMILES NC(=O)c1cc(O)ccc1CCNc1cnccc1C1=CC=C(C(=O)N2CCOCC2)[C@H]1FREMARK SMILES IDX 12 1 11 2 10 3 4 4 5 5 6 6 9 7 8 8 2 9 1 10 3 13 7 14 13 16REMARK SMILES IDX 14 18 15 19 19 20 16 21 18 22 17 23 20 24 21 25 32 26 22 27REMARK SMILES IDX 23 28 33 29 24 30 26 31 27 32 31 33 28 34 30 35 29 36 25 37REMARK H PARENT 1 11 1 12 7 15 13 17USER                              x       y       z     vdW  Elec       q    TypeUSER                           _______ _______ _______ _____ _____    ______ ____ROOTATOM      1  C   UNL     1      38.827  45.992  22.360 -0.26 +0.01    +0.118 C  ENDROOTBRANCH   1   2ATOM      2  C   UNL     1      39.945  45.592  23.335 -0.24 +0.00    +0.057 C  BRANCH   2   3ATOM      3  C   UNL     1      41.328  45.997  22.875 -0.19 -0.00    -0.033 A  ATOM      4  C   UNL     1      42.158  45.189  22.071 -0.22 +0.01    +0.046 A  ATOM      5  C   UNL     1      43.422  45.652  21.660 -0.13 +0.03    +0.060 A  ATOM      6  C   UNL     1      43.849  46.919  22.040 -0.26 +0.05    +0.116 A  ATOM      7  C   UNL     1      41.792  47.277  23.236 -0.25 +0.00    +0.008 A  ATOM      8  C   UNL     1      43.043  47.733  22.821 -0.31 +0.01    +0.046 A  BRANCH   4   9ATOM      9  C   UNL     1      41.768  43.823  21.634 -0.24 +0.02    +0.249 C  ATOM     10  N   UNL     1      42.299  42.795  22.367 -0.18 +0.01    -0.366 N  ATOM     11  H   UNL     1      42.171  41.873  21.971 -0.49 -0.04    +0.159 HD ATOM     12  H   UNL     1      43.157  42.948  22.885 +0.04 +0.00    +0.159 HD ATOM     13  O   UNL     1      41.014  43.615  20.694 -0.21 -0.02    -0.270 OA ENDBRANCH   4   9BRANCH   6  14ATOM     14  O   UNL     1      45.068  47.400  21.670 -0.67 -0.44    -0.508 OA ATOM     15  H   UNL     1      44.971  48.323  21.383 -0.38 +0.07    +0.293 HD ENDBRANCH   6  14ENDBRANCH   2   3ENDBRANCH   1   2BRANCH   1  16ATOM     16  N   UNL     1      38.682  45.020  21.287 -0.14 -0.01    -0.383 N  ATOM     17  H   UNL     1      39.483  44.965  20.661 +0.09 +0.00    +0.160 HD BRANCH  16  18ATOM     18  C   UNL     1      37.867  43.899  21.298 -0.33 +0.00    +0.060 A  ATOM     19  C   UNL     1      37.629  43.123  22.437 -0.30 +0.01    +0.137 A  ATOM     20  C   UNL     1      37.122  43.535  20.150 -0.36 -0.00    +0.007 A  ATOM     21  N   UNL     1      36.786  42.061  22.509 -0.32 -0.02    -0.263 NA ATOM     22  C   UNL     1      36.272  42.421  20.193 -0.42 -0.00    +0.031 A  ATOM     23  C   UNL     1      36.141  41.725  21.379 -0.46 +0.00    +0.112 A  BRANCH  20  24ATOM     24  C   UNL     1      37.189  44.294  18.895 -0.41 -0.00    +0.000 C  ATOM     25  C   UNL     1      38.139  45.169  18.527 -0.43 -0.00    +0.008 C  ATOM     26  C   UNL     1      36.149  44.194  17.807 -0.22 -0.07    +0.233 C  ATOM     27  C   UNL     1      37.804  45.705  17.236 -0.42 -0.00    +0.013 C  ATOM     28  C   UNL     1      36.645  45.172  16.795 -0.36 -0.02    +0.056 C  ATOM     29  F   UNL     1      36.149  42.924  17.312 -0.04 +0.07    -0.237 F  BRANCH  28  30ATOM     30  C   UNL     1      36.029  45.688  15.554 -0.24 -0.16    +0.253 C  ATOM     31  N   UNL     1      36.660  45.605  14.320 -0.16 +0.15    -0.334 N  ATOM     32  C   UNL     1      38.100  45.740  14.078 -0.35 -0.04    +0.148 C  ATOM     33  C   UNL     1      35.905  46.142  13.176 -0.47 -0.08    +0.148 C  ATOM     34  C   UNL     1      38.448  47.218  13.853 -0.39 -0.05    +0.181 C  ATOM     35  C   UNL     1      36.280  47.615  12.958 -0.55 -0.09    +0.181 C  ATOM     36  O   UNL     1      37.700  47.752  12.743 -0.88 +0.05    -0.378 OA ATOM     37  O   UNL     1      34.884  46.147  15.637 -0.22 +0.30    -0.269 OA ENDBRANCH  28  30ENDBRANCH  20  24ENDBRANCH  16  18ENDBRANCH   1  16TORSDOF 8TERENDMDL