REMARK SMILES C[C@H](CNc1cnccc1C1=CC=C(C(=O)N2CCOCC2)[C@@H]1F)c1ccccc1C(N)=O
REMARK SMILES IDX 3 1 2 2 1 3 25 4 26 5 30 6 27 7 29 8 28 9 31 10 32 11 33 12
REMARK SMILES IDX 4 15 5 17 6 18 10 19 7 20 9 21 8 22 11 23 12 24 23 25 13 26
REMARK SMILES IDX 14 27 24 28 15 29 17 30 18 31 22 32 19 33 21 34 20 35 16 36
REMARK H PARENT 32 13 32 14 4 16
ROOT
ATOM      1  C   UNL     1       2.177  -0.133  -0.652  1.00  0.00     0.121 C 
ENDROOT
BRANCH   1   2
ATOM      2  C   UNL     1       3.294  -0.566   0.327  1.00  0.00     0.036 C 
ATOM      3  C   UNL     1       3.015  -1.944   0.940  1.00  0.00     0.014 C 
BRANCH   2   4
ATOM      4  C   UNL     1       4.698  -0.444  -0.261  1.00  0.00    -0.031 A 
ATOM      5  C   UNL     1       5.526   0.571   0.266  1.00  0.00     0.005 A 
ATOM      6  C   UNL     1       5.242  -1.266  -1.268  1.00  0.00     0.043 A 
ATOM      7  C   UNL     1       6.834   0.761  -0.186  1.00  0.00     0.000 A 
ATOM      8  C   UNL     1       6.560  -1.066  -1.722  1.00  0.00     0.014 A 
ATOM      9  C   UNL     1       7.352  -0.057  -1.181  1.00  0.00     0.001 A 
BRANCH   6  10
ATOM     10  C   UNL     1       4.483  -2.355  -1.925  1.00  0.00     0.248 C 
ATOM     11  N   UNL     1       5.072  -3.587  -1.900  1.00  0.00    -0.366 N 
ATOM     12  O   UNL     1       3.400  -2.168  -2.457  1.00  0.00    -0.270 OA
ATOM     13  H   UNL     1       4.546  -4.363  -2.278  1.00  0.00     0.159 HD
ATOM     14  H   UNL     1       5.895  -3.785  -1.346  1.00  0.00     0.159 HD
ENDBRANCH   6  10
ENDBRANCH   2   4
ENDBRANCH   1   2
BRANCH   1  15
ATOM     15  N   UNL     1       1.040   0.441   0.081  1.00  0.00    -0.383 N 
ATOM     16  H   UNL     1       0.149   0.082  -0.262  1.00  0.00     0.160 HD
BRANCH  15  17
ATOM     17  C   UNL     1       0.947   1.822   0.326  1.00  0.00     0.060 A 
ATOM     18  C   UNL     1       2.025   2.707   0.204  1.00  0.00     0.137 A 
ATOM     19  C   UNL     1      -0.250   2.383   0.830  1.00  0.00     0.007 A 
ATOM     20  N   UNL     1       1.992   4.037   0.465  1.00  0.00    -0.263 NA
ATOM     21  C   UNL     1      -0.311   3.760   1.090  1.00  0.00     0.031 A 
ATOM     22  C   UNL     1       0.819   4.533   0.892  1.00  0.00     0.112 A 
BRANCH  19  23
ATOM     23  C   UNL     1      -1.447   1.578   1.103  1.00  0.00     0.000 C 
ATOM     24  C   UNL     1      -1.515   0.469   1.863  1.00  0.00     0.008 C 
ATOM     25  C   UNL     1      -2.824   1.930   0.591  1.00  0.00     0.233 C 
ATOM     26  C   UNL     1      -2.878   0.002   1.911  1.00  0.00     0.013 C 
ATOM     27  C   UNL     1      -3.637   0.818   1.165  1.00  0.00     0.056 C 
ATOM     28  F   UNL     1      -2.852   1.900  -0.769  1.00  0.00    -0.237 F 
BRANCH  27  29
ATOM     29  C   UNL     1      -5.092   0.796   1.019  1.00  0.00     0.253 C 
ATOM     30  N   UNL     1      -5.658  -0.301   0.397  1.00  0.00    -0.334 N 
ATOM     31  C   UNL     1      -7.106  -0.321   0.173  1.00  0.00     0.148 C 
ATOM     32  C   UNL     1      -4.902  -1.304  -0.368  1.00  0.00     0.148 C 
ATOM     33  C   UNL     1      -7.422  -0.712  -1.273  1.00  0.00     0.181 C 
ATOM     34  C   UNL     1      -5.805  -2.444  -0.850  1.00  0.00     0.181 C 
ATOM     35  O   UNL     1      -6.904  -1.996  -1.653  1.00  0.00    -0.378 OA
ATOM     36  O   UNL     1      -5.736   1.751   1.444  1.00  0.00    -0.269 OA
ENDBRANCH  27  29
ENDBRANCH  19  23
ENDBRANCH  15  17
ENDBRANCH   1  15
TORSDOF 7
