MODEL        9USER    Run = 9USERUSER    Estimated Free Energy of Binding    = -10.45 kcal/mol  [=(1)+(2)+(3)-(4)]USERUSER    (1) Final Intermolecular Energy     = -12.54 kcal/molUSER        vdW + Hbond + desolv Energy     = -12.42 kcal/molUSER        Electrostatic Energy            =  -0.12 kcal/molUSER        Moving Ligand-Fixed Receptor    = -12.54 kcal/molUSER        Moving Ligand-Moving Receptor   =  +0.00 kcal/molUSER    (2) Final Total Internal Energy     =  -1.90 kcal/molUSER    (3) Torsional Free Energy           =  +2.09 kcal/molUSER    (4) Unbound System's Energy         =  -1.90 kcal/molUSERUSERREMARK SMILES C[C@H](CNc1cnccc1C1=CC=C(C(=O)N2CCOCC2)[C@@H]1F)c1ccccc1C(N)=OREMARK SMILES IDX 3 1 2 2 1 3 25 4 26 5 30 6 27 7 29 8 28 9 31 10 32 11 33 12REMARK SMILES IDX 4 15 5 17 6 18 10 19 7 20 9 21 8 22 11 23 12 24 23 25 13 26REMARK SMILES IDX 14 27 24 28 15 29 17 30 18 31 22 32 19 33 21 34 20 35 16 36REMARK H PARENT 32 13 32 14 4 16USER                              x       y       z     vdW  Elec       q    TypeUSER                           _______ _______ _______ _____ _____    ______ ____ROOTATOM      1  C   UNL     1      39.634  46.102  15.966 -0.34 -0.02    +0.121 C  ENDROOTBRANCH   1   2ATOM      2  C   UNL     1      40.627  46.595  17.044 -0.52 -0.00    +0.036 C  ATOM      3  C   UNL     1      40.775  48.122  17.031 -0.57 -0.00    +0.014 C  BRANCH   2   4ATOM      4  C   UNL     1      40.343  46.032  18.435 -0.45 +0.00    -0.031 A  ATOM      5  C   UNL     1      39.140  45.312  18.600 -0.42 -0.00    +0.005 A  ATOM      6  C   UNL     1      41.185  46.153  19.559 -0.40 +0.00    +0.043 A  ATOM      7  C   UNL     1      38.788  44.739  19.824 -0.38 -0.00    +0.000 A  ATOM      8  C   UNL     1      40.822  45.577  20.791 -0.34 +0.00    +0.014 A  ATOM      9  C   UNL     1      39.629  44.871  20.921 -0.34 +0.00    +0.001 A  BRANCH   6  10ATOM     10  C   UNL     1      42.465  46.897  19.537 -0.37 +0.04    +0.248 C  ATOM     11  N   UNL     1      42.881  47.397  20.738 -0.18 -0.06    -0.366 N  ATOM     12  O   UNL     1      43.112  47.056  18.514 -0.37 -0.03    -0.270 OA ATOM     13  H   UNL     1      43.785  47.848  20.768 -0.46 +0.02    +0.159 HD ATOM     14  H   UNL     1      42.432  47.156  21.612 +0.07 +0.03    +0.159 HD ENDBRANCH   6  10ENDBRANCH   2   4ENDBRANCH   1   2BRANCH   1  15ATOM     15  N   UNL     1      38.595  47.112  15.719 -0.14 +0.15    -0.383 N  ATOM     16  H   UNL     1      38.059  47.318  16.562 +0.10 -0.09    +0.160 HD BRANCH  15  17ATOM     17  C   UNL     1      37.739  47.027  14.607 -0.40 -0.03    +0.060 A  ATOM     18  C   UNL     1      37.918  47.764  13.430 -0.38 -0.04    +0.137 A  ATOM     19  C   UNL     1      36.557  46.251  14.668 -0.40 -0.00    +0.007 A  ATOM     20  N   UNL     1      37.100  47.743  12.349 -1.02 +0.06    -0.263 NA ATOM     21  C   UNL     1      35.706  46.201  13.554 -0.46 -0.02    +0.031 A  ATOM     22  C   UNL     1      36.018  46.952  12.434 -0.56 -0.06    +0.112 A  BRANCH  19  23ATOM     23  C   UNL     1      36.172  45.489  15.862 -0.42 -0.00    +0.000 C  ATOM     24  C   UNL     1      36.061  45.963  17.117 -0.41 -0.00    +0.008 C  ATOM     25  C   UNL     1      35.784  44.030  15.831 -0.28 -0.09    +0.233 C  ATOM     26  C   UNL     1      35.620  44.905  17.992 -0.39 -0.00    +0.013 C  ATOM     27  C   UNL     1      35.480  43.783  17.272 -0.35 -0.02    +0.056 C  ATOM     28  F   UNL     1      36.829  43.264  15.418 -0.06 +0.07    -0.237 F  BRANCH  27  29ATOM     29  C   UNL     1      34.945  42.497  17.719 -0.29 -0.08    +0.253 C  ATOM     30  N   UNL     1      33.639  42.194  17.382 -0.17 +0.13    -0.334 N  ATOM     31  C   UNL     1      33.051  40.945  17.874 -0.34 -0.05    +0.148 C  ATOM     32  C   UNL     1      32.669  43.167  16.857 -0.28 -0.06    +0.148 C  ATOM     33  C   UNL     1      31.676  41.205  18.496 -0.28 -0.02    +0.181 C  ATOM     34  C   UNL     1      31.340  42.498  16.493 -0.25 -0.08    +0.181 C  ATOM     35  O   UNL     1      30.735  41.804  17.592 -0.10 +0.08    -0.378 OA ATOM     36  O   UNL     1      35.673  41.759  18.376 -0.45 +0.06    -0.269 OA ENDBRANCH  27  29ENDBRANCH  19  23ENDBRANCH  15  17ENDBRANCH   1  15TORSDOF 7TERENDMDL