MODEL        6USER    Run = 6USERUSER    Estimated Free Energy of Binding    = -10.57 kcal/mol  [=(1)+(2)+(3)-(4)]USERUSER    (1) Final Intermolecular Energy     = -12.96 kcal/molUSER        vdW + Hbond + desolv Energy     = -12.85 kcal/molUSER        Electrostatic Energy            =  -0.11 kcal/molUSER        Moving Ligand-Fixed Receptor    = -12.96 kcal/molUSER        Moving Ligand-Moving Receptor   =  +0.00 kcal/molUSER    (2) Final Total Internal Energy     =  -1.49 kcal/molUSER    (3) Torsional Free Energy           =  +2.39 kcal/molUSER    (4) Unbound System's Energy         =  -1.49 kcal/molUSERUSERREMARK SMILES CS[C@H]1C(C(=O)N2CCOCC2)=CC=C1c1ccncc1NCCc1ccccc1C(N)=OREMARK SMILES IDX 22 1 21 3 16 4 17 5 18 6 20 7 19 8 15 9 3 10 4 11 13 12REMARK SMILES IDX 14 13 2 14 1 15 5 16 7 17 8 18 12 19 9 20 11 21 10 22 6 23REMARK SMILES IDX 23 24 24 25 25 26 26 27 30 28 27 29 29 30 28 31 31 32 32 33REMARK SMILES IDX 33 34REMARK H PARENT 22 2 32 35 32 36USER                              x       y       z     vdW  Elec       q    TypeUSER                           _______ _______ _______ _____ _____    ______ ____ROOTATOM      1  N   UNL     1      39.631  44.675  19.108 -0.15 +0.01    -0.383 N  ATOM      2  H   UNL     1      39.812  45.285  19.903 +0.09 -0.00    +0.160 HD ENDROOTBRANCH   1   3ATOM      3  C   UNL     1      38.251  44.424  18.966 -0.32 -0.01    +0.060 A  ATOM      4  C   UNL     1      37.378  44.382  20.080 -0.37 -0.00    +0.005 A  ATOM      5  C   UNL     1      36.008  44.178  19.855 -0.37 -0.00    +0.030 A  ATOM      6  C   UNL     1      35.548  43.985  18.563 -0.26 -0.03    +0.112 A  ATOM      7  C   UNL     1      37.675  44.117  17.727 -0.13 -0.03    +0.137 A  ATOM      8  N   UNL     1      36.351  43.941  17.487 -0.15 +0.08    -0.263 NA BRANCH   4   9ATOM      9  C   UNL     1      37.856  44.554  21.464 -0.40 -0.00    -0.021 C  ATOM     10  C   UNL     1      37.202  43.971  22.703 -0.34 +0.01    +0.112 C  ATOM     11  C   UNL     1      37.912  44.725  23.797 -0.34 +0.00    +0.035 C  ATOM     12  C   UNL     1      38.861  45.519  23.272 -0.34 +0.00    +0.011 C  ATOM     13  C   UNL     1      38.850  45.387  21.834 -0.38 +0.00    +0.006 C  BRANCH  10  14ATOM     14  S   UNL     1      37.416  42.166  22.901 -0.52 -0.01    -0.152 SA ATOM     15  C   UNL     1      36.181  41.506  21.753 -0.56 +0.00    +0.086 C  ENDBRANCH  10  14BRANCH  11  16ATOM     16  C   UNL     1      37.398  44.737  25.179 -0.23 +0.01    +0.251 C  ATOM     17  N   UNL     1      37.877  43.809  26.082 -0.06 +0.01    -0.334 N  ATOM     18  C   UNL     1      38.629  42.591  25.758 -0.22 -0.00    +0.148 C  ATOM     19  C   UNL     1      37.416  43.898  27.467 -0.31 -0.02    +0.148 C  ATOM     20  C   UNL     1      38.253  41.446  26.705 -0.31 -0.01    +0.181 C  ATOM     21  C   UNL     1      38.343  43.133  28.413 -0.26 -0.02    +0.181 C  ATOM     22  O   UNL     1      38.484  41.748  28.087 -0.22 +0.04    -0.378 OA ATOM     23  O   UNL     1      36.549  45.575  25.479 -0.71 +0.00    -0.269 OA ENDBRANCH  11  16ENDBRANCH   4   9ENDBRANCH   1   3BRANCH   1  24ATOM     24  C   UNL     1      40.390  45.117  17.926 -0.35 -0.00    +0.118 C  BRANCH  24  25ATOM     25  C   UNL     1      40.261  46.630  17.659 -0.52 -0.01    +0.057 C  BRANCH  25  26ATOM     26  C   UNL     1      39.627  47.034  16.342 -0.46 +0.01    -0.034 A  ATOM     27  C   UNL     1      38.676  46.166  15.768 -0.40 -0.00    +0.004 A  ATOM     28  C   UNL     1      39.945  48.221  15.651 -0.52 -0.01    +0.042 A  ATOM     29  C   UNL     1      38.088  46.445  14.532 -0.43 -0.00    +0.000 A  ATOM     30  C   UNL     1      39.343  48.498  14.412 -0.49 -0.01    +0.014 A  ATOM     31  C   UNL     1      38.426  47.608  13.850 -0.49 -0.00    +0.001 A  BRANCH  28  32ATOM     32  C   UNL     1      40.892  49.227  16.204 -0.40 -0.04    +0.248 C  ATOM     33  N   UNL     1      40.745  50.513  15.755 -0.31 +0.15    -0.366 N  ATOM     34  O   UNL     1      41.782  48.927  16.989 -0.93 -0.04    -0.270 OA ATOM     35  H   UNL     1      40.302  50.682  14.857 -0.28 -0.12    +0.159 HD ATOM     36  H   UNL     1      41.480  51.156  16.013 -0.44 -0.07    +0.159 HD ENDBRANCH  28  32ENDBRANCH  25  26ENDBRANCH  24  25ENDBRANCH   1  24TORSDOF 8TERENDMDL