REMARK SMILES NC(=O)c1cc(O)ccc1CCNc1cnccc1C1=CC=C(C(=O)N2CCOCC2)[C@H]1F
REMARK SMILES IDX 12 1 11 2 10 3 4 4 5 5 6 6 9 7 8 8 2 9 1 10 3 13 7 14 13 16
REMARK SMILES IDX 14 18 15 19 19 20 16 21 18 22 17 23 20 24 21 25 32 26 22 27
REMARK SMILES IDX 23 28 33 29 24 30 26 31 27 32 31 33 28 34 30 35 29 36 25 37
REMARK H PARENT 1 11 1 12 7 15 13 17
ROOT
ATOM      1  C   UNL     1       2.098  -1.916   1.781  1.00  0.00     0.118 C 
ENDROOT
BRANCH   1   2
ATOM      2  C   UNL     1       3.181  -2.547   0.893  1.00  0.00     0.057 C 
BRANCH   2   3
ATOM      3  C   UNL     1       4.403  -1.674   0.709  1.00  0.00    -0.033 A 
ATOM      4  C   UNL     1       4.582  -0.790  -0.374  1.00  0.00     0.046 A 
ATOM      5  C   UNL     1       5.736   0.011  -0.457  1.00  0.00     0.060 A 
ATOM      6  C   UNL     1       6.699  -0.061   0.542  1.00  0.00     0.116 A 
ATOM      7  C   UNL     1       5.397  -1.717   1.706  1.00  0.00     0.008 A 
ATOM      8  C   UNL     1       6.536  -0.916   1.622  1.00  0.00     0.046 A 
BRANCH   4   9
ATOM      9  C   UNL     1       3.597  -0.666  -1.480  1.00  0.00     0.249 C 
ATOM     10  N   UNL     1       3.232   0.614  -1.804  1.00  0.00    -0.366 N 
ATOM     11  H   UNL     1       2.445   0.691  -2.435  1.00  0.00     0.159 HD
ATOM     12  H   UNL     1       3.327   1.347  -1.110  1.00  0.00     0.159 HD
ATOM     13  O   UNL     1       3.143  -1.631  -2.079  1.00  0.00    -0.270 OA
ENDBRANCH   4   9
BRANCH   6  14
ATOM     14  O   UNL     1       7.833   0.691   0.495  1.00  0.00    -0.508 OA
ATOM     15  H   UNL     1       7.830   1.220  -0.320  1.00  0.00     0.293 HD
ENDBRANCH   6  14
ENDBRANCH   2   3
ENDBRANCH   1   2
BRANCH   1  16
ATOM     16  N   UNL     1       1.238  -1.023   1.020  1.00  0.00    -0.383 N 
ATOM     17  H   UNL     1       0.340  -1.426   0.761  1.00  0.00     0.160 HD
BRANCH  16  18
ATOM     18  C   UNL     1       1.279   0.363   1.029  1.00  0.00     0.060 A 
ATOM     19  C   UNL     1       2.281   1.107   1.659  1.00  0.00     0.137 A 
ATOM     20  C   UNL     1       0.342   1.118   0.282  1.00  0.00     0.007 A 
ATOM     21  N   UNL     1       2.398   2.459   1.633  1.00  0.00    -0.263 NA
ATOM     22  C   UNL     1       0.424   2.518   0.270  1.00  0.00     0.031 A 
ATOM     23  C   UNL     1       1.455   3.133   0.954  1.00  0.00     0.112 A 
BRANCH  20  24
ATOM     24  C   UNL     1      -0.725   0.491  -0.508  1.00  0.00     0.000 C 
ATOM     25  C   UNL     1      -0.581  -0.427  -1.478  1.00  0.00     0.008 C 
ATOM     26  C   UNL     1      -2.188   0.814  -0.334  1.00  0.00     0.233 C 
ATOM     27  C   UNL     1      -1.878  -0.750  -2.009  1.00  0.00     0.013 C 
ATOM     28  C   UNL     1      -2.833  -0.035  -1.378  1.00  0.00     0.056 C 
ATOM     29  F   UNL     1      -2.576   0.442   0.919  1.00  0.00    -0.237 F 
BRANCH  28  30
ATOM     30  C   UNL     1      -4.229  -0.094  -1.860  1.00  0.00     0.253 C 
ATOM     31  N   UNL     1      -5.226   0.731  -1.355  1.00  0.00    -0.334 N 
ATOM     32  C   UNL     1      -5.354   1.176   0.036  1.00  0.00     0.148 C 
ATOM     33  C   UNL     1      -6.559   0.567  -1.956  1.00  0.00     0.148 C 
ATOM     34  C   UNL     1      -6.177   0.151   0.830  1.00  0.00     0.181 C 
ATOM     35  C   UNL     1      -7.371  -0.448  -1.138  1.00  0.00     0.181 C 
ATOM     36  O   UNL     1      -7.478  -0.024   0.236  1.00  0.00    -0.378 OA
ATOM     37  O   UNL     1      -4.477  -0.871  -2.789  1.00  0.00    -0.269 OA
ENDBRANCH  28  30
ENDBRANCH  20  24
ENDBRANCH  16  18
ENDBRANCH   1  16
TORSDOF 8
