REMARK SMILES CS[C@H]1C(C(=O)N2CCOCC2)=CC=C1c1ccncc1NCCc1ccccc1C(N)=O
REMARK SMILES IDX 22 1 21 3 16 4 17 5 18 6 20 7 19 8 15 9 3 10 4 11 13 12
REMARK SMILES IDX 14 13 2 14 1 15 5 16 7 17 8 18 12 19 9 20 11 21 10 22 6 23
REMARK SMILES IDX 23 24 24 25 25 26 26 27 30 28 27 29 29 30 28 31 31 32 32 33
REMARK SMILES IDX 33 34
REMARK H PARENT 22 2 32 35 32 36
ROOT
ATOM      1  N   UNL     1      -1.880   2.173   1.129  1.00  0.00    -0.383 N 
ATOM      2  H   UNL     1      -1.084   1.613   1.429  1.00  0.00     0.160 HD
ENDROOT
BRANCH   1   3
ATOM      3  C   UNL     1      -2.018   2.146  -0.274  1.00  0.00     0.060 A 
ATOM      4  C   UNL     1      -0.981   1.685  -1.121  1.00  0.00     0.005 A 
ATOM      5  C   UNL     1      -1.212   1.640  -2.504  1.00  0.00     0.030 A 
ATOM      6  C   UNL     1      -2.424   2.078  -3.011  1.00  0.00     0.112 A 
ATOM      7  C   UNL     1      -3.154   2.651  -0.918  1.00  0.00     0.137 A 
ATOM      8  N   UNL     1      -3.405   2.593  -2.251  1.00  0.00    -0.263 NA
BRANCH   4   9
ATOM      9  C   UNL     1       0.326   1.245  -0.600  1.00  0.00    -0.021 C 
ATOM     10  C   UNL     1       0.897  -0.155  -0.718  1.00  0.00     0.112 C 
ATOM     11  C   UNL     1       2.053  -0.088   0.246  1.00  0.00     0.035 C 
ATOM     12  C   UNL     1       2.168   1.155   0.744  1.00  0.00     0.011 C 
ATOM     13  C   UNL     1       1.123   1.987   0.195  1.00  0.00     0.006 C 
BRANCH  10  14
ATOM     14  S   UNL     1       1.464  -0.609  -2.396  1.00  0.00    -0.152 SA
ATOM     15  C   UNL     1       2.540   0.782  -2.826  1.00  0.00     0.086 C 
ENDBRANCH  10  14
BRANCH  11  16
ATOM     16  C   UNL     1       2.729  -1.309   0.720  1.00  0.00     0.251 C 
ATOM     17  N   UNL     1       4.083  -1.267   0.986  1.00  0.00    -0.334 N 
ATOM     18  C   UNL     1       5.019  -0.219   0.561  1.00  0.00     0.148 C 
ATOM     19  C   UNL     1       4.712  -2.467   1.537  1.00  0.00     0.148 C 
ATOM     20  C   UNL     1       6.388  -0.814   0.215  1.00  0.00     0.181 C 
ATOM     21  C   UNL     1       6.057  -2.142   2.189  1.00  0.00     0.181 C 
ATOM     22  O   UNL     1       6.994  -1.526   1.301  1.00  0.00    -0.378 OA
ATOM     23  O   UNL     1       2.060  -2.332   0.857  1.00  0.00    -0.269 OA
ENDBRANCH  11  16
ENDBRANCH   4   9
ENDBRANCH   1   3
BRANCH   1  24
ATOM     24  C   UNL     1      -3.063   1.886   1.958  1.00  0.00     0.118 C 
BRANCH  24  25
ATOM     25  C   UNL     1      -3.235   0.385   2.262  1.00  0.00     0.057 C 
BRANCH  25  26
ATOM     26  C   UNL     1      -3.380  -0.537   1.066  1.00  0.00    -0.034 A 
ATOM     27  C   UNL     1      -2.373  -1.497   0.841  1.00  0.00     0.004 A 
ATOM     28  C   UNL     1      -4.456  -0.478   0.157  1.00  0.00     0.042 A 
ATOM     29  C   UNL     1      -2.410  -2.345  -0.269  1.00  0.00     0.000 A 
ATOM     30  C   UNL     1      -4.490  -1.340  -0.952  1.00  0.00     0.014 A 
ATOM     31  C   UNL     1      -3.465  -2.263  -1.169  1.00  0.00     0.001 A 
BRANCH  28  32
ATOM     32  C   UNL     1      -5.596   0.461   0.343  1.00  0.00     0.248 C 
ATOM     33  N   UNL     1      -6.069   1.075  -0.786  1.00  0.00    -0.366 N 
ATOM     34  O   UNL     1      -6.068   0.708   1.445  1.00  0.00    -0.270 OA
ATOM     35  H   UNL     1      -5.460   1.179  -1.592  1.00  0.00     0.159 HD
ATOM     36  H   UNL     1      -6.734   1.821  -0.636  1.00  0.00     0.159 HD
ENDBRANCH  28  32
ENDBRANCH  25  26
ENDBRANCH  24  25
ENDBRANCH   1  24
TORSDOF 8
