
     RDKit          3D

 42 43  0  0  0  0  0  0  0  0999 V2000
    4.2664   -4.5234    1.7205 C   0  0  0  0  0  0  0  0  0  0  0  0
    4.1882   -3.6135    0.7416 C   0  0  0  0  0  0  0  0  0  0  0  0
    3.2206   -2.4788    0.8271 C   0  0  0  0  0  0  0  0  0  0  0  0
    2.4717   -2.3628    1.7881 O   0  0  0  0  0  0  0  0  0  0  0  0
    3.3867   -1.6028   -0.2279 N   0  0  0  0  0  0  0  0  0  0  0  0
    2.5681   -0.4892   -0.5213 C   0  0  0  0  0  0  0  0  0  0  0  0
    3.1746    0.5857   -1.1883 C   0  0  0  0  0  0  0  0  0  0  0  0
    2.4479    1.7382   -1.5049 C   0  0  0  0  0  0  0  0  0  0  0  0
    1.0992    1.8298   -1.1657 C   0  0  0  0  0  0  0  0  0  0  0  0
    0.4622    0.7562   -0.5323 C   0  0  0  0  0  0  0  0  0  0  0  0
   -0.9194    0.8224   -0.1690 N   0  0  0  0  0  0  0  0  0  0  0  0
   -1.0501    1.4294    1.1803 C   0  0  0  0  0  0  0  0  0  0  0  0
   -1.8639    0.5293    2.1077 C   0  0  0  0  0  0  0  0  0  0  0  0
   -2.0984    1.2243    3.4147 C   0  0  0  0  0  0  0  0  0  0  0  0
   -1.6997    2.3272    3.7459 O   0  0  0  0  0  0  0  0  0  0  0  0
   -2.8624    0.4929    4.2481 O   0  0  0  0  0  0  0  0  0  0  0  0
   -1.9593    0.9945   -1.1165 C   0  0  0  0  0  0  0  0  0  0  0  0
   -1.8051    0.4761   -2.4183 C   0  0  0  0  0  0  0  0  0  0  0  0
   -2.8075    0.5944   -3.3879 C   0  0  0  0  0  0  0  0  0  0  0  0
   -4.0028    1.2311   -3.0769 C   0  0  0  0  0  0  0  0  0  0  0  0
   -4.1913    1.7434   -1.7982 C   0  0  0  0  0  0  0  0  0  0  0  0
   -3.1832    1.6223   -0.8314 C   0  0  0  0  0  0  0  0  0  0  0  0
    1.1990   -0.4105   -0.2445 C   0  0  0  0  0  0  0  0  0  0  0  0
    0.4959   -1.5056    0.1902 O   0  0  0  0  0  0  0  0  0  0  0  0
    4.9577   -5.3549    1.6552 H   0  0  0  0  0  0  0  0  0  0  0  0
    3.6338   -4.4608    2.6039 H   0  0  0  0  0  0  0  0  0  0  0  0
    4.8104   -3.7025   -0.1401 H   0  0  0  0  0  0  0  0  0  0  0  0
    4.2653   -1.6488   -0.7227 H   0  0  0  0  0  0  0  0  0  0  0  0
    4.2303    0.5528   -1.4460 H   0  0  0  0  0  0  0  0  0  0  0  0
    2.9371    2.5700   -2.0063 H   0  0  0  0  0  0  0  0  0  0  0  0
    0.5407    2.7314   -1.4027 H   0  0  0  0  0  0  0  0  0  0  0  0
   -1.4679    2.4428    1.1118 H   0  0  0  0  0  0  0  0  0  0  0  0
   -0.0636    1.5726    1.6482 H   0  0  0  0  0  0  0  0  0  0  0  0
   -2.8377    0.2866    1.6701 H   0  0  0  0  0  0  0  0  0  0  0  0
   -1.3265   -0.4043    2.2977 H   0  0  0  0  0  0  0  0  0  0  0  0
   -2.9336    1.0431    5.0569 H   0  0  0  0  0  0  0  0  0  0  0  0
   -0.8900   -0.0459   -2.6946 H   0  0  0  0  0  0  0  0  0  0  0  0
   -2.6500    0.1812   -4.3806 H   0  0  0  0  0  0  0  0  0  0  0  0
   -4.7861    1.3226   -3.8250 H   0  0  0  0  0  0  0  0  0  0  0  0
   -5.1251    2.2360   -1.5446 H   0  0  0  0  0  0  0  0  0  0  0  0
   -3.3934    2.0424    0.1466 H   0  0  0  0  0  0  0  0  0  0  0  0
   -0.4388   -1.2267    0.1911 H   0  0  0  0  0  0  0  0  0  0  0  0
  1  2  2  0
  2  3  1  0
  3  4  2  0
  3  5  1  0
  5  6  1  0
  6  7  2  0
  7  8  1  0
  8  9  2  0
  9 10  1  0
 10 11  1  0
 11 12  1  0
 12 13  1  0
 13 14  1  0
 14 15  2  0
 14 16  1  0
 11 17  1  0
 17 18  2  0
 18 19  1  0
 19 20  2  0
 20 21  1  0
 21 22  2  0
 10 23  2  0
 23 24  1  0
 23  6  1  0
 22 17  1  0
  1 25  1  0
  1 26  1  0
  2 27  1  0
  5 28  1  0
  7 29  1  0
  8 30  1  0
  9 31  1  0
 12 32  1  0
 12 33  1  0
 13 34  1  0
 13 35  1  0
 16 36  1  0
 18 37  1  0
 19 38  1  0
 20 39  1  0
 21 40  1  0
 22 41  1  0
 24 42  1  0
M  END
$$$$
