
     RDKit          3D

 40 42  0  0  0  0  0  0  0  0999 V2000
   -4.9874    0.9718   -0.5308 C   0  0  0  0  0  0  0  0  0  0  0  0
   -3.8028    0.6170   -0.0229 C   0  0  0  0  0  0  0  0  0  0  0  0
   -2.5666    1.3132   -0.2690 C   0  0  0  0  0  0  0  0  0  0  0  0
   -1.5151    0.6598    0.2511 C   0  0  0  0  0  0  0  0  0  0  0  0
   -0.1413    1.1989    0.2512 C   0  0  0  0  0  0  0  0  0  0  0  0
   -0.1306    2.5583    0.3488 N   0  0  0  0  0  0  0  0  0  0  0  0
    0.9896    3.2600    0.3791 N   0  0  0  0  0  0  0  0  0  0  0  0
    2.1421    2.5797    0.2998 C   0  0  0  0  0  0  0  0  0  0  0  0
    3.6391    3.3833    0.3169 S   0  0  0  0  0  0  0  0  0  0  0  0
    4.4999    1.9145    0.1677 C   0  0  0  0  0  0  0  0  0  0  0  0
    5.9886    1.9262    0.1151 C   0  0  0  0  0  0  0  0  0  0  0  0
    3.6425    0.8339    0.1099 C   0  0  0  0  0  0  0  0  0  0  0  0
    2.2514    1.2032    0.1937 C   0  0  0  0  0  0  0  0  0  0  0  0
    1.0470    0.4437    0.1751 C   0  0  0  0  0  0  0  0  0  0  0  0
    1.0877   -1.0552    0.0104 C   0  0  0  0  0  0  0  0  0  0  0  0
    0.7680   -1.4892   -1.4218 C   0  0  0  0  0  0  0  0  0  0  0  0
    0.8027   -3.0029   -1.5626 C   0  0  0  0  0  0  0  0  0  0  0  0
   -1.9561   -0.6249    0.8853 C   0  0  0  0  0  0  0  0  0  0  0  0
   -3.4976   -0.5356    0.9044 C   0  0  0  0  0  0  0  0  0  0  0  0
   -4.1489   -1.8618    0.5251 C   0  0  0  0  0  0  0  0  0  0  0  0
   -5.8908    0.4176   -0.2995 H   0  0  0  0  0  0  0  0  0  0  0  0
   -5.0888    1.8314   -1.1863 H   0  0  0  0  0  0  0  0  0  0  0  0
   -2.5176    2.2643   -0.7845 H   0  0  0  0  0  0  0  0  0  0  0  0
    6.3425    2.5046   -0.7447 H   0  0  0  0  0  0  0  0  0  0  0  0
    6.4063    2.3640    1.0277 H   0  0  0  0  0  0  0  0  0  0  0  0
    6.3842    0.9095    0.0202 H   0  0  0  0  0  0  0  0  0  0  0  0
    3.9981   -0.1847    0.0116 H   0  0  0  0  0  0  0  0  0  0  0  0
    0.4383   -1.5408    0.7422 H   0  0  0  0  0  0  0  0  0  0  0  0
    2.0874   -1.4257    0.2683 H   0  0  0  0  0  0  0  0  0  0  0  0
   -0.2193   -1.1268   -1.7290 H   0  0  0  0  0  0  0  0  0  0  0  0
    1.4936   -1.0473   -2.1157 H   0  0  0  0  0  0  0  0  0  0  0  0
    0.0624   -3.4740   -0.9080 H   0  0  0  0  0  0  0  0  0  0  0  0
    1.7907   -3.3986   -1.3064 H   0  0  0  0  0  0  0  0  0  0  0  0
    0.5777   -3.2928   -2.5937 H   0  0  0  0  0  0  0  0  0  0  0  0
   -1.5679   -0.7320    1.9040 H   0  0  0  0  0  0  0  0  0  0  0  0
   -1.6393   -1.4863    0.2898 H   0  0  0  0  0  0  0  0  0  0  0  0
   -3.8184   -0.2609    1.9188 H   0  0  0  0  0  0  0  0  0  0  0  0
   -3.8097   -2.6611    1.1926 H   0  0  0  0  0  0  0  0  0  0  0  0
   -5.2394   -1.8030    0.6052 H   0  0  0  0  0  0  0  0  0  0  0  0
   -3.9021   -2.1514   -0.5024 H   0  0  0  0  0  0  0  0  0  0  0  0
  1  2  2  0
  2  3  1  0
  3  4  2  0
  4  5  1  0
  5  6  2  0
  6  7  1  0
  7  8  2  0
  8  9  1  0
  9 10  1  0
 10 11  1  0
 10 12  2  0
 12 13  1  0
 13 14  2  0
 14 15  1  0
 15 16  1  0
 16 17  1  0
  4 18  1  0
 18 19  1  0
 19 20  1  0
 19  2  1  0
 14  5  1  0
 13  8  1  0
  1 21  1  0
  1 22  1  0
  3 23  1  0
 11 24  1  0
 11 25  1  0
 11 26  1  0
 12 27  1  0
 15 28  1  0
 15 29  1  0
 16 30  1  0
 16 31  1  0
 17 32  1  0
 17 33  1  0
 17 34  1  0
 18 35  1  0
 18 36  1  0
 19 37  1  0
 20 38  1  0
 20 39  1  0
 20 40  1  0
M  END
$$$$
