
     RDKit          3D

 50 53  0  0  0  0  0  0  0  0999 V2000
    8.0447    0.9306    0.1368 C   0  0  0  0  0  0  0  0  0  0  0  0
    6.7827    0.2712   -0.3166 C   0  0  0  0  0  0  0  0  0  0  0  0
    5.5681    0.4522    0.2197 C   0  0  0  0  0  0  0  0  0  0  0  0
    5.2077    1.2875    1.2524 N   0  0  0  0  0  0  0  0  0  0  0  0
    3.8454    1.2988    1.4290 C   0  0  0  0  0  0  0  0  0  0  0  0
    3.2114    0.4179    0.6220 C   0  0  0  0  0  0  0  0  0  0  0  0
    4.2886   -0.1672   -0.2024 C   0  0  0  0  0  0  0  0  0  0  0  0
    4.1393   -1.0712   -1.1814 C   0  0  0  0  0  0  0  0  0  0  0  0
    2.8300   -1.6135   -1.6405 C   0  0  0  0  0  0  0  0  0  0  0  0
    2.0990   -0.5337   -2.4165 C   0  0  0  0  0  0  0  0  0  0  0  0
    2.2145   -0.4456   -3.6423 O   0  0  0  0  0  0  0  0  0  0  0  0
    1.2737    0.3341   -1.7612 N   0  0  0  0  0  0  0  0  0  0  0  0
    0.8789    0.2788   -0.4237 C   0  0  0  0  0  0  0  0  0  0  0  0
   -0.4705    0.3315   -0.2958 N   0  0  0  0  0  0  0  0  0  0  0  0
   -1.0215    0.2038    0.9244 C   0  0  0  0  0  0  0  0  0  0  0  0
   -2.4169    0.2541    1.0941 N   0  0  0  0  0  0  0  0  0  0  0  0
   -3.1757    0.3610   -0.1521 C   0  0  0  0  0  0  0  0  0  0  0  0
   -4.6730    0.5402    0.1523 C   0  0  0  0  0  0  0  0  0  0  0  0
   -5.4308    0.9251   -1.1277 C   0  0  0  0  0  0  0  0  0  0  0  0
   -6.9305    0.9932   -0.8735 C   0  0  0  0  0  0  0  0  0  0  0  0
   -7.4066   -0.2462   -0.3525 O   0  0  0  0  0  0  0  0  0  0  0  0
   -6.8109   -0.5625    0.9036 C   0  0  0  0  0  0  0  0  0  0  0  0
   -5.3025   -0.7237    0.7594 C   0  0  0  0  0  0  0  0  0  0  0  0
   -0.2325    0.0601    2.0554 C   0  0  0  0  0  0  0  0  0  0  0  0
    1.1545    0.0714    1.9253 C   0  0  0  0  0  0  0  0  0  0  0  0
    1.7550    0.2149    0.6658 C   0  0  0  0  0  0  0  0  0  0  0  0
    8.7813    0.1688    0.4101 H   0  0  0  0  0  0  0  0  0  0  0  0
    8.4613    1.5321   -0.6771 H   0  0  0  0  0  0  0  0  0  0  0  0
    7.9007    1.5832    1.0020 H   0  0  0  0  0  0  0  0  0  0  0  0
    6.9062   -0.4095   -1.1536 H   0  0  0  0  0  0  0  0  0  0  0  0
    5.7946    2.0570    1.5404 H   0  0  0  0  0  0  0  0  0  0  0  0
    3.4170    1.9690    2.1620 H   0  0  0  0  0  0  0  0  0  0  0  0
    5.0031   -1.4248   -1.7361 H   0  0  0  0  0  0  0  0  0  0  0  0
    2.2270   -2.0204   -0.8242 H   0  0  0  0  0  0  0  0  0  0  0  0
    3.0018   -2.4564   -2.3213 H   0  0  0  0  0  0  0  0  0  0  0  0
    0.5801    0.7357   -2.3777 H   0  0  0  0  0  0  0  0  0  0  0  0
   -2.6989   -0.5499    1.6474 H   0  0  0  0  0  0  0  0  0  0  0  0
   -3.0211   -0.5303   -0.7737 H   0  0  0  0  0  0  0  0  0  0  0  0
   -2.8332    1.2370   -0.7182 H   0  0  0  0  0  0  0  0  0  0  0  0
   -4.7888    1.3597    0.8756 H   0  0  0  0  0  0  0  0  0  0  0  0
   -5.0746    1.8882   -1.5101 H   0  0  0  0  0  0  0  0  0  0  0  0
   -5.2355    0.1703   -1.9004 H   0  0  0  0  0  0  0  0  0  0  0  0
   -7.4588    1.1854   -1.8127 H   0  0  0  0  0  0  0  0  0  0  0  0
   -7.1824    1.8041   -0.1800 H   0  0  0  0  0  0  0  0  0  0  0  0
   -7.2525   -1.5003    1.2553 H   0  0  0  0  0  0  0  0  0  0  0  0
   -7.0612    0.2153    1.6346 H   0  0  0  0  0  0  0  0  0  0  0  0
   -5.0977   -1.5780    0.1016 H   0  0  0  0  0  0  0  0  0  0  0  0
   -4.8673   -0.9487    1.7386 H   0  0  0  0  0  0  0  0  0  0  0  0
   -0.6852   -0.0215    3.0382 H   0  0  0  0  0  0  0  0  0  0  0  0
    1.7621   -0.0039    2.8251 H   0  0  0  0  0  0  0  0  0  0  0  0
  1  2  1  0
  2  3  2  3
  3  4  1  0
  4  5  1  0
  5  6  2  0
  6  7  1  0
  7  8  2  3
  8  9  1  0
  9 10  1  0
 10 11  2  0
 10 12  1  0
 12 13  1  0
 13 14  2  0
 14 15  1  0
 15 16  1  0
 16 17  1  0
 17 18  1  0
 18 19  1  0
 19 20  1  0
 20 21  1  0
 21 22  1  0
 22 23  1  0
 15 24  2  0
 24 25  1  0
 25 26  2  0
  7  3  1  0
 26 13  1  0
 26  6  1  0
 23 18  1  0
  1 27  1  0
  1 28  1  0
  1 29  1  0
  2 30  1  0
  4 31  1  0
  5 32  1  0
  8 33  1  0
  9 34  1  0
  9 35  1  0
 12 36  1  0
 16 37  1  0
 17 38  1  0
 17 39  1  0
 18 40  1  0
 19 41  1  0
 19 42  1  0
 20 43  1  0
 20 44  1  0
 22 45  1  0
 22 46  1  0
 23 47  1  0
 23 48  1  0
 24 49  1  0
 25 50  1  0
M  END
$$$$
