
     RDKit          3D

 33 35  0  0  0  0  0  0  0  0999 V2000
   -2.0365   -3.0740    1.2078 N   0  0  0  0  0  0  0  0  0  0  0  0
   -1.7855   -1.7179    1.2196 C   0  0  0  0  0  0  0  0  0  0  0  0
   -1.9979   -1.0642    2.3627 N   0  0  0  0  0  0  0  0  0  0  0  0
   -1.7439    0.2561    2.3488 C   0  0  0  0  0  0  0  0  0  0  0  0
   -1.3120    0.9341    1.2354 C   0  0  0  0  0  0  0  0  0  0  0  0
   -1.1402    0.1756    0.0952 C   0  0  0  0  0  0  0  0  0  0  0  0
   -0.7395    0.7607   -1.1966 C   0  0  0  0  0  0  0  0  0  0  0  0
   -1.5137    0.4589   -2.3393 C   0  0  0  0  0  0  0  0  0  0  0  0
   -1.2381    1.0195   -3.5884 C   0  0  0  0  0  0  0  0  0  0  0  0
   -0.1763    1.9044   -3.7291 C   0  0  0  0  0  0  0  0  0  0  0  0
    0.6159    2.2094   -2.6237 C   0  0  0  0  0  0  0  0  0  0  0  0
    1.9224    3.3247   -2.8410 Cl  0  0  0  0  0  0  0  0  0  0  0  0
    0.3504    1.6421   -1.3582 C   0  0  0  0  0  0  0  0  0  0  0  0
    1.2851    1.8878   -0.2778 N   0  0  0  0  0  0  0  0  0  0  0  0
    2.5717    0.7439   -0.1827 S   0  0  0  0  0  0  0  0  0  0  0  0
    2.6902    0.0627   -1.4559 O   0  0  0  0  0  0  0  0  0  0  0  0
    3.6895    1.4814    0.3734 O   0  0  0  0  0  0  0  0  0  0  0  0
    2.1571   -0.4710    1.0540 C   0  0  0  0  0  0  0  0  0  0  0  0
    1.6708   -0.2022    2.2546 N   0  0  0  0  0  0  0  0  0  0  0  0
    1.4735   -1.3910    2.9313 C   0  0  0  0  0  0  0  0  0  0  0  0
    1.8227   -2.5358    2.2465 C   0  0  0  0  0  0  0  0  0  0  0  0
    2.4306   -2.1210    0.6980 S   0  0  0  0  0  0  0  0  0  0  0  0
   -1.3905   -1.1535    0.0761 N   0  0  0  0  0  0  0  0  0  0  0  0
   -2.7084   -3.2983    1.9282 H   0  0  0  0  0  0  0  0  0  0  0  0
   -2.2470   -3.3724    0.2661 H   0  0  0  0  0  0  0  0  0  0  0  0
   -1.9008    0.7702    3.2922 H   0  0  0  0  0  0  0  0  0  0  0  0
   -1.1245    1.9986    1.2648 H   0  0  0  0  0  0  0  0  0  0  0  0
   -2.3563   -0.2279   -2.2508 H   0  0  0  0  0  0  0  0  0  0  0  0
   -1.8549    0.7637   -4.4469 H   0  0  0  0  0  0  0  0  0  0  0  0
    0.0370    2.3421   -4.7010 H   0  0  0  0  0  0  0  0  0  0  0  0
    1.7485    2.7978   -0.3641 H   0  0  0  0  0  0  0  0  0  0  0  0
    1.0557   -1.3700    3.9308 H   0  0  0  0  0  0  0  0  0  0  0  0
    1.7448   -3.5637    2.5698 H   0  0  0  0  0  0  0  0  0  0  0  0
  1  2  1  0
  2  3  2  0
  3  4  1  0
  4  5  2  0
  5  6  1  0
  6  7  1  0
  7  8  2  0
  8  9  1  0
  9 10  2  0
 10 11  1  0
 11 12  1  0
 11 13  2  0
 13 14  1  0
 14 15  1  0
 15 16  2  0
 15 17  2  0
 15 18  1  0
 18 19  2  0
 19 20  1  0
 20 21  2  0
 21 22  1  0
  6 23  2  0
 23  2  1  0
 13  7  1  0
 22 18  1  0
  1 24  1  0
  1 25  1  0
  4 26  1  0
  5 27  1  0
  8 28  1  0
  9 29  1  0
 10 30  1  0
 14 31  1  0
 20 32  1  0
 21 33  1  0
M  END
$$$$
