
     RDKit          3D

 39 41  0  0  0  0  0  0  0  0999 V2000
    3.6496   -1.9099   -0.1822 C   0  0  0  0  0  0  0  0  0  0  0  0
    2.7309   -1.9425    0.9049 O   0  0  0  0  0  0  0  0  0  0  0  0
    1.8123   -0.9178    0.9825 C   0  0  0  0  0  3  0  0  0  0  0  0
    2.0355    0.4576    0.4460 C   0  0  1  0  0  0  0  0  0  0  0  0
    2.1340    0.4844   -0.9689 O   0  0  0  0  0  0  0  0  0  0  0  0
    1.0194    1.4219    0.8753 N   0  0  0  0  0  0  0  0  0  0  0  0
    1.3538    2.4841    1.6830 C   0  0  0  0  0  0  0  0  0  0  0  0
    0.3148    3.2049    2.0131 N   0  0  0  0  0  0  0  0  0  0  0  0
   -0.7540    2.5962    1.3897 C   0  0  0  0  0  0  0  0  0  0  0  0
   -2.1147    2.9845    1.4268 C   0  0  0  0  0  0  0  0  0  0  0  0
   -2.5634    4.0778    2.1573 N   0  0  0  0  0  0  0  0  0  0  0  0
   -3.0213    2.2961    0.7061 N   0  0  0  0  0  0  0  0  0  0  0  0
   -2.6057    1.2281   -0.0098 C   0  0  0  0  0  0  0  0  0  0  0  0
   -1.2929    0.7393   -0.1008 C   0  0  0  0  0  0  0  0  0  0  0  0
   -0.9955   -0.4098   -0.9519 C   0  0  0  0  0  0  0  0  0  0  0  0
   -0.5868   -0.1714   -2.2796 C   0  0  0  0  0  0  0  0  0  0  0  0
   -0.2990   -1.2223   -3.1505 C   0  0  0  0  0  0  0  0  0  0  0  0
   -0.4336   -2.5349   -2.7172 C   0  0  0  0  0  0  0  0  0  0  0  0
   -0.8759   -2.7955   -1.4209 C   0  0  0  0  0  0  0  0  0  0  0  0
   -1.1733   -1.7462   -0.5273 C   0  0  0  0  0  0  0  0  0  0  0  0
   -1.7382   -2.0862    0.8370 C   0  0  0  0  0  0  0  0  0  0  0  0
   -1.1370   -1.4188    1.8585 F   0  0  0  0  0  0  0  0  0  0  0  0
   -3.0673   -1.8067    0.9265 F   0  0  0  0  0  0  0  0  0  0  0  0
   -1.6196   -3.4085    1.1508 F   0  0  0  0  0  0  0  0  0  0  0  0
   -0.3461    1.4797    0.6389 C   0  0  0  0  0  0  0  0  0  0  0  0
    3.1222   -1.9751   -1.1385 H   0  0  0  0  0  0  0  0  0  0  0  0
    4.2838   -1.0193   -0.1403 H   0  0  0  0  0  0  0  0  0  0  0  0
    4.2986   -2.7867   -0.0978 H   0  0  0  0  0  0  0  0  0  0  0  0
    1.2018   -1.0780    1.8649 H   0  0  0  0  0  0  0  0  0  0  0  0
    2.9937    0.8220    0.8340 H   0  0  0  0  0  0  0  0  0  0  0  0
    1.6419   -0.2862   -1.2959 H   0  0  0  0  0  0  0  0  0  0  0  0
    2.3700    2.6783    2.0040 H   0  0  0  0  0  0  0  0  0  0  0  0
   -1.8209    4.7349    2.3685 H   0  0  0  0  0  0  0  0  0  0  0  0
   -3.4284    4.4419    1.7820 H   0  0  0  0  0  0  0  0  0  0  0  0
   -3.4098    0.7343   -0.5553 H   0  0  0  0  0  0  0  0  0  0  0  0
   -0.4785    0.8527   -2.6399 H   0  0  0  0  0  0  0  0  0  0  0  0
    0.0231   -1.0126   -4.1681 H   0  0  0  0  0  0  0  0  0  0  0  0
   -0.2169   -3.3581   -3.3946 H   0  0  0  0  0  0  0  0  0  0  0  0
   -1.0067   -3.8325   -1.1104 H   0  0  0  0  0  0  0  0  0  0  0  0
  1  2  1  0
  2  3  1  0
  3  4  1  0
  4  5  1  0
  4  6  1  0
  6  7  1  0
  7  8  2  0
  8  9  1  0
  9 10  2  0
 10 11  1  0
 10 12  1  0
 12 13  2  0
 13 14  1  0
 14 15  1  0
 15 16  2  0
 16 17  1  0
 17 18  2  0
 18 19  1  0
 19 20  2  0
 20 21  1  0
 21 22  1  0
 21 23  1  0
 21 24  1  0
 14 25  2  0
 25  6  1  0
 25  9  1  0
 20 15  1  0
  1 26  1  0
  1 27  1  0
  1 28  1  0
  3 29  1  0
  4 30  1  1
  5 31  1  0
  7 32  1  0
 11 33  1  0
 11 34  1  0
 13 35  1  0
 16 36  1  0
 17 37  1  0
 18 38  1  0
 19 39  1  0
M  RAD  1   3   2
M  END
$$$$
