
     RDKit          3D

 48 51  0  0  0  0  0  0  0  0999 V2000
    3.5261   -3.3387    0.2363 C   0  0  0  0  0  0  0  0  0  0  0  0
    3.2656   -2.0565   -0.0313 C   0  0  0  0  0  0  0  0  0  0  0  0
    2.1451   -1.3237    0.4997 C   0  0  0  0  0  0  0  0  0  0  0  0
    2.1716   -0.0507    0.0908 C   0  0  0  0  0  0  0  0  0  0  0  0
    1.2282    1.0086    0.4468 C   0  0  0  0  0  0  0  0  0  0  0  0
    1.8104    2.0164    1.1524 N   0  0  0  0  0  0  0  0  0  0  0  0
    1.1174    3.0658    1.5471 N   0  0  0  0  0  0  0  0  0  0  0  0
   -0.1755    3.1261    1.1902 C   0  0  0  0  0  0  0  0  0  0  0  0
   -1.1449    4.4466    1.6384 S   0  0  0  0  0  0  0  0  0  0  0  0
   -2.5002    3.8175    0.8102 C   0  0  0  0  0  0  0  0  0  0  0  0
   -3.7797    4.5035    0.7661 C   0  0  0  0  0  0  0  0  0  0  0  0
   -3.8732    5.6934    1.4324 N   0  0  0  0  0  0  0  0  0  0  0  0
   -4.7673    4.0651    0.1791 O   0  0  0  0  0  0  0  0  0  0  0  0
   -2.1999    2.6020    0.2198 C   0  0  0  0  0  0  0  0  0  0  0  0
   -0.8477    2.1700    0.4471 C   0  0  0  0  0  0  0  0  0  0  0  0
   -0.1220    1.0144    0.0550 C   0  0  0  0  0  0  0  0  0  0  0  0
   -0.7316   -0.0966   -0.7712 C   0  0  0  0  0  0  0  0  0  0  0  0
   -1.1191   -1.2780    0.0161 N   0  0  0  0  0  0  0  0  0  0  0  0
   -1.2759   -2.4546   -0.8742 C   0  0  0  0  0  0  0  0  0  0  0  0
   -2.2470   -3.4972   -0.2999 C   0  0  0  0  0  0  0  0  0  0  0  0
   -3.5791   -2.9796   -0.1895 O   0  0  0  0  0  0  0  0  0  0  0  0
   -3.6159   -1.5837    0.1481 C   0  0  0  0  0  0  0  0  0  0  0  0
   -2.3341   -1.0883    0.8370 C   0  0  0  0  0  0  0  0  0  0  0  0
    3.3936    0.2558   -0.7224 C   0  0  0  0  0  0  0  0  0  0  0  0
    4.0582   -1.1233   -0.9241 C   0  0  0  0  0  0  0  0  0  0  0  0
    5.5541   -1.0756   -0.6237 C   0  0  0  0  0  0  0  0  0  0  0  0
    4.3825   -3.8426   -0.1992 H   0  0  0  0  0  0  0  0  0  0  0  0
    2.8896   -3.9221    0.8966 H   0  0  0  0  0  0  0  0  0  0  0  0
    1.3937   -1.7584    1.1464 H   0  0  0  0  0  0  0  0  0  0  0  0
   -3.1374    6.0160    2.0466 H   0  0  0  0  0  0  0  0  0  0  0  0
   -4.7856    6.1236    1.4902 H   0  0  0  0  0  0  0  0  0  0  0  0
   -2.9353    2.0459   -0.3522 H   0  0  0  0  0  0  0  0  0  0  0  0
    0.0049   -0.3773   -1.5377 H   0  0  0  0  0  0  0  0  0  0  0  0
   -1.5916    0.2837   -1.3380 H   0  0  0  0  0  0  0  0  0  0  0  0
   -1.6646   -2.1420   -1.8532 H   0  0  0  0  0  0  0  0  0  0  0  0
   -0.2938   -2.9123   -1.0338 H   0  0  0  0  0  0  0  0  0  0  0  0
   -2.2879   -4.3758   -0.9510 H   0  0  0  0  0  0  0  0  0  0  0  0
   -1.9208   -3.8427    0.6882 H   0  0  0  0  0  0  0  0  0  0  0  0
   -3.8026   -1.0186   -0.7732 H   0  0  0  0  0  0  0  0  0  0  0  0
   -4.4785   -1.4286    0.8046 H   0  0  0  0  0  0  0  0  0  0  0  0
   -2.1913   -1.6740    1.7553 H   0  0  0  0  0  0  0  0  0  0  0  0
   -2.4598   -0.0539    1.1683 H   0  0  0  0  0  0  0  0  0  0  0  0
    4.0515    0.9540   -0.1908 H   0  0  0  0  0  0  0  0  0  0  0  0
    3.1297    0.6991   -1.6891 H   0  0  0  0  0  0  0  0  0  0  0  0
    3.9162   -1.4299   -1.9704 H   0  0  0  0  0  0  0  0  0  0  0  0
    6.0266   -2.0463   -0.8068 H   0  0  0  0  0  0  0  0  0  0  0  0
    5.7462   -0.7982    0.4209 H   0  0  0  0  0  0  0  0  0  0  0  0
    6.0509   -0.3386   -1.2656 H   0  0  0  0  0  0  0  0  0  0  0  0
  1  2  2  0
  2  3  1  0
  3  4  2  0
  4  5  1  0
  5  6  2  0
  6  7  1  0
  7  8  2  0
  8  9  1  0
  9 10  1  0
 10 11  1  0
 11 12  1  0
 11 13  2  0
 10 14  2  0
 14 15  1  0
 15 16  2  0
 16 17  1  0
 17 18  1  0
 18 19  1  0
 19 20  1  0
 20 21  1  0
 21 22  1  0
 22 23  1  0
  4 24  1  0
 24 25  1  0
 25 26  1  0
 25  2  1  0
 16  5  1  0
 23 18  1  0
 15  8  1  0
  1 27  1  0
  1 28  1  0
  3 29  1  0
 12 30  1  0
 12 31  1  0
 14 32  1  0
 17 33  1  0
 17 34  1  0
 19 35  1  0
 19 36  1  0
 20 37  1  0
 20 38  1  0
 22 39  1  0
 22 40  1  0
 23 41  1  0
 23 42  1  0
 24 43  1  0
 24 44  1  0
 25 45  1  0
 26 46  1  0
 26 47  1  0
 26 48  1  0
M  END
$$$$
