REMARK SMILES Cc1cc(-c2nnc3ccc(-c4cnn(CCS(=O)(=O)N5CCN(C)CC5)c4)cn23)ccc1O
REMARK SMILES IDX 12 1 13 2 14 3 15 4 28 5 11 6 5 7 6 8 30 9 7 10 29 11 8 12
REMARK SMILES IDX 9 13 10 14 4 15 2 16 3 17 33 18 32 19 31 20 1 21 34 22 16 24
REMARK SMILES IDX 17 25 18 26 19 27 20 28 21 29 22 30 27 31 23 32 26 33 24 34
REMARK SMILES IDX 25 35
REMARK H PARENT 34 23
ROOT
ATOM      1  C   UNL     1       1.336  -1.752   0.912  1.00  0.00     0.021 A 
ATOM      2  C   UNL     1       1.015  -0.479   1.439  1.00  0.00     0.143 A 
ATOM      3  N   UNL     1      -0.292  -0.331   1.668  1.00  0.00    -0.181 NA
ATOM      4  N   UNL     1      -0.812  -1.516   1.302  1.00  0.00    -0.271 N 
ATOM      5  C   UNL     1       0.120  -2.398   0.835  1.00  0.00     0.117 A 
ENDROOT
BRANCH   1   6
ATOM      6  C   UNL     1       2.617  -2.274   0.530  1.00  0.00     0.002 A 
ATOM      7  C   UNL     1       6.087  -1.435  -0.534  1.00  0.00     0.168 A 
ATOM      8  N   UNL     1       6.932  -2.390  -0.885  1.00  0.00    -0.129 NA
ATOM      9  N   UNL     1       4.887  -2.021  -0.166  1.00  0.00    -0.282 N 
ATOM     10  N   UNL     1       6.328  -3.609  -0.694  1.00  0.00    -0.130 NA
ATOM     11  C   UNL     1       3.657  -1.473   0.206  1.00  0.00     0.103 A 
ATOM     12  C   UNL     1       5.110  -3.385  -0.260  1.00  0.00     0.161 A 
ATOM     13  C   UNL     1       4.044  -4.249   0.094  1.00  0.00     0.050 A 
ATOM     14  C   UNL     1       2.862  -3.726   0.473  1.00  0.00     0.014 A 
BRANCH   7  15
ATOM     15  C   UNL     1       6.371  -0.001  -0.576  1.00  0.00     0.020 A 
ATOM     16  C   UNL     1       6.365   2.214   0.452  1.00  0.00    -0.009 A 
ATOM     17  C   UNL     1       6.092   0.839   0.512  1.00  0.00     0.019 A 
ATOM     18  C   UNL     1       6.934   2.736  -0.713  1.00  0.00     0.118 A 
ATOM     19  C   UNL     1       7.243   1.914  -1.793  1.00  0.00     0.047 A 
ATOM     20  C   UNL     1       6.966   0.547  -1.720  1.00  0.00     0.016 A 
ATOM     21  C   UNL     1       6.055   3.103   1.621  1.00  0.00     0.048 C 
BRANCH  18  22
ATOM     22  O   UNL     1       7.192   4.076  -0.772  1.00  0.00    -0.508 OA
ATOM     23  H   UNL     1       7.607   4.279  -1.627  1.00  0.00     0.293 HD
ENDBRANCH  18  22
ENDBRANCH   7  15
ENDBRANCH   1   6
BRANCH   4  24
ATOM     24  C   UNL     1      -2.243  -1.729   1.401  1.00  0.00     0.162 C 
BRANCH  24  25
ATOM     25  C   UNL     1      -2.995  -0.820   0.452  1.00  0.00     0.178 C 
BRANCH  25  26
ATOM     26  S   UNL     1      -4.731  -1.183   0.554  1.00  0.00     0.216 S 
ATOM     27  O   UNL     1      -5.235  -0.723   1.830  1.00  0.00    -0.212 OA
ATOM     28  O   UNL     1      -4.914  -2.556   0.134  1.00  0.00    -0.212 OA
BRANCH  26  29
ATOM     29  N   UNL     1      -5.383  -0.182  -0.653  1.00  0.00    -0.199 NA
ATOM     30  C   UNL     1      -5.184   1.294  -0.454  1.00  0.00     0.117 C 
ATOM     31  C   UNL     1      -6.800  -0.522  -1.031  1.00  0.00     0.117 C 
ATOM     32  C   UNL     1      -6.197   2.126  -1.263  1.00  0.00     0.101 C 
ATOM     33  C   UNL     1      -7.798   0.481  -0.429  1.00  0.00     0.101 C 
ATOM     34  N   UNL     1      -7.612   1.855  -0.944  1.00  0.00    -0.304 NA
ATOM     35  C   UNL     1      -8.160   2.831  -0.005  1.00  0.00     0.105 C 
ENDBRANCH  26  29
ENDBRANCH  25  26
ENDBRANCH  24  25
ENDBRANCH   4  24
TORSDOF 7
