REMARK SMILES CC(C)c1nnc2ccc(-c3ccc(O)c(CN4CCN(CF)CC4)c3)cn12
REMARK SMILES IDX 11 1 12 2 13 3 14 4 16 5 26 6 10 7 4 8 5 9 28 10 6 11 27 12
REMARK SMILES IDX 7 13 8 14 9 15 2 16 1 17 3 18 17 19 18 20 19 21 25 22 20 23
REMARK SMILES IDX 24 24 21 25 22 26 23 27 15 28
REMARK H PARENT 15 29
ROOT
ATOM      1  C   UNL     1      -0.835   0.882  -0.180  1.00  0.00    -0.016 A 
ATOM      2  C   UNL     1      -0.874   2.127   0.458  1.00  0.00     0.012 A 
ATOM      3  C   UNL     1       0.206   2.555   1.233  1.00  0.00     0.047 A 
ATOM      4  C   UNL     1       1.329   1.739   1.369  1.00  0.00     0.120 A 
ATOM      5  C   UNL     1       1.399   0.494   0.735  1.00  0.00     0.009 A 
ATOM      6  C   UNL     1       0.300   0.075  -0.038  1.00  0.00     0.017 A 
ENDROOT
BRANCH   1   7
ATOM      7  C   UNL     1      -1.964   0.426  -1.006  1.00  0.00    -0.001 A 
ATOM      8  C   UNL     1      -5.462  -0.789  -0.825  1.00  0.00     0.139 A 
ATOM      9  N   UNL     1      -6.132  -1.085  -1.924  1.00  0.00    -0.134 NA
ATOM     10  N   UNL     1      -4.192  -0.370  -1.171  1.00  0.00    -0.286 N 
ATOM     11  N   UNL     1      -5.308  -0.886  -3.006  1.00  0.00    -0.130 NA
ATOM     12  C   UNL     1      -3.116   0.070  -0.400  1.00  0.00     0.103 A 
ATOM     13  C   UNL     1      -4.150  -0.462  -2.555  1.00  0.00     0.160 A 
ATOM     14  C   UNL     1      -2.939  -0.100  -3.203  1.00  0.00     0.050 A 
ATOM     15  C   UNL     1      -1.894   0.322  -2.466  1.00  0.00     0.014 A 
BRANCH   8  16
ATOM     16  C   UNL     1      -5.978  -0.866   0.579  1.00  0.00     0.052 C 
ATOM     17  C   UNL     1      -6.989  -2.004   0.733  1.00  0.00     0.016 C 
ATOM     18  C   UNL     1      -6.609   0.465   0.988  1.00  0.00     0.016 C 
ENDBRANCH   8  16
ENDBRANCH   1   7
BRANCH   5  19
ATOM     19  C   UNL     1       2.604  -0.417   0.875  1.00  0.00     0.124 C 
BRANCH  19  20
ATOM     20  N   UNL     1       3.176  -0.823  -0.429  1.00  0.00    -0.296 NA
ATOM     21  C   UNL     1       3.823   0.320  -1.105  1.00  0.00     0.100 C 
ATOM     22  C   UNL     1       4.171  -1.905  -0.248  1.00  0.00     0.100 C 
ATOM     23  C   UNL     1       5.107   0.863  -0.422  1.00  0.00     0.102 C 
ATOM     24  C   UNL     1       5.664  -1.480  -0.193  1.00  0.00     0.102 C 
ATOM     25  N   UNL     1       5.843  -0.141   0.370  1.00  0.00    -0.274 NA
BRANCH  25  26
ATOM     26  C   UNL     1       7.246   0.213   0.491  1.00  0.00     0.303 C 
ATOM     27  F   UNL     1       7.339   1.474   0.991  1.00  0.00    -0.234 F 
ENDBRANCH  25  26
ENDBRANCH  19  20
ENDBRANCH   5  19
BRANCH   4  28
ATOM     28  O   UNL     1       2.382   2.158   2.131  1.00  0.00    -0.508 OA
ATOM     29  H   UNL     1       2.194   3.044   2.480  1.00  0.00     0.293 HD
ENDBRANCH   4  28
TORSDOF 6
