MODEL        2USER    Run = 2USERUSER    Estimated Free Energy of Binding    = -10.86 kcal/mol  [=(1)+(2)+(3)-(4)]USERUSER    (1) Final Intermolecular Energy     = -12.35 kcal/molUSER        vdW + Hbond + desolv Energy     = -12.16 kcal/molUSER        Electrostatic Energy            =  -0.19 kcal/molUSER        Moving Ligand-Fixed Receptor    = -12.35 kcal/molUSER        Moving Ligand-Moving Receptor   =  +0.00 kcal/molUSER    (2) Final Total Internal Energy     =  -0.78 kcal/molUSER    (3) Torsional Free Energy           =  +1.49 kcal/molUSER    (4) Unbound System's Energy         =  -0.78 kcal/molUSERUSERREMARK SMILES CC(=O)N1CCN(Cc2cc(-c3ccc4nnc(C(C)C)n4c3)ccc2O)CC1REMARK SMILES IDX 9 1 10 2 11 3 24 4 25 5 26 6 8 7 7 8 2 9 4 10 5 11 29 12REMARK SMILES IDX 6 13 28 14 1 15 3 16 27 17 12 19 13 20 23 21 14 22 22 23REMARK SMILES IDX 15 24 18 25 16 26 17 27 19 28 20 29 21 30REMARK H PARENT 27 18USER                              x       y       z     vdW  Elec       q    TypeUSER                           _______ _______ _______ _____ _____    ______ ____ROOTATOM      1  C   UNL     1      32.950  44.090  17.863 -0.31 -0.00    +0.009 A  ATOM      2  C   UNL     1      33.533  44.675  16.723 -0.31 -0.01    +0.017 A  ATOM      3  C   UNL     1      34.743  45.378  16.809 -0.32 +0.01    -0.016 A  ATOM      4  C   UNL     1      35.369  45.513  18.053 -0.37 -0.01    +0.012 A  ATOM      5  C   UNL     1      34.799  44.947  19.194 -0.32 -0.01    +0.047 A  ATOM      6  C   UNL     1      33.597  44.243  19.093 -0.34 -0.03    +0.120 A  ENDROOTBRANCH   1   7ATOM      7  C   UNL     1      31.639  43.343  17.731 -0.27 -0.03    +0.124 C  BRANCH   7   8ATOM      8  N   UNL     1      31.792  41.988  17.163 -0.13 +0.11    -0.295 NA ATOM      9  C   UNL     1      30.539  38.119  18.772 -0.34 +0.06    +0.219 C  ATOM     10  N   UNL     1      30.879  39.339  18.215 -0.18 -0.03    -0.340 N  ATOM     11  C   UNL     1      32.286  39.623  17.920 -0.41 -0.02    +0.135 C  ATOM     12  C   UNL     1      29.929  40.408  17.898 -0.27 -0.00    +0.135 C  ATOM     13  C   UNL     1      32.596  41.123  18.060 -0.40 -0.02    +0.106 C  ATOM     14  C   UNL     1      30.482  41.386  16.843 -0.32 -0.03    +0.106 C  ATOM     15  C   UNL     1      29.087  37.909  19.119 -0.33 +0.03    +0.114 C  ATOM     16  O   UNL     1      31.363  37.230  18.981 -0.90 -0.10    -0.275 OA ENDBRANCH   7   8ENDBRANCH   1   7BRANCH   6  17ATOM     17  O   UNL     1      33.040  43.690  20.213 -0.71 -0.03    -0.508 OA ATOM     18  H   UNL     1      32.919  44.386  20.880 -0.14 -0.01    +0.293 HD ENDBRANCH   6  17BRANCH   3  19ATOM     19  C   UNL     1      35.334  45.975  15.602 -0.34 +0.00    -0.001 A  ATOM     20  C   UNL     1      34.665  45.974  14.299 -0.28 -0.01    +0.014 A  ATOM     21  C   UNL     1      36.556  46.541  15.687 -0.31 -0.07    +0.103 A  ATOM     22  C   UNL     1      35.228  46.526  13.207 -0.41 -0.03    +0.050 A  ATOM     23  N   UNL     1      37.133  47.106  14.549 -0.21 +0.16    -0.286 N  ATOM     24  C   UNL     1      36.509  47.127  13.311 -0.45 -0.08    +0.160 A  ATOM     25  C   UNL     1      38.343  47.741  14.350 -0.40 -0.06    +0.139 A  ATOM     26  N   UNL     1      37.277  47.741  12.439 -1.12 +0.02    -0.130 NA ATOM     27  N   UNL     1      38.422  48.132  13.091 -0.53 +0.01    -0.134 NA BRANCH  25  28ATOM     28  C   UNL     1      39.377  47.952  15.414 -0.56 -0.02    +0.052 C  ATOM     29  C   UNL     1      39.979  46.622  15.871 -0.52 -0.00    +0.016 C  ATOM     30  C   UNL     1      40.475  48.888  14.911 -0.67 -0.00    +0.016 C  ENDBRANCH  25  28ENDBRANCH   3  19TORSDOF 5TERENDMDL