MODEL        4USER    Run = 4USERUSER    Estimated Free Energy of Binding    = -11.77 kcal/mol  [=(1)+(2)+(3)-(4)]USERUSER    (1) Final Intermolecular Energy     = -13.86 kcal/molUSER        vdW + Hbond + desolv Energy     = -13.63 kcal/molUSER        Electrostatic Energy            =  -0.22 kcal/molUSER        Moving Ligand-Fixed Receptor    = -13.86 kcal/molUSER        Moving Ligand-Moving Receptor   =  +0.00 kcal/molUSER    (2) Final Total Internal Energy     =  -1.01 kcal/molUSER    (3) Torsional Free Energy           =  +2.09 kcal/molUSER    (4) Unbound System's Energy         =  -1.01 kcal/molUSERUSERREMARK SMILES Cc1cc(-c2nnc3ccc(-c4cnn(CCS(=O)(=O)N5CCN(C)CC5)c4)cn23)ccc1OREMARK SMILES IDX 12 1 13 2 14 3 15 4 28 5 11 6 5 7 6 8 30 9 7 10 29 11 8 12REMARK SMILES IDX 9 13 10 14 4 15 2 16 3 17 33 18 32 19 31 20 1 21 34 22 16 24REMARK SMILES IDX 17 25 18 26 19 27 20 28 21 29 22 30 27 31 23 32 26 33 24 34REMARK SMILES IDX 25 35REMARK H PARENT 34 23USER                              x       y       z     vdW  Elec       q    TypeUSER                           _______ _______ _______ _____ _____    ______ ____ROOTATOM      1  C   UNL     1      34.427  45.584  17.011 -0.33 -0.02    +0.021 A  ATOM      2  C   UNL     1      34.010  46.279  18.171 -0.40 -0.11    +0.143 A  ATOM      3  N   UNL     1      33.456  45.475  19.082 -0.33 +0.08    -0.181 NA ATOM      4  N   UNL     1      33.530  44.258  18.515 -0.18 +0.07    -0.271 N  ATOM      5  C   UNL     1      34.096  44.271  17.272 -0.22 -0.05    +0.117 A  ENDROOTBRANCH   1   6ATOM      6  C   UNL     1      35.045  46.100  15.823 -0.26 -0.00    +0.002 A  ATOM      7  C   UNL     1      38.110  47.643  14.373 -0.37 -0.07    +0.168 A  ATOM      8  N   UNL     1      38.127  48.049  13.115 -0.74 +0.02    -0.129 NA ATOM      9  N   UNL     1      36.867  47.094  14.643 -0.21 +0.18    -0.282 N  ATOM     10  N   UNL     1      36.931  47.718  12.525 -1.10 +0.04    -0.130 NA ATOM     11  C   UNL     1      36.303  46.596  15.820 -0.30 -0.08    +0.103 A  ATOM     12  C   UNL     1      36.184  47.144  13.439 -0.43 -0.10    +0.161 A  ATOM     13  C   UNL     1      34.871  46.611  13.408 -0.32 -0.04    +0.050 A  ATOM     14  C   UNL     1      34.330  46.111  14.535 -0.21 -0.01    +0.014 A  BRANCH   7  15ATOM     15  C   UNL     1      39.211  47.796  15.323 -0.50 -0.01    +0.020 A  ATOM     16  C   UNL     1      40.557  46.981  17.191 -0.51 +0.00    -0.009 A  ATOM     17  C   UNL     1      39.500  46.815  16.283 -0.45 -0.00    +0.019 A  ATOM     18  C   UNL     1      41.330  48.143  17.117 -0.39 -0.01    +0.118 A  ATOM     19  C   UNL     1      41.076  49.116  16.154 -0.54 -0.01    +0.047 A  ATOM     20  C   UNL     1      40.021  48.937  15.256 -0.55 -0.01    +0.016 A  ATOM     21  C   UNL     1      40.850  45.927  18.218 -0.51 -0.00    +0.048 C  BRANCH  18  22ATOM     22  O   UNL     1      42.353  48.306  18.007 -0.31 -0.02    -0.508 OA ATOM     23  H   UNL     1      43.101  47.750  17.732 -0.30 -0.03    +0.293 HD ENDBRANCH  18  22ENDBRANCH   7  15ENDBRANCH   1   6BRANCH   4  24ATOM     24  C   UNL     1      33.003  43.107  19.222 -0.35 -0.01    +0.162 C  BRANCH  24  25ATOM     25  C   UNL     1      31.939  42.407  18.403 -0.27 -0.03    +0.178 C  BRANCH  25  26ATOM     26  S   UNL     1      32.267  40.661  18.397 -0.44 -0.02    +0.216 S  ATOM     27  O   UNL     1      32.063  40.138  19.730 -0.93 -0.05    -0.212 OA ATOM     28  O   UNL     1      33.521  40.457  17.702 -0.28 +0.09    -0.212 OA BRANCH  26  29ATOM     29  N   UNL     1      31.024  40.061  17.407 -0.25 +0.02    -0.199 NA ATOM     30  C   UNL     1      30.191  41.097  16.707 -0.34 -0.03    +0.117 C  ATOM     31  C   UNL     1      30.184  38.995  18.058 -0.35 +0.03    +0.117 C  ATOM     32  C   UNL     1      28.826  40.536  16.266 -0.36 -0.00    +0.101 C  ATOM     33  C   UNL     1      28.819  39.548  18.500 -0.26 +0.02    +0.101 C  ATOM     34  N   UNL     1      27.991  40.010  17.364 -0.10 -0.06    -0.304 NA ATOM     35  C   UNL     1      27.000  40.983  17.816 -0.20 -0.00    +0.105 C  ENDBRANCH  26  29ENDBRANCH  25  26ENDBRANCH  24  25ENDBRANCH   4  24TORSDOF 7TERENDMDL