REMARK SMILES CC(=O)N1CCN(Cc2cc(-c3ccc4nnc(C(C)C)n4c3)ccc2O)CC1
REMARK SMILES IDX 9 1 10 2 11 3 24 4 25 5 26 6 8 7 7 8 2 9 4 10 5 11 29 12
REMARK SMILES IDX 6 13 28 14 1 15 3 16 27 17 12 19 13 20 23 21 14 22 22 23
REMARK SMILES IDX 15 24 18 25 16 26 17 27 19 28 20 29 21 30
REMARK H PARENT 27 18
ROOT
ATOM      1  C   UNL     1       1.139   0.116  -2.188  1.00  0.00     0.009 A 
ATOM      2  C   UNL     1      -0.002   0.759  -1.673  1.00  0.00     0.017 A 
ATOM      3  C   UNL     1      -1.291   0.315  -1.997  1.00  0.00    -0.016 A 
ATOM      4  C   UNL     1      -1.442  -0.775  -2.861  1.00  0.00     0.012 A 
ATOM      5  C   UNL     1      -0.321  -1.418  -3.388  1.00  0.00     0.047 A 
ATOM      6  C   UNL     1       0.958  -0.970  -3.051  1.00  0.00     0.120 A 
ENDROOT
BRANCH   1   7
ATOM      7  C   UNL     1       2.516   0.629  -1.819  1.00  0.00     0.124 C 
BRANCH   7   8
ATOM      8  N   UNL     1       2.747   0.689  -0.362  1.00  0.00    -0.295 NA
ATOM      9  C   UNL     1       5.931  -1.101   2.044  1.00  0.00     0.219 C 
ATOM     10  N   UNL     1       4.957  -0.469   1.292  1.00  0.00    -0.340 N 
ATOM     11  C   UNL     1       3.548  -0.795   1.527  1.00  0.00     0.135 C 
ATOM     12  C   UNL     1       5.220   0.516   0.240  1.00  0.00     0.135 C 
ATOM     13  C   UNL     1       2.721  -0.668   0.237  1.00  0.00     0.106 C 
ATOM     14  C   UNL     1       3.997   1.409  -0.043  1.00  0.00     0.106 C 
ATOM     15  C   UNL     1       7.366  -0.779   1.711  1.00  0.00     0.114 C 
ATOM     16  O   UNL     1       5.665  -1.889   2.950  1.00  0.00    -0.275 OA
ENDBRANCH   7   8
ENDBRANCH   1   7
BRANCH   6  17
ATOM     17  O   UNL     1       2.055  -1.600  -3.569  1.00  0.00    -0.508 OA
ATOM     18  H   UNL     1       1.759  -2.328  -4.140  1.00  0.00     0.293 HD
ENDBRANCH   6  17
BRANCH   3  19
ATOM     19  C   UNL     1      -2.467   1.001  -1.441  1.00  0.00    -0.001 A 
ATOM     20  C   UNL     1      -2.892   2.335  -1.871  1.00  0.00     0.014 A 
ATOM     21  C   UNL     1      -3.186   0.385  -0.479  1.00  0.00     0.103 A 
ATOM     22  C   UNL     1      -3.973   2.944  -1.345  1.00  0.00     0.050 A 
ATOM     23  N   UNL     1      -4.301   1.026   0.063  1.00  0.00    -0.286 N 
ATOM     24  C   UNL     1      -4.727   2.282  -0.341  1.00  0.00     0.160 A 
ATOM     25  C   UNL     1      -5.201   0.639   1.036  1.00  0.00     0.139 A 
ATOM     26  N   UNL     1      -5.809   2.618   0.325  1.00  0.00    -0.130 NA
ATOM     27  N   UNL     1      -6.110   1.586   1.182  1.00  0.00    -0.134 NA
BRANCH  25  28
ATOM     28  C   UNL     1      -5.142  -0.660   1.780  1.00  0.00     0.052 C 
ATOM     29  C   UNL     1      -5.692  -0.508   3.200  1.00  0.00     0.016 C 
ATOM     30  C   UNL     1      -5.913  -1.742   1.025  1.00  0.00     0.016 C 
ENDBRANCH  25  28
ENDBRANCH   3  19
TORSDOF 5
