MODEL        6USER    Run = 6USERUSER    Estimated Free Energy of Binding    =  -9.95 kcal/mol  [=(1)+(2)+(3)-(4)]USERUSER    (1) Final Intermolecular Energy     = -11.74 kcal/molUSER        vdW + Hbond + desolv Energy     = -11.47 kcal/molUSER        Electrostatic Energy            =  -0.27 kcal/molUSER        Moving Ligand-Fixed Receptor    = -11.74 kcal/molUSER        Moving Ligand-Moving Receptor   =  +0.00 kcal/molUSER    (2) Final Total Internal Energy     =  -0.97 kcal/molUSER    (3) Torsional Free Energy           =  +1.79 kcal/molUSER    (4) Unbound System's Energy         =  -0.97 kcal/molUSERUSERREMARK SMILES CC(C)c1nnc2ccc(-c3ccc(O)c(CN4CCN(CF)CC4)c3)cn12REMARK SMILES IDX 11 1 12 2 13 3 14 4 16 5 26 6 10 7 4 8 5 9 28 10 6 11 27 12REMARK SMILES IDX 7 13 8 14 9 15 2 16 1 17 3 18 17 19 18 20 19 21 25 22 20 23REMARK SMILES IDX 24 24 21 25 22 26 23 27 15 28REMARK H PARENT 15 29USER                              x       y       z     vdW  Elec       q    TypeUSER                           _______ _______ _______ _____ _____    ______ ____ROOTATOM      1  C   UNL     1      35.335  46.078  15.480 -0.32 +0.01    -0.016 A  ATOM      2  C   UNL     1      34.858  45.935  14.172 -0.28 -0.01    +0.012 A  ATOM      3  C   UNL     1      35.473  46.617  13.120 -0.51 -0.03    +0.047 A  ATOM      4  C   UNL     1      36.568  47.442  13.374 -0.49 -0.06    +0.120 A  ATOM      5  C   UNL     1      37.072  47.597  14.670 -0.47 -0.01    +0.009 A  ATOM      6  C   UNL     1      36.438  46.906  15.720 -0.37 -0.01    +0.017 A  ENDROOTBRANCH   1   7ATOM      7  C   UNL     1      34.700  45.357  16.594 -0.32 +0.00    -0.001 A  ATOM      8  C   UNL     1      35.437  43.387  19.647 -0.32 -0.01    +0.139 A  ATOM      9  N   UNL     1      34.459  42.918  20.401 -0.55 -0.02    -0.134 NA ATOM     10  N   UNL     1      34.893  44.073  18.579 -0.14 +0.07    -0.286 N  ATOM     11  N   UNL     1      33.259  43.270  19.830 -0.88 -0.01    -0.130 NA ATOM     12  C   UNL     1      35.482  44.766  17.521 -0.25 -0.04    +0.103 A  ATOM     13  C   UNL     1      33.519  43.956  18.741 -0.26 -0.04    +0.160 A  ATOM     14  C   UNL     1      32.686  44.566  17.766 -0.28 -0.02    +0.050 A  ATOM     15  C   UNL     1      33.247  45.233  16.739 -0.31 -0.01    +0.014 A  BRANCH   8  16ATOM     16  C   UNL     1      36.905  43.232  19.897 -0.37 -0.00    +0.052 C  ATOM     17  C   UNL     1      37.166  42.541  21.237 -0.46 +0.00    +0.016 C  ATOM     18  C   UNL     1      37.599  44.594  19.858 -0.38 -0.00    +0.016 C  ENDBRANCH   8  16ENDBRANCH   1   7BRANCH   5  19ATOM     19  C   UNL     1      38.256  48.495  14.975 -0.51 -0.07    +0.124 C  BRANCH  19  20ATOM     20  N   UNL     1      39.536  47.959  14.460 -0.27 +0.08    -0.296 NA ATOM     21  C   UNL     1      40.678  48.776  14.920 -0.60 -0.02    +0.100 C  ATOM     22  C   UNL     1      39.732  46.560  14.904 -0.43 -0.02    +0.100 C  ATOM     23  C   UNL     1      40.972  48.719  16.443 -0.55 -0.01    +0.102 C  ATOM     24  C   UNL     1      40.621  46.342  16.159 -0.37 -0.01    +0.102 C  ATOM     25  N   UNL     1      40.550  47.465  17.096 -0.32 +0.04    -0.274 NA BRANCH  25  26ATOM     26  C   UNL     1      41.321  47.216  18.300 -0.35 -0.02    +0.303 C  ATOM     27  F   UNL     1      42.320  48.134  18.379 -0.20 -0.00    -0.234 F  ENDBRANCH  25  26ENDBRANCH  19  20ENDBRANCH   5  19BRANCH   4  28ATOM     28  O   UNL     1      37.165  48.112  12.344 -0.78 +0.06    -0.508 OA ATOM     29  H   UNL     1      36.528  48.220  11.619 -0.11 -0.13    +0.293 HD ENDBRANCH   4  28TORSDOF 6TERENDMDL