
     RDKit          3D

 36 37  0  0  0  0  0  0  0  0999 V2000
    0.1933    2.4991   -2.7046 C   0  0  0  0  0  0  0  0  0  0  0  0
    0.3409    2.6089   -1.1940 C   0  0  0  0  0  0  0  0  0  0  0  0
    0.5420    1.2547   -0.5432 C   0  0  0  0  0  0  0  0  0  0  0  0
    1.8757    0.8458   -0.3086 C   0  0  0  0  0  0  0  0  0  0  0  0
    2.1646   -0.3753    0.2948 C   0  0  0  0  0  0  0  0  0  0  0  0
    3.4655   -0.8350    0.5585 N   0  0  0  0  0  0  0  0  0  0  0  0
    4.6657   -0.2058    0.2805 C   0  0  0  0  0  0  0  0  0  0  0  0
    4.8472    0.8765   -0.2545 O   0  0  0  0  0  0  0  0  0  0  0  0
    5.8908   -1.0510    0.7379 C   0  0  0  0  0  0  0  0  0  0  0  0
    7.0580   -0.7406    0.6241 O   0  0  0  0  0  0  0  0  0  0  0  0
    5.5218   -2.2180    1.3011 O   0  0  0  0  0  0  0  0  0  0  0  0
    1.1062   -1.1991    0.6681 C   0  0  0  0  0  0  0  0  0  0  0  0
   -0.2182   -0.8106    0.4326 C   0  0  0  0  0  0  0  0  0  0  0  0
   -0.5346    0.4055   -0.1891 C   0  0  0  0  0  0  0  0  0  0  0  0
   -1.8646    0.8168   -0.4141 N   0  0  0  0  0  0  0  0  0  0  0  0
   -3.0295    0.2500   -0.0195 C   0  0  0  0  0  0  0  0  0  0  0  0
   -3.2028   -0.7758    0.7849 N   0  0  0  0  0  0  0  0  0  0  0  0
   -4.5462   -1.0568    0.9643 C   0  0  0  0  0  0  0  0  0  0  0  0
   -4.9199   -2.1913    1.8450 C   0  0  0  0  0  0  0  0  0  0  0  0
   -5.4037   -0.2233    0.2781 C   0  0  0  0  0  0  0  0  0  0  0  0
   -4.5099    0.9372   -0.6030 S   0  0  0  0  0  0  0  0  0  0  0  0
    0.0577    3.4926   -3.1437 H   0  0  0  0  0  0  0  0  0  0  0  0
    1.0831    2.0477   -3.1565 H   0  0  0  0  0  0  0  0  0  0  0  0
   -0.6698    1.8858   -2.9828 H   0  0  0  0  0  0  0  0  0  0  0  0
    1.1936    3.2603   -0.9635 H   0  0  0  0  0  0  0  0  0  0  0  0
   -0.5273    3.1166   -0.7587 H   0  0  0  0  0  0  0  0  0  0  0  0
    2.6767    1.5162   -0.6087 H   0  0  0  0  0  0  0  0  0  0  0  0
    3.5603   -1.7414    1.0093 H   0  0  0  0  0  0  0  0  0  0  0  0
    6.3823   -2.6305    1.5339 H   0  0  0  0  0  0  0  0  0  0  0  0
    1.2828   -2.1583    1.1471 H   0  0  0  0  0  0  0  0  0  0  0  0
   -1.0003   -1.4992    0.7392 H   0  0  0  0  0  0  0  0  0  0  0  0
   -1.9589    1.5991   -1.0452 H   0  0  0  0  0  0  0  0  0  0  0  0
   -4.6400   -3.1400    1.3767 H   0  0  0  0  0  0  0  0  0  0  0  0
   -5.9968   -2.2086    2.0395 H   0  0  0  0  0  0  0  0  0  0  0  0
   -4.4020   -2.1134    2.8060 H   0  0  0  0  0  0  0  0  0  0  0  0
   -6.4837   -0.2389    0.2550 H   0  0  0  0  0  0  0  0  0  0  0  0
  1  2  1  0
  2  3  1  0
  3  4  2  0
  4  5  1  0
  5  6  1  0
  6  7  1  0
  7  8  2  0
  7  9  1  0
  9 10  2  0
  9 11  1  0
  5 12  2  0
 12 13  1  0
 13 14  2  0
 14 15  1  0
 15 16  1  0
 16 17  2  0
 17 18  1  0
 18 19  1  0
 18 20  2  0
 20 21  1  0
 14  3  1  0
 21 16  1  0
  1 22  1  0
  1 23  1  0
  1 24  1  0
  2 25  1  0
  2 26  1  0
  4 27  1  0
  6 28  1  0
 11 29  1  0
 12 30  1  0
 13 31  1  0
 15 32  1  0
 19 33  1  0
 19 34  1  0
 19 35  1  0
 20 36  1  0
M  END
$$$$
