
     RDKit          3D

 50 53  0  0  0  0  0  0  0  0999 V2000
    2.9760   -0.3043   -1.4949 C   0  0  0  0  0  0  0  0  0  0  0  0
    2.4159    0.6617   -0.4402 C   0  0  0  0  0  0  0  0  0  0  0  0
    0.8581    0.6685   -0.4890 C   0  0  0  0  0  0  0  0  0  0  0  0
    0.3127   -0.6305   -0.0644 N   0  0  0  0  0  0  0  0  0  0  0  0
   -1.0884   -0.7185   -0.0735 C   0  0  0  0  0  0  0  0  0  0  0  0
   -1.7894    0.4442   -0.0667 N   0  0  0  0  0  0  0  0  0  0  0  0
   -3.1482    0.4203   -0.0420 C   0  0  0  0  0  0  0  0  0  0  0  0
   -3.8319    1.7354   -0.0270 C   0  0  0  0  0  0  0  0  0  0  0  0
   -3.1279    2.9285   -0.0665 C   0  0  0  0  0  0  0  0  0  0  0  0
   -3.8675    4.0882   -0.0470 C   0  0  0  0  0  0  0  0  0  0  0  0
   -5.2093    4.1111    0.0077 N   0  0  0  0  0  0  0  0  0  0  0  0
   -5.8045    2.9121    0.0424 C   0  0  0  0  0  0  0  0  0  0  0  0
   -5.1881    1.7209    0.0285 N   0  0  0  0  0  0  0  0  0  0  0  0
   -3.8440   -0.7799   -0.0259 C   0  0  0  0  0  0  0  0  0  0  0  0
   -3.1315   -1.9733   -0.0555 C   0  0  0  0  0  0  0  0  0  0  0  0
   -1.7289   -1.9796   -0.1013 C   0  0  0  0  0  0  0  0  0  0  0  0
   -0.9930   -3.3061   -0.1778 C   0  0  0  0  0  0  0  0  0  0  0  0
   -1.3730   -4.3265   -1.2306 C   0  0  0  0  0  0  0  0  0  0  0  0
   -0.0695   -3.5996   -1.3390 C   0  0  0  0  0  0  0  0  0  0  0  0
    0.9565   -1.2130    1.1288 C   0  0  0  0  0  0  0  0  0  0  0  0
    1.9499   -0.2304    1.7903 C   0  0  0  0  0  0  0  0  0  0  0  0
    3.0023    0.2843    0.8782 N   0  0  0  0  0  0  0  0  0  0  0  0
    3.7123    1.4039    1.5366 C   0  0  0  0  0  0  0  0  0  0  0  0
    5.1369    1.6412    1.0083 C   0  0  0  0  0  0  0  0  0  0  0  0
    5.1484    2.2897   -0.2569 O   0  0  0  0  0  0  0  0  0  0  0  0
    4.0703   -0.2788   -1.5180 H   0  0  0  0  0  0  0  0  0  0  0  0
    2.6198   -0.0297   -2.4938 H   0  0  0  0  0  0  0  0  0  0  0  0
    2.6765   -1.3408   -1.3069 H   0  0  0  0  0  0  0  0  0  0  0  0
    2.7314    1.6712   -0.7287 H   0  0  0  0  0  0  0  0  0  0  0  0
    0.4968    1.4789    0.1590 H   0  0  0  0  0  0  0  0  0  0  0  0
    0.5322    0.8920   -1.5131 H   0  0  0  0  0  0  0  0  0  0  0  0
   -2.0467    2.9554   -0.1112 H   0  0  0  0  0  0  0  0  0  0  0  0
   -3.3848    5.0606   -0.0760 H   0  0  0  0  0  0  0  0  0  0  0  0
   -6.8881    2.9036    0.0861 H   0  0  0  0  0  0  0  0  0  0  0  0
   -4.9292   -0.7964   -0.0006 H   0  0  0  0  0  0  0  0  0  0  0  0
   -3.6760   -2.9147   -0.0562 H   0  0  0  0  0  0  0  0  0  0  0  0
   -0.6949   -3.7173    0.7845 H   0  0  0  0  0  0  0  0  0  0  0  0
   -1.3489   -5.3736   -0.9515 H   0  0  0  0  0  0  0  0  0  0  0  0
   -2.1400   -4.0810   -1.9565 H   0  0  0  0  0  0  0  0  0  0  0  0
    0.0358   -2.8516   -2.1174 H   0  0  0  0  0  0  0  0  0  0  0  0
    0.8433   -4.1450   -1.1303 H   0  0  0  0  0  0  0  0  0  0  0  0
    1.4989   -2.1164    0.8259 H   0  0  0  0  0  0  0  0  0  0  0  0
    0.2242   -1.5113    1.8902 H   0  0  0  0  0  0  0  0  0  0  0  0
    2.4329   -0.7472    2.6286 H   0  0  0  0  0  0  0  0  0  0  0  0
    1.3767    0.6049    2.2164 H   0  0  0  0  0  0  0  0  0  0  0  0
    3.1198    2.3255    1.4750 H   0  0  0  0  0  0  0  0  0  0  0  0
    3.8284    1.1654    2.6021 H   0  0  0  0  0  0  0  0  0  0  0  0
    5.6702    2.2956    1.7057 H   0  0  0  0  0  0  0  0  0  0  0  0
    5.7026    0.7054    0.9395 H   0  0  0  0  0  0  0  0  0  0  0  0
    4.9749    1.5971   -0.9161 H   0  0  0  0  0  0  0  0  0  0  0  0
  1  2  1  0
  2  3  1  0
  3  4  1  0
  4  5  1  0
  5  6  2  0
  6  7  1  0
  7  8  1  0
  8  9  2  0
  9 10  1  0
 10 11  2  0
 11 12  1  0
 12 13  2  0
  7 14  2  0
 14 15  1  0
 15 16  2  0
 16 17  1  0
 17 18  1  0
 18 19  1  0
  4 20  1  0
 20 21  1  0
 21 22  1  0
 22 23  1  0
 23 24  1  0
 24 25  1  0
 22  2  1  0
 16  5  1  0
 19 17  1  0
 13  8  1  0
  1 26  1  0
  1 27  1  0
  1 28  1  0
  2 29  1  0
  3 30  1  0
  3 31  1  0
  9 32  1  0
 10 33  1  0
 12 34  1  0
 14 35  1  0
 15 36  1  0
 17 37  1  0
 18 38  1  0
 18 39  1  0
 19 40  1  0
 19 41  1  0
 20 42  1  0
 20 43  1  0
 21 44  1  0
 21 45  1  0
 23 46  1  0
 23 47  1  0
 24 48  1  0
 24 49  1  0
 25 50  1  0
M  END
$$$$
