
     RDKit          3D

 29 31  0  0  0  0  0  0  0  0999 V2000
   -2.3879    2.3705   -0.7156 C   0  0  0  0  0  0  0  0  0  0  0  0
   -1.4160    1.3354   -0.6814 O   0  0  0  0  0  0  0  0  0  0  0  0
   -1.7591    0.1486   -0.0800 C   0  0  0  0  0  0  0  0  0  0  0  0
   -3.0321   -0.1236    0.4368 C   0  0  0  0  0  0  0  0  0  0  0  0
   -3.3058   -1.3530    1.0373 C   0  0  0  0  0  0  0  0  0  0  0  0
   -2.3118   -2.3234    1.1292 C   0  0  0  0  0  0  0  0  0  0  0  0
   -1.0346   -2.0695    0.6163 C   0  0  0  0  0  0  0  0  0  0  0  0
    0.3810   -3.6172    0.8288 I   0  0  0  0  0  0  0  0  0  0  0  0
   -0.7456   -0.8354    0.0026 C   0  0  0  0  0  0  0  0  0  0  0  0
    0.5780   -0.5430   -0.5297 C   0  0  0  0  0  0  0  0  0  0  0  0
    0.9387   -0.8093   -1.8351 C   0  0  0  0  0  0  0  0  0  0  0  0
    2.2384   -0.4084   -2.0007 N   0  0  0  0  0  0  0  0  0  0  0  0
    2.7277    0.1191   -0.8278 C   0  0  0  0  0  0  0  0  0  0  0  0
    3.9763    0.6468   -0.5253 C   0  0  0  0  0  0  0  0  0  0  0  0
    4.2112    1.1127    0.7226 N   0  0  0  0  0  0  0  0  0  0  0  0
    3.2205    1.0517    1.6402 C   0  0  0  0  0  0  0  0  0  0  0  0
    1.9533    0.5392    1.4069 C   0  0  0  0  0  0  0  0  0  0  0  0
    1.7029    0.0528    0.1161 C   0  0  0  0  0  0  0  0  0  0  0  0
   -1.9308    3.2424   -1.1934 H   0  0  0  0  0  0  0  0  0  0  0  0
   -2.6886    2.6653    0.2952 H   0  0  0  0  0  0  0  0  0  0  0  0
   -3.2538    2.0778   -1.3182 H   0  0  0  0  0  0  0  0  0  0  0  0
   -3.8371    0.6023    0.3864 H   0  0  0  0  0  0  0  0  0  0  0  0
   -4.2977   -1.5537    1.4355 H   0  0  0  0  0  0  0  0  0  0  0  0
   -2.5460   -3.2735    1.6036 H   0  0  0  0  0  0  0  0  0  0  0  0
    0.3840   -1.2449   -2.6555 H   0  0  0  0  0  0  0  0  0  0  0  0
    2.7637   -0.4836   -2.8607 H   0  0  0  0  0  0  0  0  0  0  0  0
    4.7899    0.7115   -1.2367 H   0  0  0  0  0  0  0  0  0  0  0  0
    3.4817    1.4447    2.6191 H   0  0  0  0  0  0  0  0  0  0  0  0
    1.1997    0.5178    2.1838 H   0  0  0  0  0  0  0  0  0  0  0  0
  1  2  1  0
  2  3  1  0
  3  4  2  0
  4  5  1  0
  5  6  2  0
  6  7  1  0
  7  8  1  0
  7  9  2  0
  9 10  1  0
 10 11  2  0
 11 12  1  0
 12 13  1  0
 13 14  2  0
 14 15  1  0
 15 16  2  0
 16 17  1  0
 17 18  2  0
  9  3  1  0
 18 10  1  0
 18 13  1  0
  1 19  1  0
  1 20  1  0
  1 21  1  0
  4 22  1  0
  5 23  1  0
  6 24  1  0
 11 25  1  0
 12 26  1  0
 14 27  1  0
 16 28  1  0
 17 29  1  0
M  END
$$$$
