REMARK SMILES C[C@@H]1N=C(CCc2ccc(C(=O)N3CCN(CC(N)=O)CC3)cc2)c2ccc(CO)c(F)c2N1C
REMARK SMILES IDX 6 1 5 2 4 3 2 4 3 5 34 6 33 7 25 8 31 9 26 10 28 11 27 12
REMARK SMILES IDX 1 13 35 14 32 15 29 16 30 17 7 19 8 20 24 21 9 22 23 23
REMARK SMILES IDX 10 24 11 25 13 26 14 27 22 28 15 29 21 30 16 31 12 32 17 33
REMARK SMILES IDX 18 34 19 35 20 36
REMARK H PARENT 30 18 19 37 19 38
ROOT
ATOM      1  C   UNL     1      -1.674   0.747  -1.050  1.00  0.00     0.042 C 
ENDROOT
BRANCH   1   2
ATOM      2  C   UNL     1      -1.938  -0.445  -0.132  1.00  0.00     0.061 C 
BRANCH   2   3
ATOM      3  C   UNL     1      -3.375  -0.913  -0.291  1.00  0.00     0.047 C 
ATOM      4  C   UNL     1      -4.936  -2.371  -1.265  1.00  0.00     0.197 C 
ATOM      5  N   UNL     1      -3.559  -1.923  -1.071  1.00  0.00    -0.265 NA
ATOM      6  N   UNL     1      -5.976  -1.361  -1.107  1.00  0.00    -0.350 N 
ATOM      7  C   UNL     1      -5.787  -0.444  -0.071  1.00  0.00     0.084 A 
ATOM      8  C   UNL     1      -4.481  -0.188   0.393  1.00  0.00     0.022 A 
ATOM      9  C   UNL     1      -6.824   0.302   0.528  1.00  0.00     0.152 A 
ATOM     10  C   UNL     1      -4.238   0.732   1.425  1.00  0.00     0.013 A 
ATOM     11  C   UNL     1      -6.597   1.231   1.555  1.00  0.00     0.015 A 
ATOM     12  C   UNL     1      -5.292   1.435   2.003  1.00  0.00     0.010 A 
ATOM     13  C   UNL     1      -5.182  -3.573  -0.348  1.00  0.00     0.057 C 
ATOM     14  C   UNL     1      -7.310  -1.694  -1.590  1.00  0.00     0.146 C 
ATOM     15  F   UNL     1      -8.095   0.136   0.120  1.00  0.00    -0.204 F 
BRANCH  11  16
ATOM     16  C   UNL     1      -7.736   2.026   2.125  1.00  0.00     0.194 C 
BRANCH  16  17
ATOM     17  O   UNL     1      -7.737   1.915   3.546  1.00  0.00    -0.392 OA
ATOM     18  H   UNL     1      -8.598   2.251   3.845  1.00  0.00     0.211 HD
ENDBRANCH  16  17
ENDBRANCH  11  16
ENDBRANCH   2   3
ENDBRANCH   1   2
BRANCH   1  19
ATOM     19  C   UNL     1      -0.215   1.128  -1.076  1.00  0.00    -0.048 A 
ATOM     20  C   UNL     1       0.698   0.329  -1.778  1.00  0.00     0.004 A 
ATOM     21  C   UNL     1       0.243   2.277  -0.415  1.00  0.00     0.004 A 
ATOM     22  C   UNL     1       2.051   0.665  -1.812  1.00  0.00     0.014 A 
ATOM     23  C   UNL     1       1.597   2.625  -0.457  1.00  0.00     0.014 A 
ATOM     24  C   UNL     1       2.498   1.806  -1.139  1.00  0.00     0.040 A 
BRANCH  24  25
ATOM     25  C   UNL     1       3.925   2.179  -1.212  1.00  0.00     0.253 C 
ATOM     26  N   UNL     1       4.859   1.265  -0.745  1.00  0.00    -0.336 N 
ATOM     27  C   UNL     1       4.568   0.186   0.209  1.00  0.00     0.135 C 
ATOM     28  C   UNL     1       6.268   1.475  -1.069  1.00  0.00     0.135 C 
ATOM     29  C   UNL     1       5.757  -0.040   1.165  1.00  0.00     0.106 C 
ATOM     30  C   UNL     1       7.090   0.185  -0.882  1.00  0.00     0.106 C 
ATOM     31  N   UNL     1       7.011  -0.415   0.475  1.00  0.00    -0.291 NA
ATOM     32  O   UNL     1       4.222   3.258  -1.718  1.00  0.00    -0.269 OA
BRANCH  31  33
ATOM     33  C   UNL     1       8.186  -0.038   1.293  1.00  0.00     0.184 C 
BRANCH  33  34
ATOM     34  C   UNL     1       9.408  -0.838   0.832  1.00  0.00     0.231 C 
ATOM     35  N   UNL     1       9.460  -2.129   1.293  1.00  0.00    -0.369 N 
ATOM     36  O   UNL     1      10.277  -0.392   0.086  1.00  0.00    -0.274 OA
ATOM     37  H   UNL     1      10.158  -2.720   0.861  1.00  0.00     0.159 HD
ATOM     38  H   UNL     1       8.610  -2.575   1.625  1.00  0.00     0.159 HD
ENDBRANCH  33  34
ENDBRANCH  31  33
ENDBRANCH  24  25
ENDBRANCH   1  19
TORSDOF 8
