REMARK SMILES Cc1nc([C@@H]2c3ccc(C[C@H]4CCCCN4C)cc3CN(S(=O)(=O)c3ccc(F)cc3F)c3ccccc32)no1
REMARK SMILES IDX 5 1 6 2 7 3 8 4 9 5 18 6 19 7 20 8 21 9 33 10 34 11 35 12
REMARK SMILES IDX 36 13 37 14 38 15 4 16 2 17 3 18 40 19 39 20 1 21 22 22
REMARK SMILES IDX 23 23 24 24 25 25 26 26 31 27 27 28 30 29 28 30 32 31 29 32
REMARK SMILES IDX 10 33 11 34 12 35 16 36 13 37 15 38 14 39 17 40
REMARK H PARENT
ROOT
ATOM      1  C   UNL     1       1.826   2.223  -0.157  1.00  0.00     0.124 C 
ATOM      2  C   UNL     1       0.440   1.723  -0.581  1.00  0.00    -0.028 A 
ATOM      3  C   UNL     1      -0.678   2.576  -0.712  1.00  0.00     0.005 A 
ATOM      4  C   UNL     1      -1.932   2.108  -1.120  1.00  0.00     0.004 A 
ATOM      5  C   UNL     1      -2.116   0.766  -1.434  1.00  0.00    -0.046 A 
ATOM      6  C   UNL     1      -1.023  -0.095  -1.329  1.00  0.00     0.009 A 
ATOM      7  C   UNL     1       0.255   0.354  -0.913  1.00  0.00    -0.023 A 
ATOM      8  C   UNL     1       1.314  -0.741  -0.838  1.00  0.00     0.171 C 
ATOM      9  N   UNL     1       2.694  -0.364  -0.490  1.00  0.00    -0.262 N 
ATOM     10  C   UNL     1       2.928   0.197   0.806  1.00  0.00     0.056 A 
ATOM     11  C   UNL     1       3.533  -0.538   1.831  1.00  0.00     0.027 A 
ATOM     12  C   UNL     1       3.621  -0.006   3.115  1.00  0.00     0.002 A 
ATOM     13  C   UNL     1       3.083   1.246   3.381  1.00  0.00     0.000 A 
ATOM     14  C   UNL     1       2.480   1.984   2.360  1.00  0.00     0.007 A 
ATOM     15  C   UNL     1       2.416   1.488   1.046  1.00  0.00    -0.008 A 
ENDROOT
BRANCH   1  16
ATOM     16  C   UNL     1       1.870   3.711   0.073  1.00  0.00     0.183 A 
ATOM     17  C   UNL     1       1.503   5.641   0.829  1.00  0.00     0.223 A 
ATOM     18  N   UNL     1       1.117   4.400   1.010  1.00  0.00    -0.195 NA
ATOM     19  O   UNL     1       2.436   5.779  -0.152  1.00  0.00    -0.340 OA
ATOM     20  N   UNL     1       2.677   4.504  -0.655  1.00  0.00    -0.061 NA
ATOM     21  C   UNL     1       1.081   6.871   1.519  1.00  0.00     0.114 C 
ENDBRANCH   1  16
BRANCH   9  22
ATOM     22  S   UNL     1       3.981  -0.905  -1.442  1.00  0.00     0.267 S 
ATOM     23  O   UNL     1       3.540  -0.858  -2.821  1.00  0.00    -0.201 OA
ATOM     24  O   UNL     1       5.178  -0.217  -1.006  1.00  0.00    -0.201 OA
BRANCH  22  25
ATOM     25  C   UNL     1       4.231  -2.623  -1.084  1.00  0.00     0.123 A 
ATOM     26  C   UNL     1       3.382  -3.383  -0.272  1.00  0.00     0.028 A 
ATOM     27  C   UNL     1       5.340  -3.225  -1.679  1.00  0.00     0.146 A 
ATOM     28  C   UNL     1       3.662  -4.736  -0.059  1.00  0.00     0.041 A 
ATOM     29  C   UNL     1       5.620  -4.572  -1.470  1.00  0.00     0.080 A 
ATOM     30  C   UNL     1       4.776  -5.317  -0.659  1.00  0.00     0.126 A 
ATOM     31  F   UNL     1       6.162  -2.529  -2.475  1.00  0.00    -0.205 F 
ATOM     32  F   UNL     1       5.034  -6.615  -0.450  1.00  0.00    -0.207 F 
ENDBRANCH  22  25
ENDBRANCH   9  22
BRANCH   5  33
ATOM     33  C   UNL     1      -3.470   0.244  -1.855  1.00  0.00     0.054 C 
BRANCH  33  34
ATOM     34  C   UNL     1      -4.372  -0.191  -0.674  1.00  0.00     0.060 C 
ATOM     35  C   UNL     1      -5.824  -0.336  -1.180  1.00  0.00     0.019 C 
ATOM     36  N   UNL     1      -3.842  -1.430  -0.047  1.00  0.00    -0.303 NA
ATOM     37  C   UNL     1      -6.718  -0.939  -0.103  1.00  0.00     0.003 C 
ATOM     38  C   UNL     1      -4.763  -2.568  -0.118  1.00  0.00     0.084 C 
ATOM     39  C   UNL     1      -6.167  -2.268   0.409  1.00  0.00     0.016 C 
ATOM     40  C   UNL     1      -3.395  -1.181   1.325  1.00  0.00     0.105 C 
ENDBRANCH  33  34
ENDBRANCH   5  33
TORSDOF 5
