MODEL        6USER    Run = 6USERUSER    Estimated Free Energy of Binding    = -11.30 kcal/mol  [=(1)+(2)+(3)-(4)]USERUSER    (1) Final Intermolecular Energy     = -12.80 kcal/molUSER        vdW + Hbond + desolv Energy     = -12.76 kcal/molUSER        Electrostatic Energy            =  -0.04 kcal/molUSER        Moving Ligand-Fixed Receptor    = -12.80 kcal/molUSER        Moving Ligand-Moving Receptor   =  +0.00 kcal/molUSER    (2) Final Total Internal Energy     =  -2.07 kcal/molUSER    (3) Torsional Free Energy           =  +1.49 kcal/molUSER    (4) Unbound System's Energy         =  -2.07 kcal/molUSERUSERREMARK SMILES Cc1nc([C@@H]2c3ccc(C[C@H]4CCCCN4C)cc3CN(S(=O)(=O)c3ccc(F)cc3F)c3ccccc32)no1REMARK SMILES IDX 5 1 6 2 7 3 8 4 9 5 18 6 19 7 20 8 21 9 33 10 34 11 35 12REMARK SMILES IDX 36 13 37 14 38 15 4 16 2 17 3 18 40 19 39 20 1 21 22 22REMARK SMILES IDX 23 23 24 24 25 25 26 26 31 27 27 28 30 29 28 30 32 31 29 32REMARK SMILES IDX 10 33 11 34 12 35 16 36 13 37 15 38 14 39 17 40REMARK H PARENTUSER                              x       y       z     vdW  Elec       q    TypeUSER                           _______ _______ _______ _____ _____    ______ ____ROOTATOM      1  C   UNL     1      40.093  45.126  21.890 -0.26 +0.01    +0.124 C  ATOM      2  C   UNL     1      40.052  45.555  20.418 -0.34 -0.00    -0.028 A  ATOM      3  C   UNL     1      39.009  45.188  19.539 -0.39 -0.00    +0.005 A  ATOM      4  C   UNL     1      38.975  45.605  18.204 -0.41 -0.00    +0.004 A  ATOM      5  C   UNL     1      39.977  46.424  17.695 -0.44 +0.01    -0.046 A  ATOM      6  C   UNL     1      41.010  46.815  18.547 -0.48 -0.00    +0.009 A  ATOM      7  C   UNL     1      41.069  46.402  19.902 -0.26 -0.00    -0.023 A  ATOM      8  C   UNL     1      42.288  46.912  20.664 -0.26 +0.03    +0.171 C  ATOM      9  N   UNL     1      42.402  46.603  22.099 -0.15 -0.05    -0.262 N  ATOM     10  C   UNL     1      42.519  45.228  22.479 -0.18 +0.01    +0.056 A  ATOM     11  C   UNL     1      43.735  44.679  22.901 -0.16 +0.01    +0.027 A  ATOM     12  C   UNL     1      43.841  43.310  23.133 -0.24 +0.00    +0.002 A  ATOM     13  C   UNL     1      42.743  42.487  22.919 -0.21 -0.00    +0.000 A  ATOM     14  C   UNL     1      41.527  43.031  22.500 -0.33 +0.00    +0.007 A  ATOM     15  C   UNL     1      41.382  44.415  22.299 -0.24 -0.00    -0.008 A  ENDROOTBRANCH   1  16ATOM     16  C   UNL     1      38.897  44.306  22.297 -0.20 +0.01    +0.183 A  ATOM     17  C   UNL     1      37.460  42.773  22.429 -0.26 +0.02    +0.223 A  ATOM     18  N   UNL     1      38.550  43.075  21.763 -0.13 -0.01    -0.195 NA ATOM     19  O   UNL     1      37.099  43.723  23.334 -0.22 -0.04    -0.340 OA ATOM     20  N   UNL     1      38.046  44.738  23.245 -0.31 -0.01    -0.061 NA ATOM     21  C   UNL     1      36.598  41.583  22.338 -0.53 +0.01    +0.114 C  ENDBRANCH   1  16BRANCH   9  22ATOM     22  S   UNL     1      42.740  47.836  23.203 -0.32 +0.05    +0.267 S  ATOM     23  O   UNL     1      43.768  47.339  24.095 -0.12 -0.04    -0.201 OA ATOM     24  O   UNL     1      42.914  49.066  22.458 -0.79 -0.05    -0.201 OA BRANCH  22  25ATOM     25  C   UNL     1      41.303  48.062  24.216 -0.25 +0.02    +0.123 A  ATOM     26  C   UNL     1      40.035  47.566  23.894 -0.28 +0.00    +0.028 A  ATOM     27  C   UNL     1      41.489  48.765  25.407 -0.25 +0.02    +0.146 A  ATOM     28  C   UNL     1      38.966  47.790  24.766 -0.33 +0.00    +0.041 A  ATOM     29  C   UNL     1      40.427  48.988  26.278 -0.23 +0.01    +0.080 A  ATOM     30  C   UNL     1      39.171  48.497  25.948 -0.22 +0.01    +0.126 A  ATOM     31  F   UNL     1      42.694  49.237  25.752 -0.11 -0.02    -0.205 F  ATOM     32  F   UNL     1      38.141  48.704  26.778 -0.05 -0.01    -0.207 F  ENDBRANCH  22  25ENDBRANCH   9  22BRANCH   5  33ATOM     33  C   UNL     1      39.964  46.863  16.249 -0.51 -0.01    +0.054 C  BRANCH  33  34ATOM     34  C   UNL     1      38.553  47.199  15.706 -0.46 -0.02    +0.060 C  ATOM     35  C   UNL     1      38.617  48.541  14.944 -0.58 -0.01    +0.019 C  ATOM     36  N   UNL     1      38.036  46.077  14.879 -0.17 +0.11    -0.303 NA ATOM     37  C   UNL     1      37.299  48.826  14.234 -0.60 -0.00    +0.003 C  ATOM     38  C   UNL     1      37.780  46.443  13.483 -0.45 -0.03    +0.084 C  ATOM     39  C   UNL     1      36.893  47.677  13.314 -0.66 -0.01    +0.016 C  ATOM     40  C   UNL     1      36.864  45.457  15.500 -0.35 -0.05    +0.105 C  ENDBRANCH  33  34ENDBRANCH   5  33TORSDOF 5TERENDMDL