MODEL        7USER    Run = 7USERUSER    Estimated Free Energy of Binding    = -11.05 kcal/mol  [=(1)+(2)+(3)-(4)]USERUSER    (1) Final Intermolecular Energy     = -12.84 kcal/molUSER        vdW + Hbond + desolv Energy     = -12.81 kcal/molUSER        Electrostatic Energy            =  -0.03 kcal/molUSER        Moving Ligand-Fixed Receptor    = -12.84 kcal/molUSER        Moving Ligand-Moving Receptor   =  +0.00 kcal/molUSER    (2) Final Total Internal Energy     =  -0.97 kcal/molUSER    (3) Torsional Free Energy           =  +1.79 kcal/molUSER    (4) Unbound System's Energy         =  -0.97 kcal/molUSERUSERREMARK SMILES Cn1c(CCc2ccc(C(=O)N3CCN(S(=O)(=O)c4ccc(F)cc4)CC3)cc2)nc2ccccc21REMARK SMILES IDX 6 1 7 2 8 3 9 4 28 5 29 6 5 7 4 8 3 9 2 10 36 11 30 12 35 13REMARK SMILES IDX 31 14 34 15 32 16 33 17 1 18 10 19 12 20 13 21 27 22 14 23REMARK SMILES IDX 26 24 15 25 11 26 16 27 17 28 18 29 19 30 20 31 25 32 21 33REMARK SMILES IDX 24 34 22 35 23 36REMARK H PARENTUSER                              x       y       z     vdW  Elec       q    TypeUSER                           _______ _______ _______ _____ _____    ______ ____ROOTATOM      1  C   UNL     1      37.245  42.818  23.396 -0.37 -0.00    -0.048 A  ATOM      2  C   UNL     1      36.808  41.779  22.563 -0.53 +0.00    +0.004 A  ATOM      3  C   UNL     1      36.465  42.036  21.234 -0.51 +0.00    +0.014 A  ATOM      4  C   UNL     1      36.549  43.340  20.736 -0.40 -0.00    +0.040 A  ATOM      5  C   UNL     1      37.009  44.377  21.550 -0.34 +0.00    +0.014 A  ATOM      6  C   UNL     1      37.350  44.116  22.878 -0.35 +0.00    +0.004 A  ENDROOTBRANCH   1   7ATOM      7  C   UNL     1      37.650  42.532  24.825 -0.37 +0.00    +0.043 C  BRANCH   7   8ATOM      8  C   UNL     1      38.639  43.580  25.344 -0.21 +0.00    +0.080 C  BRANCH   8   9ATOM      9  C   UNL     1      37.954  44.816  25.836 -0.21 -0.00    +0.109 A  ATOM     10  N   UNL     1      37.448  44.942  27.113 -0.15 +0.04    -0.331 N  ATOM     11  C   UNL     1      36.876  46.187  27.231 -0.28 -0.01    +0.068 A  ATOM     12  N   UNL     1      37.747  45.918  25.143 -0.56 -0.02    -0.233 NA ATOM     13  C   UNL     1      36.213  46.850  28.272 -0.31 -0.01    +0.028 A  ATOM     14  C   UNL     1      37.083  46.772  25.985 -0.27 -0.00    +0.089 A  ATOM     15  C   UNL     1      35.757  48.149  28.016 -0.34 -0.00    +0.002 A  ATOM     16  C   UNL     1      36.620  48.075  25.747 -0.40 -0.00    +0.030 A  ATOM     17  C   UNL     1      35.956  48.755  26.776 -0.39 -0.00    +0.002 A  ATOM     18  C   UNL     1      37.506  43.931  28.141 -0.30 -0.03    +0.151 C  ENDBRANCH   8   9ENDBRANCH   7   8ENDBRANCH   1   7BRANCH   4  19ATOM     19  C   UNL     1      36.215  43.635  19.323 -0.26 -0.03    +0.253 C  ATOM     20  N   UNL     1      36.922  44.629  18.655 -0.14 +0.06    -0.336 N  ATOM     21  C   UNL     1      36.498  44.979  17.299 -0.30 -0.05    +0.136 C  ATOM     22  C   UNL     1      38.203  45.193  19.104 -0.31 -0.01    +0.136 C  ATOM     23  C   UNL     1      37.008  46.356  16.863 -0.32 -0.07    +0.124 C  ATOM     24  C   UNL     1      39.133  45.522  17.925 -0.39 -0.02    +0.124 C  ATOM     25  N   UNL     1      38.490  46.471  16.977 -0.28 +0.06    -0.194 NA ATOM     26  O   UNL     1      35.317  42.984  18.794 -0.22 +0.05    -0.269 OA BRANCH  25  27ATOM     27  S   UNL     1      39.366  46.902  15.596 -0.47 -0.06    +0.243 S  ATOM     28  O   UNL     1      39.733  48.297  15.713 -0.41 +0.07    -0.207 OA ATOM     29  O   UNL     1      40.363  45.880  15.361 -0.39 +0.01    -0.207 OA BRANCH  27  30ATOM     30  C   UNL     1      38.159  46.776  14.286 -0.39 -0.03    +0.082 A  ATOM     31  C   UNL     1      37.854  45.522  13.746 -0.37 -0.01    +0.025 A  ATOM     32  C   UNL     1      37.583  47.939  13.760 -0.52 -0.01    +0.025 A  ATOM     33  C   UNL     1      36.931  45.429  12.703 -0.51 -0.01    +0.040 A  ATOM     34  C   UNL     1      36.660  47.839  12.718 -0.60 -0.02    +0.040 A  ATOM     35  C   UNL     1      36.341  46.586  12.202 -0.57 -0.06    +0.123 A  ATOM     36  F   UNL     1      35.457  46.493  11.200 -0.08 +0.13    -0.207 F  ENDBRANCH  27  30ENDBRANCH  25  27ENDBRANCH   4  19TORSDOF 6TERENDMDL