MODEL        1USER    Run = 1USERUSER    Estimated Free Energy of Binding    =  -8.81 kcal/mol  [=(1)+(2)+(3)-(4)]USERUSER    (1) Final Intermolecular Energy     = -10.00 kcal/molUSER        vdW + Hbond + desolv Energy     =  -9.96 kcal/molUSER        Electrostatic Energy            =  -0.04 kcal/molUSER        Moving Ligand-Fixed Receptor    = -10.00 kcal/molUSER        Moving Ligand-Moving Receptor   =  +0.00 kcal/molUSER    (2) Final Total Internal Energy     =  -0.96 kcal/molUSER    (3) Torsional Free Energy           =  +1.19 kcal/molUSER    (4) Unbound System's Energy         =  -0.96 kcal/molUSERUSERREMARK SMILES CN1CCN(C2=Cc3oc(NS(=O)(=O)c4ccc(F)cc4F)cc3C2=O)CC1REMARK SMILES IDX 11 1 10 3 6 4 7 5 25 6 8 7 24 8 9 9 23 10 26 11 5 12 2 13REMARK SMILES IDX 3 14 28 15 4 16 27 17 1 18 12 19 13 20 14 21 15 22 16 23REMARK SMILES IDX 21 24 17 25 20 26 18 27 22 28 19 29REMARK H PARENT 11 2USER                              x       y       z     vdW  Elec       q    TypeUSER                           _______ _______ _______ _____ _____    ______ ____ROOTATOM      1  N   UNL     1      38.889  48.273  13.758 -0.27 +0.07    -0.249 N  ATOM      2  H   UNL     1      39.253  49.197  13.506 -0.16 -0.08    +0.183 HD ENDROOTBRANCH   1   3ATOM      3  C   UNL     1      39.572  47.849  14.974 -0.36 -0.06    +0.208 A  ATOM      4  C   UNL     1      41.212  46.302  18.586 -0.50 -0.00    +0.089 C  ATOM      5  C   UNL     1      40.257  45.768  17.784 -0.46 -0.01    +0.078 C  ATOM      6  C   UNL     1      41.629  47.664  17.958 -0.41 -0.01    +0.213 C  ATOM      7  C   UNL     1      40.042  46.644  16.713 -0.37 -0.02    +0.143 A  ATOM      8  C   UNL     1      40.825  47.758  16.778 -0.47 -0.01    +0.072 A  ATOM      9  O   UNL     1      39.247  46.685  15.621 -0.14 +0.11    -0.439 OA ATOM     10  C   UNL     1      40.532  48.561  15.675 -0.52 -0.02    +0.083 A  ATOM     11  O   UNL     1      42.422  48.488  18.376 -0.48 -0.01    -0.287 OA BRANCH   4  12ATOM     12  N   UNL     1      41.762  45.788  19.767 -0.17 -0.05    -0.366 N  ATOM     13  N   UNL     1      42.758  44.753  22.388 -0.09 -0.06    -0.303 NA ATOM     14  C   UNL     1      43.349  45.928  21.721 -0.25 +0.04    +0.105 C  ATOM     15  C   UNL     1      42.180  43.876  21.353 -0.30 +0.02    +0.105 C  ATOM     16  C   UNL     1      42.420  46.689  20.748 -0.34 +0.03    +0.132 C  ATOM     17  C   UNL     1      41.200  44.559  20.374 -0.33 +0.01    +0.132 C  ATOM     18  C   UNL     1      41.768  45.141  23.391 -0.13 +0.01    +0.105 C  ENDBRANCH   4  12ENDBRANCH   1   3BRANCH   1  19ATOM     19  S   UNL     1      37.209  48.471  13.978 -0.55 -0.15    +0.267 S  ATOM     20  O   UNL     1      36.667  48.501  12.637 -1.00 +0.06    -0.201 OA ATOM     21  O   UNL     1      36.943  49.502  14.956 -0.53 +0.22    -0.201 OA BRANCH  19  22ATOM     22  C   UNL     1      36.761  46.942  14.737 -0.33 -0.08    +0.123 A  ATOM     23  C   UNL     1      36.287  46.914  16.056 -0.34 -0.03    +0.028 A  ATOM     24  C   UNL     1      36.884  45.763  14.010 -0.32 -0.06    +0.146 A  ATOM     25  C   UNL     1      35.953  45.689  16.636 -0.32 -0.03    +0.041 A  ATOM     26  C   UNL     1      36.549  44.541  14.588 -0.31 -0.03    +0.080 A  ATOM     27  C   UNL     1      36.088  44.516  15.898 -0.27 -0.05    +0.126 A  ATOM     28  F   UNL     1      37.304  45.767  12.739 -0.13 +0.07    -0.205 F  ATOM     29  F   UNL     1      35.765  43.345  16.460 -0.10 +0.08    -0.207 F  ENDBRANCH  19  22ENDBRANCH   1  19TORSDOF 4TERENDMDL