REMARK SMILES Cn1c(CCc2ccc(C(=O)N3CCN(S(=O)(=O)c4ccc(F)cc4)CC3)cc2)nc2ccccc21
REMARK SMILES IDX 6 1 7 2 8 3 9 4 28 5 29 6 5 7 4 8 3 9 2 10 36 11 30 12 35 13
REMARK SMILES IDX 31 14 34 15 32 16 33 17 1 18 10 19 12 20 13 21 27 22 14 23
REMARK SMILES IDX 26 24 15 25 11 26 16 27 17 28 18 29 19 30 20 31 25 32 21 33
REMARK SMILES IDX 24 34 22 35 23 36
REMARK H PARENT
ROOT
ATOM      1  C   UNL     1       2.006   0.036  -0.321  1.00  0.00    -0.048 A 
ATOM      2  C   UNL     1       1.419   0.571   0.835  1.00  0.00     0.004 A 
ATOM      3  C   UNL     1       0.130   0.191   1.213  1.00  0.00     0.014 A 
ATOM      4  C   UNL     1      -0.583  -0.720   0.427  1.00  0.00     0.040 A 
ATOM      5  C   UNL     1       0.003  -1.279  -0.711  1.00  0.00     0.014 A 
ATOM      6  C   UNL     1       1.292  -0.896  -1.086  1.00  0.00     0.004 A 
ENDROOT
BRANCH   1   7
ATOM      7  C   UNL     1       3.416   0.421  -0.709  1.00  0.00     0.043 C 
BRANCH   7   8
ATOM      8  C   UNL     1       4.444  -0.529  -0.088  1.00  0.00     0.080 C 
BRANCH   8   9
ATOM      9  C   UNL     1       5.850  -0.157  -0.441  1.00  0.00     0.109 A 
ATOM     10  N   UNL     1       6.955  -0.785   0.095  1.00  0.00    -0.331 N 
ATOM     11  C   UNL     1       8.083  -0.196  -0.426  1.00  0.00     0.068 A 
ATOM     12  N   UNL     1       6.216   0.787  -1.285  1.00  0.00    -0.233 NA
ATOM     13  C   UNL     1       9.456  -0.406  -0.241  1.00  0.00     0.028 A 
ATOM     14  C   UNL     1       7.587   0.779  -1.287  1.00  0.00     0.089 A 
ATOM     15  C   UNL     1      10.332   0.410  -0.966  1.00  0.00     0.002 A 
ATOM     16  C   UNL     1       8.480   1.587  -2.006  1.00  0.00     0.030 A 
ATOM     17  C   UNL     1       9.856   1.391  -1.836  1.00  0.00     0.002 A 
ATOM     18  C   UNL     1       6.923  -1.868   1.048  1.00  0.00     0.151 C 
ENDBRANCH   8   9
ENDBRANCH   7   8
ENDBRANCH   1   7
BRANCH   4  19
ATOM     19  C   UNL     1      -1.942  -1.159   0.819  1.00  0.00     0.253 C 
ATOM     20  N   UNL     1      -2.917  -0.200   1.068  1.00  0.00    -0.336 N 
ATOM     21  C   UNL     1      -4.217  -0.654   1.563  1.00  0.00     0.136 C 
ATOM     22  C   UNL     1      -2.834   1.208   0.653  1.00  0.00     0.136 C 
ATOM     23  C   UNL     1      -5.013   0.468   2.237  1.00  0.00     0.124 C 
ATOM     24  C   UNL     1      -4.203   1.770   0.239  1.00  0.00     0.124 C 
ATOM     25  N   UNL     1      -5.194   1.646   1.342  1.00  0.00    -0.194 NA
ATOM     26  O   UNL     1      -2.154  -2.366   0.911  1.00  0.00    -0.269 OA
BRANCH  25  27
ATOM     27  S   UNL     1      -6.770   2.178   1.033  1.00  0.00     0.243 S 
ATOM     28  O   UNL     1      -7.510   2.139   2.276  1.00  0.00    -0.207 OA
ATOM     29  O   UNL     1      -6.687   3.390   0.246  1.00  0.00    -0.207 OA
BRANCH  27  30
ATOM     30  C   UNL     1      -7.436   0.903  -0.024  1.00  0.00     0.082 A 
ATOM     31  C   UNL     1      -7.332   1.033  -1.414  1.00  0.00     0.025 A 
ATOM     32  C   UNL     1      -8.122  -0.178   0.542  1.00  0.00     0.025 A 
ATOM     33  C   UNL     1      -7.878   0.049  -2.239  1.00  0.00     0.040 A 
ATOM     34  C   UNL     1      -8.665  -1.159  -0.289  1.00  0.00     0.040 A 
ATOM     35  C   UNL     1      -8.535  -1.038  -1.670  1.00  0.00     0.123 A 
ATOM     36  F   UNL     1      -9.060  -1.979  -2.465  1.00  0.00    -0.207 F 
ENDBRANCH  27  30
ENDBRANCH  25  27
ENDBRANCH   4  19
TORSDOF 6
