MODEL        6USER    Run = 6USERUSER    Estimated Free Energy of Binding    = -12.13 kcal/mol  [=(1)+(2)+(3)-(4)]USERUSER    (1) Final Intermolecular Energy     = -13.62 kcal/molUSER        vdW + Hbond + desolv Energy     = -13.64 kcal/molUSER        Electrostatic Energy            =  +0.01 kcal/molUSER        Moving Ligand-Fixed Receptor    = -13.62 kcal/molUSER        Moving Ligand-Moving Receptor   =  +0.00 kcal/molUSER    (2) Final Total Internal Energy     =  -1.48 kcal/molUSER    (3) Torsional Free Energy           =  +1.49 kcal/molUSER    (4) Unbound System's Energy         =  -1.48 kcal/molUSERUSERREMARK SMILES C[C@H]1N=C([C@@H]2C[C@H]2c2ccc(C(=O)N3CCN(S(=O)(=O)c4ccc(F)cc4)CC3)cc2)c2cccc(F)c2N1REMARK SMILES IDX 12 1 13 2 14 3 15 4 16 5 17 6 28 7 29 8 11 9 8 10 9 11 31 12REMARK SMILES IDX 10 13 30 14 7 15 5 16 6 17 4 18 2 19 3 20 39 21 38 22 32 23REMARK SMILES IDX 36 24 33 25 35 26 34 27 1 28 37 30 18 31 19 32 20 33 21 34REMARK SMILES IDX 22 35 27 36 23 37 26 38 24 39 25 40REMARK H PARENT 39 29USER                              x       y       z     vdW  Elec       q    TypeUSER                           _______ _______ _______ _____ _____    ______ ____ROOTATOM      1  C   UNL     1      36.926  42.006  22.247 -0.40 +0.01    +0.253 C  ATOM      2  O   UNL     1      36.901  40.790  22.085 -0.47 -0.01    -0.269 OA ATOM      3  N   UNL     1      37.206  42.613  23.464 -0.20 -0.03    -0.336 N  ATOM      4  C   UNL     1      36.949  44.027  23.776 -0.23 +0.02    +0.136 C  ATOM      5  C   UNL     1      36.477  44.214  25.226 -0.19 +0.01    +0.124 C  ATOM      6  N   UNL     1      37.455  43.656  26.206 -0.17 +0.01    -0.194 NA ATOM      7  C   UNL     1      38.331  42.572  25.680 -0.25 -0.00    +0.124 C  ATOM      8  C   UNL     1      37.641  41.767  24.574 -0.05 +0.00    +0.136 C  ENDROOTBRANCH   1   9ATOM      9  C   UNL     1      36.654  42.871  21.082 -0.42 +0.00    +0.040 A  ATOM     10  C   UNL     1      36.131  44.513  18.856 -0.33 +0.01    -0.044 A  ATOM     11  C   UNL     1      35.149  43.644  19.366 -0.39 -0.00    +0.005 A  ATOM     12  C   UNL     1      37.384  44.532  19.497 -0.34 -0.00    +0.005 A  ATOM     13  C   UNL     1      35.408  42.815  20.462 -0.42 +0.00    +0.014 A  ATOM     14  C   UNL     1      37.651  43.722  20.602 -0.35 -0.00    +0.014 A  BRANCH  10  15ATOM     15  C   UNL     1      35.874  45.427  17.682 -0.38 -0.01    +0.029 C  ATOM     16  C   UNL     1      36.736  45.262  16.434 -0.37 -0.02    +0.047 C  ATOM     17  C   UNL     1      35.265  44.935  16.399 -0.36 -0.01    +0.019 C  BRANCH  16  18ATOM     18  C   UNL     1      37.286  46.478  15.782 -0.41 -0.03    +0.050 C  ATOM     19  C   UNL     1      37.094  48.186  14.206 -0.45 -0.12    +0.194 C  ATOM     20  N   UNL     1      36.565  46.973  14.830 -0.22 +0.19    -0.264 NA ATOM     21  N   UNL     1      38.541  48.301  14.147 -0.24 +0.15    -0.361 N  ATOM     22  C   UNL     1      39.151  47.988  15.378 -0.46 -0.03    +0.081 A  ATOM     23  C   UNL     1      38.571  47.047  16.235 -0.41 -0.01    +0.022 A  ATOM     24  C   UNL     1      40.411  48.493  15.717 -0.46 -0.04    +0.147 A  ATOM     25  C   UNL     1      39.194  46.678  17.434 -0.42 -0.00    +0.012 A  ATOM     26  C   UNL     1      41.048  48.127  16.901 -0.51 -0.00    +0.041 A  ATOM     27  C   UNL     1      40.435  47.224  17.766 -0.47 -0.00    +0.004 A  ATOM     28  C   UNL     1      36.551  48.235  12.778 -0.59 -0.02    +0.057 C  ATOM     29  H   UNL     1      38.867  49.196  13.786 -0.28 -0.09    +0.162 HD ATOM     30  F   UNL     1      41.015  49.370  14.900 -0.19 +0.05    -0.205 F  ENDBRANCH  16  18ENDBRANCH  10  15ENDBRANCH   1   9BRANCH   6  31ATOM     31  S   UNL     1      36.954  43.562  27.822 -0.37 -0.06    +0.243 S  ATOM     32  O   UNL     1      35.882  42.594  27.905 -0.35 +0.08    -0.207 OA ATOM     33  O   UNL     1      38.137  43.446  28.647 -0.31 +0.03    -0.207 OA BRANCH  31  34ATOM     34  C   UNL     1      36.243  45.169  28.130 -0.36 -0.02    +0.082 A  ATOM     35  C   UNL     1      35.034  45.272  28.828 -0.43 -0.01    +0.025 A  ATOM     36  C   UNL     1      36.932  46.321  27.725 -0.32 -0.01    +0.025 A  ATOM     37  C   UNL     1      34.485  46.531  29.072 -0.36 -0.01    +0.040 A  ATOM     38  C   UNL     1      36.376  47.576  27.972 -0.31 -0.01    +0.040 A  ATOM     39  C   UNL     1      35.159  47.670  28.639 -0.29 -0.02    +0.123 A  ATOM     40  F   UNL     1      34.631  48.877  28.877 -0.09 +0.01    -0.207 F  ENDBRANCH  31  34ENDBRANCH   6  31TORSDOF 5TERENDMDL