REMARK SMILES C[C@H]1N=C([C@@H]2C[C@H]2c2ccc(C(=O)N3CCN(S(=O)(=O)c4ccc(F)cc4)CC3)cc2)c2cccc(F)c2N1
REMARK SMILES IDX 12 1 13 2 14 3 15 4 16 5 17 6 28 7 29 8 11 9 8 10 9 11 31 12
REMARK SMILES IDX 10 13 30 14 7 15 5 16 6 17 4 18 2 19 3 20 39 21 38 22 32 23
REMARK SMILES IDX 36 24 33 25 35 26 34 27 1 28 37 30 18 31 19 32 20 33 21 34
REMARK SMILES IDX 22 35 27 36 23 37 26 38 24 39 25 40
REMARK H PARENT 39 29
ROOT
ATOM      1  C   UNL     1       2.405   0.237   1.403  1.00  0.00     0.253 C 
ATOM      2  O   UNL     1       2.790   0.894   2.365  1.00  0.00    -0.269 OA
ATOM      3  N   UNL     1       3.179  -0.729   0.773  1.00  0.00    -0.336 N 
ATOM      4  C   UNL     1       2.886  -1.311  -0.545  1.00  0.00     0.136 C 
ATOM      5  C   UNL     1       4.168  -1.565  -1.353  1.00  0.00     0.124 C 
ATOM      6  N   UNL     1       5.123  -2.446  -0.619  1.00  0.00    -0.194 NA
ATOM      7  C   UNL     1       4.984  -2.434   0.864  1.00  0.00     0.124 C 
ATOM      8  C   UNL     1       4.460  -1.089   1.377  1.00  0.00     0.136 C 
ENDROOT
BRANCH   1   9
ATOM      9  C   UNL     1       1.041   0.479   0.894  1.00  0.00     0.040 A 
ATOM     10  C   UNL     1      -1.561   0.950  -0.073  1.00  0.00    -0.044 A 
ATOM     11  C   UNL     1      -0.565   1.940  -0.152  1.00  0.00     0.005 A 
ATOM     12  C   UNL     1      -1.212  -0.284   0.507  1.00  0.00     0.005 A 
ATOM     13  C   UNL     1       0.725   1.718   0.340  1.00  0.00     0.014 A 
ATOM     14  C   UNL     1       0.076  -0.526   0.988  1.00  0.00     0.014 A 
BRANCH  10  15
ATOM     15  C   UNL     1      -2.958   1.160  -0.607  1.00  0.00     0.029 C 
ATOM     16  C   UNL     1      -4.097   1.330   0.393  1.00  0.00     0.047 C 
ATOM     17  C   UNL     1      -3.674   2.476  -0.489  1.00  0.00     0.019 C 
BRANCH  16  18
ATOM     18  C   UNL     1      -5.364   0.588   0.163  1.00  0.00     0.050 C 
ATOM     19  C   UNL     1      -6.488  -1.420  -0.212  1.00  0.00     0.194 C 
ATOM     20  N   UNL     1      -5.238  -0.686  -0.012  1.00  0.00    -0.264 NA
ATOM     21  N   UNL     1      -7.555  -0.702  -0.889  1.00  0.00    -0.361 N 
ATOM     22  C   UNL     1      -7.739   0.594  -0.368  1.00  0.00     0.081 A 
ATOM     23  C   UNL     1      -6.654   1.307   0.153  1.00  0.00     0.022 A 
ATOM     24  C   UNL     1      -8.965   1.258  -0.481  1.00  0.00     0.147 A 
ATOM     25  C   UNL     1      -6.806   2.619   0.620  1.00  0.00     0.012 A 
ATOM     26  C   UNL     1      -9.129   2.567  -0.032  1.00  0.00     0.041 A 
ATOM     27  C   UNL     1      -8.049   3.247   0.528  1.00  0.00     0.004 A 
ATOM     28  C   UNL     1      -6.155  -2.667  -1.031  1.00  0.00     0.057 C 
ATOM     29  H   UNL     1      -8.433  -1.216  -0.930  1.00  0.00     0.162 HD
ATOM     30  F   UNL     1     -10.019   0.618  -1.010  1.00  0.00    -0.205 F 
ENDBRANCH  16  18
ENDBRANCH  10  15
ENDBRANCH   1   9
BRANCH   6  31
ATOM     31  S   UNL     1       6.678  -2.606  -1.273  1.00  0.00     0.243 S 
ATOM     32  O   UNL     1       7.378  -3.628  -0.525  1.00  0.00    -0.207 OA
ATOM     33  O   UNL     1       6.548  -2.684  -2.712  1.00  0.00    -0.207 OA
BRANCH  31  34
ATOM     34  C   UNL     1       7.451  -1.044  -0.891  1.00  0.00     0.082 A 
ATOM     35  C   UNL     1       8.136  -0.886   0.320  1.00  0.00     0.025 A 
ATOM     36  C   UNL     1       7.420  -0.006  -1.832  1.00  0.00     0.025 A 
ATOM     37  C   UNL     1       8.745   0.334   0.612  1.00  0.00     0.040 A 
ATOM     38  C   UNL     1       8.030   1.212  -1.532  1.00  0.00     0.040 A 
ATOM     39  C   UNL     1       8.683   1.372  -0.314  1.00  0.00     0.123 A 
ATOM     40  F   UNL     1       9.270   2.542  -0.032  1.00  0.00    -0.207 F 
ENDBRANCH  31  34
ENDBRANCH   6  31
TORSDOF 5
