REMARK SMILES CN1CCN(C2=Cc3oc(NS(=O)(=O)c4ccc(F)cc4F)cc3C2=O)CC1
REMARK SMILES IDX 11 1 10 3 6 4 7 5 25 6 8 7 24 8 9 9 23 10 26 11 5 12 2 13
REMARK SMILES IDX 3 14 28 15 4 16 27 17 1 18 12 19 13 20 14 21 15 22 16 23
REMARK SMILES IDX 21 24 17 25 20 26 18 27 22 28 19 29
REMARK H PARENT 11 2
ROOT
ATOM      1  N   UNL     1       3.527  -0.354  -0.550  1.00  0.00    -0.249 N 
ATOM      2  H   UNL     1       3.739  -1.239  -1.020  1.00  0.00     0.183 HD
ENDROOT
BRANCH   1   3
ATOM      3  C   UNL     1       2.086  -0.305  -0.335  1.00  0.00     0.208 A 
ATOM      4  C   UNL     1      -2.151  -0.545   0.017  1.00  0.00     0.089 C 
ATOM      5  C   UNL     1      -1.274  -1.488  -0.410  1.00  0.00     0.078 C 
ATOM      6  C   UNL     1      -1.323   0.728   0.360  1.00  0.00     0.213 C 
ATOM      7  C   UNL     1       0.016  -0.946  -0.357  1.00  0.00     0.143 A 
ATOM      8  C   UNL     1       0.028   0.342   0.090  1.00  0.00     0.072 A 
ATOM      9  O   UNL     1       1.269  -1.362  -0.643  1.00  0.00    -0.439 OA
ATOM     10  C   UNL     1       1.351   0.786   0.100  1.00  0.00     0.083 A 
ATOM     11  O   UNL     1      -1.716   1.818   0.735  1.00  0.00    -0.287 OA
BRANCH   4  12
ATOM     12  N   UNL     1      -3.543  -0.626   0.146  1.00  0.00    -0.366 N 
ATOM     13  N   UNL     1      -6.530  -0.692   0.237  1.00  0.00    -0.303 NA
ATOM     14  C   UNL     1      -5.723   0.100   1.184  1.00  0.00     0.105 C 
ATOM     15  C   UNL     1      -5.721  -1.841  -0.211  1.00  0.00     0.105 C 
ATOM     16  C   UNL     1      -4.319   0.518   0.688  1.00  0.00     0.132 C 
ATOM     17  C   UNL     1      -4.324  -1.493  -0.768  1.00  0.00     0.132 C 
ATOM     18  C   UNL     1      -6.998   0.119  -0.885  1.00  0.00     0.105 C 
ENDBRANCH   4  12
ENDBRANCH   1   3
BRANCH   1  19
ATOM     19  S   UNL     1       4.412  -0.370   0.909  1.00  0.00     0.267 S 
ATOM     20  O   UNL     1       4.725  -1.765   1.129  1.00  0.00    -0.201 OA
ATOM     21  O   UNL     1       3.766   0.457   1.903  1.00  0.00    -0.201 OA
BRANCH  19  22
ATOM     22  C   UNL     1       5.890   0.476   0.445  1.00  0.00     0.123 A 
ATOM     23  C   UNL     1       5.847   1.524  -0.486  1.00  0.00     0.028 A 
ATOM     24  C   UNL     1       7.099   0.090   1.013  1.00  0.00     0.146 A 
ATOM     25  C   UNL     1       7.033   2.167  -0.845  1.00  0.00     0.041 A 
ATOM     26  C   UNL     1       8.281   0.733   0.656  1.00  0.00     0.080 A 
ATOM     27  C   UNL     1       8.237   1.765  -0.272  1.00  0.00     0.126 A 
ATOM     28  F   UNL     1       7.161  -0.886   1.927  1.00  0.00    -0.205 F 
ATOM     29  F   UNL     1       9.370   2.386  -0.621  1.00  0.00    -0.207 F 
ENDBRANCH  19  22
ENDBRANCH   1  19
TORSDOF 4
