MODEL        5USER    Run = 5USERUSER    Estimated Free Energy of Binding    =  -9.66 kcal/mol  [=(1)+(2)+(3)-(4)]USERUSER    (1) Final Intermolecular Energy     = -12.05 kcal/molUSER        vdW + Hbond + desolv Energy     = -11.87 kcal/molUSER        Electrostatic Energy            =  -0.18 kcal/molUSER        Moving Ligand-Fixed Receptor    = -12.05 kcal/molUSER        Moving Ligand-Moving Receptor   =  +0.00 kcal/molUSER    (2) Final Total Internal Energy     =  -1.83 kcal/molUSER    (3) Torsional Free Energy           =  +2.39 kcal/molUSER    (4) Unbound System's Energy         =  -1.83 kcal/molUSERUSERREMARK SMILES C[C@@H]1N=C(CCc2ccc(C(=O)N3CCN(CC(N)=O)CC3)cc2)c2ccc(CO)c(F)c2N1CREMARK SMILES IDX 6 1 5 2 4 3 2 4 3 5 34 6 33 7 25 8 31 9 26 10 28 11 27 12REMARK SMILES IDX 1 13 35 14 32 15 29 16 30 17 7 19 8 20 24 21 9 22 23 23REMARK SMILES IDX 10 24 11 25 13 26 14 27 22 28 15 29 21 30 16 31 12 32 17 33REMARK SMILES IDX 18 34 19 35 20 36REMARK H PARENT 30 18 19 37 19 38USER                              x       y       z     vdW  Elec       q    TypeUSER                           _______ _______ _______ _____ _____    ______ ____ROOTATOM      1  C   UNL     1      38.312  44.591  19.279 -0.40 -0.00    +0.042 C  ENDROOTBRANCH   1   2ATOM      2  C   UNL     1      39.173  44.406  18.031 -0.29 -0.01    +0.061 C  BRANCH   2   3ATOM      3  C   UNL     1      38.662  45.299  16.912 -0.33 -0.01    +0.047 C  ATOM      4  C   UNL     1      37.135  45.698  15.174 -0.29 -0.09    +0.197 C  ATOM      5  N   UNL     1      37.626  44.872  16.275 -0.17 +0.08    -0.265 NA ATOM      6  N   UNL     1      38.121  46.537  14.502 -0.16 +0.12    -0.350 N  ATOM      7  C   UNL     1      39.073  47.143  15.326 -0.41 -0.03    +0.084 A  ATOM      8  C   UNL     1      39.377  46.560  16.572 -0.43 -0.01    +0.022 A  ATOM      9  C   UNL     1      39.808  48.295  14.975 -0.43 -0.05    +0.152 A  ATOM     10  C   UNL     1      40.333  47.125  17.431 -0.49 -0.00    +0.013 A  ATOM     11  C   UNL     1      40.772  48.868  15.818 -0.60 -0.00    +0.015 A  ATOM     12  C   UNL     1      41.024  48.274  17.055 -0.49 -0.00    +0.010 A  ATOM     13  C   UNL     1      35.954  46.528  15.687 -0.37 -0.05    +0.057 C  ATOM     14  C   UNL     1      37.739  47.126  13.226 -0.47 -0.04    +0.146 C  ATOM     15  F   UNL     1      39.596  48.893  13.789 -0.11 +0.07    -0.204 F  BRANCH  11  16ATOM     16  C   UNL     1      41.552  50.070  15.372 -0.53 -0.03    +0.194 C  BRANCH  16  17ATOM     17  O   UNL     1      42.486  49.692  14.364 -0.38 +0.02    -0.392 OA ATOM     18  H   UNL     1      43.331  50.106  14.605 -0.25 -0.02    +0.211 HD ENDBRANCH  16  17ENDBRANCH  11  16ENDBRANCH   2   3ENDBRANCH   1   2BRANCH   1  19ATOM     19  C   UNL     1      36.844  44.416  18.984 -0.33 +0.01    -0.048 A  ATOM     20  C   UNL     1      36.277  43.134  19.021 -0.26 -0.00    +0.004 A  ATOM     21  C   UNL     1      36.031  45.518  18.681 +0.05 -0.00    +0.004 A  ATOM     22  C   UNL     1      34.921  42.953  18.750 -0.38 -0.00    +0.014 A  ATOM     23  C   UNL     1      34.668  45.343  18.421 -0.41 -0.01    +0.014 A  ATOM     24  C   UNL     1      34.124  44.058  18.437 -0.32 -0.01    +0.040 A  BRANCH  24  25ATOM     25  C   UNL     1      32.681  43.865  18.190 -0.21 -0.06    +0.253 C  ATOM     26  N   UNL     1      32.186  44.199  16.938 -0.09 +0.12    -0.336 N  ATOM     27  C   UNL     1      32.837  45.128  16.003 -0.30 -0.09    +0.135 C  ATOM     28  C   UNL     1      30.845  43.751  16.571 -0.26 -0.04    +0.135 C  ATOM     29  C   UNL     1      31.789  45.955  15.230 -0.34 -0.08    +0.106 C  ATOM     30  C   UNL     1      30.629  43.801  15.046 -0.29 -0.07    +0.106 C  ATOM     31  N   UNL     1      30.859  45.132  14.426 -0.24 +0.21    -0.291 NA ATOM     32  O   UNL     1      31.994  43.380  19.086 -0.29 +0.02    -0.269 OA BRANCH  31  33ATOM     33  C   UNL     1      29.581  45.849  14.215 -0.21 -0.14    +0.184 C  BRANCH  33  34ATOM     34  C   UNL     1      29.642  46.627  12.898 -0.43 -0.14    +0.231 C  ATOM     35  N   UNL     1      30.908  46.873  12.431 -0.17 +0.16    -0.369 N  ATOM     36  O   UNL     1      28.649  46.993  12.272 -0.53 +0.15    -0.274 OA ATOM     37  H   UNL     1      30.965  47.226  11.484 -0.01 -0.05    +0.159 HD ATOM     38  H   UNL     1      31.682  46.308  12.766 -0.23 -0.09    +0.159 HD ENDBRANCH  33  34ENDBRANCH  31  33ENDBRANCH  24  25ENDBRANCH   1  19TORSDOF 8TERENDMDL