REMARK SMILES Nc1nc(NCC2CCOCC2)ncc1-c1ccc(C=C2SC(=O)NC2=O)cc1F
REMARK SMILES IDX 2 1 3 2 4 3 13 4 14 5 15 6 1 7 16 10 17 11 29 12 18 13 28 14
REMARK SMILES IDX 19 15 30 16 20 17 21 18 22 19 26 20 23 21 25 22 27 23 24 24
REMARK SMILES IDX 5 26 6 28 7 29 8 30 12 31 9 32 11 33 10 34
REMARK H PARENT 1 8 1 9 25 25 5 27
ROOT
ATOM      1  C   UNL     1       0.248  -1.239  -0.459  1.00  0.00     0.137 A 
ATOM      2  N   UNL     1      -1.062  -1.537  -0.497  1.00  0.00    -0.196 NA
ATOM      3  C   UNL     1      -1.937  -0.529  -0.527  1.00  0.00     0.224 A 
ATOM      4  N   UNL     1      -1.590   0.761  -0.531  1.00  0.00    -0.221 NA
ATOM      5  C   UNL     1      -0.271   1.028  -0.489  1.00  0.00     0.127 A 
ATOM      6  C   UNL     1       0.725   0.070  -0.443  1.00  0.00     0.045 A 
ENDROOT
BRANCH   1   7
ATOM      7  N   UNL     1       1.121  -2.341  -0.429  1.00  0.00    -0.383 N 
ATOM      8  H   UNL     1       1.723  -2.309  -1.250  1.00  0.00     0.158 HD
ATOM      9  H   UNL     1       1.724  -2.282   0.388  1.00  0.00     0.158 HD
ENDBRANCH   1   7
BRANCH   6  10
ATOM     10  C   UNL     1       2.142   0.446  -0.358  1.00  0.00     0.023 A 
ATOM     11  C   UNL     1       2.614   1.220   0.716  1.00  0.00     0.012 A 
ATOM     12  C   UNL     1       3.071   0.050  -1.330  1.00  0.00     0.131 A 
ATOM     13  C   UNL     1       3.967   1.566   0.814  1.00  0.00     0.009 A 
ATOM     14  C   UNL     1       4.420   0.392  -1.245  1.00  0.00     0.048 A 
ATOM     15  C   UNL     1       4.875   1.147  -0.163  1.00  0.00    -0.021 A 
ATOM     16  F   UNL     1       2.672  -0.694  -2.374  1.00  0.00    -0.206 F 
BRANCH  15  17
ATOM     17  C   UNL     1       6.294   1.477  -0.031  1.00  0.00     0.029 C 
BRANCH  17  18
ATOM     18  C   UNL     1       7.224   0.653   0.471  1.00  0.00     0.083 C 
ATOM     19  S   UNL     1       8.893   1.093   0.614  1.00  0.00    -0.022 SA
ATOM     20  C   UNL     1       7.034  -0.735   0.987  1.00  0.00     0.265 C 
ATOM     21  C   UNL     1       9.330  -0.451   1.313  1.00  0.00     0.290 C 
ATOM     22  N   UNL     1       8.232  -1.241   1.397  1.00  0.00    -0.282 N 
ATOM     23  O   UNL     1       5.981  -1.348   1.045  1.00  0.00    -0.268 OA
ATOM     24  O   UNL     1      10.456  -0.750   1.672  1.00  0.00    -0.261 OA
ATOM     25  H   UNL     1       8.294  -2.163   1.795  1.00  0.00     0.174 HD
ENDBRANCH  17  18
ENDBRANCH  15  17
ENDBRANCH   6  10
BRANCH   3  26
ATOM     26  N   UNL     1      -3.272  -0.898  -0.501  1.00  0.00    -0.354 N 
ATOM     27  H   UNL     1      -3.263  -1.903  -0.649  1.00  0.00     0.163 HD
BRANCH  26  28
ATOM     28  C   UNL     1      -4.145  -0.169  -1.407  1.00  0.00     0.119 C 
BRANCH  28  29
ATOM     29  C   UNL     1      -5.490   0.145  -0.735  1.00  0.00     0.013 C 
ATOM     30  C   UNL     1      -6.283  -1.115  -0.346  1.00  0.00     0.034 C 
ATOM     31  C   UNL     1      -5.336   1.070   0.477  1.00  0.00     0.034 C 
ATOM     32  C   UNL     1      -7.220  -0.861   0.832  1.00  0.00     0.160 C 
ATOM     33  C   UNL     1      -6.702   1.440   1.057  1.00  0.00     0.160 C 
ATOM     34  O   UNL     1      -7.717   0.472   0.782  1.00  0.00    -0.381 OA
ENDBRANCH  28  29
ENDBRANCH  26  28
ENDBRANCH   3  26
TORSDOF 7
