REMARK SMILES Cc1nc(NCC2CCCC2)ccc1-c1ccc(C=C2SC(=O)NC2=O)cc1F
REMARK SMILES IDX 1 1 2 2 3 3 4 4 12 5 13 6 14 7 15 8 16 9 28 10 17 11 27 12
REMARK SMILES IDX 18 13 29 14 19 15 20 16 21 17 25 18 22 19 24 20 26 21 23 22
REMARK SMILES IDX 5 24 6 26 7 27 8 28 11 29 9 30 10 31
REMARK H PARENT 24 23 5 25
ROOT
ATOM      1  C   UNL     1       0.169  -2.264   1.641  1.00  0.00     0.067 C 
ATOM      2  C   UNL     1      -0.293  -1.461   0.456  1.00  0.00     0.048 A 
ATOM      3  N   UNL     1      -1.627  -1.531   0.193  1.00  0.00    -0.236 NA
ATOM      4  C   UNL     1      -2.116  -0.835  -0.848  1.00  0.00     0.126 A 
ATOM      5  C   UNL     1      -1.306  -0.062  -1.663  1.00  0.00     0.047 A 
ATOM      6  C   UNL     1       0.057   0.011  -1.388  1.00  0.00     0.014 A 
ATOM      7  C   UNL     1       0.600  -0.696  -0.309  1.00  0.00     0.006 A 
ENDROOT
BRANCH   7   8
ATOM      8  C   UNL     1       2.037  -0.605  -0.025  1.00  0.00     0.019 A 
ATOM      9  C   UNL     1       2.579   0.557   0.544  1.00  0.00     0.012 A 
ATOM     10  C   UNL     1       2.911  -1.659  -0.319  1.00  0.00     0.131 A 
ATOM     11  C   UNL     1       3.950   0.653   0.810  1.00  0.00     0.009 A 
ATOM     12  C   UNL     1       4.278  -1.572  -0.057  1.00  0.00     0.048 A 
ATOM     13  C   UNL     1       4.808  -0.408   0.502  1.00  0.00    -0.021 A 
ATOM     14  F   UNL     1       2.441  -2.791  -0.865  1.00  0.00    -0.206 F 
BRANCH  13  15
ATOM     15  C   UNL     1       6.245  -0.334   0.783  1.00  0.00     0.029 C 
BRANCH  15  16
ATOM     16  C   UNL     1       7.118   0.502   0.205  1.00  0.00     0.083 C 
ATOM     17  S   UNL     1       6.821   1.691  -1.008  1.00  0.00    -0.022 SA
ATOM     18  C   UNL     1       8.564   0.487   0.551  1.00  0.00     0.265 C 
ATOM     19  C   UNL     1       8.507   2.164  -1.069  1.00  0.00     0.290 C 
ATOM     20  N   UNL     1       9.225   1.419  -0.192  1.00  0.00    -0.282 N 
ATOM     21  O   UNL     1       9.086  -0.245   1.375  1.00  0.00    -0.268 OA
ATOM     22  O   UNL     1       8.950   3.037  -1.796  1.00  0.00    -0.261 OA
ATOM     23  H   UNL     1      10.217   1.555  -0.093  1.00  0.00     0.174 HD
ENDBRANCH  15  16
ENDBRANCH  13  15
ENDBRANCH   7   8
BRANCH   4  24
ATOM     24  N   UNL     1      -3.488  -0.970  -1.066  1.00  0.00    -0.370 N 
ATOM     25  H   UNL     1      -3.777  -1.603  -0.320  1.00  0.00     0.162 HD
BRANCH  24  26
ATOM     26  C   UNL     1      -4.226   0.292  -1.020  1.00  0.00     0.118 C 
BRANCH  26  27
ATOM     27  C   UNL     1      -5.736   0.015  -1.134  1.00  0.00     0.008 C 
ATOM     28  C   UNL     1      -6.538   1.304  -1.323  1.00  0.00     0.005 C 
ATOM     29  C   UNL     1      -6.349  -0.545   0.152  1.00  0.00     0.005 C 
ATOM     30  C   UNL     1      -6.709   1.870   0.083  1.00  0.00     0.000 C 
ATOM     31  C   UNL     1      -6.625   0.673   1.030  1.00  0.00     0.000 C 
ENDBRANCH  26  27
ENDBRANCH  24  26
ENDBRANCH   4  24
TORSDOF 6
