MODEL        4USER    Run = 4USERUSER    Estimated Free Energy of Binding    = -10.87 kcal/mol  [=(1)+(2)+(3)-(4)]USERUSER    (1) Final Intermolecular Energy     = -12.66 kcal/molUSER        vdW + Hbond + desolv Energy     = -12.53 kcal/molUSER        Electrostatic Energy            =  -0.13 kcal/molUSER        Moving Ligand-Fixed Receptor    = -12.66 kcal/molUSER        Moving Ligand-Moving Receptor   =  +0.00 kcal/molUSER    (2) Final Total Internal Energy     =  -1.04 kcal/molUSER    (3) Torsional Free Energy           =  +1.79 kcal/molUSER    (4) Unbound System's Energy         =  -1.04 kcal/molUSERUSERREMARK SMILES Cc1nc(NCC2CCCC2)ccc1-c1ccc(C=C2SC(=O)NC2=O)cc1FREMARK SMILES IDX 1 1 2 2 3 3 4 4 12 5 13 6 14 7 15 8 16 9 28 10 17 11 27 12REMARK SMILES IDX 18 13 29 14 19 15 20 16 21 17 25 18 22 19 24 20 26 21 23 22REMARK SMILES IDX 5 24 6 26 7 27 8 28 11 29 9 30 10 31REMARK H PARENT 24 23 5 25USER                              x       y       z     vdW  Elec       q    TypeUSER                           _______ _______ _______ _____ _____    ______ ____ROOTATOM      1  C   UNL     1      38.424  45.459  22.848 -0.34 +0.01    +0.067 C  ATOM      2  C   UNL     1      37.792  44.096  22.778 -0.32 +0.00    +0.048 A  ATOM      3  N   UNL     1      37.549  43.508  23.981 -0.20 -0.02    -0.236 NA ATOM      4  C   UNL     1      36.980  42.290  23.999 -0.34 +0.01    +0.126 A  ATOM      5  C   UNL     1      36.647  41.615  22.837 -0.48 +0.00    +0.047 A  ATOM      6  C   UNL     1      36.893  42.222  21.608 -0.49 +0.00    +0.014 A  ATOM      7  C   UNL     1      37.479  43.492  21.551 -0.39 +0.00    +0.006 A  ENDROOTBRANCH   7   8ATOM      8  C   UNL     1      37.726  44.124  20.250 -0.35 -0.00    +0.019 A  ATOM      9  C   UNL     1      39.033  44.440  19.848 -0.34 -0.00    +0.012 A  ATOM     10  C   UNL     1      36.678  44.442  19.378 -0.27 -0.02    +0.131 A  ATOM     11  C   UNL     1      39.275  45.050  18.612 -0.41 -0.00    +0.009 A  ATOM     12  C   UNL     1      36.910  45.050  18.144 -0.31 -0.01    +0.048 A  ATOM     13  C   UNL     1      38.213  45.367  17.758 -0.37 +0.00    -0.021 A  ATOM     14  F   UNL     1      35.411  44.161  19.717 -0.10 +0.03    -0.206 F  BRANCH  13  15ATOM     15  C   UNL     1      38.445  45.995  16.453 -0.43 -0.01    +0.029 C  BRANCH  15  16ATOM     16  C   UNL     1      39.178  47.093  16.228 -0.46 -0.03    +0.083 C  ATOM     17  S   UNL     1      40.682  47.543  16.942 -0.72 +0.00    -0.022 SA ATOM     18  C   UNL     1      38.737  48.148  15.277 -0.37 -0.13    +0.265 C  ATOM     19  C   UNL     1      40.750  49.045  16.042 -0.42 -0.06    +0.290 C  ATOM     20  N   UNL     1      39.653  49.157  15.252 -0.28 +0.14    -0.282 N  ATOM     21  O   UNL     1      37.712  48.121  14.617 -0.37 +0.16    -0.268 OA ATOM     22  O   UNL     1      41.657  49.856  16.125 -1.06 -0.01    -0.261 OA ATOM     23  H   UNL     1      39.524  49.962  14.662 -0.21 -0.16    +0.174 HD ENDBRANCH  15  16ENDBRANCH  13  15ENDBRANCH   7   8BRANCH   4  24ATOM     24  N   UNL     1      36.778  41.743  25.268 -0.16 +0.05    -0.370 N  ATOM     25  H   UNL     1      37.004  40.758  25.131 -0.14 -0.07    +0.162 HD BRANCH  24  26ATOM     26  C   UNL     1      37.601  42.347  26.315 -0.32 -0.01    +0.118 C  BRANCH  26  27ATOM     27  C   UNL     1      36.844  42.311  27.656 -0.46 -0.00    +0.008 C  ATOM     28  C   UNL     1      35.807  41.187  27.693 -0.70 -0.00    +0.005 C  ATOM     29  C   UNL     1      35.971  43.546  27.893 -0.48 -0.00    +0.005 C  ATOM     30  C   UNL     1      34.587  41.755  26.976 -0.63 -0.00    +0.000 C  ATOM     31  C   UNL     1      34.673  43.272  27.137 -0.62 -0.00    +0.000 C  ENDBRANCH  26  27ENDBRANCH  24  26ENDBRANCH   4  24TORSDOF 6TERENDMDL