REMARK SMILES COc1ccc(O)c(C(=O)c2ccc(C(=O)N[C@@H]3CCN(CC(=O)N4CC[C@@H](O)[C@H](O)C4)C[C@H]3NC(=O)c3ccncc3)cc2)c1F
REMARK SMILES IDX 18 1 19 2 20 3 21 4 33 5 34 6 17 7 15 8 16 9 14 11 11 12
REMARK SMILES IDX 12 13 45 14 13 15 44 16 9 17 10 18 8 19 3 20 4 21 46 22 5 23
REMARK SMILES IDX 6 24 47 25 2 26 1 27 7 28 35 30 36 31 37 33 38 34 39 35
REMARK SMILES IDX 43 36 40 37 42 38 41 39 22 40 23 41 24 42 25 43 26 44 32 45
REMARK SMILES IDX 27 46 30 47 28 48 31 49 29 51
REMARK H PARENT 17 10 7 29 35 32 31 50 29 52
ROOT
ATOM      1  C   UNL     1      -0.830   0.025  -0.157  1.00  0.00     0.107 C 
ATOM      2  C   UNL     1      -1.302  -1.427  -0.060  1.00  0.00     0.042 C 
ATOM      3  C   UNL     1      -2.765  -1.423   0.390  1.00  0.00     0.087 C 
ATOM      4  N   UNL     1      -3.670  -0.723  -0.531  1.00  0.00    -0.292 NA
ATOM      5  C   UNL     1      -2.998   0.058  -1.569  1.00  0.00     0.112 C 
ATOM      6  C   UNL     1      -1.712   0.813  -1.168  1.00  0.00     0.118 C 
ENDROOT
BRANCH   1   7
ATOM      7  N   UNL     1       0.589   0.168  -0.496  1.00  0.00    -0.347 N 
ATOM      8  C   UNL     1       1.582  -0.272   0.356  1.00  0.00     0.251 C 
ATOM      9  O   UNL     1       1.370  -0.921   1.373  1.00  0.00    -0.269 OA
ATOM     10  H   UNL     1       0.811   1.035  -0.986  1.00  0.00     0.164 HD
BRANCH   8  11
ATOM     11  C   UNL     1       2.979   0.114  -0.001  1.00  0.00     0.039 A 
ATOM     12  C   UNL     1       5.644   0.765  -0.591  1.00  0.00     0.023 A 
ATOM     13  C   UNL     1       5.277   0.442   0.721  1.00  0.00     0.013 A 
ATOM     14  C   UNL     1       4.673   0.788  -1.600  1.00  0.00     0.013 A 
ATOM     15  C   UNL     1       3.950   0.106   1.010  1.00  0.00     0.014 A 
ATOM     16  C   UNL     1       3.347   0.454  -1.310  1.00  0.00     0.014 A 
BRANCH  12  17
ATOM     17  C   UNL     1       7.032   1.150  -0.941  1.00  0.00     0.199 C 
ATOM     18  O   UNL     1       7.208   2.062  -1.751  1.00  0.00    -0.288 OA
BRANCH  17  19
ATOM     19  C   UNL     1       8.226   0.530  -0.325  1.00  0.00     0.104 A 
ATOM     20  C   UNL     1       9.379  -1.375   0.671  1.00  0.00     0.155 A 
ATOM     21  C   UNL     1      10.517  -0.587   0.856  1.00  0.00     0.053 A 
ATOM     22  C   UNL     1       8.244  -0.808   0.074  1.00  0.00     0.179 A 
ATOM     23  C   UNL     1      10.524   0.743   0.429  1.00  0.00     0.051 A 
ATOM     24  C   UNL     1       9.392   1.291  -0.170  1.00  0.00     0.130 A 
ATOM     25  F   UNL     1       7.171  -1.587  -0.137  1.00  0.00    -0.202 F 
BRANCH  20  26
ATOM     26  O   UNL     1       9.260  -2.692   1.031  1.00  0.00    -0.494 OA
ATOM     27  C   UNL     1      10.407  -3.323   1.585  1.00  0.00     0.278 C 
ENDBRANCH  20  26
BRANCH  24  28
ATOM     28  O   UNL     1       9.495   2.591  -0.589  1.00  0.00    -0.507 OA
ATOM     29  H   UNL     1       8.719   2.785  -1.163  1.00  0.00     0.293 HD
ENDBRANCH  24  28
ENDBRANCH  17  19
ENDBRANCH  12  17
ENDBRANCH   8  11
ENDBRANCH   1   7
BRANCH   6  30
ATOM     30  N   UNL     1      -1.980   2.166  -0.675  1.00  0.00    -0.346 N 
ATOM     31  C   UNL     1      -0.984   3.123  -0.696  1.00  0.00     0.251 C 
ATOM     32  H   UNL     1      -2.844   2.331  -0.181  1.00  0.00     0.164 HD
ATOM     33  O   UNL     1       0.103   2.936  -1.237  1.00  0.00    -0.269 OA
BRANCH  31  34
ATOM     34  C   UNL     1      -1.280   4.424  -0.046  1.00  0.00     0.042 A 
ATOM     35  C   UNL     1      -0.619   5.558  -0.521  1.00  0.00     0.034 A 
ATOM     36  C   UNL     1      -2.160   4.540   1.030  1.00  0.00     0.034 A 
ATOM     37  C   UNL     1      -0.890   6.770   0.084  1.00  0.00     0.112 A 
ATOM     38  C   UNL     1      -2.360   5.799   1.567  1.00  0.00     0.112 A 
ATOM     39  N   UNL     1      -1.754   6.915   1.111  1.00  0.00    -0.265 NA
ENDBRANCH  31  34
ENDBRANCH   6  30
BRANCH   4  40
ATOM     40  C   UNL     1      -4.752   0.010   0.151  1.00  0.00     0.185 C 
BRANCH  40  41
ATOM     41  C   UNL     1      -5.566  -0.900   1.085  1.00  0.00     0.236 C 
ATOM     42  O   UNL     1      -5.371  -0.845   2.305  1.00  0.00    -0.273 OA
BRANCH  41  43
ATOM     43  N   UNL     1      -6.505  -1.757   0.526  1.00  0.00    -0.339 N 
ATOM     44  C   UNL     1      -6.729  -1.923  -0.907  1.00  0.00     0.122 C 
ATOM     45  C   UNL     1      -7.310  -2.587   1.430  1.00  0.00     0.154 C 
ATOM     46  C   UNL     1      -7.220  -3.326  -1.232  1.00  0.00     0.056 C 
ATOM     47  C   UNL     1      -8.674  -2.993   0.851  1.00  0.00     0.162 C 
ATOM     48  C   UNL     1      -8.558  -3.615  -0.553  1.00  0.00     0.146 C 
BRANCH  47  49
ATOM     49  O   UNL     1      -9.513  -1.829   0.780  1.00  0.00    -0.389 OA
ATOM     50  H   UNL     1     -10.428  -2.148   0.703  1.00  0.00     0.211 HD
ENDBRANCH  47  49
BRANCH  48  51
ATOM     51  O   UNL     1      -8.739  -5.032  -0.467  1.00  0.00    -0.390 OA
ATOM     52  H   UNL     1      -8.666  -5.395  -1.366  1.00  0.00     0.211 HD
ENDBRANCH  48  51
ENDBRANCH  41  43
ENDBRANCH  40  41
ENDBRANCH   4  40
TORSDOF 13
