MODEL        2USER    Run = 2USERUSER    Estimated Free Energy of Binding    = -10.61 kcal/mol  [=(1)+(2)+(3)-(4)]USERUSER    (1) Final Intermolecular Energy     = -13.60 kcal/molUSER        vdW + Hbond + desolv Energy     = -13.58 kcal/molUSER        Electrostatic Energy            =  -0.02 kcal/molUSER        Moving Ligand-Fixed Receptor    = -13.60 kcal/molUSER        Moving Ligand-Moving Receptor   =  +0.00 kcal/molUSER    (2) Final Total Internal Energy     =  -3.25 kcal/molUSER    (3) Torsional Free Energy           =  +2.98 kcal/molUSER    (4) Unbound System's Energy         =  -3.25 kcal/molUSERUSERREMARK SMILES COc1ccc(O)c(C(=O)c2ccc(C(=O)N[C@@H]3CCN(CC(=O)N4CCOCC4)C[C@H]3NC(=O)c3cncnc3)cc2)c1FREMARK SMILES IDX 11 1 12 2 13 3 14 4 42 5 43 6 9 7 10 8 8 9 3 10 4 11 44 12REMARK SMILES IDX 5 13 6 14 45 15 2 16 1 17 7 18 15 20 17 21 16 22 18 24 19 25REMARK SMILES IDX 32 26 20 27 31 28 21 29 33 30 34 31 35 33 36 34 37 35 41 36REMARK SMILES IDX 38 37 40 38 39 39 22 40 23 41 25 42 26 43 30 44 27 45 29 46REMARK SMILES IDX 28 47 24 48REMARK H PARENT 7 19 17 23 33 32USER                              x       y       z     vdW  Elec       q    TypeUSER                           _______ _______ _______ _____ _____    ______ ____ROOTATOM      1  C   UNL     1      37.508  43.965  25.981 -0.27 -0.00    +0.023 A  ATOM      2  C   UNL     1      37.244  45.099  25.207 -0.32 +0.00    +0.013 A  ATOM      3  C   UNL     1      37.659  45.150  23.873 -0.23 +0.00    +0.014 A  ATOM      4  C   UNL     1      38.338  44.065  23.304 -0.28 +0.00    +0.039 A  ATOM      5  C   UNL     1      38.570  42.917  24.074 -0.27 +0.00    +0.014 A  ATOM      6  C   UNL     1      38.156  42.865  25.410 -0.27 -0.00    +0.013 A  ENDROOTBRANCH   1   7ATOM      7  C   UNL     1      37.013  43.937  27.377 -0.31 -0.03    +0.199 C  ATOM      8  O   UNL     1      37.299  42.974  28.089 -0.25 +0.08    -0.288 OA BRANCH   7   9ATOM      9  C   UNL     1      36.222  45.032  27.974 -0.36 -0.03    +0.104 A  ATOM     10  C   UNL     1      35.873  47.395  28.466 -0.28 -0.04    +0.155 A  ATOM     11  C   UNL     1      34.676  47.080  29.114 -0.40 -0.01    +0.053 A  ATOM     12  C   UNL     1      36.639  46.363  27.902 -0.22 -0.04    +0.179 A  ATOM     13  C   UNL     1      34.235  45.754  29.166 -0.35 -0.01    +0.051 A  ATOM     14  C   UNL     1      34.995  44.743  28.584 -0.44 -0.04    +0.130 A  ATOM     15  F   UNL     1      37.773  46.680  27.256 -0.08 +0.03    -0.202 F  BRANCH  10  16ATOM     16  O   UNL     1      36.390  48.656  28.321 -0.10 +0.06    -0.494 OA ATOM     17  C   UNL     1      36.302  49.252  27.031 -0.25 -0.01    +0.278 C  ENDBRANCH  10  16BRANCH  14  18ATOM     18  O   UNL     1      34.472  43.478  28.643 -0.30 +0.15    -0.507 OA ATOM     19  H   UNL     1      35.213  42.854  28.825 -0.31 -0.18    +0.293 HD ENDBRANCH  14  18ENDBRANCH   7   9ENDBRANCH   1   7BRANCH   4  20ATOM     20  C   UNL     1      38.767  44.061  21.880 -0.21 +0.01    +0.251 C  ATOM     21  N   UNL     1      39.646  45.047  21.487 -0.12 -0.01    -0.347 N  ATOM     22  O   UNL     1      38.321  43.221  21.100 -0.12 -0.01    -0.269 OA ATOM     23  H   UNL     1      39.922  45.760  22.153 +0.08 +0.01    +0.164 HD BRANCH  21  24ATOM     24  C   UNL     1      40.004  45.280  20.079 -0.37 +0.00    +0.107 C  ATOM     25  C   UNL     1      41.242  46.175  20.010 -0.41 +0.00    +0.042 C  ATOM     26  C   UNL     1      38.808  45.867  19.275 -0.22 -0.01    +0.118 C  ATOM     27  C   UNL     1      41.597  46.533  18.573 -0.51 +0.00    +0.087 C  ATOM     28  C   UNL     1      39.276  46.368  17.888 -0.40 -0.02    +0.112 C  ATOM     29  N   UNL     1      40.471  47.229  17.957 -0.28 +0.04    -0.292 NA BRANCH  26  30ATOM     30  N   UNL     1      37.744  44.857  19.147 -0.15 +0.04    -0.346 N  ATOM     31  C   UNL     1      36.543  45.113  18.526 -0.18 -0.06    +0.254 C  ATOM     32  H   UNL     1      37.812  44.070  19.795 +0.10 -0.01    +0.164 HD ATOM     33  O   UNL     1      36.303  46.166  17.944 -0.23 +0.12    -0.269 OA BRANCH  31  34ATOM     34  C   UNL     1      35.502  44.067  18.576 -0.29 -0.02    +0.076 A  ATOM     35  C   UNL     1      35.351  43.201  17.508 -0.27 -0.04    +0.128 A  ATOM     36  C   UNL     1      34.648  43.834  19.637 -0.31 -0.02    +0.128 A  ATOM     37  N   UNL     1      34.442  42.198  17.467 -0.27 +0.09    -0.244 NA ATOM     38  N   UNL     1      33.721  42.845  19.655 -0.59 -0.01    -0.244 NA ATOM     39  C   UNL     1      33.668  42.073  18.556 -0.25 -0.04    +0.221 A  ENDBRANCH  31  34ENDBRANCH  26  30BRANCH  29  40ATOM     40  C   UNL     1      40.814  47.774  16.625 -0.44 -0.03    +0.185 C  BRANCH  40  41ATOM     41  C   UNL     1      40.267  46.878  15.491 -0.36 -0.03    +0.236 C  ATOM     42  N   UNL     1      39.049  47.255  14.931 -0.20 +0.10    -0.337 N  ATOM     43  C   UNL     1      38.302  48.471  15.259 -0.48 -0.09    +0.148 C  ATOM     44  C   UNL     1      38.368  46.326  14.020 -0.36 -0.04    +0.148 C  ATOM     45  C   UNL     1      37.177  48.729  14.248 -0.44 -0.13    +0.181 C  ATOM     46  C   UNL     1      36.859  46.340  14.287 -0.36 -0.09    +0.181 C  ATOM     47  O   UNL     1      36.251  47.640  14.141 -0.25 +0.29    -0.378 OA ATOM     48  O   UNL     1      40.835  45.844  15.130 -0.40 -0.02    -0.273 OA ENDBRANCH  40  41ENDBRANCH  29  40ENDBRANCH  21  24ENDBRANCH   4  20TORSDOF 10TERENDMDL