MODEL        8USER    Run = 8USERUSER    Estimated Free Energy of Binding    = -11.54 kcal/mol  [=(1)+(2)+(3)-(4)]USERUSER    (1) Final Intermolecular Energy     = -15.42 kcal/molUSER        vdW + Hbond + desolv Energy     = -14.84 kcal/molUSER        Electrostatic Energy            =  -0.58 kcal/molUSER        Moving Ligand-Fixed Receptor    = -15.42 kcal/molUSER        Moving Ligand-Moving Receptor   =  +0.00 kcal/molUSER    (2) Final Total Internal Energy     =  -2.85 kcal/molUSER    (3) Torsional Free Energy           =  +3.88 kcal/molUSER    (4) Unbound System's Energy         =  -2.85 kcal/molUSERUSERREMARK SMILES COc1ccc(O)c(C(=O)c2ccc(C(=O)N[C@@H]3CCN(CC(=O)N4CC[C@@H](O)[C@H](O)C4)C[C@H]3NC(=O)c3ccncc3)cc2)c1FREMARK SMILES IDX 18 1 19 2 20 3 21 4 33 5 34 6 17 7 15 8 16 9 14 11 11 12REMARK SMILES IDX 12 13 45 14 13 15 44 16 9 17 10 18 8 19 3 20 4 21 46 22 5 23REMARK SMILES IDX 6 24 47 25 2 26 1 27 7 28 35 30 36 31 37 33 38 34 39 35REMARK SMILES IDX 43 36 40 37 42 38 41 39 22 40 23 41 24 42 25 43 26 44 32 45REMARK SMILES IDX 27 46 30 47 28 48 31 49 29 51REMARK H PARENT 17 10 7 29 35 32 31 50 29 52USER                              x       y       z     vdW  Elec       q    TypeUSER                           _______ _______ _______ _____ _____    ______ ____ROOTATOM      1  C   UNL     1      35.893  42.511  19.730 -0.41 -0.01    +0.107 C  ATOM      2  C   UNL     1      35.793  41.752  21.054 -0.50 +0.00    +0.042 C  ATOM      3  C   UNL     1      37.108  41.941  21.813 -0.51 +0.00    +0.087 C  ATOM      4  N   UNL     1      37.419  43.341  22.128 -0.20 -0.02    -0.292 NA ATOM      5  C   UNL     1      36.567  44.320  21.453 -0.20 +0.01    +0.112 C  ATOM      6  C   UNL     1      36.162  44.021  19.993 -0.38 -0.01    +0.118 C  ENDROOTBRANCH   1   7ATOM      7  N   UNL     1      34.727  42.343  18.857 -0.17 +0.05    -0.347 N  ATOM      8  C   UNL     1      33.481  42.815  19.220 -0.28 -0.01    +0.251 C  ATOM      9  O   UNL     1      33.276  43.511  20.207 -0.91 -0.03    -0.269 OA ATOM     10  H   UNL     1      34.710  41.454  18.358 -0.00 -0.04    +0.164 HD BRANCH   8  11ATOM     11  C   UNL     1      32.340  42.403  18.350 -0.32 -0.01    +0.039 A  ATOM     12  C   UNL     1      30.253  41.670  16.623 -0.31 -0.01    +0.023 A  ATOM     13  C   UNL     1      31.023  42.806  16.347 -0.31 -0.01    +0.013 A  ATOM     14  C   UNL     1      30.511  40.918  17.776 -0.29 -0.00    +0.013 A  ATOM     15  C   UNL     1      32.070  43.163  17.203 -0.30 -0.00    +0.014 A  ATOM     16  C   UNL     1      31.557  41.276  18.632 -0.30 -0.00    +0.014 A  BRANCH  12  17ATOM     17  C   UNL     1      29.119  41.266  15.759 -0.30 -0.07    +0.199 C  ATOM     18  O   UNL     1      29.277  40.330  14.972 -0.35 +0.06    -0.288 OA BRANCH  17  19ATOM     19  C   UNL     1      27.782  41.895  15.828 -0.20 -0.05    +0.104 A  ATOM     20  C   UNL     1      26.285  43.671  16.572 -0.22 -0.02    +0.155 A  ATOM     21  C   UNL     1      25.215  43.032  15.941 -0.30 -0.01    +0.053 A  ATOM     22  C   UNL     1      27.562  43.097  16.503 -0.13 -0.06    +0.179 A  ATOM     23  C   UNL     1      25.428  41.847  15.233 -0.29 -0.01    +0.051 A  ATOM     24  C   UNL     1      26.704  41.292  15.165 -0.25 -0.06    +0.130 A  ATOM     25  F   UNL     1      28.590  43.743  17.077 -0.03 +0.04    -0.202 F  BRANCH  20  26ATOM     26  O   UNL     1      26.202  44.843  17.279 -0.25 -0.03    -0.494 OA ATOM     27  C   UNL     1      26.017  44.745  18.684 -0.37 -0.03    +0.278 C  ENDBRANCH  20  26BRANCH  24  28ATOM     28  O   UNL     1      26.831  40.148  14.423 -0.53 +0.11    -0.507 OA ATOM     29  H   UNL     1      27.504  40.316  13.724 -0.04 -0.29    +0.293 HD ENDBRANCH  24  28ENDBRANCH  17  19ENDBRANCH  12  17ENDBRANCH   8  11ENDBRANCH   1   7BRANCH   6  30ATOM     30  N   UNL     1      37.117  44.554  19.019 -0.14 +0.05    -0.346 N  ATOM     31  C   UNL     1      36.692  45.418  18.029 -0.21 -0.08    +0.251 C  ATOM     32  H   UNL     1      38.043  44.154  18.992 +0.10 -0.02    +0.164 HD ATOM     33  O   UNL     1      35.553  45.879  17.997 -0.28 +0.14    -0.269 OA BRANCH  31  34ATOM     34  C   UNL     1      37.681  45.800  16.991 -0.35 -0.01    +0.042 A  ATOM     35  C   UNL     1      38.928  46.263  17.414 -0.40 -0.01    +0.034 A  ATOM     36  C   UNL     1      37.394  45.741  15.627 -0.34 -0.01    +0.034 A  ATOM     37  C   UNL     1      39.850  46.622  16.450 -0.39 -0.02    +0.112 A  ATOM     38  C   UNL     1      38.386  46.126  14.742 -0.33 -0.03    +0.112 A  ATOM     39  N   UNL     1      39.608  46.553  15.123 -0.25 +0.05    -0.265 NA ENDBRANCH  31  34ENDBRANCH   6  30BRANCH   4  40ATOM     40  C   UNL     1      38.857  43.657  22.050 -0.23 +0.01    +0.185 C  BRANCH  40  41ATOM     41  C   UNL     1      39.156  45.097  22.497 -0.22 +0.01    +0.236 C  ATOM     42  O   UNL     1      39.487  45.937  21.651 -0.23 -0.02    -0.273 OA BRANCH  41  43ATOM     43  N   UNL     1      39.040  45.414  23.844 -0.09 -0.02    -0.339 N  ATOM     44  C   UNL     1      39.329  44.495  24.941 -0.14 +0.00    +0.122 C  ATOM     45  C   UNL     1      38.633  46.777  24.203 -0.29 +0.02    +0.154 C  ATOM     46  C   UNL     1      39.809  45.241  26.177 -0.15 +0.00    +0.056 C  ATOM     47  C   UNL     1      37.935  46.878  25.568 -0.28 +0.01    +0.162 C  ATOM     48  C   UNL     1      38.739  46.201  26.693 -0.19 -0.00    +0.146 C  BRANCH  47  49ATOM     49  O   UNL     1      36.643  46.256  25.476 -0.73 -0.02    -0.389 OA ATOM     50  H   UNL     1      36.117  46.594  26.221 -0.45 -0.08    +0.211 HD ENDBRANCH  47  49BRANCH  48  51ATOM     51  O   UNL     1      39.365  47.201  27.505 -0.25 +0.00    -0.390 OA ATOM     52  H   UNL     1      38.833  47.301  28.313 -0.35 -0.07    +0.211 HD ENDBRANCH  48  51ENDBRANCH  41  43ENDBRANCH  40  41ENDBRANCH   4  40TORSDOF 13TERENDMDL