REMARK SMILES Cn1c(-c2ccnc(N)c2)nc2cc(C(=O)c3c(F)cc(F)cc3OC3CCOCC3)ccc21
REMARK SMILES IDX 1 1 2 2 3 3 11 4 12 5 13 6 14 7 32 8 33 9 34 10 4 11 5 12
REMARK SMILES IDX 10 13 6 14 8 15 7 16 9 17 15 20 16 21 17 22 18 23 24 24
REMARK SMILES IDX 20 25 23 26 21 27 19 28 22 29 25 30 26 31 27 32 31 33 28 34
REMARK SMILES IDX 30 35 29 36
REMARK H PARENT 9 18 9 19
ROOT
ATOM      1  C   UNL     1       3.413   0.599   2.877  1.00  0.00     0.152 C 
ATOM      2  N   UNL     1       2.701   0.405   1.636  1.00  0.00    -0.327 N 
ATOM      3  C   UNL     1       2.722  -0.726   0.840  1.00  0.00     0.141 A 
ATOM      4  N   UNL     1       1.847  -0.603  -0.143  1.00  0.00    -0.228 NA
ATOM      5  C   UNL     1       1.313   0.652  -0.029  1.00  0.00     0.090 A 
ATOM      6  C   UNL     1       0.369   1.288  -0.849  1.00  0.00     0.042 A 
ATOM      7  C   UNL     1      -0.055   2.580  -0.509  1.00  0.00     0.025 A 
ATOM      8  C   UNL     1       0.488   3.231   0.609  1.00  0.00     0.014 A 
ATOM      9  C   UNL     1       1.441   2.612   1.427  1.00  0.00     0.029 A 
ATOM     10  C   UNL     1       1.827   1.313   1.079  1.00  0.00     0.068 A 
ENDROOT
BRANCH   3  11
ATOM     11  C   UNL     1       3.547  -1.917   1.054  1.00  0.00     0.023 A 
ATOM     12  C   UNL     1       2.964  -3.179   0.944  1.00  0.00     0.032 A 
ATOM     13  C   UNL     1       4.916  -1.837   1.316  1.00  0.00     0.058 A 
ATOM     14  C   UNL     1       3.763  -4.290   1.133  1.00  0.00     0.114 A 
ATOM     15  C   UNL     1       5.636  -3.008   1.498  1.00  0.00     0.124 A 
ATOM     16  N   UNL     1       5.081  -4.227   1.418  1.00  0.00    -0.240 NA
BRANCH  15  17
ATOM     17  N   UNL     1       7.006  -2.968   1.744  1.00  0.00    -0.384 N 
ATOM     18  H   UNL     1       7.309  -3.931   1.868  1.00  0.00     0.158 HD
ATOM     19  H   UNL     1       7.232  -2.398   2.550  1.00  0.00     0.158 HD
ENDBRANCH  15  17
ENDBRANCH   3  11
BRANCH   7  20
ATOM     20  C   UNL     1      -1.079   3.305  -1.314  1.00  0.00     0.199 C 
ATOM     21  O   UNL     1      -1.207   4.522  -1.204  1.00  0.00    -0.288 OA
BRANCH  20  22
ATOM     22  C   UNL     1      -1.970   2.587  -2.244  1.00  0.00     0.100 A 
ATOM     23  C   UNL     1      -1.929   2.938  -3.595  1.00  0.00     0.141 A 
ATOM     24  C   UNL     1      -2.861   1.596  -1.790  1.00  0.00     0.136 A 
ATOM     25  C   UNL     1      -2.759   2.313  -4.514  1.00  0.00     0.079 A 
ATOM     26  C   UNL     1      -3.697   0.974  -2.719  1.00  0.00     0.086 A 
ATOM     27  C   UNL     1      -3.636   1.337  -4.064  1.00  0.00     0.129 A 
ATOM     28  F   UNL     1      -1.064   3.861  -4.040  1.00  0.00    -0.206 F 
ATOM     29  F   UNL     1      -4.444   0.728  -4.942  1.00  0.00    -0.207 F 
BRANCH  24  30
ATOM     30  O   UNL     1      -2.845   1.333  -0.449  1.00  0.00    -0.489 OA
BRANCH  30  31
ATOM     31  C   UNL     1      -3.551   0.203   0.075  1.00  0.00     0.178 C 
ATOM     32  C   UNL     1      -2.800  -1.102  -0.225  1.00  0.00     0.073 C 
ATOM     33  C   UNL     1      -3.651   0.403   1.586  1.00  0.00     0.073 C 
ATOM     34  C   UNL     1      -2.967  -2.130   0.887  1.00  0.00     0.164 C 
ATOM     35  C   UNL     1      -4.361  -0.774   2.243  1.00  0.00     0.164 C 
ATOM     36  O   UNL     1      -4.247  -1.984   1.491  1.00  0.00    -0.381 OA
ENDBRANCH  30  31
ENDBRANCH  24  30
ENDBRANCH  20  22
ENDBRANCH   7  20
TORSDOF 6
