REMARK SMILES Cc1ccc(-c2nc(-c3ccc([C@@H]4C[C@@H]4NC(=O)[C@H](C)N4CCN(CF)CC4)cc3F)cnc2O)cc1C
REMARK SMILES IDX 13 1 14 2 15 3 12 4 9 5 10 6 30 7 11 8 29 9 31 10 8 11 6 12
REMARK SMILES IDX 7 13 34 14 33 15 32 16 5 17 2 18 3 19 37 20 4 21 36 22 1 23
REMARK SMILES IDX 38 24 35 25 16 27 17 28 18 30 19 31 20 32 21 33 22 34 28 35
REMARK SMILES IDX 23 36 27 37 24 38 25 39 26 40
REMARK H PARENT 35 26 16 29
ROOT
ATOM      1  C   UNL     1      -1.378   3.118  -0.917  1.00  0.00     0.044 C 
ATOM      2  C   UNL     1      -1.804   3.898   0.304  1.00  0.00     0.036 C 
ATOM      3  C   UNL     1      -2.771   2.950  -0.340  1.00  0.00     0.090 C 
ENDROOT
BRANCH   1   4
ATOM      4  C   UNL     1      -0.349   2.016  -0.809  1.00  0.00    -0.040 A 
ATOM      5  C   UNL     1       1.593  -0.091  -0.629  1.00  0.00     0.038 A 
ATOM      6  C   UNL     1       1.789   1.149   0.004  1.00  0.00     0.014 A 
ATOM      7  C   UNL     1       0.417  -0.232  -1.374  1.00  0.00     0.132 A 
ATOM      8  C   UNL     1       0.840   2.177  -0.085  1.00  0.00     0.005 A 
ATOM      9  C   UNL     1      -0.527   0.793  -1.472  1.00  0.00     0.044 A 
ATOM     10  F   UNL     1       0.161  -1.375  -2.030  1.00  0.00    -0.206 F 
BRANCH   5  11
ATOM     11  C   UNL     1       2.598  -1.162  -0.510  1.00  0.00     0.092 A 
ATOM     12  C   UNL     1       4.837  -1.714  -0.208  1.00  0.00     0.133 A 
ATOM     13  N   UNL     1       3.884  -0.751  -0.341  1.00  0.00    -0.240 NA
ATOM     14  C   UNL     1       4.499  -3.073  -0.256  1.00  0.00     0.238 A 
ATOM     15  N   UNL     1       3.231  -3.500  -0.402  1.00  0.00    -0.218 NA
ATOM     16  C   UNL     1       2.299  -2.523  -0.529  1.00  0.00     0.144 A 
BRANCH  12  17
ATOM     17  C   UNL     1       6.205  -1.210  -0.021  1.00  0.00     0.006 A 
ATOM     18  C   UNL     1       8.849  -0.237   0.296  1.00  0.00    -0.048 A 
ATOM     19  C   UNL     1       8.292  -1.123   1.229  1.00  0.00     0.004 A 
ATOM     20  C   UNL     1       8.073   0.180  -0.801  1.00  0.00    -0.048 A 
ATOM     21  C   UNL     1       6.989  -1.601   1.074  1.00  0.00     0.011 A 
ATOM     22  C   UNL     1       6.762  -0.306  -0.941  1.00  0.00     0.014 A 
ATOM     23  C   UNL     1      10.255   0.260   0.498  1.00  0.00     0.044 C 
ATOM     24  C   UNL     1       8.612   1.144  -1.823  1.00  0.00     0.044 C 
ENDBRANCH  12  17
BRANCH  14  25
ATOM     25  O   UNL     1       5.417  -4.083  -0.190  1.00  0.00    -0.492 OA
ATOM     26  H   UNL     1       6.293  -3.701  -0.361  1.00  0.00     0.295 HD
ENDBRANCH  14  25
ENDBRANCH   5  11
ENDBRANCH   1   4
BRANCH   3  27
ATOM     27  N   UNL     1      -3.184   1.763   0.347  1.00  0.00    -0.351 N 
ATOM     28  C   UNL     1      -3.829   0.727  -0.308  1.00  0.00     0.237 C 
ATOM     29  H   UNL     1      -2.857   1.618   1.295  1.00  0.00     0.163 HD
ATOM     30  O   UNL     1      -4.149   0.790  -1.494  1.00  0.00    -0.273 OA
BRANCH  28  31
ATOM     31  C   UNL     1      -4.081  -0.513   0.580  1.00  0.00     0.143 C 
ATOM     32  C   UNL     1      -3.293  -1.704   0.030  1.00  0.00     0.035 C 
BRANCH  31  33
ATOM     33  N   UNL     1      -5.516  -0.819   0.755  1.00  0.00    -0.290 NA
ATOM     34  C   UNL     1      -6.270  -1.131  -0.476  1.00  0.00     0.101 C 
ATOM     35  C   UNL     1      -6.217   0.164   1.597  1.00  0.00     0.101 C 
ATOM     36  C   UNL     1      -7.364  -0.099  -0.847  1.00  0.00     0.102 C 
ATOM     37  C   UNL     1      -7.745  -0.052   1.562  1.00  0.00     0.102 C 
ATOM     38  N   UNL     1      -8.323   0.216   0.232  1.00  0.00    -0.274 NA
BRANCH  38  39
ATOM     39  C   UNL     1      -9.566  -0.525   0.064  1.00  0.00     0.303 C 
ATOM     40  F   UNL     1      -9.307  -1.857   0.036  1.00  0.00    -0.234 F 
ENDBRANCH  38  39
ENDBRANCH  31  33
ENDBRANCH  28  31
ENDBRANCH   3  27
TORSDOF 8
