MODEL        5USER    Run = 5USERUSER    Estimated Free Energy of Binding    =  -9.75 kcal/mol  [=(1)+(2)+(3)-(4)]USERUSER    (1) Final Intermolecular Energy     = -12.13 kcal/molUSER        vdW + Hbond + desolv Energy     = -11.79 kcal/molUSER        Electrostatic Energy            =  -0.34 kcal/molUSER        Moving Ligand-Fixed Receptor    = -12.13 kcal/molUSER        Moving Ligand-Moving Receptor   =  +0.00 kcal/molUSER    (2) Final Total Internal Energy     =  -2.73 kcal/molUSER    (3) Torsional Free Energy           =  +2.39 kcal/molUSER    (4) Unbound System's Energy         =  -2.73 kcal/molUSERUSERREMARK SMILES O=C(O)CCC[C@@H]1Cc2cc(-c3cccc(-c4ccncc4)c3F)ccc2C[C@H]1OREMARK SMILES IDX 5 1 4 2 2 3 1 4 3 5 6 7 7 8 8 9 29 10 9 11 28 12 10 13 27 14REMARK SMILES IDX 11 15 26 16 25 17 30 18 12 20 13 21 23 22 14 23 16 24 15 25REMARK SMILES IDX 24 26 17 27 18 28 22 29 19 30 21 31 20 32REMARK H PARENT 3 6 30 19USER                              x       y       z     vdW  Elec       q    TypeUSER                           _______ _______ _______ _____ _____    ______ ____ROOTATOM      1  C   UNL     1      42.184  46.312  23.907 -0.16 +0.00    +0.012 C  ENDROOTBRANCH   1   2ATOM      2  C   UNL     1      43.160  47.360  24.442 -0.15 +0.02    +0.122 C  BRANCH   2   3ATOM      3  C   UNL     1      43.396  48.459  23.441 -0.23 +0.08    +0.303 C  ATOM      4  O   UNL     1      42.561  49.071  22.797 -0.88 -0.08    -0.252 OA BRANCH   3   5ATOM      5  O   UNL     1      44.707  48.731  23.294 -0.20 -0.14    -0.481 OA ATOM      6  H   UNL     1      44.799  48.956  22.345 -0.35 +0.06    +0.296 HD ENDBRANCH   3   5ENDBRANCH   2   3ENDBRANCH   1   2BRANCH   1   7ATOM      7  C   UNL     1      42.704  45.687  22.608 -0.23 +0.00    +0.007 C  BRANCH   7   8ATOM      8  C   UNL     1      42.192  46.340  21.306 -0.37 +0.00    +0.022 C  ATOM      9  C   UNL     1      41.102  45.498  20.623 -0.39 +0.00    +0.042 C  ATOM     10  C   UNL     1      43.297  46.662  20.287 -0.20 +0.06    +0.122 C  ATOM     11  C   UNL     1      40.649  46.063  19.298 -0.40 -0.00    -0.044 A  ATOM     12  C   UNL     1      42.729  47.509  19.140 -0.54 +0.01    +0.067 C  ATOM     13  C   UNL     1      39.438  45.611  18.743 -0.42 -0.00    +0.012 A  ATOM     14  C   UNL     1      41.434  46.979  18.583 -0.49 +0.00    -0.042 A  ATOM     15  C   UNL     1      38.976  46.070  17.498 -0.41 +0.00    -0.015 A  ATOM     16  C   UNL     1      40.978  47.452  17.346 -0.51 -0.00    +0.005 A  ATOM     17  C   UNL     1      39.768  47.001  16.812 -0.48 -0.00    +0.009 A  BRANCH  10  18ATOM     18  O   UNL     1      44.349  47.381  20.929 -0.51 -0.26    -0.392 OA ATOM     19  H   UNL     1      43.955  48.171  21.339 -0.49 -0.00    +0.210 HD ENDBRANCH  10  18BRANCH  15  20ATOM     20  C   UNL     1      37.696  45.596  16.939 -0.36 -0.01    +0.018 A  ATOM     21  C   UNL     1      37.432  45.711  15.564 -0.36 -0.00    +0.012 A  ATOM     22  C   UNL     1      36.703  45.014  17.749 -0.25 -0.04    +0.138 A  ATOM     23  C   UNL     1      36.224  45.266  15.026 -0.37 -0.00    +0.001 A  ATOM     24  C   UNL     1      35.476  44.554  17.233 -0.30 -0.01    +0.018 A  ATOM     25  C   UNL     1      35.257  44.695  15.853 -0.33 -0.01    +0.012 A  ATOM     26  F   UNL     1      36.935  44.892  19.070 -0.08 +0.03    -0.206 F  BRANCH  24  27ATOM     27  C   UNL     1      34.448  43.950  18.100 -0.31 +0.00    -0.012 A  ATOM     28  C   UNL     1      34.154  42.582  18.038 -0.37 -0.01    +0.029 A  ATOM     29  C   UNL     1      33.732  44.722  19.025 -0.41 -0.01    +0.029 A  ATOM     30  C   UNL     1      33.185  42.058  18.880 -0.32 -0.01    +0.111 A  ATOM     31  C   UNL     1      32.780  44.108  19.826 -0.36 -0.01    +0.111 A  ATOM     32  N   UNL     1      32.494  42.792  19.777 -0.59 -0.03    -0.265 NA ENDBRANCH  24  27ENDBRANCH  15  20ENDBRANCH   7   8ENDBRANCH   1   7TORSDOF 8TERENDMDL