MODEL        1USER    Run = 1USERUSER    Estimated Free Energy of Binding    =  -9.18 kcal/mol  [=(1)+(2)+(3)-(4)]USERUSER    (1) Final Intermolecular Energy     = -12.46 kcal/molUSER        vdW + Hbond + desolv Energy     = -12.42 kcal/molUSER        Electrostatic Energy            =  -0.04 kcal/molUSER        Moving Ligand-Fixed Receptor    = -12.46 kcal/molUSER        Moving Ligand-Moving Receptor   =  +0.00 kcal/molUSER    (2) Final Total Internal Energy     =  -1.18 kcal/molUSER    (3) Torsional Free Energy           =  +3.28 kcal/molUSER    (4) Unbound System's Energy         =  -1.18 kcal/molUSERUSERREMARK SMILES Cc1c(CCC[C@H]2C[C@H](c3cncnc3N)C2)cccc1OCCN1CCN(C(=O)CF)CC1REMARK SMILES IDX 1 1 2 2 3 3 18 4 19 5 20 6 21 7 4 8 5 9 6 10 7 11 8 12 17 13REMARK SMILES IDX 9 14 10 15 11 16 15 17 12 18 14 19 13 20 16 21 22 24 23 25REMARK SMILES IDX 24 26 25 27 26 28 34 29 27 30 33 31 28 32 29 33 30 34 31 35REMARK SMILES IDX 32 36REMARK H PARENT 16 22 16 23USER                              x       y       z     vdW  Elec       q    TypeUSER                           _______ _______ _______ _____ _____    ______ ____ROOTATOM      1  C   UNL     1      28.011  38.244  19.487 -0.31 +0.00    +0.049 C  ATOM      2  C   UNL     1      29.259  37.874  20.256 -0.33 -0.00    -0.006 A  ATOM      3  C   UNL     1      29.171  37.087  21.436 -0.30 +0.00    -0.041 A  ATOM      4  C   UNL     1      30.355  36.788  22.131 -0.43 +0.00    +0.004 A  ATOM      5  C   UNL     1      31.595  37.197  21.645 -0.46 +0.00    +0.004 A  ATOM      6  C   UNL     1      31.681  37.932  20.466 -0.47 +0.01    +0.047 A  ATOM      7  C   UNL     1      30.523  38.283  19.771 -0.33 +0.02    +0.122 A  ENDROOTBRANCH   3   8ATOM      8  C   UNL     1      27.820  36.651  21.977 -0.37 -0.01    +0.036 C  BRANCH   8   9ATOM      9  C   UNL     1      27.160  35.399  21.378 -0.29 -0.00    +0.005 C  BRANCH   9  10ATOM     10  C   UNL     1      27.079  34.231  22.367 -0.32 -0.00    +0.004 C  BRANCH  10  11ATOM     11  C   UNL     1      28.358  33.402  22.305 -0.49 +0.00    -0.010 C  ATOM     12  C   UNL     1      29.255  33.464  23.561 -0.27 +0.01    +0.012 C  ATOM     13  C   UNL     1      28.217  31.879  22.515 -0.52 -0.00    +0.012 C  ATOM     14  C   UNL     1      29.334  31.922  23.581 -0.52 +0.01    +0.025 C  BRANCH  14  15ATOM     15  C   UNL     1      30.714  31.181  23.302 -0.48 +0.00    +0.016 A  ATOM     16  C   UNL     1      31.717  31.155  24.269 -0.38 +0.05    +0.120 A  ATOM     17  C   UNL     1      31.079  30.476  22.154 -0.50 -0.01    +0.130 A  ATOM     18  N   UNL     1      32.912  30.539  24.159 -0.18 -0.06    -0.244 NA ATOM     19  N   UNL     1      32.249  29.836  21.990 -0.80 -0.01    -0.220 NA ATOM     20  C   UNL     1      33.113  29.901  23.008 -0.35 +0.01    +0.224 A  BRANCH  17  21ATOM     21  N   UNL     1      30.217  30.359  21.063 +0.01 +0.16    -0.383 N  ATOM     22  H   UNL     1      30.534  29.646  20.417 -0.42 -0.08    +0.158 HD ATOM     23  H   UNL     1      29.302  30.124  21.441 -0.41 -0.11    +0.158 HD ENDBRANCH  17  21ENDBRANCH  14  15ENDBRANCH  10  11ENDBRANCH   9  10ENDBRANCH   8   9ENDBRANCH   3   8BRANCH   7  24ATOM     24  O   UNL     1      30.517  39.010  18.609 -0.10 -0.08    -0.492 OA BRANCH  24  25ATOM     25  C   UNL     1      31.667  39.802  18.305 -0.32 -0.01    +0.245 C  BRANCH  25  26ATOM     26  C   UNL     1      31.186  41.057  17.557 -0.31 -0.03    +0.126 C  BRANCH  26  27ATOM     27  N   UNL     1      32.256  42.037  17.313 -0.14 +0.11    -0.296 NA ATOM     28  C   UNL     1      31.773  43.437  17.373 -0.28 -0.03    +0.106 C  ATOM     29  C   UNL     1      33.396  41.803  18.217 -0.40 -0.02    +0.106 C  ATOM     30  C   UNL     1      32.464  44.343  18.417 -0.28 -0.03    +0.135 C  ATOM     31  C   UNL     1      34.467  42.908  18.118 -0.33 -0.03    +0.135 C  ATOM     32  N   UNL     1      33.921  44.248  18.353 -0.11 +0.10    -0.338 N  ATOM     33  C   UNL     1      34.697  45.388  18.525 -0.30 -0.11    +0.254 C  ATOM     34  O   UNL     1      34.197  46.491  18.760 -0.73 +0.17    -0.272 OA BRANCH  33  35ATOM     35  C   UNL     1      36.200  45.251  18.346 -0.15 -0.10    +0.314 C  ATOM     36  F   UNL     1      36.816  44.640  19.398 -0.06 +0.03    -0.240 F  ENDBRANCH  33  35ENDBRANCH  26  27ENDBRANCH  25  26ENDBRANCH  24  25ENDBRANCH   7  24TORSDOF 11TERENDMDL