REMARK SMILES Cc1c(CCC[C@H]2C[C@H](c3cncnc3N)C2)cccc1OCCN1CCN(C(=O)CF)CC1
REMARK SMILES IDX 1 1 2 2 3 3 18 4 19 5 20 6 21 7 4 8 5 9 6 10 7 11 8 12 17 13
REMARK SMILES IDX 9 14 10 15 11 16 15 17 12 18 14 19 13 20 16 21 22 24 23 25
REMARK SMILES IDX 24 26 25 27 26 28 34 29 27 30 33 31 28 32 29 33 30 34 31 35
REMARK SMILES IDX 32 36
REMARK H PARENT 16 22 16 23
ROOT
ATOM      1  C   UNL     1       0.470   1.990   2.036  1.00  0.00     0.049 C 
ATOM      2  C   UNL     1       0.176   0.584   1.563  1.00  0.00    -0.006 A 
ATOM      3  C   UNL     1      -1.135   0.047   1.671  1.00  0.00    -0.041 A 
ATOM      4  C   UNL     1      -1.356  -1.272   1.241  1.00  0.00     0.004 A 
ATOM      5  C   UNL     1      -0.332  -2.019   0.662  1.00  0.00     0.004 A 
ATOM      6  C   UNL     1       0.941  -1.475   0.519  1.00  0.00     0.047 A 
ATOM      7  C   UNL     1       1.208  -0.183   0.973  1.00  0.00     0.122 A 
ENDROOT
BRANCH   3   8
ATOM      8  C   UNL     1      -2.251   0.853   2.314  1.00  0.00     0.036 C 
BRANCH   8   9
ATOM      9  C   UNL     1      -3.704   0.520   1.942  1.00  0.00     0.005 C 
BRANCH   9  10
ATOM     10  C   UNL     1      -4.035   0.826   0.477  1.00  0.00     0.004 C 
BRANCH  10  11
ATOM     11  C   UNL     1      -5.528   0.638   0.226  1.00  0.00    -0.010 C 
ATOM     12  C   UNL     1      -5.984   0.806  -1.240  1.00  0.00     0.012 C 
ATOM     13  C   UNL     1      -6.056  -0.812   0.196  1.00  0.00     0.012 C 
ATOM     14  C   UNL     1      -6.754  -0.530  -1.153  1.00  0.00     0.025 C 
BRANCH  14  15
ATOM     15  C   UNL     1      -8.343  -0.553  -1.235  1.00  0.00     0.016 A 
ATOM     16  C   UNL     1      -8.998  -1.382  -2.143  1.00  0.00     0.120 A 
ATOM     17  C   UNL     1      -9.241   0.170  -0.448  1.00  0.00     0.130 A 
ATOM     18  N   UNL     1     -10.333  -1.508  -2.286  1.00  0.00    -0.244 NA
ATOM     19  N   UNL     1     -10.579   0.081  -0.538  1.00  0.00    -0.220 NA
ATOM     20  C   UNL     1     -11.061  -0.759  -1.459  1.00  0.00     0.224 A 
BRANCH  17  21
ATOM     21  N   UNL     1      -8.802   1.052   0.540  1.00  0.00    -0.383 N 
ATOM     22  H   UNL     1      -8.209   1.775   0.152  1.00  0.00     0.158 HD
ATOM     23  H   UNL     1      -9.637   1.455   0.960  1.00  0.00     0.158 HD
ENDBRANCH  17  21
ENDBRANCH  14  15
ENDBRANCH  10  11
ENDBRANCH   9  10
ENDBRANCH   8   9
ENDBRANCH   3   8
BRANCH   7  24
ATOM     24  O   UNL     1       2.433   0.426   0.879  1.00  0.00    -0.492 OA
BRANCH  24  25
ATOM     25  C   UNL     1       3.548  -0.367   0.465  1.00  0.00     0.245 C 
BRANCH  25  26
ATOM     26  C   UNL     1       4.822   0.465   0.689  1.00  0.00     0.126 C 
BRANCH  26  27
ATOM     27  N   UNL     1       6.053  -0.230   0.282  1.00  0.00    -0.296 NA
ATOM     28  C   UNL     1       6.201  -0.317  -1.190  1.00  0.00     0.106 C 
ATOM     29  C   UNL     1       7.233   0.377   0.924  1.00  0.00     0.106 C 
ATOM     30  C   UNL     1       7.480   0.320  -1.777  1.00  0.00     0.135 C 
ATOM     31  C   UNL     1       8.559  -0.204   0.396  1.00  0.00     0.135 C 
ATOM     32  N   UNL     1       8.684  -0.098  -1.061  1.00  0.00    -0.338 N 
ATOM     33  C   UNL     1       9.854  -0.353  -1.765  1.00  0.00     0.254 C 
ATOM     34  O   UNL     1       9.926  -0.213  -2.989  1.00  0.00    -0.272 OA
BRANCH  33  35
ATOM     35  C   UNL     1      11.045  -0.884  -0.984  1.00  0.00     0.314 C 
ATOM     36  F   UNL     1      11.432  -0.063   0.034  1.00  0.00    -0.240 F 
ENDBRANCH  33  35
ENDBRANCH  26  27
ENDBRANCH  25  26
ENDBRANCH  24  25
ENDBRANCH   7  24
TORSDOF 11
