MODEL        7USER    Run = 7USERUSER    Estimated Free Energy of Binding    = -10.68 kcal/mol  [=(1)+(2)+(3)-(4)]USERUSER    (1) Final Intermolecular Energy     = -13.07 kcal/molUSER        vdW + Hbond + desolv Energy     = -12.94 kcal/molUSER        Electrostatic Energy            =  -0.13 kcal/molUSER        Moving Ligand-Fixed Receptor    = -13.07 kcal/molUSER        Moving Ligand-Moving Receptor   =  +0.00 kcal/molUSER    (2) Final Total Internal Energy     =  -2.48 kcal/molUSER    (3) Torsional Free Energy           =  +2.39 kcal/molUSER    (4) Unbound System's Energy         =  -2.48 kcal/molUSERUSERREMARK SMILES Cc1ccc(-c2nc(-c3ccc([C@@H]4C[C@@H]4NC(=O)[C@H](C)N4CCN(CF)CC4)cc3F)cnc2O)cc1CREMARK SMILES IDX 13 1 14 2 15 3 12 4 9 5 10 6 30 7 11 8 29 9 31 10 8 11 6 12REMARK SMILES IDX 7 13 34 14 33 15 32 16 5 17 2 18 3 19 37 20 4 21 36 22 1 23REMARK SMILES IDX 38 24 35 25 16 27 17 28 18 30 19 31 20 32 21 33 22 34 28 35REMARK SMILES IDX 23 36 27 37 24 38 25 39 26 40REMARK H PARENT 35 26 16 29USER                              x       y       z     vdW  Elec       q    TypeUSER                           _______ _______ _______ _____ _____    ______ ____ROOTATOM      1  C   UNL     1      36.004  47.301  13.633 -0.53 -0.03    +0.044 C  ATOM      2  C   UNL     1      37.113  47.235  12.610 -0.67 -0.01    +0.036 C  ATOM      3  C   UNL     1      36.999  48.439  13.496 -0.55 -0.04    +0.090 C  ENDROOTBRANCH   1   4ATOM      4  C   UNL     1      36.014  46.395  14.843 -0.37 +0.03    -0.040 A  ATOM      5  C   UNL     1      36.047  44.653  17.124 -0.29 -0.01    +0.038 A  ATOM      6  C   UNL     1      35.858  46.039  17.258 -0.35 -0.01    +0.014 A  ATOM      7  C   UNL     1      36.248  44.173  15.825 -0.29 -0.05    +0.132 A  ATOM      8  C   UNL     1      35.842  46.889  16.143 -0.24 -0.01    +0.005 A  ATOM      9  C   UNL     1      36.241  45.018  14.712 -0.34 -0.02    +0.044 A  ATOM     10  F   UNL     1      36.460  42.865  15.609 -0.16 +0.07    -0.206 F  BRANCH   5  11ATOM     11  C   UNL     1      36.046  43.777  18.309 -0.26 -0.02    +0.092 A  ATOM     12  C   UNL     1      36.688  43.490  20.526 -0.32 -0.00    +0.133 A  ATOM     13  N   UNL     1      36.686  44.265  19.406 -0.22 +0.03    -0.240 NA ATOM     14  C   UNL     1      36.063  42.236  20.535 -0.30 -0.00    +0.238 A  ATOM     15  N   UNL     1      35.408  41.744  19.467 -0.20 +0.02    -0.218 NA ATOM     16  C   UNL     1      35.416  42.535  18.365 -0.27 -0.03    +0.144 A  BRANCH  12  17ATOM     17  C   UNL     1      37.387  44.072  21.680 -0.39 +0.00    +0.006 A  ATOM     18  C   UNL     1      38.774  45.190  23.886 -0.24 -0.00    -0.048 A  ATOM     19  C   UNL     1      37.617  44.422  24.078 -0.32 +0.00    +0.004 A  ATOM     20  C   UNL     1      39.237  45.416  22.577 -0.28 -0.00    -0.048 A  ATOM     21  C   UNL     1      36.933  43.873  22.992 -0.29 +0.00    +0.011 A  ATOM     22  C   UNL     1      38.535  44.860  21.493 -0.34 +0.00    +0.014 A  ATOM     23  C   UNL     1      39.483  45.769  25.081 -0.18 +0.00    +0.044 C  ATOM     24  C   UNL     1      40.462  46.247  22.309 -0.24 +0.00    +0.044 C  ENDBRANCH  12  17BRANCH  14  25ATOM     25  O   UNL     1      36.084  41.389  21.607 -0.27 -0.01    -0.492 OA ATOM     26  H   UNL     1      36.790  40.739  21.459 +0.21 -0.00    +0.295 HD ENDBRANCH  14  25ENDBRANCH   5  11ENDBRANCH   1   4BRANCH   3  27ATOM     27  N   UNL     1      38.003  48.708  14.481 -0.25 +0.21    -0.351 N  ATOM     28  C   UNL     1      39.056  47.837  14.708 -0.39 -0.08    +0.237 C  ATOM     29  H   UNL     1      38.025  49.628  14.906 -0.46 -0.15    +0.163 HD ATOM     30  O   UNL     1      39.154  46.753  14.135 -0.30 +0.06    -0.273 OA BRANCH  28  31ATOM     31  C   UNL     1      40.097  48.365  15.721 -0.52 -0.04    +0.143 C  ATOM     32  C   UNL     1      41.125  49.233  14.992 -0.70 -0.01    +0.035 C  BRANCH  31  33ATOM     33  N   UNL     1      40.728  47.292  16.517 -0.27 +0.04    -0.290 NA ATOM     34  C   UNL     1      39.941  46.053  16.679 -0.39 -0.01    +0.101 C  ATOM     35  C   UNL     1      41.277  47.769  17.796 -0.49 -0.01    +0.101 C  ATOM     36  C   UNL     1      39.490  45.755  18.131 -0.42 -0.01    +0.102 C  ATOM     37  C   UNL     1      41.711  46.592  18.697 -0.51 +0.00    +0.102 C  ATOM     38  N   UNL     1      40.570  45.770  19.140 -0.26 +0.00    -0.274 NA BRANCH  38  39ATOM     39  C   UNL     1      41.014  44.419  19.454 -0.22 +0.02    +0.303 C  ATOM     40  F   UNL     1      41.971  44.461  20.416 -0.05 -0.05    -0.234 F  ENDBRANCH  38  39ENDBRANCH  31  33ENDBRANCH  28  31ENDBRANCH   3  27TORSDOF 8TERENDMDL