MODEL        3USER    Run = 3USERUSER    Estimated Free Energy of Binding    = -10.81 kcal/mol  [=(1)+(2)+(3)-(4)]USERUSER    (1) Final Intermolecular Energy     = -12.60 kcal/molUSER        vdW + Hbond + desolv Energy     = -12.37 kcal/molUSER        Electrostatic Energy            =  -0.23 kcal/molUSER        Moving Ligand-Fixed Receptor    = -12.60 kcal/molUSER        Moving Ligand-Moving Receptor   =  +0.00 kcal/molUSER    (2) Final Total Internal Energy     =  -0.96 kcal/molUSER    (3) Torsional Free Energy           =  +1.79 kcal/molUSER    (4) Unbound System's Energy         =  -0.96 kcal/molUSERUSERREMARK SMILES Cn1c(-c2ccnc(N)c2)nc2cc(C(=O)c3c(F)cc(F)cc3OC3CCOCC3)ccc21REMARK SMILES IDX 1 1 2 2 3 3 11 4 12 5 13 6 14 7 32 8 33 9 34 10 4 11 5 12REMARK SMILES IDX 10 13 6 14 8 15 7 16 9 17 15 20 16 21 17 22 18 23 24 24REMARK SMILES IDX 20 25 23 26 21 27 19 28 22 29 25 30 26 31 27 32 31 33 28 34REMARK SMILES IDX 30 35 29 36REMARK H PARENT 9 18 9 19USER                              x       y       z     vdW  Elec       q    TypeUSER                           _______ _______ _______ _____ _____    ______ ____ROOTATOM      1  C   UNL     1      38.307  45.141  14.552 -0.19 -0.04    +0.152 C  ATOM      2  N   UNL     1      37.745  45.218  15.879 -0.13 +0.11    -0.327 N  ATOM      3  C   UNL     1      38.146  46.063  16.898 -0.29 -0.05    +0.141 A  ATOM      4  N   UNL     1      37.321  45.956  17.925 -0.19 +0.07    -0.228 NA ATOM      5  C   UNL     1      36.425  44.974  17.600 -0.27 -0.03    +0.090 A  ATOM      6  C   UNL     1      35.371  44.452  18.363 -0.31 -0.01    +0.042 A  ATOM      7  C   UNL     1      34.558  43.459  17.798 -0.31 -0.01    +0.025 A  ATOM      8  C   UNL     1      34.826  42.977  16.508 -0.42 -0.01    +0.014 A  ATOM      9  C   UNL     1      35.884  43.480  15.741 -0.40 -0.01    +0.029 A  ATOM     10  C   UNL     1      36.662  44.488  16.320 -0.30 -0.02    +0.068 A  ENDROOTBRANCH   3  11ATOM     11  C   UNL     1      39.284  46.984  16.858 -0.44 -0.01    +0.023 A  ATOM     12  C   UNL     1      39.236  48.090  16.009 -0.47 -0.01    +0.032 A  ATOM     13  C   UNL     1      40.401  46.824  17.679 -0.46 -0.01    +0.058 A  ATOM     14  C   UNL     1      40.312  48.956  15.998 -0.47 -0.03    +0.114 A  ATOM     15  C   UNL     1      41.437  47.742  17.594 -0.41 -0.01    +0.124 A  ATOM     16  N   UNL     1      41.412  48.796  16.764 -0.91 -0.00    -0.240 NA BRANCH  15  17ATOM     17  N   UNL     1      42.559  47.623  18.409 -0.29 -0.00    -0.384 N  ATOM     18  H   UNL     1      42.743  48.549  18.789 -0.14 -0.00    +0.158 HD ATOM     19  H   UNL     1      43.359  47.259  17.907 -0.50 -0.02    +0.158 HD ENDBRANCH  15  17ENDBRANCH   3  11BRANCH   7  20ATOM     20  C   UNL     1      33.400  42.881  18.537 -0.28 -0.03    +0.199 C  ATOM     21  O   UNL     1      33.479  42.666  19.744 -0.65 -0.03    -0.288 OA BRANCH  20  22ATOM     22  C   UNL     1      32.144  42.538  17.844 -0.25 -0.02    +0.100 A  ATOM     23  C   UNL     1      31.534  43.525  17.067 -0.20 -0.04    +0.141 A  ATOM     24  C   UNL     1      31.554  41.268  17.979 -0.26 -0.02    +0.136 A  ATOM     25  C   UNL     1      30.340  43.268  16.408 -0.24 -0.03    +0.079 A  ATOM     26  C   UNL     1      30.350  41.017  17.318 -0.27 -0.01    +0.086 A  ATOM     27  C   UNL     1      29.760  42.015  16.543 -0.22 -0.04    +0.129 A  ATOM     28  F   UNL     1      32.104  44.728  16.910 -0.04 +0.07    -0.206 F  ATOM     29  F   UNL     1      28.606  41.757  15.914 -0.05 +0.08    -0.207 F  BRANCH  24  30ATOM     30  O   UNL     1      32.213  40.373  18.775 -0.33 -0.01    -0.489 OA BRANCH  30  31ATOM     31  C   UNL     1      31.667  39.069  19.003 -0.38 +0.02    +0.178 C  ATOM     32  C   UNL     1      32.511  37.991  18.308 -0.44 +0.00    +0.073 C  ATOM     33  C   UNL     1      31.682  38.839  20.513 -0.44 +0.02    +0.073 C  ATOM     34  C   UNL     1      32.542  36.688  19.096 -0.47 +0.04    +0.164 C  ATOM     35  C   UNL     1      31.149  37.453  20.855 -0.45 +0.02    +0.164 C  ATOM     36  O   UNL     1      31.312  36.514  19.790 -0.47 -0.15    -0.381 OA ENDBRANCH  30  31ENDBRANCH  24  30ENDBRANCH  20  22ENDBRANCH   7  20TORSDOF 6TERENDMDL