
     RDKit          3D

 46 49  0  0  0  0  0  0  0  0999 V2000
    7.4803   -0.2566   -1.5018 C   0  0  0  0  0  0  0  0  0  0  0  0
    6.8453    0.5594   -0.5284 O   0  0  0  0  0  0  0  0  0  0  0  0
    5.5257    0.4267   -0.4513 C   0  0  0  0  0  0  0  0  0  0  0  0
    4.5526   -0.3044   -1.0969 C   0  0  0  0  0  0  0  0  0  0  0  0
    3.3200    0.0511   -0.4949 C   0  0  0  0  0  0  0  0  0  0  0  0
    3.6166    0.9724    0.4902 C   0  0  0  0  0  0  0  0  0  0  0  0
    2.8070    1.7444    1.4896 C   0  0  0  0  0  0  0  0  0  0  0  0
    3.0427    1.2721    2.9357 C   0  0  0  0  0  0  0  0  0  0  0  0
    2.3339   -0.3674    3.3208 S   0  0  0  0  0  0  0  0  0  0  0  0
    0.8551   -0.3004    2.3276 C   0  0  0  0  0  0  0  0  0  0  0  0
    0.0315   -1.3624    2.4675 N   0  0  0  0  0  0  0  0  0  0  0  0
   -1.0677   -1.3525    1.6741 C   0  0  0  0  0  0  0  0  0  0  0  0
   -1.3819   -0.3407    0.7614 C   0  0  0  0  0  0  0  0  0  0  0  0
   -2.5196   -0.3887   -0.0413 N   0  0  0  0  0  0  0  0  0  0  0  0
   -2.6301    0.6553   -1.0636 C   0  0  0  0  0  0  0  0  0  0  0  0
   -3.7881    0.3213   -2.0016 C   0  0  0  0  0  0  0  0  0  0  0  0
   -5.1319    0.2868   -1.2566 C   0  0  0  0  0  0  0  0  0  0  0  0
   -6.0895   -0.6983   -1.9278 C   0  0  0  0  0  0  0  0  0  0  0  0
   -4.9522   -0.0281    0.2367 C   0  0  0  0  0  0  0  0  0  0  0  0
   -3.7594   -0.9446    0.5121 C   0  0  0  0  0  0  0  0  0  0  0  0
   -0.5242    0.6984    0.6258 N   0  0  0  0  0  0  0  0  0  0  0  0
    0.5822    0.7282    1.4060 C   0  0  0  0  0  0  0  0  0  0  0  0
    1.3755    1.8528    1.2219 N   0  0  0  0  0  0  0  0  0  0  0  0
    4.9622    1.2073    0.5084 O   0  0  0  0  0  0  0  0  0  0  0  0
    7.1270   -0.0120   -2.5094 H   0  0  0  0  0  0  0  0  0  0  0  0
    8.5557   -0.0593   -1.4619 H   0  0  0  0  0  0  0  0  0  0  0  0
    7.3215   -1.3190   -1.2872 H   0  0  0  0  0  0  0  0  0  0  0  0
    4.7047   -1.0075   -1.9024 H   0  0  0  0  0  0  0  0  0  0  0  0
    2.3372   -0.3240   -0.7472 H   0  0  0  0  0  0  0  0  0  0  0  0
    3.1884    2.7740    1.4415 H   0  0  0  0  0  0  0  0  0  0  0  0
    4.1128    1.2372    3.1679 H   0  0  0  0  0  0  0  0  0  0  0  0
    2.5848    1.9862    3.6307 H   0  0  0  0  0  0  0  0  0  0  0  0
   -1.6989   -2.2278    1.7816 H   0  0  0  0  0  0  0  0  0  0  0  0
   -2.7867    1.6392   -0.6031 H   0  0  0  0  0  0  0  0  0  0  0  0
   -1.7127    0.7031   -1.6639 H   0  0  0  0  0  0  0  0  0  0  0  0
   -3.5899   -0.6496   -2.4751 H   0  0  0  0  0  0  0  0  0  0  0  0
   -3.8379    1.0583   -2.8120 H   0  0  0  0  0  0  0  0  0  0  0  0
   -5.5913    1.2818   -1.3269 H   0  0  0  0  0  0  0  0  0  0  0  0
   -5.7152   -1.7256   -1.8649 H   0  0  0  0  0  0  0  0  0  0  0  0
   -7.0748   -0.6683   -1.4507 H   0  0  0  0  0  0  0  0  0  0  0  0
   -6.2233   -0.4489   -2.9858 H   0  0  0  0  0  0  0  0  0  0  0  0
   -4.7917    0.9169    0.7737 H   0  0  0  0  0  0  0  0  0  0  0  0
   -5.8657   -0.4646    0.6572 H   0  0  0  0  0  0  0  0  0  0  0  0
   -3.9328   -1.9305    0.0652 H   0  0  0  0  0  0  0  0  0  0  0  0
   -3.7011   -1.0854    1.5980 H   0  0  0  0  0  0  0  0  0  0  0  0
    1.1038    2.3165    0.3614 H   0  0  0  0  0  0  0  0  0  0  0  0
  1  2  1  0
  2  3  1  0
  3  4  2  0
  4  5  1  0
  5  6  2  0
  6  7  1  0
  7  8  1  0
  8  9  1  0
  9 10  1  0
 10 11  2  0
 11 12  1  0
 12 13  2  0
 13 14  1  0
 14 15  1  0
 15 16  1  0
 16 17  1  0
 17 18  1  0
 17 19  1  0
 19 20  1  0
 13 21  1  0
 21 22  2  0
 22 23  1  0
  6 24  1  0
 24  3  1  0
 23  7  1  0
 22 10  1  0
 20 14  1  0
  1 25  1  0
  1 26  1  0
  1 27  1  0
  4 28  1  0
  5 29  1  0
  7 30  1  0
  8 31  1  0
  8 32  1  0
 12 33  1  0
 15 34  1  0
 15 35  1  0
 16 36  1  0
 16 37  1  0
 17 38  1  0
 18 39  1  0
 18 40  1  0
 18 41  1  0
 19 42  1  0
 19 43  1  0
 20 44  1  0
 20 45  1  0
 23 46  1  0
M  END
$$$$
