
     RDKit          3D

 62 65  0  0  0  0  0  0  0  0999 V2000
   -9.7099    0.0208   -1.0999 C   0  0  0  0  0  0  0  0  0  0  0  0
   -8.3461    0.4402   -1.1159 O   0  0  0  0  0  0  0  0  0  0  0  0
   -7.5504   -0.2506   -0.2636 C   0  0  0  0  0  0  0  0  0  0  0  0
   -7.9171   -1.1505    0.4754 O   0  0  0  0  0  0  0  0  0  0  0  0
   -6.2804    0.2345   -0.3548 N   0  0  0  0  0  0  0  0  0  0  0  0
   -5.2170   -0.1746    0.5448 C   0  0  2  0  0  0  0  0  0  0  0  0
   -5.3068    0.6138    1.8517 C   0  0  0  0  0  0  0  0  0  0  0  0
   -3.8368    0.0232   -0.1064 C   0  0  0  0  0  0  0  0  0  0  0  0
   -3.6486   -0.8557   -1.3483 C   0  0  0  0  0  0  0  0  0  0  0  0
   -2.2458   -0.8648   -1.9842 C   0  0  0  0  0  0  0  0  0  0  0  0
   -2.3455   -1.6899   -3.1523 O   0  0  0  0  0  0  0  0  0  0  0  0
   -1.7272    0.5166   -2.4087 C   0  0  0  0  0  0  0  0  0  0  0  0
   -0.8752    0.9975   -1.2440 C   0  0  0  0  0  0  0  0  0  0  0  0
   -0.4271   -0.2109   -0.5754 N   0  0  0  0  0  0  0  0  0  0  0  0
    0.6852   -0.3634    0.2385 C   0  0  0  0  0  0  0  0  0  0  0  0
    1.1016   -1.4800    0.5392 O   0  0  0  0  0  0  0  0  0  0  0  0
    1.3771    0.8368    0.7011 C   0  0  0  0  0  0  0  0  0  0  0  0
    0.8121    2.0169    1.1669 C   0  0  0  0  0  0  0  0  0  0  0  0
    1.8242    2.8741    1.5157 N   0  0  0  0  0  0  0  0  0  0  0  0
    3.0320    2.2690    1.3176 C   0  0  0  0  0  0  0  0  0  0  0  0
    4.2186    2.8452    1.5720 N   0  0  0  0  0  0  0  0  0  0  0  0
    5.2675    2.0228    1.3041 C   0  0  0  0  0  0  0  0  0  0  0  0
    5.2053    0.7094    0.8218 C   0  0  0  0  0  0  0  0  0  0  0  0
    6.4165   -0.0952    0.5890 C   0  0  0  0  0  0  0  0  0  0  0  0
    6.5109   -1.4130    1.0654 C   0  0  0  0  0  0  0  0  0  0  0  0
    7.6602   -2.1835    0.8438 C   0  0  0  0  0  0  0  0  0  0  0  0
    8.7308   -1.6778    0.1044 C   0  0  0  0  0  0  0  0  0  0  0  0
    9.9167   -2.4085   -0.0099 N   0  0  0  0  0  0  0  0  0  0  0  0
    8.6746   -0.3521   -0.3201 C   0  0  0  0  0  0  0  0  0  0  0  0
    7.5289    0.4137   -0.0965 C   0  0  0  0  0  0  0  0  0  0  0  0
    7.5159    1.6727   -0.5630 F   0  0  0  0  0  0  0  0  0  0  0  0
    3.9234    0.1872    0.5767 C   0  0  0  0  0  0  0  0  0  0  0  0
    2.7960    0.9913    0.8306 C   0  0  0  0  0  0  0  0  0  0  0  0
   -1.1435   -1.3848   -1.0456 C   0  0  0  0  0  0  0  0  0  0  0  0
  -10.1436    0.1636   -0.1056 H   0  0  0  0  0  0  0  0  0  0  0  0
  -10.2637    0.6425   -1.8091 H   0  0  0  0  0  0  0  0  0  0  0  0
   -9.7945   -1.0236   -1.4142 H   0  0  0  0  0  0  0  0  0  0  0  0
   -6.1872    1.0709   -0.9138 H   0  0  0  0  0  0  0  0  0  0  0  0
   -5.3567   -1.2375    0.7789 H   0  0  0  0  0  0  0  0  0  0  0  0
   -4.5196    0.3086    2.5478 H   0  0  0  0  0  0  0  0  0  0  0  0
   -5.2073    1.6896    1.6725 H   0  0  0  0  0  0  0  0  0  0  0  0
   -6.2711    0.4503    2.3432 H   0  0  0  0  0  0  0  0  0  0  0  0
   -3.0646   -0.2142    0.6335 H   0  0  0  0  0  0  0  0  0  0  0  0
   -3.7170    1.0776   -0.3828 H   0  0  0  0  0  0  0  0  0  0  0  0
   -3.9175   -1.8917   -1.0994 H   0  0  0  0  0  0  0  0  0  0  0  0
   -4.3724   -0.5532   -2.1171 H   0  0  0  0  0  0  0  0  0  0  0  0
   -1.4614   -1.7772   -3.5495 H   0  0  0  0  0  0  0  0  0  0  0  0
   -1.0988    0.4281   -3.3046 H   0  0  0  0  0  0  0  0  0  0  0  0
   -2.5263    1.2231   -2.6566 H   0  0  0  0  0  0  0  0  0  0  0  0
   -1.4691    1.5832   -0.5374 H   0  0  0  0  0  0  0  0  0  0  0  0
   -0.0277    1.6006   -1.5831 H   0  0  0  0  0  0  0  0  0  0  0  0
   -0.2184    2.3142    1.2999 H   0  0  0  0  0  0  0  0  0  0  0  0
    1.7254    3.8070    1.8885 H   0  0  0  0  0  0  0  0  0  0  0  0
    6.2341    2.4807    1.5146 H   0  0  0  0  0  0  0  0  0  0  0  0
    5.6951   -1.8499    1.6397 H   0  0  0  0  0  0  0  0  0  0  0  0
    7.7071   -3.1872    1.2592 H   0  0  0  0  0  0  0  0  0  0  0  0
   10.5071   -2.1276   -0.7866 H   0  0  0  0  0  0  0  0  0  0  0  0
    9.7911   -3.4153    0.0327 H   0  0  0  0  0  0  0  0  0  0  0  0
    9.5141    0.1054   -0.8339 H   0  0  0  0  0  0  0  0  0  0  0  0
    3.7886   -0.8203    0.1919 H   0  0  0  0  0  0  0  0  0  0  0  0
   -0.4334   -2.0349   -1.5704 H   0  0  0  0  0  0  0  0  0  0  0  0
   -1.5322   -1.9432   -0.1874 H   0  0  0  0  0  0  0  0  0  0  0  0
  1  2  1  0
  2  3  1  0
  3  4  2  0
  3  5  1  0
  5  6  1  0
  6  7  1  0
  6  8  1  0
  8  9  1  0
  9 10  1  0
 10 11  1  0
 10 12  1  0
 12 13  1  0
 13 14  1  0
 14 15  1  0
 15 16  2  0
 15 17  1  0
 17 18  2  0
 18 19  1  0
 19 20  1  0
 20 21  2  0
 21 22  1  0
 22 23  2  0
 23 24  1  0
 24 25  2  0
 25 26  1  0
 26 27  2  0
 27 28  1  0
 27 29  1  0
 29 30  2  0
 30 31  1  0
 23 32  1  0
 32 33  2  0
 14 34  1  0
 34 10  1  0
 33 17  1  0
 33 20  1  0
 30 24  1  0
  1 35  1  0
  1 36  1  0
  1 37  1  0
  5 38  1  0
  6 39  1  1
  7 40  1  0
  7 41  1  0
  7 42  1  0
  8 43  1  0
  8 44  1  0
  9 45  1  0
  9 46  1  0
 11 47  1  0
 12 48  1  0
 12 49  1  0
 13 50  1  0
 13 51  1  0
 18 52  1  0
 19 53  1  0
 22 54  1  0
 25 55  1  0
 26 56  1  0
 28 57  1  0
 28 58  1  0
 29 59  1  0
 32 60  1  0
 34 61  1  0
 34 62  1  0
M  END
$$$$
