
     RDKit          3D

 41 42  0  0  0  0  0  0  0  0999 V2000
    5.1335   -0.4173   -0.8616 C   0  0  0  0  0  0  0  0  0  0  0  0
    3.7290   -0.2400   -0.9931 O   0  0  0  0  0  0  0  0  0  0  0  0
    3.1298    0.6820   -0.1747 C   0  0  0  0  0  0  0  0  0  0  0  0
    3.7941    1.4218    0.8099 C   0  0  0  0  0  0  0  0  0  0  0  0
    3.0943    2.3284    1.6108 C   0  0  0  0  0  0  0  0  0  0  0  0
    1.7250    2.5011    1.4393 C   0  0  0  0  0  0  0  0  0  0  0  0
    1.0530    1.7711    0.4618 C   0  0  0  0  0  0  0  0  0  0  0  0
    1.7458    0.8639   -0.3602 C   0  0  0  0  0  0  0  0  0  0  0  0
    0.9684    0.0792   -1.3971 C   0  0  0  0  0  0  0  0  0  0  0  0
    0.4114   -1.1985   -0.8292 C   0  0  0  0  0  0  0  0  0  0  0  0
   -0.8873   -1.5481   -0.6543 C   0  0  0  0  0  0  0  0  0  0  0  0
   -1.8971   -0.6796   -1.0870 N   0  0  0  0  0  0  0  0  0  0  0  0
   -2.6689    0.1432   -0.2158 C   0  0  0  0  0  0  0  0  0  0  0  0
   -2.8111   -0.1368    1.1514 C   0  0  0  0  0  0  0  0  0  0  0  0
   -3.6247    0.6539    1.9700 C   0  0  0  0  0  0  0  0  0  0  0  0
   -4.3268    1.7298    1.4332 C   0  0  0  0  0  0  0  0  0  0  0  0
   -4.2201    2.0158    0.0743 C   0  0  0  0  0  0  0  0  0  0  0  0
   -3.4059    1.2250   -0.7418 C   0  0  0  0  0  0  0  0  0  0  0  0
   -3.2967    1.6321   -2.4215 Cl  0  0  0  0  0  0  0  0  0  0  0  0
   -1.2527   -2.7837   -0.0616 N   0  0  0  0  0  0  0  0  0  0  0  0
   -0.3372   -3.7359    0.3285 N   0  0  0  0  0  0  0  0  0  0  0  0
   -2.4338   -3.3680   -0.4807 N   0  0  0  0  0  0  0  0  0  0  0  0
    5.6720    0.5105   -1.0814 H   0  0  0  0  0  0  0  0  0  0  0  0
    5.4456   -1.1645   -1.5976 H   0  0  0  0  0  0  0  0  0  0  0  0
    5.3912   -0.8011    0.1309 H   0  0  0  0  0  0  0  0  0  0  0  0
    4.8592    1.3144    0.9854 H   0  0  0  0  0  0  0  0  0  0  0  0
    3.6208    2.8962    2.3738 H   0  0  0  0  0  0  0  0  0  0  0  0
    1.1789    3.2001    2.0672 H   0  0  0  0  0  0  0  0  0  0  0  0
   -0.0200    1.9069    0.3431 H   0  0  0  0  0  0  0  0  0  0  0  0
    1.6100   -0.1640   -2.2528 H   0  0  0  0  0  0  0  0  0  0  0  0
    0.1942    0.7323   -1.8132 H   0  0  0  0  0  0  0  0  0  0  0  0
    1.1933   -1.8866   -0.5219 H   0  0  0  0  0  0  0  0  0  0  0  0
   -1.6264   -0.1383   -1.9039 H   0  0  0  0  0  0  0  0  0  0  0  0
   -2.2854   -0.9738    1.6043 H   0  0  0  0  0  0  0  0  0  0  0  0
   -3.7110    0.4207    3.0289 H   0  0  0  0  0  0  0  0  0  0  0  0
   -4.9603    2.3405    2.0716 H   0  0  0  0  0  0  0  0  0  0  0  0
   -4.7732    2.8522   -0.3447 H   0  0  0  0  0  0  0  0  0  0  0  0
    0.1004   -4.1209   -0.5070 H   0  0  0  0  0  0  0  0  0  0  0  0
    0.3965   -3.3088    0.8897 H   0  0  0  0  0  0  0  0  0  0  0  0
   -3.1189   -2.6252   -0.6314 H   0  0  0  0  0  0  0  0  0  0  0  0
   -2.7889   -3.9303    0.2892 H   0  0  0  0  0  0  0  0  0  0  0  0
  1  2  1  0
  2  3  1  0
  3  4  2  0
  4  5  1  0
  5  6  2  0
  6  7  1  0
  7  8  2  0
  8  9  1  0
  9 10  1  0
 10 11  2  3
 11 12  1  0
 12 13  1  0
 13 14  2  0
 14 15  1  0
 15 16  2  0
 16 17  1  0
 17 18  2  0
 18 19  1  0
 11 20  1  0
 20 21  1  0
 20 22  1  0
  8  3  1  0
 18 13  1  0
  1 23  1  0
  1 24  1  0
  1 25  1  0
  4 26  1  0
  5 27  1  0
  6 28  1  0
  7 29  1  0
  9 30  1  0
  9 31  1  0
 10 32  1  0
 12 33  1  0
 14 34  1  0
 15 35  1  0
 16 36  1  0
 17 37  1  0
 21 38  1  0
 21 39  1  0
 22 40  1  0
 22 41  1  0
M  END
$$$$
