
     RDKit          3D

 63 66  0  0  0  0  0  0  0  0999 V2000
    3.8989    3.4374   -1.3946 C   0  0  0  0  0  0  0  0  0  0  0  0
    4.5962    2.4607   -0.5251 C   0  0  0  0  0  0  0  0  0  0  0  0
    5.8018    2.7559   -0.0244 N   0  0  0  0  0  0  0  0  0  0  0  0
    6.1439    1.6557    0.6689 N   0  0  0  0  0  0  0  0  0  0  0  0
    7.4247    1.6244    1.3371 C   0  0  0  0  0  0  0  0  0  0  0  0
    5.1805    0.6753    0.6724 C   0  0  0  0  0  0  0  0  0  0  0  0
    5.3246   -0.5829    1.4458 C   0  0  0  0  0  0  0  0  0  0  0  0
    4.1675    1.1674   -0.1234 C   0  0  0  0  0  0  0  0  0  0  0  0
    2.9874    0.5695   -0.4368 N   0  0  0  0  0  0  0  0  0  0  0  0
    2.9431   -0.8180   -0.9273 C   0  0  0  0  0  0  0  0  0  0  0  0
    1.8811   -1.6543   -0.1974 C   0  0  0  0  0  0  0  0  0  0  0  0
    0.5459   -1.0552   -0.2567 N   0  0  0  0  0  0  0  0  0  0  0  0
   -0.5567   -1.8721   -0.0167 C   0  0  0  0  0  0  0  0  0  0  0  0
   -0.4226   -3.0457    0.3265 O   0  0  0  0  0  0  0  0  0  0  0  0
   -1.8801   -1.2804   -0.1930 C   0  0  0  0  0  0  0  0  0  0  0  0
   -2.3481   -0.5881   -1.3560 C   0  0  0  0  0  0  0  0  0  0  0  0
   -3.6494   -0.1795   -1.1418 C   0  0  0  0  0  0  0  0  0  0  0  0
   -4.6332    0.5860   -2.0084 C   0  0  0  0  0  0  0  0  0  0  0  0
   -3.9951    0.9811   -3.3551 C   0  0  0  0  0  0  0  0  0  0  0  0
   -5.0743    1.8753   -1.2892 C   0  0  0  0  0  0  0  0  0  0  0  0
   -5.8688   -0.2872   -2.2959 C   0  0  0  0  0  0  0  0  0  0  0  0
   -3.9866   -0.6295    0.1124 N   0  0  0  0  0  0  0  0  0  0  0  0
   -2.9428   -1.3093    0.7021 C   0  0  0  0  0  0  0  0  0  0  0  0
   -3.0817   -1.8535    1.9746 N   0  0  0  0  0  0  0  0  0  0  0  0
   -2.1534   -2.6773    2.6807 C   0  0  0  0  0  0  0  0  0  0  0  0
   -2.7689   -2.7859    4.0522 C   0  0  0  0  0  0  0  0  0  0  0  0
   -4.1486   -2.4609    3.8756 O   0  0  0  0  0  0  0  0  0  0  0  0
   -4.2804   -1.8079    2.6782 C   0  0  0  0  0  0  0  0  0  0  0  0
   -5.3271   -1.2799    2.3262 O   0  0  0  0  0  0  0  0  0  0  0  0
    0.4977    0.4098   -0.3742 C   0  0  0  0  0  0  0  0  0  0  0  0
    1.7578    1.0932    0.1848 C   0  0  0  0  0  0  0  0  0  0  0  0
    3.2579    2.9292   -2.1236 H   0  0  0  0  0  0  0  0  0  0  0  0
    4.6148    4.0513   -1.9533 H   0  0  0  0  0  0  0  0  0  0  0  0
    3.2737    4.1032   -0.7905 H   0  0  0  0  0  0  0  0  0  0  0  0
    7.9108    0.6700    1.1196 H   0  0  0  0  0  0  0  0  0  0  0  0
    8.0497    2.4437    0.9690 H   0  0  0  0  0  0  0  0  0  0  0  0
    7.2528    1.7375    2.4108 H   0  0  0  0  0  0  0  0  0  0  0  0
    5.7841   -0.3999    2.4233 H   0  0  0  0  0  0  0  0  0  0  0  0
    5.9478   -1.2996    0.8993 H   0  0  0  0  0  0  0  0  0  0  0  0
    4.3530   -1.0463    1.6358 H   0  0  0  0  0  0  0  0  0  0  0  0
    2.6953   -0.7818   -1.9953 H   0  0  0  0  0  0  0  0  0  0  0  0
    3.9154   -1.3163   -0.8526 H   0  0  0  0  0  0  0  0  0  0  0  0
    2.1377   -1.7517    0.8645 H   0  0  0  0  0  0  0  0  0  0  0  0
    1.8461   -2.6644   -0.6216 H   0  0  0  0  0  0  0  0  0  0  0  0
   -1.7756   -0.4202   -2.2597 H   0  0  0  0  0  0  0  0  0  0  0  0
   -3.6772    0.0993   -3.9236 H   0  0  0  0  0  0  0  0  0  0  0  0
   -3.1146    1.6189   -3.2102 H   0  0  0  0  0  0  0  0  0  0  0  0
   -4.7036    1.5365   -3.9802 H   0  0  0  0  0  0  0  0  0  0  0  0
   -5.7600    2.4606   -1.9127 H   0  0  0  0  0  0  0  0  0  0  0  0
   -5.5925    1.6579   -0.3483 H   0  0  0  0  0  0  0  0  0  0  0  0
   -4.2139    2.5114   -1.0506 H   0  0  0  0  0  0  0  0  0  0  0  0
   -5.5876   -1.2215   -2.7963 H   0  0  0  0  0  0  0  0  0  0  0  0
   -6.4003   -0.5556   -1.3751 H   0  0  0  0  0  0  0  0  0  0  0  0
   -6.5810    0.2370   -2.9430 H   0  0  0  0  0  0  0  0  0  0  0  0
   -4.8901   -0.5103    0.5602 H   0  0  0  0  0  0  0  0  0  0  0  0
   -1.1544   -2.2361    2.7205 H   0  0  0  0  0  0  0  0  0  0  0  0
   -2.1173   -3.6585    2.1953 H   0  0  0  0  0  0  0  0  0  0  0  0
   -2.3334   -2.0672    4.7549 H   0  0  0  0  0  0  0  0  0  0  0  0
   -2.6707   -3.7916    4.4711 H   0  0  0  0  0  0  0  0  0  0  0  0
   -0.3807    0.8041    0.1449 H   0  0  0  0  0  0  0  0  0  0  0  0
    0.4008    0.6374   -1.4419 H   0  0  0  0  0  0  0  0  0  0  0  0
    1.6726    2.1729    0.0193 H   0  0  0  0  0  0  0  0  0  0  0  0
    1.8073    0.9260    1.2686 H   0  0  0  0  0  0  0  0  0  0  0  0
  1  2  1  0
  2  3  2  0
  3  4  1  0
  4  5  1  0
  4  6  1  0
  6  7  1  0
  6  8  2  0
  8  9  1  0
  9 10  1  0
 10 11  1  0
 11 12  1  0
 12 13  1  0
 13 14  2  0
 13 15  1  0
 15 16  1  0
 16 17  2  0
 17 18  1  0
 18 19  1  0
 18 20  1  0
 18 21  1  0
 17 22  1  0
 22 23  1  0
 23 24  1  0
 24 25  1  0
 25 26  1  0
 26 27  1  0
 27 28  1  0
 28 29  2  0
 12 30  1  0
 30 31  1  0
  8  2  1  0
 31  9  1  0
 23 15  2  0
 28 24  1  0
  1 32  1  0
  1 33  1  0
  1 34  1  0
  5 35  1  0
  5 36  1  0
  5 37  1  0
  7 38  1  0
  7 39  1  0
  7 40  1  0
 10 41  1  0
 10 42  1  0
 11 43  1  0
 11 44  1  0
 16 45  1  0
 19 46  1  0
 19 47  1  0
 19 48  1  0
 20 49  1  0
 20 50  1  0
 20 51  1  0
 21 52  1  0
 21 53  1  0
 21 54  1  0
 22 55  1  0
 25 56  1  0
 25 57  1  0
 26 58  1  0
 26 59  1  0
 30 60  1  0
 30 61  1  0
 31 62  1  0
 31 63  1  0
M  END
$$$$
