
     RDKit          3D

 46 49  0  0  0  0  0  0  0  0999 V2000
   -4.8631    1.6374    0.4657 C   0  0  0  0  0  0  0  0  0  0  0  0
   -4.3750    0.3247    0.0547 N   0  0  0  0  0  0  0  0  0  0  0  0
   -5.1383   -0.3421   -0.9963 C   0  0  0  0  0  0  0  0  0  0  0  0
   -2.9694    0.2987   -0.1834 C   0  0  0  0  0  0  0  0  0  0  0  0
   -2.2949    1.0171   -1.2443 C   0  0  0  0  0  0  0  0  0  0  0  0
   -2.8159    1.8785   -2.2806 C   0  0  0  0  0  0  0  0  0  0  0  0
   -1.8544    2.3771   -3.1257 C   0  0  0  0  0  0  0  0  0  0  0  0
   -0.3019    1.8307   -2.7091 S   0  0  0  0  0  0  0  0  0  0  0  0
   -0.8931    0.9191   -1.3699 C   0  0  0  0  0  0  0  0  0  0  0  0
   -0.1402    0.1453   -0.4795 C   0  0  0  0  0  0  0  0  0  0  0  0
   -0.8163   -0.5494    0.4763 C   0  0  0  0  0  0  0  0  0  0  0  0
    0.0896   -1.2787    1.1948 C   0  0  0  0  0  0  0  0  0  0  0  0
   -0.3514   -2.0649    2.2420 C   0  0  0  0  0  0  0  0  0  0  0  0
   -1.7217   -2.0776    2.5381 C   0  0  0  0  0  0  0  0  0  0  0  0
   -2.6306   -1.3163    1.7762 C   0  0  0  0  0  0  0  0  0  0  0  0
   -2.1867   -0.5188    0.6954 C   0  0  0  0  0  0  0  0  0  0  0  0
    1.4255   -1.1780    0.7201 N   0  0  0  0  0  0  0  0  0  0  0  0
    1.3449   -0.1420   -0.3558 C   0  0  0  0  0  0  0  0  0  0  0  0
    2.1625    1.1034    0.0284 C   0  0  0  0  0  0  0  0  0  0  0  0
    3.6512    1.0109   -0.3361 C   0  0  0  0  0  0  0  0  0  0  0  0
    4.4262   -0.0566    0.4373 C   0  0  0  0  0  0  0  0  0  0  0  0
    5.9219    0.0142    0.1282 C   0  0  0  0  0  0  0  0  0  0  0  0
    6.6413   -0.9988    0.8906 N   0  0  0  0  0  0  0  0  0  0  0  0
   -4.8905    2.3532   -0.3610 H   0  0  0  0  0  0  0  0  0  0  0  0
   -4.2493    2.0524    1.2735 H   0  0  0  0  0  0  0  0  0  0  0  0
   -5.8830    1.5420    0.8544 H   0  0  0  0  0  0  0  0  0  0  0  0
   -6.1738   -0.4792   -0.6655 H   0  0  0  0  0  0  0  0  0  0  0  0
   -4.7338   -1.3389   -1.2069 H   0  0  0  0  0  0  0  0  0  0  0  0
   -5.1609    0.2336   -1.9264 H   0  0  0  0  0  0  0  0  0  0  0  0
   -3.8639    2.1157   -2.4017 H   0  0  0  0  0  0  0  0  0  0  0  0
   -1.9956    3.0348   -3.9723 H   0  0  0  0  0  0  0  0  0  0  0  0
    0.3423   -2.6709    2.8142 H   0  0  0  0  0  0  0  0  0  0  0  0
   -2.0910   -2.6900    3.3569 H   0  0  0  0  0  0  0  0  0  0  0  0
   -3.6907   -1.3469    2.0177 H   0  0  0  0  0  0  0  0  0  0  0  0
    2.0428   -0.9424    1.4930 H   0  0  0  0  0  0  0  0  0  0  0  0
    1.7011   -0.5804   -1.2955 H   0  0  0  0  0  0  0  0  0  0  0  0
    1.7693    1.9828   -0.4949 H   0  0  0  0  0  0  0  0  0  0  0  0
    2.0589    1.3230    1.0991 H   0  0  0  0  0  0  0  0  0  0  0  0
    3.7516    0.8308   -1.4136 H   0  0  0  0  0  0  0  0  0  0  0  0
    4.1054    1.9906   -0.1406 H   0  0  0  0  0  0  0  0  0  0  0  0
    4.2644    0.0808    1.5137 H   0  0  0  0  0  0  0  0  0  0  0  0
    4.0535   -1.0523    0.1713 H   0  0  0  0  0  0  0  0  0  0  0  0
    6.3156    1.0024    0.3888 H   0  0  0  0  0  0  0  0  0  0  0  0
    6.0951   -0.1434   -0.9420 H   0  0  0  0  0  0  0  0  0  0  0  0
    6.2959   -1.9255    0.6416 H   0  0  0  0  0  0  0  0  0  0  0  0
    7.6264   -0.9831    0.6293 H   0  0  0  0  0  0  0  0  0  0  0  0
  1  2  1  0
  2  3  1  0
  2  4  1  0
  4  5  2  0
  5  6  1  0
  6  7  2  0
  7  8  1  0
  8  9  1  0
  9 10  2  0
 10 11  1  0
 11 12  2  0
 12 13  1  0
 13 14  2  0
 14 15  1  0
 15 16  2  0
 12 17  1  0
 17 18  1  0
 18 19  1  0
 19 20  1  0
 20 21  1  0
 21 22  1  0
 22 23  1  0
 16  4  1  0
  9  5  1  0
 18 10  1  0
 16 11  1  0
  1 24  1  0
  1 25  1  0
  1 26  1  0
  3 27  1  0
  3 28  1  0
  3 29  1  0
  6 30  1  0
  7 31  1  0
 13 32  1  0
 14 33  1  0
 15 34  1  0
 17 35  1  0
 18 36  1  0
 19 37  1  0
 19 38  1  0
 20 39  1  0
 20 40  1  0
 21 41  1  0
 21 42  1  0
 22 43  1  0
 22 44  1  0
 23 45  1  0
 23 46  1  0
M  END
$$$$
