
     RDKit          3D

 32 34  0  0  0  0  0  0  0  0999 V2000
    5.5693   -1.2102   -0.3854 N   0  0  0  0  0  0  0  0  0  0  0  0
    4.9971   -1.0812    1.1922 S   0  0  0  0  0  0  0  0  0  0  0  0
    5.2724   -2.3227    1.8730 O   0  0  0  0  0  0  0  0  0  0  0  0
    5.4714    0.1964    1.6716 O   0  0  0  0  0  0  0  0  0  0  0  0
    3.2453   -0.9661    0.9280 C   0  0  0  0  0  0  0  0  0  0  0  0
    2.6112    0.2792    0.9767 C   0  0  0  0  0  0  0  0  0  0  0  0
    1.2285    0.3565    0.7866 C   0  0  0  0  0  0  0  0  0  0  0  0
    0.4868   -0.8079    0.5396 C   0  0  0  0  0  0  0  0  0  0  0  0
   -0.9894   -0.7722    0.3637 C   0  0  0  0  0  0  0  0  0  0  0  0
   -1.6545   -1.6526    0.9038 O   0  0  0  0  0  0  0  0  0  0  0  0
   -1.6078    0.2802   -0.4418 C   0  0  0  0  0  0  0  0  0  0  0  0
   -1.0048    1.0536   -1.4256 C   0  0  0  0  0  0  0  0  0  0  0  0
   -1.9448    1.9050   -1.9495 N   0  0  0  0  0  0  0  0  0  0  0  0
   -3.1496    1.6931   -1.3444 C   0  0  0  0  0  0  0  0  0  0  0  0
   -4.2749    2.3690   -1.6448 N   0  0  0  0  0  0  0  0  0  0  0  0
   -5.3380    1.9597   -0.9084 C   0  0  0  0  0  0  0  0  0  0  0  0
   -5.3135    0.9631    0.0554 C   0  0  0  0  0  0  0  0  0  0  0  0
   -6.4299    0.6428    0.7223 F   0  0  0  0  0  0  0  0  0  0  0  0
   -4.1247    0.2970    0.3296 C   0  0  0  0  0  0  0  0  0  0  0  0
   -2.9862    0.6794   -0.4041 C   0  0  0  0  0  0  0  0  0  0  0  0
    1.1293   -2.0548    0.5247 C   0  0  0  0  0  0  0  0  0  0  0  0
    2.5101   -2.1365    0.7163 C   0  0  0  0  0  0  0  0  0  0  0  0
    4.8368   -1.3532   -1.0783 H   0  0  0  0  0  0  0  0  0  0  0  0
    6.1481   -0.3953   -0.5965 H   0  0  0  0  0  0  0  0  0  0  0  0
    3.1777    1.1863    1.1799 H   0  0  0  0  0  0  0  0  0  0  0  0
    0.7382    1.3250    0.8604 H   0  0  0  0  0  0  0  0  0  0  0  0
    0.0056    1.0667   -1.8125 H   0  0  0  0  0  0  0  0  0  0  0  0
   -1.8032    2.5838   -2.6841 H   0  0  0  0  0  0  0  0  0  0  0  0
   -6.2690    2.4783   -1.1195 H   0  0  0  0  0  0  0  0  0  0  0  0
   -4.0877   -0.4871    1.0780 H   0  0  0  0  0  0  0  0  0  0  0  0
    0.5507   -2.9658    0.3760 H   0  0  0  0  0  0  0  0  0  0  0  0
    2.9995   -3.1094    0.7171 H   0  0  0  0  0  0  0  0  0  0  0  0
  1  2  1  0
  2  3  2  0
  2  4  2  0
  2  5  1  0
  5  6  2  0
  6  7  1  0
  7  8  2  0
  8  9  1  0
  9 10  2  0
  9 11  1  0
 11 12  2  0
 12 13  1  0
 13 14  1  0
 14 15  2  0
 15 16  1  0
 16 17  2  0
 17 18  1  0
 17 19  1  0
 19 20  2  0
  8 21  1  0
 21 22  2  0
 22  5  1  0
 20 11  1  0
 20 14  1  0
  1 23  1  0
  1 24  1  0
  6 25  1  0
  7 26  1  0
 12 27  1  0
 13 28  1  0
 16 29  1  0
 19 30  1  0
 21 31  1  0
 22 32  1  0
M  END
$$$$
