
     RDKit          3D

 52 55  0  0  0  0  0  0  0  0999 V2000
   -0.4906    1.7741   -0.1993 C   0  0  0  0  0  0  0  0  0  0  0  0
   -1.2260    0.4315   -0.1221 C   0  0  0  0  0  0  0  0  0  0  0  0
   -2.7236    0.6355   -0.3440 C   0  0  0  0  0  0  0  0  0  0  0  0
   -3.5330    1.0913    0.6304 C   0  0  0  0  0  0  0  0  0  0  0  0
   -4.9274    1.2724    0.4776 C   0  0  0  0  0  0  0  0  0  0  0  0
   -5.6801    2.4031    0.2234 C   0  0  0  0  0  0  0  0  0  0  0  0
   -7.0403    2.0180    0.1849 C   0  0  0  0  0  0  0  0  0  0  0  0
   -7.0887    0.6648    0.4318 C   0  0  0  0  0  0  0  0  0  0  0  0
   -5.8041    0.2171    0.6222 N   0  0  0  0  0  0  0  0  0  0  0  0
   -5.4641   -1.1579    0.9263 C   0  0  0  0  0  0  0  0  0  0  0  0
   -3.2526    0.2618   -1.7075 C   0  0  0  0  0  0  0  0  0  0  0  0
   -2.6449   -0.4406   -2.6190 N   0  0  0  0  0  0  0  0  0  0  0  0
   -1.4140   -0.8544   -2.2516 C   0  0  0  0  0  0  0  0  0  0  0  0
   -0.6726   -1.7116   -3.0112 N   0  0  0  0  0  0  0  0  0  0  0  0
    0.5214   -1.9623   -2.3822 C   0  0  0  0  0  0  0  0  0  0  0  0
    0.5460   -1.2489   -1.1967 C   0  0  0  0  0  0  0  0  0  0  0  0
    1.6694   -1.2831   -0.2791 C   0  0  0  0  0  0  0  0  0  0  0  0
    1.4666   -1.5908    1.0731 C   0  0  0  0  0  0  0  0  0  0  0  0
    2.5435   -1.6305    1.9632 C   0  0  0  0  0  0  0  0  0  0  0  0
    3.8318   -1.3537    1.5086 C   0  0  0  0  0  0  0  0  0  0  0  0
    4.0354   -1.0269    0.1632 C   0  0  0  0  0  0  0  0  0  0  0  0
    5.3983   -0.7601   -0.3466 C   0  0  0  0  0  0  0  0  0  0  0  0
    5.7942   -1.4439   -1.2879 O   0  0  0  0  0  0  0  0  0  0  0  0
    6.1687    0.2255    0.2689 N   0  0  0  0  0  0  0  0  0  0  0  0
    5.6292    1.3053    1.0842 C   0  0  0  0  0  0  0  0  0  0  0  0
    7.5482    0.3789   -0.1589 C   0  0  0  0  0  0  0  0  0  0  0  0
    2.9639   -1.0105   -0.7348 C   0  0  0  0  0  0  0  0  0  0  0  0
   -0.6849   -0.5359   -1.1259 C   0  0  0  0  0  0  0  0  0  0  0  0
   -0.6017    2.2386   -1.1864 H   0  0  0  0  0  0  0  0  0  0  0  0
   -0.8707    2.4787    0.5486 H   0  0  0  0  0  0  0  0  0  0  0  0
    0.5820    1.6473   -0.0154 H   0  0  0  0  0  0  0  0  0  0  0  0
   -1.0802    0.0084    0.8800 H   0  0  0  0  0  0  0  0  0  0  0  0
   -3.1106    1.3609    1.5960 H   0  0  0  0  0  0  0  0  0  0  0  0
   -5.2887    3.4012    0.0727 H   0  0  0  0  0  0  0  0  0  0  0  0
   -7.8929    2.6583   -0.0004 H   0  0  0  0  0  0  0  0  0  0  0  0
   -7.9328   -0.0102    0.4902 H   0  0  0  0  0  0  0  0  0  0  0  0
   -4.8088   -1.1741    1.8008 H   0  0  0  0  0  0  0  0  0  0  0  0
   -6.3767   -1.7176    1.1476 H   0  0  0  0  0  0  0  0  0  0  0  0
   -4.9668   -1.5916    0.0555 H   0  0  0  0  0  0  0  0  0  0  0  0
   -4.2722    0.6067   -1.9451 H   0  0  0  0  0  0  0  0  0  0  0  0
   -0.9778   -2.0926   -3.8952 H   0  0  0  0  0  0  0  0  0  0  0  0
    1.2449   -2.6300   -2.8317 H   0  0  0  0  0  0  0  0  0  0  0  0
    0.4700   -1.8303    1.4369 H   0  0  0  0  0  0  0  0  0  0  0  0
    2.3774   -1.8919    3.0052 H   0  0  0  0  0  0  0  0  0  0  0  0
    4.6739   -1.4067    2.1938 H   0  0  0  0  0  0  0  0  0  0  0  0
    4.5466    1.2482    1.2040 H   0  0  0  0  0  0  0  0  0  0  0  0
    5.8618    2.2592    0.6000 H   0  0  0  0  0  0  0  0  0  0  0  0
    6.1091    1.2725    2.0663 H   0  0  0  0  0  0  0  0  0  0  0  0
    7.5988    1.1816   -0.9006 H   0  0  0  0  0  0  0  0  0  0  0  0
    8.1655    0.6370    0.7065 H   0  0  0  0  0  0  0  0  0  0  0  0
    7.9346   -0.5422   -0.6041 H   0  0  0  0  0  0  0  0  0  0  0  0
    3.1456   -0.7798   -1.7823 H   0  0  0  0  0  0  0  0  0  0  0  0
  1  2  1  0
  2  3  1  0
  3  4  2  3
  4  5  1  0
  5  6  2  0
  6  7  1  0
  7  8  2  0
  8  9  1  0
  9 10  1  0
  3 11  1  0
 11 12  2  0
 12 13  1  0
 13 14  1  0
 14 15  1  0
 15 16  2  0
 16 17  1  0
 17 18  2  0
 18 19  1  0
 19 20  2  0
 20 21  1  0
 21 22  1  0
 22 23  2  0
 22 24  1  0
 24 25  1  0
 24 26  1  0
 21 27  2  0
 16 28  1  0
 28  2  1  0
  9  5  1  0
 28 13  2  0
 27 17  1  0
  1 29  1  0
  1 30  1  0
  1 31  1  0
  2 32  1  0
  4 33  1  0
  6 34  1  0
  7 35  1  0
  8 36  1  0
 10 37  1  0
 10 38  1  0
 10 39  1  0
 11 40  1  0
 14 41  1  0
 15 42  1  0
 18 43  1  0
 19 44  1  0
 20 45  1  0
 25 46  1  0
 25 47  1  0
 25 48  1  0
 26 49  1  0
 26 50  1  0
 26 51  1  0
 27 52  1  0
M  END
$$$$
