
     RDKit          3D

 48 50  0  0  0  0  0  0  0  0999 V2000
    6.6517    2.6784    0.8688 C   0  0  0  0  0  0  0  0  0  0  0  0
    5.3694    2.0045    0.5776 C   0  0  0  0  0  0  0  0  0  0  0  0
    5.0689    0.7815    0.0214 C   0  0  0  0  0  0  0  0  0  0  0  0
    3.6525    0.6989    0.0056 C   0  0  0  0  0  0  0  0  0  0  0  0
    3.0253   -0.3889   -0.4818 N   0  0  0  0  0  0  0  0  0  0  0  0
    1.6822   -0.7383   -0.6070 C   0  0  0  0  0  0  0  0  0  0  0  0
    0.6223    0.0509   -0.2035 C   0  0  0  0  0  0  0  0  0  0  0  0
   -0.7056   -0.3826   -0.3605 C   0  0  0  0  0  0  0  0  0  0  0  0
   -1.6876    0.5312    0.0331 N   0  0  0  0  0  0  0  0  0  0  0  0
   -2.5703    0.1723    1.1357 C   0  0  0  0  0  0  0  0  0  0  0  0
   -3.0212    1.4525    1.8479 C   0  0  0  0  0  0  0  0  0  0  0  0
   -3.1587    2.6666    0.9181 C   0  0  0  0  0  0  0  0  0  0  0  0
   -3.3621    2.2927   -0.5505 C   0  0  0  0  0  0  0  0  0  0  0  0
   -4.9864    1.5545   -0.7805 Cl  0  0  0  0  0  0  0  0  0  0  0  0
   -2.2490    1.3519   -1.0512 C   0  0  0  0  0  0  0  0  0  0  0  0
   -0.9394   -1.6464   -0.9344 C   0  0  0  0  0  0  0  0  0  0  0  0
   -2.3312   -2.2103   -1.1500 C   0  0  0  0  0  0  0  0  0  0  0  0
   -2.7116   -3.3400   -0.1847 C   0  0  0  0  0  0  0  0  0  0  0  0
   -3.1249   -2.8348    1.0787 O   0  0  0  0  0  0  0  0  0  0  0  0
    0.1939   -2.3717   -1.3531 C   0  0  0  0  0  0  0  0  0  0  0  0
    0.0985   -3.6903   -2.0701 C   0  0  0  0  0  0  0  0  0  0  0  0
    1.4690   -1.9370   -1.1815 N   0  0  0  0  0  0  0  0  0  0  0  0
    3.1138    1.8083    0.5175 N   0  0  0  0  0  0  0  0  0  0  0  0
    4.1598    2.5724    0.8565 N   0  0  0  0  0  0  0  0  0  0  0  0
    6.7455    2.8833    1.9400 H   0  0  0  0  0  0  0  0  0  0  0  0
    7.4997    2.0550    0.5680 H   0  0  0  0  0  0  0  0  0  0  0  0
    6.7207    3.6274    0.3276 H   0  0  0  0  0  0  0  0  0  0  0  0
    5.7753    0.0417   -0.3267 H   0  0  0  0  0  0  0  0  0  0  0  0
    3.5660   -1.1586   -0.8554 H   0  0  0  0  0  0  0  0  0  0  0  0
    0.8010    1.0220    0.2445 H   0  0  0  0  0  0  0  0  0  0  0  0
   -3.4530   -0.3609    0.7729 H   0  0  0  0  0  0  0  0  0  0  0  0
   -2.0646   -0.4740    1.8632 H   0  0  0  0  0  0  0  0  0  0  0  0
   -3.9738    1.2580    2.3555 H   0  0  0  0  0  0  0  0  0  0  0  0
   -2.3042    1.7042    2.6395 H   0  0  0  0  0  0  0  0  0  0  0  0
   -3.9654    3.3179    1.2755 H   0  0  0  0  0  0  0  0  0  0  0  0
   -2.2382    3.2613    0.9931 H   0  0  0  0  0  0  0  0  0  0  0  0
   -3.3735    3.1970   -1.1679 H   0  0  0  0  0  0  0  0  0  0  0  0
   -1.4386    1.9785   -1.4471 H   0  0  0  0  0  0  0  0  0  0  0  0
   -2.6038    0.7362   -1.8866 H   0  0  0  0  0  0  0  0  0  0  0  0
   -2.3876   -2.5877   -2.1782 H   0  0  0  0  0  0  0  0  0  0  0  0
   -3.0865   -1.4219   -1.1063 H   0  0  0  0  0  0  0  0  0  0  0  0
   -3.5587   -3.8959   -0.6000 H   0  0  0  0  0  0  0  0  0  0  0  0
   -1.8923   -4.0420   -0.0148 H   0  0  0  0  0  0  0  0  0  0  0  0
   -3.2680   -3.6013    1.6599 H   0  0  0  0  0  0  0  0  0  0  0  0
   -0.5398   -3.6096   -2.9545 H   0  0  0  0  0  0  0  0  0  0  0  0
    1.0872   -4.0110   -2.4178 H   0  0  0  0  0  0  0  0  0  0  0  0
   -0.2796   -4.4724   -1.4085 H   0  0  0  0  0  0  0  0  0  0  0  0
    3.9734    3.4769    1.2763 H   0  0  0  0  0  0  0  0  0  0  0  0
  1  2  1  0
  2  3  2  0
  3  4  1  0
  4  5  1  0
  5  6  1  0
  6  7  2  0
  7  8  1  0
  8  9  1  0
  9 10  1  0
 10 11  1  0
 11 12  1  0
 12 13  1  0
 13 14  1  0
 13 15  1  0
  8 16  2  0
 16 17  1  0
 17 18  1  0
 18 19  1  0
 16 20  1  0
 20 21  1  0
 20 22  2  0
  4 23  2  0
 23 24  1  0
 24  2  1  0
 22  6  1  0
 15  9  1  0
  1 25  1  0
  1 26  1  0
  1 27  1  0
  3 28  1  0
  5 29  1  0
  7 30  1  0
 10 31  1  0
 10 32  1  0
 11 33  1  0
 11 34  1  0
 12 35  1  0
 12 36  1  0
 13 37  1  0
 15 38  1  0
 15 39  1  0
 17 40  1  0
 17 41  1  0
 18 42  1  0
 18 43  1  0
 19 44  1  0
 21 45  1  0
 21 46  1  0
 21 47  1  0
 24 48  1  0
M  END
$$$$
