
     RDKit          3D

 69 73  0  0  0  0  0  0  0  0999 V2000
   -6.9336    5.1051    1.8305 C   0  0  0  0  0  0  0  0  0  0  0  0
   -6.0293    3.9394    2.1328 C   0  0  0  0  0  0  0  0  0  0  0  0
   -5.7944    3.5657    3.2775 O   0  0  0  0  0  0  0  0  0  0  0  0
   -5.5252    3.3263    1.0071 N   0  0  0  0  0  0  0  0  0  0  0  0
   -4.6968    2.1330    1.1286 C   0  0  0  0  0  0  0  0  0  0  0  0
   -4.1890    1.6163   -0.2279 C   0  0  0  0  0  0  0  0  0  0  0  0
   -5.3725    0.9841   -0.9424 C   0  0  0  0  0  0  0  0  0  0  0  0
   -6.4001    1.5459   -1.2866 O   0  0  0  0  0  0  0  0  0  0  0  0
   -5.1464   -0.3601   -1.0954 N   0  0  0  0  0  0  0  0  0  0  0  0
   -3.8589   -0.7500   -0.6369 C   0  0  0  0  0  0  0  0  0  0  0  0
   -3.1425   -1.5204   -1.7336 C   0  0  0  0  0  0  0  0  0  0  0  0
   -3.0871   -2.9359   -1.6744 C   0  0  0  0  0  0  0  0  0  0  0  0
   -3.7804   -3.8383   -0.3622 Cl  0  0  0  0  0  0  0  0  0  0  0  0
   -2.4693   -3.6911   -2.6786 C   0  0  0  0  0  0  0  0  0  0  0  0
   -1.8996   -3.0639   -3.7805 C   0  0  0  0  0  0  0  0  0  0  0  0
   -1.9464   -1.6789   -3.8704 C   0  0  0  0  0  0  0  0  0  0  0  0
   -2.5682   -0.9126   -2.8720 C   0  0  0  0  0  0  0  0  0  0  0  0
   -2.5924    0.7918   -3.1536 Cl  0  0  0  0  0  0  0  0  0  0  0  0
   -3.2587    0.4753   -0.1515 N   0  0  0  0  0  0  0  0  0  0  0  0
   -2.0445    0.6263    0.4908 C   0  0  0  0  0  0  0  0  0  0  0  0
   -1.6798    1.7469    0.8558 O   0  0  0  0  0  0  0  0  0  0  0  0
   -1.2043   -0.6404    0.7700 C   0  0  0  0  0  0  0  0  0  0  0  0
    0.2386   -0.3577    0.8793 N   0  0  0  0  0  0  0  0  0  0  0  0
    0.8242    0.1569   -0.3604 C   0  0  0  0  0  0  0  0  0  0  0  0
    2.2588    0.6322   -0.1086 C   0  0  0  0  0  0  0  0  0  0  0  0
    3.1081   -0.3997    0.6642 C   0  0  0  0  0  0  0  0  0  0  0  0
    4.4760   -0.6203    0.0467 C   0  0  0  0  0  0  0  0  0  0  0  0
    4.6058   -1.0362   -1.2925 C   0  0  0  0  0  0  0  0  0  0  0  0
    5.8647   -1.2601   -1.8752 C   0  0  0  0  0  0  0  0  0  0  0  0
    7.0298   -1.0862   -1.1333 C   0  0  0  0  0  0  0  0  0  0  0  0
    6.9115   -0.6751    0.1829 C   0  0  0  0  0  0  0  0  0  0  0  0
    5.6552   -0.4415    0.7685 C   0  0  0  0  0  0  0  0  0  0  0  0
    5.8289   -0.0569    2.2106 C   0  0  0  0  0  0  0  0  0  0  0  0
    7.3028    0.3655    2.2414 C   0  0  0  0  0  0  0  0  0  0  0  0
    8.0183   -0.4658    1.1697 C   0  0  0  0  0  0  0  0  0  0  0  0
    2.3592   -1.7279    0.8282 C   0  0  0  0  0  0  0  0  0  0  0  0
    0.9658   -1.5114    1.4249 C   0  0  0  0  0  0  0  0  0  0  0  0
   -7.9687    4.7591    1.7852 H   0  0  0  0  0  0  0  0  0  0  0  0
   -6.6681    5.5686    0.8761 H   0  0  0  0  0  0  0  0  0  0  0  0
   -6.8269    5.8592    2.6165 H   0  0  0  0  0  0  0  0  0  0  0  0
   -6.0396    3.4593    0.1377 H   0  0  0  0  0  0  0  0  0  0  0  0
   -3.8694    2.3815    1.8011 H   0  0  0  0  0  0  0  0  0  0  0  0
   -5.2925    1.3707    1.6461 H   0  0  0  0  0  0  0  0  0  0  0  0
   -3.7496    2.4079   -0.8440 H   0  0  0  0  0  0  0  0  0  0  0  0
   -5.8182   -0.9587   -1.5567 H   0  0  0  0  0  0  0  0  0  0  0  0
   -4.0175   -1.3579    0.2580 H   0  0  0  0  0  0  0  0  0  0  0  0
   -2.4406   -4.7766   -2.6144 H   0  0  0  0  0  0  0  0  0  0  0  0
   -1.4292   -3.6491   -4.5683 H   0  0  0  0  0  0  0  0  0  0  0  0
   -1.5075   -1.1936   -4.7415 H   0  0  0  0  0  0  0  0  0  0  0  0
   -1.5790   -1.0337    1.7239 H   0  0  0  0  0  0  0  0  0  0  0  0
   -1.3500   -1.3984    0.0046 H   0  0  0  0  0  0  0  0  0  0  0  0
    0.8032   -0.6076   -1.1495 H   0  0  0  0  0  0  0  0  0  0  0  0
    0.2617    1.0132   -0.7443 H   0  0  0  0  0  0  0  0  0  0  0  0
    2.2314    1.5608    0.4806 H   0  0  0  0  0  0  0  0  0  0  0  0
    2.7080    0.9115   -1.0685 H   0  0  0  0  0  0  0  0  0  0  0  0
    3.2436    0.0101    1.6746 H   0  0  0  0  0  0  0  0  0  0  0  0
    3.7201   -1.1905   -1.9059 H   0  0  0  0  0  0  0  0  0  0  0  0
    5.9276   -1.5696   -2.9171 H   0  0  0  0  0  0  0  0  0  0  0  0
    8.0019   -1.2706   -1.5787 H   0  0  0  0  0  0  0  0  0  0  0  0
    5.6511   -0.9288    2.8512 H   0  0  0  0  0  0  0  0  0  0  0  0
    5.1850    0.7752    2.5138 H   0  0  0  0  0  0  0  0  0  0  0  0
    7.7487    0.2527    3.2330 H   0  0  0  0  0  0  0  0  0  0  0  0
    7.3759    1.4279    1.9728 H   0  0  0  0  0  0  0  0  0  0  0  0
    8.8657    0.0796    0.7440 H   0  0  0  0  0  0  0  0  0  0  0  0
    8.3533   -1.4302    1.5688 H   0  0  0  0  0  0  0  0  0  0  0  0
    2.2598   -2.2371   -0.1398 H   0  0  0  0  0  0  0  0  0  0  0  0
    2.9286   -2.4124    1.4718 H   0  0  0  0  0  0  0  0  0  0  0  0
    0.4044   -2.4438    1.2895 H   0  0  0  0  0  0  0  0  0  0  0  0
    1.0582   -1.3587    2.5061 H   0  0  0  0  0  0  0  0  0  0  0  0
  1  2  1  0
  2  3  2  0
  2  4  1  0
  4  5  1  0
  5  6  1  0
  6  7  1  0
  7  8  2  0
  7  9  1  0
  9 10  1  0
 10 11  1  0
 11 12  2  0
 12 13  1  0
 12 14  1  0
 14 15  2  0
 15 16  1  0
 16 17  2  0
 17 18  1  0
 10 19  1  0
 19 20  1  0
 20 21  2  0
 20 22  1  0
 22 23  1  0
 23 24  1  0
 24 25  1  0
 25 26  1  0
 26 27  1  0
 27 28  2  0
 28 29  1  0
 29 30  2  0
 30 31  1  0
 31 32  2  0
 32 33  1  0
 33 34  1  0
 34 35  1  0
 26 36  1  0
 36 37  1  0
 19  6  1  0
 37 23  1  0
 17 11  1  0
 32 27  1  0
 35 31  1  0
  1 38  1  0
  1 39  1  0
  1 40  1  0
  4 41  1  0
  5 42  1  0
  5 43  1  0
  6 44  1  0
  9 45  1  0
 10 46  1  0
 14 47  1  0
 15 48  1  0
 16 49  1  0
 22 50  1  0
 22 51  1  0
 24 52  1  0
 24 53  1  0
 25 54  1  0
 25 55  1  0
 26 56  1  0
 28 57  1  0
 29 58  1  0
 30 59  1  0
 33 60  1  0
 33 61  1  0
 34 62  1  0
 34 63  1  0
 35 64  1  0
 35 65  1  0
 36 66  1  0
 36 67  1  0
 37 68  1  0
 37 69  1  0
M  END
$$$$
