
     RDKit          3D

 46 48  0  0  0  0  0  0  0  0999 V2000
   -5.0095   -2.3493    0.1351 C   0  0  0  0  0  0  0  0  0  0  0  0
   -5.5995   -0.9669    0.1997 C   0  0  0  0  0  0  0  0  0  0  0  0
   -6.7949   -0.7699    0.9102 C   0  0  0  0  0  0  0  0  0  0  0  0
   -7.3770    0.4945    0.9961 C   0  0  0  0  0  0  0  0  0  0  0  0
   -6.7734    1.5808    0.3733 C   0  0  0  0  0  0  0  0  0  0  0  0
   -5.5896    1.4014   -0.3405 C   0  0  0  0  0  0  0  0  0  0  0  0
   -4.9949    0.1313   -0.4480 C   0  0  0  0  0  0  0  0  0  0  0  0
   -3.6986    0.0071   -1.2098 C   0  0  0  0  0  0  0  0  0  0  0  0
   -2.5729    0.2349   -0.3344 N   0  0  0  0  0  0  0  0  0  0  0  0
   -1.2911    0.2880   -0.8387 C   0  0  0  0  0  0  0  0  0  0  0  0
   -1.0487    0.2379   -2.0439 O   0  0  0  0  0  0  0  0  0  0  0  0
   -0.1871    0.4717    0.2280 C   0  0  0  0  0  0  0  0  0  0  0  0
   -0.0882    1.9604    0.5531 C   0  0  0  0  0  0  0  0  0  0  0  0
    1.0716   -0.0431   -0.3004 N   0  0  0  0  0  0  0  0  0  0  0  0
    2.1986   -0.1839    0.4287 C   0  0  0  0  0  0  0  0  0  0  0  0
    3.3810   -0.1506   -0.1387 N   0  0  0  0  0  0  0  0  0  0  0  0
    4.3936   -0.3355    0.7913 C   0  0  0  0  0  0  0  0  0  0  0  0
    5.7972   -0.3190    0.3831 C   0  0  0  0  0  0  0  0  0  0  0  0
    6.1429    0.2409   -0.8593 C   0  0  0  0  0  0  0  0  0  0  0  0
    7.4735    0.2785   -1.2837 C   0  0  0  0  0  0  0  0  0  0  0  0
    8.4651   -0.2488   -0.4682 C   0  0  0  0  0  0  0  0  0  0  0  0
    9.7417   -0.2142   -0.8717 F   0  0  0  0  0  0  0  0  0  0  0  0
    8.1508   -0.8153    0.7605 C   0  0  0  0  0  0  0  0  0  0  0  0
    6.8189   -0.8526    1.1865 C   0  0  0  0  0  0  0  0  0  0  0  0
    3.9496   -0.5079    2.0863 C   0  0  0  0  0  0  0  0  0  0  0  0
    2.2389   -0.4529    2.1315 S   0  0  0  0  0  0  0  0  0  0  0  0
   -5.5628   -3.0518    0.7675 H   0  0  0  0  0  0  0  0  0  0  0  0
   -5.0447   -2.7282   -0.8909 H   0  0  0  0  0  0  0  0  0  0  0  0
   -3.9738   -2.3410    0.4890 H   0  0  0  0  0  0  0  0  0  0  0  0
   -7.2850   -1.6061    1.4050 H   0  0  0  0  0  0  0  0  0  0  0  0
   -8.3025    0.6301    1.5497 H   0  0  0  0  0  0  0  0  0  0  0  0
   -7.2239    2.5676    0.4410 H   0  0  0  0  0  0  0  0  0  0  0  0
   -5.1263    2.2626   -0.8191 H   0  0  0  0  0  0  0  0  0  0  0  0
   -3.6613    0.7331   -2.0315 H   0  0  0  0  0  0  0  0  0  0  0  0
   -3.5912   -0.9805   -1.6712 H   0  0  0  0  0  0  0  0  0  0  0  0
   -2.7171    0.1083    0.6592 H   0  0  0  0  0  0  0  0  0  0  0  0
   -0.4876   -0.0956    1.1168 H   0  0  0  0  0  0  0  0  0  0  0  0
    0.6554    2.1566    1.3314 H   0  0  0  0  0  0  0  0  0  0  0  0
    0.1986    2.5396   -0.3324 H   0  0  0  0  0  0  0  0  0  0  0  0
   -1.0495    2.3509    0.9039 H   0  0  0  0  0  0  0  0  0  0  0  0
    1.2108    0.1648   -1.2890 H   0  0  0  0  0  0  0  0  0  0  0  0
    5.3701    0.6542   -1.5061 H   0  0  0  0  0  0  0  0  0  0  0  0
    7.7359    0.7133   -2.2425 H   0  0  0  0  0  0  0  0  0  0  0  0
    8.9421   -1.2284    1.3782 H   0  0  0  0  0  0  0  0  0  0  0  0
    6.5996   -1.3159    2.1442 H   0  0  0  0  0  0  0  0  0  0  0  0
    4.5153   -0.6514    2.9939 H   0  0  0  0  0  0  0  0  0  0  0  0
  1  2  1  0
  2  3  2  0
  3  4  1  0
  4  5  2  0
  5  6  1  0
  6  7  2  0
  7  8  1  0
  8  9  1  0
  9 10  1  0
 10 11  2  0
 10 12  1  0
 12 13  1  0
 12 14  1  0
 14 15  1  0
 15 16  2  0
 16 17  1  0
 17 18  1  0
 18 19  2  0
 19 20  1  0
 20 21  2  0
 21 22  1  0
 21 23  1  0
 23 24  2  0
 17 25  2  0
 25 26  1  0
  7  2  1  0
 26 15  1  0
 24 18  1  0
  1 27  1  0
  1 28  1  0
  1 29  1  0
  3 30  1  0
  4 31  1  0
  5 32  1  0
  6 33  1  0
  8 34  1  0
  8 35  1  0
  9 36  1  0
 12 37  1  0
 13 38  1  0
 13 39  1  0
 13 40  1  0
 14 41  1  0
 19 42  1  0
 20 43  1  0
 23 44  1  0
 24 45  1  0
 25 46  1  0
M  END
$$$$
