
     RDKit          3D

 42 46  0  0  0  0  0  0  0  0999 V2000
   -5.8217    0.7081   -1.6140 C   0  0  0  0  0  0  0  0  0  0  0  0
   -4.8184    0.8050   -2.5772 C   0  0  0  0  0  0  0  0  0  0  0  0
   -3.4777    0.8463   -2.1885 C   0  0  0  0  0  0  0  0  0  0  0  0
   -3.1335    0.7849   -0.8331 C   0  0  0  0  0  0  0  0  0  0  0  0
   -1.7411    0.8353   -0.4419 C   0  0  0  0  0  0  0  0  0  0  0  0
   -0.7552    1.8052   -0.7322 C   0  0  0  0  0  0  0  0  0  0  0  0
    0.4253    1.5231   -0.1763 N   0  0  0  0  0  0  0  0  0  0  0  0
    0.2156    0.3225    0.4067 N   0  0  0  0  0  0  0  0  0  0  0  0
   -1.0857   -0.1101    0.3258 C   0  0  0  0  0  0  0  0  0  0  0  0
   -1.5319   -1.3571    0.9990 C   0  0  0  0  0  0  0  0  0  0  0  0
   -0.4123   -2.2357    1.3480 N   0  0  0  0  0  0  0  0  0  0  0  0
    0.6723   -1.4850    2.0072 C   0  0  0  0  0  0  0  0  0  0  0  0
    1.2900   -0.3819    1.1128 C   0  0  0  0  0  0  0  0  0  0  0  0
    2.3198   -0.9243    0.1364 C   0  0  0  0  0  0  0  0  0  0  0  0
    2.0297   -1.8672   -0.9164 C   0  0  0  0  0  0  0  0  0  0  0  0
    3.1428   -2.2298   -1.6403 C   0  0  0  0  0  0  0  0  0  0  0  0
    4.5499   -1.4567   -1.0669 S   0  0  0  0  0  0  0  0  0  0  0  0
    3.6682   -0.6094    0.1183 C   0  0  0  0  0  0  0  0  0  0  0  0
    4.3568    0.3855    1.1115 C   0  0  0  0  0  0  0  0  0  0  0  0
    3.9760    1.8442    1.0679 C   0  0  0  0  0  0  0  0  0  0  0  0
    5.3282    1.4138    0.5876 C   0  0  0  0  0  0  0  0  0  0  0  0
   -4.1467    0.6944    0.1290 C   0  0  0  0  0  0  0  0  0  0  0  0
   -5.4870    0.6546   -0.2617 C   0  0  0  0  0  0  0  0  0  0  0  0
   -6.8651    0.6778   -1.9178 H   0  0  0  0  0  0  0  0  0  0  0  0
   -5.0787    0.8478   -3.6317 H   0  0  0  0  0  0  0  0  0  0  0  0
   -2.7052    0.9152   -2.9514 H   0  0  0  0  0  0  0  0  0  0  0  0
   -0.8582    2.7154   -1.3087 H   0  0  0  0  0  0  0  0  0  0  0  0
   -2.0878   -1.0971    1.9079 H   0  0  0  0  0  0  0  0  0  0  0  0
   -2.2138   -1.9124    0.3461 H   0  0  0  0  0  0  0  0  0  0  0  0
   -0.7497   -2.9725    1.9659 H   0  0  0  0  0  0  0  0  0  0  0  0
    1.4499   -2.1902    2.3241 H   0  0  0  0  0  0  0  0  0  0  0  0
    0.2738   -1.0303    2.9242 H   0  0  0  0  0  0  0  0  0  0  0  0
    1.7432    0.3649    1.7744 H   0  0  0  0  0  0  0  0  0  0  0  0
    1.0416   -2.2627   -1.1244 H   0  0  0  0  0  0  0  0  0  0  0  0
    3.1954   -2.9166   -2.4734 H   0  0  0  0  0  0  0  0  0  0  0  0
    4.5811   -0.0445    2.0827 H   0  0  0  0  0  0  0  0  0  0  0  0
    3.2602    2.1757    0.3224 H   0  0  0  0  0  0  0  0  0  0  0  0
    3.9152    2.3827    2.0060 H   0  0  0  0  0  0  0  0  0  0  0  0
    5.5191    1.4691   -0.4781 H   0  0  0  0  0  0  0  0  0  0  0  0
    6.1882    1.6546    1.2013 H   0  0  0  0  0  0  0  0  0  0  0  0
   -3.9024    0.6703    1.1878 H   0  0  0  0  0  0  0  0  0  0  0  0
   -6.2699    0.5874    0.4893 H   0  0  0  0  0  0  0  0  0  0  0  0
  1  2  2  0
  2  3  1  0
  3  4  2  0
  4  5  1  0
  5  6  1  0
  6  7  2  0
  7  8  1  0
  8  9  1  0
  9 10  1  0
 10 11  1  0
 11 12  1  0
 12 13  1  0
 13 14  1  0
 14 15  1  0
 15 16  2  0
 16 17  1  0
 17 18  1  0
 18 19  1  0
 19 20  1  0
 20 21  1  0
  4 22  1  0
 22 23  2  0
 23  1  1  0
  9  5  2  0
 18 14  2  0
 21 19  1  0
 13  8  1  0
  1 24  1  0
  2 25  1  0
  3 26  1  0
  6 27  1  0
 10 28  1  0
 10 29  1  0
 11 30  1  0
 12 31  1  0
 12 32  1  0
 13 33  1  0
 15 34  1  0
 16 35  1  0
 19 36  1  0
 20 37  1  0
 20 38  1  0
 21 39  1  0
 21 40  1  0
 22 41  1  0
 23 42  1  0
M  END
$$$$
