
     RDKit          3D

 50 53  0  0  0  0  0  0  0  0999 V2000
    6.1046   -1.1497   -0.3719 C   0  0  0  0  0  0  0  0  0  0  0  0
    6.4276    0.2963   -0.1082 C   0  0  0  0  0  0  0  0  0  0  0  0
    7.7744    0.6885   -0.0266 C   0  0  0  0  0  0  0  0  0  0  0  0
    8.1188    2.0179    0.2176 C   0  0  0  0  0  0  0  0  0  0  0  0
    7.1228    2.9730    0.3896 C   0  0  0  0  0  0  0  0  0  0  0  0
    5.7808    2.5990    0.3162 C   0  0  0  0  0  0  0  0  0  0  0  0
    5.4187    1.2661    0.0618 C   0  0  0  0  0  0  0  0  0  0  0  0
    3.9951    0.8998    0.0176 C   0  0  0  0  0  0  0  0  0  0  0  0
    3.1228    1.5127   -0.7975 C   0  0  0  0  0  0  0  0  0  0  0  0
    1.6727    1.1967   -0.8463 C   0  0  0  0  0  0  0  0  0  0  0  0
    0.8705    2.0968   -1.0653 O   0  0  0  0  0  0  0  0  0  0  0  0
    1.3657   -0.1340   -0.6912 N   0  0  0  0  0  0  0  0  0  0  0  0
    0.1178   -0.6147   -0.7083 C   0  0  0  0  0  0  0  0  0  0  0  0
   -0.4814   -1.7673   -0.6490 C   0  0  0  0  0  0  0  0  0  0  0  0
   -1.6383   -2.6098   -0.5816 C   0  0  0  0  0  0  0  0  0  0  0  0
   -2.7329   -2.2537    0.1120 C   0  0  0  0  0  0  0  0  0  0  0  0
   -2.8659   -0.9164    0.8111 C   0  0  0  0  0  0  0  0  0  0  0  0
   -4.3231   -0.4760    0.9829 C   0  0  0  0  0  0  0  0  0  0  0  0
   -4.8641   -0.5495    2.2905 C   0  0  0  0  0  0  0  0  0  0  0  0
   -6.1745   -0.1622    2.5721 C   0  0  0  0  0  0  0  0  0  0  0  0
   -6.9795    0.3236    1.5530 C   0  0  0  0  0  0  0  0  0  0  0  0
   -6.4615    0.4056    0.2537 C   0  0  0  0  0  0  0  0  0  0  0  0
   -7.3501    0.9575   -0.7601 N   0  0  0  0  0  0  0  0  0  0  0  0
   -8.4221    0.3652   -0.9489 O   0  0  0  0  0  0  0  0  0  0  0  0
   -6.9844    1.9874   -1.3417 O   0  0  0  0  0  0  0  0  0  0  0  0
   -5.1506   -0.0136   -0.0745 C   0  0  0  0  0  0  0  0  0  0  0  0
   -4.6461    0.0807   -1.4922 C   0  0  0  0  0  0  0  0  0  0  0  0
   -2.0429    0.1668    0.2583 N   0  0  0  0  0  0  0  0  0  0  0  0
   -1.1770   -0.2283   -0.8564 C   0  0  0  0  0  0  0  0  0  0  0  0
    5.6136   -1.5935    0.5000 H   0  0  0  0  0  0  0  0  0  0  0  0
    7.0089   -1.7326   -0.5770 H   0  0  0  0  0  0  0  0  0  0  0  0
    5.4531   -1.2439   -1.2468 H   0  0  0  0  0  0  0  0  0  0  0  0
    8.5693   -0.0435   -0.1548 H   0  0  0  0  0  0  0  0  0  0  0  0
    9.1653    2.3063    0.2764 H   0  0  0  0  0  0  0  0  0  0  0  0
    7.3883    4.0085    0.5858 H   0  0  0  0  0  0  0  0  0  0  0  0
    5.0175    3.3595    0.4694 H   0  0  0  0  0  0  0  0  0  0  0  0
    3.6947    0.1089    0.6979 H   0  0  0  0  0  0  0  0  0  0  0  0
    3.4156    2.3396   -1.4374 H   0  0  0  0  0  0  0  0  0  0  0  0
    2.1174   -0.8035   -0.6013 H   0  0  0  0  0  0  0  0  0  0  0  0
   -1.5686   -3.5889   -1.0447 H   0  0  0  0  0  0  0  0  0  0  0  0
   -3.5601   -2.9531    0.1974 H   0  0  0  0  0  0  0  0  0  0  0  0
   -2.4662   -1.1012    1.8191 H   0  0  0  0  0  0  0  0  0  0  0  0
   -4.2508   -0.9120    3.1153 H   0  0  0  0  0  0  0  0  0  0  0  0
   -6.5571   -0.2300    3.5877 H   0  0  0  0  0  0  0  0  0  0  0  0
   -7.9969    0.6412    1.7711 H   0  0  0  0  0  0  0  0  0  0  0  0
   -3.9626   -0.7344   -1.7361 H   0  0  0  0  0  0  0  0  0  0  0  0
   -5.4574   -0.0143   -2.2209 H   0  0  0  0  0  0  0  0  0  0  0  0
   -4.1422    1.0388   -1.6509 H   0  0  0  0  0  0  0  0  0  0  0  0
   -1.5151    0.6267    0.9968 H   0  0  0  0  0  0  0  0  0  0  0  0
   -1.5643   -0.1119   -1.8636 H   0  0  0  0  0  0  0  0  0  0  0  0
  1  2  1  0
  2  3  2  0
  3  4  1  0
  4  5  2  0
  5  6  1  0
  6  7  2  0
  7  8  1  0
  8  9  2  0
  9 10  1  0
 10 11  2  0
 10 12  1  0
 12 13  1  0
 13 14  2  0
 14 15  1  0
 15 16  2  0
 16 17  1  0
 17 18  1  0
 18 19  2  0
 19 20  1  0
 20 21  2  0
 21 22  1  0
 22 23  1  0
 23 24  2  0
 23 25  1  0
 22 26  2  0
 26 27  1  0
 17 28  1  0
 28 29  1  0
  7  2  1  0
 29 13  1  0
 29 14  1  0
 26 18  1  0
  1 30  1  0
  1 31  1  0
  1 32  1  0
  3 33  1  0
  4 34  1  0
  5 35  1  0
  6 36  1  0
  8 37  1  0
  9 38  1  0
 12 39  1  0
 15 40  1  0
 16 41  1  0
 17 42  1  0
 19 43  1  0
 20 44  1  0
 21 45  1  0
 27 46  1  0
 27 47  1  0
 27 48  1  0
 28 49  1  0
 29 50  1  0
M  CHG  2  23   1  25  -1
M  END
$$$$
