
     RDKit          3D

 59 61  0  0  0  0  0  0  0  0999 V2000
    7.5068    1.1178    0.6591 C   0  0  0  0  0  0  0  0  0  0  0  0
    6.2587    1.9043    0.3015 C   0  0  0  0  0  0  0  0  0  0  0  0
    5.0626    1.0230   -0.0689 C   0  0  0  0  0  0  0  0  0  0  0  0
    4.5735    0.1495    1.0937 C   0  0  0  0  0  0  0  0  0  0  0  0
    3.2748   -0.5545    0.7668 C   0  0  0  0  0  0  0  0  0  0  0  0
    2.1128   -0.1810    1.3395 C   0  0  0  0  0  0  0  0  0  0  0  0
    0.9123   -0.8082    1.1532 N   0  0  0  0  0  0  0  0  0  0  0  0
   -0.1671   -0.1238    0.8765 C   0  0  0  0  0  0  0  0  0  0  0  0
   -0.3539    1.3238    0.6969 C   0  0  0  0  0  0  0  0  0  0  0  0
    0.6363    2.2175    0.8954 N   0  0  0  0  0  0  0  0  0  0  0  0
    0.0648    3.4148    0.7546 N   0  0  0  0  0  0  0  0  0  0  0  0
   -1.2666    3.3563    0.5046 C   0  0  0  0  0  0  0  0  0  0  0  0
   -1.5754    2.0200    0.3911 C   0  0  0  0  0  0  0  0  0  0  0  0
   -2.8643    1.6022    0.0900 N   0  0  0  0  0  0  0  0  0  0  0  0
   -3.1698    0.4389   -0.5749 C   0  0  0  0  0  0  0  0  0  0  0  0
   -2.3215   -0.2615   -1.1254 O   0  0  0  0  0  0  0  0  0  0  0  0
   -4.5203    0.1074   -0.5980 N   0  0  0  0  0  0  0  0  0  0  0  0
   -4.9236   -1.0801   -1.3661 C   0  0  0  0  0  0  0  0  0  0  0  0
   -6.1413   -1.8011   -0.7622 C   0  0  0  0  0  0  0  0  0  0  0  0
   -7.3194   -0.9554   -0.5041 N   0  0  0  0  0  0  0  0  0  0  0  0
   -6.9910    0.4757   -0.5169 C   0  0  0  0  0  0  0  0  0  0  0  0
   -5.6102    0.8331    0.0923 C   0  0  0  0  0  0  0  0  0  0  0  0
   -5.5790    0.5713    1.6023 C   0  0  0  0  0  0  0  0  0  0  0  0
    3.3435   -1.6899   -0.1758 C   0  0  0  0  0  0  0  0  0  0  0  0
    4.0740   -2.8400    0.1507 C   0  0  0  0  0  0  0  0  0  0  0  0
    4.1403   -3.9167   -0.7352 C   0  0  0  0  0  0  0  0  0  0  0  0
    3.4771   -3.8484   -1.9624 C   0  0  0  0  0  0  0  0  0  0  0  0
    2.7514   -2.7067   -2.2913 C   0  0  0  0  0  0  0  0  0  0  0  0
    1.9336   -2.6228   -3.8098 Cl  0  0  0  0  0  0  0  0  0  0  0  0
    2.6804   -1.6306   -1.4089 C   0  0  0  0  0  0  0  0  0  0  0  0
    7.3710    0.5550    1.5841 H   0  0  0  0  0  0  0  0  0  0  0  0
    7.7726    0.4185   -0.1376 H   0  0  0  0  0  0  0  0  0  0  0  0
    8.3517    1.7986    0.8080 H   0  0  0  0  0  0  0  0  0  0  0  0
    5.9922    2.5606    1.1358 H   0  0  0  0  0  0  0  0  0  0  0  0
    6.4861    2.5564   -0.5499 H   0  0  0  0  0  0  0  0  0  0  0  0
    5.3310    0.3939   -0.9266 H   0  0  0  0  0  0  0  0  0  0  0  0
    4.2459    1.6809   -0.3994 H   0  0  0  0  0  0  0  0  0  0  0  0
    5.3408   -0.5884    1.3617 H   0  0  0  0  0  0  0  0  0  0  0  0
    4.4430    0.7790    1.9876 H   0  0  0  0  0  0  0  0  0  0  0  0
    2.1246    0.6399    2.0564 H   0  0  0  0  0  0  0  0  0  0  0  0
   -1.0834   -0.7342    0.8021 H   0  0  0  0  0  0  0  0  0  0  0  0
    0.6463    4.2363    0.8634 H   0  0  0  0  0  0  0  0  0  0  0  0
   -1.8530    4.2547    0.3935 H   0  0  0  0  0  0  0  0  0  0  0  0
   -3.5412    2.3421   -0.0011 H   0  0  0  0  0  0  0  0  0  0  0  0
   -4.0883   -1.7904   -1.4492 H   0  0  0  0  0  0  0  0  0  0  0  0
   -5.1594   -0.7305   -2.3796 H   0  0  0  0  0  0  0  0  0  0  0  0
   -6.4352   -2.6298   -1.4188 H   0  0  0  0  0  0  0  0  0  0  0  0
   -5.8449   -2.2517    0.1918 H   0  0  0  0  0  0  0  0  0  0  0  0
   -8.0434   -1.1419   -1.1960 H   0  0  0  0  0  0  0  0  0  0  0  0
   -7.0050    0.8258   -1.5620 H   0  0  0  0  0  0  0  0  0  0  0  0
   -7.7854    1.0201    0.0083 H   0  0  0  0  0  0  0  0  0  0  0  0
   -5.4619    1.9050   -0.0676 H   0  0  0  0  0  0  0  0  0  0  0  0
   -5.6401   -0.4964    1.8372 H   0  0  0  0  0  0  0  0  0  0  0  0
   -6.4137    1.0805    2.1001 H   0  0  0  0  0  0  0  0  0  0  0  0
   -4.6533    0.9429    2.0463 H   0  0  0  0  0  0  0  0  0  0  0  0
    4.5786   -2.9153    1.1140 H   0  0  0  0  0  0  0  0  0  0  0  0
    4.6934   -4.8115   -0.4656 H   0  0  0  0  0  0  0  0  0  0  0  0
    3.5277   -4.6887   -2.6469 H   0  0  0  0  0  0  0  0  0  0  0  0
    2.1038   -0.7462   -1.6711 H   0  0  0  0  0  0  0  0  0  0  0  0
  1  2  1  0
  2  3  1  0
  3  4  1  0
  4  5  1  0
  5  6  2  3
  6  7  1  0
  7  8  2  3
  8  9  1  0
  9 10  2  0
 10 11  1  0
 11 12  1  0
 12 13  2  0
 13 14  1  0
 14 15  1  0
 15 16  2  0
 15 17  1  0
 17 18  1  0
 18 19  1  0
 19 20  1  0
 20 21  1  0
 21 22  1  0
 22 23  1  0
  5 24  1  0
 24 25  2  0
 25 26  1  0
 26 27  2  0
 27 28  1  0
 28 29  1  0
 28 30  2  0
 13  9  1  0
 22 17  1  0
 30 24  1  0
  1 31  1  0
  1 32  1  0
  1 33  1  0
  2 34  1  0
  2 35  1  0
  3 36  1  0
  3 37  1  0
  4 38  1  0
  4 39  1  0
  6 40  1  0
  8 41  1  0
 11 42  1  0
 12 43  1  0
 14 44  1  0
 18 45  1  0
 18 46  1  0
 19 47  1  0
 19 48  1  0
 20 49  1  0
 21 50  1  0
 21 51  1  0
 22 52  1  0
 23 53  1  0
 23 54  1  0
 23 55  1  0
 25 56  1  0
 26 57  1  0
 27 58  1  0
 30 59  1  0
M  END
$$$$
