
     RDKit          3D

 44 47  0  0  0  0  0  0  0  0999 V2000
   -5.3151   -0.8732   -1.8873 C   0  0  0  0  0  0  0  0  0  0  0  0
   -5.5467   -0.4568   -0.4627 C   0  0  0  0  0  0  0  0  0  0  0  0
   -6.8339   -0.5728   -0.0376 N   0  0  0  0  0  0  0  0  0  0  0  0
   -7.1045   -0.2203    1.2350 C   0  0  0  0  0  0  0  0  0  0  0  0
   -6.1505    0.2516    2.1141 C   0  0  0  0  0  0  0  0  0  0  0  0
   -4.8365    0.3701    1.6653 C   0  0  0  0  0  0  0  0  0  0  0  0
   -4.5035    0.0129    0.3576 C   0  0  0  0  0  0  0  0  0  0  0  0
   -3.1881    0.1218   -0.1570 N   0  0  0  0  0  0  0  0  0  0  0  0
   -2.0425    0.4790    0.5305 C   0  0  0  0  0  0  0  0  0  0  0  0
   -1.9314    0.7173    1.7269 O   0  0  0  0  0  0  0  0  0  0  0  0
   -0.8242    0.5572   -0.3210 C   0  0  0  0  0  0  0  0  0  0  0  0
   -0.8712    1.3452   -1.4811 C   0  0  0  0  0  0  0  0  0  0  0  0
    0.2483    1.4286   -2.3002 C   0  0  0  0  0  0  0  0  0  0  0  0
    1.4094    0.7413   -1.9537 C   0  0  0  0  0  0  0  0  0  0  0  0
    2.4560    0.8408   -2.7881 F   0  0  0  0  0  0  0  0  0  0  0  0
    1.4919   -0.0345   -0.7858 C   0  0  0  0  0  0  0  0  0  0  0  0
    2.7650   -0.6861   -0.4500 C   0  0  0  0  0  0  0  0  0  0  0  0
    2.8079   -1.9667   -0.0397 N   0  0  0  0  0  0  0  0  0  0  0  0
    4.1116   -2.2161    0.1508 N   0  0  0  0  0  0  0  0  0  0  0  0
    4.9266   -1.1399   -0.0504 C   0  0  0  0  0  0  0  0  0  0  0  0
    6.3107   -0.9905    0.0792 C   0  0  0  0  0  0  0  0  0  0  0  0
    6.8356    0.2700   -0.1997 C   0  0  0  0  0  0  0  0  0  0  0  0
    8.1871    0.4217   -0.0736 O   0  0  0  0  0  0  0  0  0  0  0  0
    6.0275    1.3339   -0.5874 C   0  0  0  0  0  0  0  0  0  0  0  0
    4.6424    1.1564   -0.7112 C   0  0  0  0  0  0  0  0  0  0  0  0
    4.0791   -0.1099   -0.4441 C   0  0  0  0  0  0  0  0  0  0  0  0
    0.3565   -0.1244    0.0600 C   0  0  0  0  0  0  0  0  0  0  0  0
    0.3214   -1.0185    1.1523 N   0  0  0  0  0  0  0  0  0  0  0  0
   -6.2478   -1.2107   -2.3518 H   0  0  0  0  0  0  0  0  0  0  0  0
   -4.6022   -1.7025   -1.9318 H   0  0  0  0  0  0  0  0  0  0  0  0
   -4.9364   -0.0310   -2.4747 H   0  0  0  0  0  0  0  0  0  0  0  0
   -8.1416   -0.3305    1.5380 H   0  0  0  0  0  0  0  0  0  0  0  0
   -6.4167    0.5243    3.1291 H   0  0  0  0  0  0  0  0  0  0  0  0
   -4.0970    0.7486    2.3630 H   0  0  0  0  0  0  0  0  0  0  0  0
   -3.0563   -0.1667   -1.1175 H   0  0  0  0  0  0  0  0  0  0  0  0
   -1.7695    1.9001   -1.7414 H   0  0  0  0  0  0  0  0  0  0  0  0
    0.2319    2.0258   -3.2073 H   0  0  0  0  0  0  0  0  0  0  0  0
    4.3846   -3.1492    0.4376 H   0  0  0  0  0  0  0  0  0  0  0  0
    6.9536   -1.8088    0.3842 H   0  0  0  0  0  0  0  0  0  0  0  0
    8.4194    1.3368   -0.3020 H   0  0  0  0  0  0  0  0  0  0  0  0
    6.4505    2.3112   -0.7994 H   0  0  0  0  0  0  0  0  0  0  0  0
    4.0150    1.9898   -1.0135 H   0  0  0  0  0  0  0  0  0  0  0  0
   -0.2539   -0.6966    1.9325 H   0  0  0  0  0  0  0  0  0  0  0  0
    1.2371   -1.3789    1.4221 H   0  0  0  0  0  0  0  0  0  0  0  0
  1  2  1  0
  2  3  2  0
  3  4  1  0
  4  5  2  0
  5  6  1  0
  6  7  2  0
  7  8  1  0
  8  9  1  0
  9 10  2  0
  9 11  1  0
 11 12  2  0
 12 13  1  0
 13 14  2  0
 14 15  1  0
 14 16  1  0
 16 17  1  0
 17 18  2  0
 18 19  1  0
 19 20  1  0
 20 21  2  0
 21 22  1  0
 22 23  1  0
 22 24  2  0
 24 25  1  0
 25 26  2  0
 16 27  2  0
 27 28  1  0
  7  2  1  0
 27 11  1  0
 26 17  1  0
 26 20  1  0
  1 29  1  0
  1 30  1  0
  1 31  1  0
  4 32  1  0
  5 33  1  0
  6 34  1  0
  8 35  1  0
 12 36  1  0
 13 37  1  0
 19 38  1  0
 21 39  1  0
 23 40  1  0
 24 41  1  0
 25 42  1  0
 28 43  1  0
 28 44  1  0
M  END
$$$$
