MODEL        9USER    Run = 9USERUSER    Estimated Free Energy of Binding    = -11.47 kcal/mol  [=(1)+(2)+(3)-(4)]USERUSER    (1) Final Intermolecular Energy     = -13.26 kcal/molUSER        vdW + Hbond + desolv Energy     = -13.04 kcal/molUSER        Electrostatic Energy            =  -0.23 kcal/molUSER        Moving Ligand-Fixed Receptor    = -13.26 kcal/molUSER        Moving Ligand-Moving Receptor   =  +0.00 kcal/molUSER    (2) Final Total Internal Energy     =  -1.53 kcal/molUSER    (3) Torsional Free Energy           =  +1.79 kcal/molUSER    (4) Unbound System's Energy         =  -1.53 kcal/molUSERUSERREMARK SMILES Oc1nc2ccccc2n1C1CCN(Cc2ccc(-c3nc4ccccc4nc3-c3ccncc3)cc2)CC1REMARK SMILES IDX 11 1 12 2 13 3 14 4 38 5 39 6 10 7 2 8 3 9 4 10 9 11 5 12REMARK SMILES IDX 8 13 6 14 7 15 1 16 15 18 16 19 17 20 37 21 18 22 36 23REMARK SMILES IDX 19 24 20 25 21 26 29 27 22 28 28 29 23 30 27 31 24 32 26 33REMARK SMILES IDX 25 34 30 35 31 36 35 37 32 38 34 39 33 40REMARK H PARENT 1 17USER                              x       y       z     vdW  Elec       q    TypeUSER                           _______ _______ _______ _____ _____    ______ ____ROOTATOM      1  C   UNL     1      37.588  47.722  16.118 -0.25 -0.07    +0.095 C  ATOM      2  C   UNL     1      39.084  47.824  16.451 -0.46 -0.02    +0.041 C  ATOM      3  C   UNL     1      39.474  46.932  17.628 -0.40 -0.02    +0.087 C  ATOM      4  N   UNL     1      39.086  45.558  17.343 -0.19 +0.05    -0.299 NA ATOM      5  C   UNL     1      37.661  45.348  17.099 -0.36 -0.03    +0.087 C  ATOM      6  C   UNL     1      36.856  46.633  16.913 -0.28 -0.03    +0.041 C  ENDROOTBRANCH   1   7ATOM      7  N   UNL     1      37.283  47.675  14.691 -0.25 +0.18    -0.291 N  ATOM      8  C   UNL     1      36.956  48.775  13.941 -0.23 -0.19    +0.295 A  ATOM      9  N   UNL     1      36.681  48.495  12.698 -0.87 +0.06    -0.195 NA ATOM     10  C   UNL     1      36.830  47.134  12.618 -0.58 -0.04    +0.092 A  ATOM     11  C   UNL     1      37.208  46.586  13.848 -0.42 -0.03    +0.072 A  ATOM     12  C   UNL     1      36.654  46.296  11.507 -0.50 -0.01    +0.031 A  ATOM     13  C   UNL     1      37.423  45.210  14.005 -0.39 -0.01    +0.029 A  ATOM     14  C   UNL     1      36.861  44.921  11.654 -0.48 -0.00    +0.002 A  ATOM     15  C   UNL     1      37.241  44.390  12.886 -0.21 -0.00    +0.002 A  BRANCH   8  16ATOM     16  O   UNL     1      36.900  50.008  14.399 -0.03 +0.45    -0.480 OA ATOM     17  H   UNL     1      36.214  49.923  15.086 -0.09 -0.52    +0.296 HD ENDBRANCH   8  16ENDBRANCH   1   7BRANCH   4  18ATOM     18  C   UNL     1      39.721  44.540  18.186 -0.25 -0.01    +0.120 C  BRANCH  18  19ATOM     19  C   UNL     1      39.216  44.437  19.612 -0.33 +0.00    -0.034 A  ATOM     20  C   UNL     1      37.843  44.379  19.883 -0.37 -0.00    +0.006 A  ATOM     21  C   UNL     1      40.110  44.400  20.689 -0.32 +0.00    +0.006 A  ATOM     22  C   UNL     1      37.378  44.281  21.199 -0.38 +0.00    +0.011 A  ATOM     23  C   UNL     1      39.642  44.296  22.004 -0.27 +0.00    +0.011 A  ATOM     24  C   UNL     1      38.267  44.250  22.285 -0.34 +0.00    +0.002 A  BRANCH  24  25ATOM     25  C   UNL     1      37.755  44.153  23.665 -0.27 +0.01    +0.097 A  ATOM     26  N   UNL     1      37.024  43.028  23.902 -0.24 -0.02    -0.244 NA ATOM     27  C   UNL     1      37.988  45.093  24.682 -0.24 +0.01    +0.097 A  ATOM     28  C   UNL     1      36.565  42.833  25.150 -0.33 -0.00    +0.089 A  ATOM     29  N   UNL     1      37.532  44.882  25.950 -0.18 +0.01    -0.244 NA ATOM     30  C   UNL     1      35.823  41.694  25.438 -0.22 -0.01    +0.030 A  ATOM     31  C   UNL     1      36.825  43.762  26.181 -0.30 -0.01    +0.089 A  ATOM     32  C   UNL     1      35.332  41.452  26.721 -0.59 -0.00    +0.002 A  ATOM     33  C   UNL     1      36.331  43.512  27.456 -0.42 -0.01    +0.030 A  ATOM     34  C   UNL     1      35.588  42.365  27.736 -0.50 -0.00    +0.002 A  BRANCH  27  35ATOM     35  C   UNL     1      38.697  46.373  24.516 -0.29 +0.00    +0.005 A  ATOM     36  C   UNL     1      40.058  46.391  24.183 -0.20 +0.00    +0.030 A  ATOM     37  C   UNL     1      38.064  47.607  24.712 -0.35 +0.00    +0.030 A  ATOM     38  C   UNL     1      40.702  47.608  24.033 -0.23 +0.01    +0.111 A  ATOM     39  C   UNL     1      38.792  48.774  24.536 -0.27 +0.02    +0.111 A  ATOM     40  N   UNL     1      40.095  48.801  24.193 -0.17 -0.04    -0.265 NA ENDBRANCH  27  35ENDBRANCH  24  25ENDBRANCH  18  19ENDBRANCH   4  18TORSDOF 6TERENDMDL