MODEL        4USER    Run = 4USERUSER    Estimated Free Energy of Binding    = -11.98 kcal/mol  [=(1)+(2)+(3)-(4)]USERUSER    (1) Final Intermolecular Energy     = -14.07 kcal/molUSER        vdW + Hbond + desolv Energy     = -13.92 kcal/molUSER        Electrostatic Energy            =  -0.15 kcal/molUSER        Moving Ligand-Fixed Receptor    = -14.07 kcal/molUSER        Moving Ligand-Moving Receptor   =  +0.00 kcal/molUSER    (2) Final Total Internal Energy     =  -1.63 kcal/molUSER    (3) Torsional Free Energy           =  +2.09 kcal/molUSER    (4) Unbound System's Energy         =  -1.63 kcal/molUSERUSERREMARK SMILES N#Cc1ccc(-c2nc3ccccc3nc2-c2ccc(CN3CC[C@@H](n4c(O)nc5ccccc54)C[C@@H]3F)cc2)cc1REMARK SMILES IDX 17 1 18 2 19 3 20 4 39 5 40 6 16 7 7 8 8 9 9 10 15 11 10 12REMARK SMILES IDX 14 13 11 14 13 15 12 16 6 17 3 18 4 19 42 20 5 21 41 22 2 23REMARK SMILES IDX 1 24 21 25 22 26 23 27 37 28 24 29 36 30 25 31 38 32 26 33REMARK SMILES IDX 27 34 35 35 29 36 34 37 30 38 33 39 31 40 32 41 28 42REMARK H PARENT 28 43USER                              x       y       z     vdW  Elec       q    TypeUSER                           _______ _______ _______ _____ _____    ______ ____ROOTATOM      1  C   UNL     1      39.148  46.073  23.778 -0.28 +0.00    +0.002 A  ATOM      2  C   UNL     1      40.551  45.996  23.780 -0.18 +0.00    +0.011 A  ATOM      3  C   UNL     1      41.245  45.365  22.739 -0.20 +0.00    +0.006 A  ATOM      4  C   UNL     1      40.554  44.759  21.683 -0.26 -0.00    -0.034 A  ATOM      5  C   UNL     1      39.156  44.809  21.681 -0.32 +0.00    +0.006 A  ATOM      6  C   UNL     1      38.466  45.461  22.709 -0.33 +0.00    +0.011 A  ENDROOTBRANCH   1   7ATOM      7  C   UNL     1      38.390  46.735  24.859 -0.26 +0.01    +0.097 A  ATOM      8  C   UNL     1      38.034  46.155  26.089 -0.24 -0.00    +0.097 A  ATOM      9  N   UNL     1      37.271  46.838  26.992 -0.21 +0.03    -0.244 NA ATOM     10  C   UNL     1      36.907  48.095  26.684 -0.33 -0.01    +0.089 A  ATOM     11  N   UNL     1      38.029  48.019  24.561 -0.39 -0.04    -0.244 NA ATOM     12  C   UNL     1      36.139  48.828  27.582 -0.33 -0.00    +0.030 A  ATOM     13  C   UNL     1      37.297  48.692  25.466 -0.39 +0.00    +0.089 A  ATOM     14  C   UNL     1      35.756  50.142  27.309 -0.23 +0.00    +0.002 A  ATOM     15  C   UNL     1      36.914  50.002  25.203 -0.34 +0.00    +0.030 A  ATOM     16  C   UNL     1      36.149  50.733  26.114 -0.39 +0.00    +0.002 A  BRANCH   8  17ATOM     17  C   UNL     1      38.454  44.826  26.575 -0.22 -0.00    +0.002 A  ATOM     18  C   UNL     1      39.216  42.298  27.595 -0.29 -0.00    +0.052 A  ATOM     19  C   UNL     1      37.864  42.621  27.458 -0.35 -0.00    +0.020 A  ATOM     20  C   UNL     1      40.190  43.232  27.233 -0.18 -0.00    +0.020 A  ATOM     21  C   UNL     1      37.492  43.874  26.961 -0.31 -0.00    +0.012 A  ATOM     22  C   UNL     1      39.810  44.484  26.736 -0.14 +0.00    +0.012 A  BRANCH  18  23ATOM     23  C   UNL     1      39.602  41.021  28.118 -0.31 +0.00    +0.099 C  ATOM     24  N   UNL     1      39.919  39.988  28.541 -0.64 -0.04    -0.192 NA ENDBRANCH  18  23ENDBRANCH   8  17ENDBRANCH   1   7BRANCH   4  25ATOM     25  C   UNL     1      41.308  44.039  20.582 -0.30 +0.01    +0.122 C  BRANCH  25  26ATOM     26  N   UNL     1      41.738  44.915  19.480 -0.13 -0.04    -0.270 NA ATOM     27  C   UNL     1      41.689  46.339  19.842 -0.42 +0.01    +0.090 C  ATOM     28  C   UNL     1      41.034  44.609  18.230 -0.16 +0.01    +0.239 C  ATOM     29  C   UNL     1      41.376  47.256  18.660 -0.48 -0.00    +0.041 C  ATOM     30  C   UNL     1      39.743  45.394  18.035 -0.43 -0.01    +0.080 C  ATOM     31  C   UNL     1      39.983  46.909  18.110 -0.36 -0.01    +0.098 C  ATOM     32  F   UNL     1      40.729  43.282  18.183 +0.15 -0.01    -0.230 F  BRANCH  31  33ATOM     33  N   UNL     1      39.690  47.601  16.862 -0.27 +0.08    -0.291 N  ATOM     34  C   UNL     1      40.488  48.512  16.232 -0.31 -0.07    +0.295 A  ATOM     35  C   UNL     1      38.567  47.437  16.074 -0.39 -0.03    +0.072 A  ATOM     36  N   UNL     1      39.970  48.980  15.130 -0.40 +0.08    -0.195 NA ATOM     37  C   UNL     1      37.426  46.630  16.173 -0.37 -0.02    +0.029 A  ATOM     38  C   UNL     1      38.770  48.320  15.011 -0.46 -0.04    +0.092 A  ATOM     39  C   UNL     1      36.474  46.738  15.150 -0.39 -0.00    +0.002 A  ATOM     40  C   UNL     1      37.799  48.420  14.002 -0.50 -0.01    +0.031 A  ATOM     41  C   UNL     1      36.653  47.619  14.083 -0.51 -0.00    +0.002 A  BRANCH  34  42ATOM     42  O   UNL     1      41.676  48.884  16.658 -0.76 -0.06    -0.480 OA ATOM     43  H   UNL     1      42.197  48.074  16.504 -0.29 +0.00    +0.296 HD ENDBRANCH  34  42ENDBRANCH  31  33ENDBRANCH  25  26ENDBRANCH   4  25TORSDOF 7TERENDMDL