REMARK SMILES N#Cc1ccc(-c2nc3ccccc3nc2-c2ccc(CN3CC[C@@H](n4c(O)nc5ccccc54)C[C@@H]3F)cc2)cc1
REMARK SMILES IDX 17 1 18 2 19 3 20 4 39 5 40 6 16 7 7 8 8 9 9 10 15 11 10 12
REMARK SMILES IDX 14 13 11 14 13 15 12 16 6 17 3 18 4 19 42 20 5 21 41 22 2 23
REMARK SMILES IDX 1 24 21 25 22 26 23 27 37 28 24 29 36 30 25 31 38 32 26 33
REMARK SMILES IDX 27 34 35 35 29 36 34 37 30 38 33 39 31 40 32 41 28 42
REMARK H PARENT 28 43
ROOT
ATOM      1  C   UNL     1      -2.868  -0.965   1.142  1.00  0.00     0.002 A 
ATOM      2  C   UNL     1      -2.571   0.284   1.713  1.00  0.00     0.011 A 
ATOM      3  C   UNL     1      -1.255   0.641   2.035  1.00  0.00     0.006 A 
ATOM      4  C   UNL     1      -0.200  -0.256   1.828  1.00  0.00    -0.034 A 
ATOM      5  C   UNL     1      -0.486  -1.512   1.281  1.00  0.00     0.006 A 
ATOM      6  C   UNL     1      -1.798  -1.856   0.938  1.00  0.00     0.011 A 
ENDROOT
BRANCH   1   7
ATOM      7  C   UNL     1      -4.245  -1.367   0.789  1.00  0.00     0.097 A 
ATOM      8  C   UNL     1      -5.179  -0.581   0.092  1.00  0.00     0.097 A 
ATOM      9  N   UNL     1      -6.451  -1.027  -0.122  1.00  0.00    -0.244 NA
ATOM     10  C   UNL     1      -6.768  -2.257   0.318  1.00  0.00     0.089 A 
ATOM     11  N   UNL     1      -4.571  -2.623   1.219  1.00  0.00    -0.244 NA
ATOM     12  C   UNL     1      -8.050  -2.753   0.110  1.00  0.00     0.030 A 
ATOM     13  C   UNL     1      -5.819  -3.063   0.983  1.00  0.00     0.089 A 
ATOM     14  C   UNL     1      -8.414  -4.032   0.534  1.00  0.00     0.002 A 
ATOM     15  C   UNL     1      -6.189  -4.337   1.401  1.00  0.00     0.030 A 
ATOM     16  C   UNL     1      -7.477  -4.829   1.180  1.00  0.00     0.002 A 
BRANCH   8  17
ATOM     17  C   UNL     1      -4.918   0.738  -0.519  1.00  0.00     0.002 A 
ATOM     18  C   UNL     1      -4.502   3.255  -1.744  1.00  0.00     0.052 A 
ATOM     19  C   UNL     1      -5.626   3.042  -0.942  1.00  0.00     0.020 A 
ATOM     20  C   UNL     1      -3.589   2.217  -1.944  1.00  0.00     0.020 A 
ATOM     21  C   UNL     1      -5.832   1.794  -0.345  1.00  0.00     0.012 A 
ATOM     22  C   UNL     1      -3.801   0.971  -1.343  1.00  0.00     0.012 A 
BRANCH  18  23
ATOM     23  C   UNL     1      -4.295   4.527  -2.370  1.00  0.00     0.099 C 
ATOM     24  N   UNL     1      -4.125   5.556  -2.880  1.00  0.00    -0.192 NA
ENDBRANCH  18  23
ENDBRANCH   8  17
ENDBRANCH   1   7
BRANCH   4  25
ATOM     25  C   UNL     1       1.216   0.118   2.219  1.00  0.00     0.122 C 
BRANCH  25  26
ATOM     26  N   UNL     1       1.887   1.007   1.257  1.00  0.00    -0.270 NA
ATOM     27  C   UNL     1       1.998   0.406  -0.081  1.00  0.00     0.090 C 
ATOM     28  C   UNL     1       3.164   1.511   1.774  1.00  0.00     0.239 C 
ATOM     29  C   UNL     1       3.242   0.855  -0.847  1.00  0.00     0.041 C 
ATOM     30  C   UNL     1       4.362   0.632   1.437  1.00  0.00     0.080 C 
ATOM     31  C   UNL     1       4.495   0.409  -0.076  1.00  0.00     0.098 C 
ATOM     32  F   UNL     1       3.100   1.630   3.130  1.00  0.00    -0.230 F 
BRANCH  31  33
ATOM     33  N   UNL     1       5.719   0.967  -0.635  1.00  0.00    -0.291 N 
ATOM     34  C   UNL     1       6.087   2.282  -0.633  1.00  0.00     0.295 A 
ATOM     35  C   UNL     1       6.742   0.264  -1.241  1.00  0.00     0.072 A 
ATOM     36  N   UNL     1       7.235   2.499  -1.213  1.00  0.00    -0.195 NA
ATOM     37  C   UNL     1       6.957  -1.096  -1.505  1.00  0.00     0.029 A 
ATOM     38  C   UNL     1       7.664   1.251  -1.598  1.00  0.00     0.092 A 
ATOM     39  C   UNL     1       8.151  -1.442  -2.152  1.00  0.00     0.002 A 
ATOM     40  C   UNL     1       8.849   0.883  -2.255  1.00  0.00     0.031 A 
ATOM     41  C   UNL     1       9.082  -0.471  -2.525  1.00  0.00     0.002 A 
BRANCH  34  42
ATOM     42  O   UNL     1       5.385   3.252  -0.088  1.00  0.00    -0.480 OA
ATOM     43  H   UNL     1       5.952   4.024  -0.269  1.00  0.00     0.296 HD
ENDBRANCH  34  42
ENDBRANCH  31  33
ENDBRANCH  25  26
ENDBRANCH   4  25
TORSDOF 7
