MODEL        8USER    Run = 8USERUSER    Estimated Free Energy of Binding    = -12.95 kcal/mol  [=(1)+(2)+(3)-(4)]USERUSER    (1) Final Intermolecular Energy     = -15.04 kcal/molUSER        vdW + Hbond + desolv Energy     = -14.92 kcal/molUSER        Electrostatic Energy            =  -0.13 kcal/molUSER        Moving Ligand-Fixed Receptor    = -15.04 kcal/molUSER        Moving Ligand-Moving Receptor   =  +0.00 kcal/molUSER    (2) Final Total Internal Energy     =  -1.73 kcal/molUSER    (3) Torsional Free Energy           =  +2.09 kcal/molUSER    (4) Unbound System's Energy         =  -1.73 kcal/molUSERUSERREMARK SMILES Oc1nc2ccccc2n1C1CCN(Cc2ccc(-c3nc4ccccc4nc3-c3ccc(N4CCOCC4)cc3)cc2)CC1REMARK SMILES IDX 15 1 14 2 11 3 12 4 45 5 13 6 44 7 10 8 2 9 3 10 4 11 9 12REMARK SMILES IDX 5 13 8 14 6 15 7 16 1 17 16 19 17 20 43 21 18 22 42 23 19 24REMARK SMILES IDX 20 25 21 26 29 27 22 28 28 29 23 30 27 31 24 32 26 33 25 34REMARK SMILES IDX 30 35 31 36 41 37 32 38 40 39 33 40 34 41 35 42 39 43 36 44REMARK SMILES IDX 38 45 37 46REMARK H PARENT 1 18USER                              x       y       z     vdW  Elec       q    TypeUSER                           _______ _______ _______ _____ _____    ______ ____ROOTATOM      1  C   UNL     1      38.466  43.000  23.762 -0.27 +0.01    +0.120 C  ENDROOTBRANCH   1   2ATOM      2  N   UNL     1      38.503  44.247  24.541 -0.08 -0.01    -0.299 NA ATOM      3  C   UNL     1      38.063  46.980  25.395 -0.32 +0.01    +0.095 C  ATOM      4  C   UNL     1      39.403  46.529  24.800 -0.24 +0.00    +0.041 C  ATOM      5  C   UNL     1      37.338  45.803  26.051 -0.36 -0.00    +0.041 C  ATOM      6  C   UNL     1      39.198  45.342  23.858 -0.24 +0.01    +0.087 C  ATOM      7  C   UNL     1      37.197  44.648  25.060 -0.33 +0.01    +0.087 C  BRANCH   3   8ATOM      8  N   UNL     1      38.164  48.122  26.294 -0.15 -0.01    -0.291 N  ATOM      9  C   UNL     1      39.016  48.268  27.352 -0.11 -0.00    +0.295 A  ATOM     10  N   UNL     1      38.866  49.400  27.984 -0.16 -0.01    -0.195 NA ATOM     11  C   UNL     1      37.832  50.022  27.334 -0.15 +0.02    +0.092 A  ATOM     12  C   UNL     1      37.362  49.247  26.272 -0.32 +0.00    +0.072 A  ATOM     13  C   UNL     1      37.229  51.259  27.607 -0.13 +0.01    +0.031 A  ATOM     14  C   UNL     1      36.294  49.655  25.463 -0.46 -0.00    +0.029 A  ATOM     15  C   UNL     1      36.161  51.682  26.809 -0.30 +0.00    +0.002 A  ATOM     16  C   UNL     1      35.703  50.890  25.755 -0.35 +0.00    +0.002 A  BRANCH   9  17ATOM     17  O   UNL     1      39.905  47.374  27.735 -0.40 -0.03    -0.480 OA ATOM     18  H   UNL     1      39.826  47.430  28.705 -0.39 -0.01    +0.296 HD ENDBRANCH   9  17ENDBRANCH   3   8ENDBRANCH   1   2BRANCH   1  19ATOM     19  C   UNL     1      37.547  42.971  22.559 -0.37 -0.00    -0.034 A  ATOM     20  C   UNL     1      37.131  44.170  21.963 -0.36 +0.00    +0.006 A  ATOM     21  C   UNL     1      37.085  41.761  22.025 -0.53 +0.00    +0.006 A  ATOM     22  C   UNL     1      36.266  44.158  20.866 -0.32 +0.00    +0.011 A  ATOM     23  C   UNL     1      36.204  41.752  20.939 -0.52 -0.00    +0.011 A  ATOM     24  C   UNL     1      35.787  42.949  20.335 -0.45 -0.00    +0.002 A  BRANCH  24  25ATOM     25  C   UNL     1      34.860  42.933  19.194 -0.34 -0.01    +0.097 A  ATOM     26  N   UNL     1      33.780  42.121  19.372 -0.39 -0.00    -0.244 NA ATOM     27  C   UNL     1      35.009  43.706  18.034 -0.25 -0.03    +0.097 A  ATOM     28  C   UNL     1      32.842  42.119  18.410 -0.32 -0.01    +0.089 A  ATOM     29  N   UNL     1      34.046  43.715  17.070 -0.14 +0.10    -0.244 NA ATOM     30  C   UNL     1      31.717  41.316  18.550 -0.32 -0.00    +0.030 A  ATOM     31  C   UNL     1      32.972  42.928  17.258 -0.27 -0.03    +0.089 A  ATOM     32  C   UNL     1      30.716  41.296  17.578 -0.30 -0.00    +0.002 A  ATOM     33  C   UNL     1      31.966  42.901  16.298 -0.30 -0.01    +0.030 A  ATOM     34  C   UNL     1      30.839  42.091  16.449 -0.32 -0.00    +0.002 A  BRANCH  27  35ATOM     35  C   UNL     1      36.184  44.537  17.717 -0.32 -0.00    +0.003 A  ATOM     36  C   UNL     1      36.063  45.784  17.088 -0.35 -0.01    +0.012 A  ATOM     37  C   UNL     1      37.472  44.126  18.082 -0.25 -0.00    +0.012 A  ATOM     38  C   UNL     1      37.189  46.578  16.816 -0.31 -0.01    +0.026 A  ATOM     39  C   UNL     1      38.592  44.922  17.807 -0.36 -0.00    +0.026 A  ATOM     40  C   UNL     1      38.481  46.163  17.160 -0.38 -0.01    +0.037 A  BRANCH  40  41ATOM     41  N   UNL     1      39.629  46.935  16.936 -0.21 +0.09    -0.367 N  ATOM     42  C   UNL     1      40.469  47.292  18.099 -0.32 -0.02    +0.145 C  ATOM     43  C   UNL     1      39.425  48.090  16.029 -0.46 -0.06    +0.145 C  ATOM     44  C   UNL     1      41.789  47.914  17.617 -0.31 -0.01    +0.181 C  ATOM     45  C   UNL     1      40.785  48.698  15.640 -0.52 -0.03    +0.181 C  ATOM     46  O   UNL     1      41.554  49.069  16.794 -0.91 -0.03    -0.378 OA ENDBRANCH  40  41ENDBRANCH  27  35ENDBRANCH  24  25ENDBRANCH   1  19TORSDOF 7TERENDMDL