MODEL        8USER    Run = 8USERUSER    Estimated Free Energy of Binding    =  -1.95 kcal/mol  [=(1)+(2)+(3)-(4)]USERUSER    (1) Final Intermolecular Energy     =  -5.83 kcal/molUSER        vdW + Hbond + desolv Energy     =  -5.79 kcal/molUSER        Electrostatic Energy            =  -0.41 kcal/molUSER        Moving Ligand-Fixed Receptor    =  -6.21 kcal/molUSER        Moving Ligand-Moving Receptor   =  +0.37 kcal/molUSER    (2) Final Total Internal Energy     =  -2.09 kcal/molUSER    (3) Torsional Free Energy           =  +3.88 kcal/molUSER    (4) Unbound System's Energy         =  -2.09 kcal/molUSERUSERREMARK SMILES O[C@@H]1CNCCOC(c2cccc3cnccc23)=CN=COC1REMARK SMILES IDX 20 1 21 2 22 3 23 4 2 5 1 7 19 9 8 10 7 11 6 12 5 13 4 14REMARK SMILES IDX 3 16 9 18 10 19 18 20 11 21 17 22 13 23 12 24 16 25 14 26REMARK SMILES IDX 15 27REMARK H PARENT 1 8 4 15REMARK Flexibility Score:   80.900USER                              x       y       z     vdW  Elec       q    TypeUSER                           _______ _______ _______ _____ _____    ______ ____ROOTATOM      1  N   UNL     1      28.912  39.398  19.152 -0.15 -0.02    -0.225 NA ENDROOTBRANCH   1   2ATOM      2  C   UNL     1      28.949  38.202  19.628 -0.20 +0.04    +0.301 C  BRANCH   2   3ATOM      3  O   UNL     1      28.945  37.946  20.958 -0.04 +0.01    -0.480 OA BRANCH   3   4ATOM      4  C   UNL     1      27.649  37.795  21.584 -0.12 -0.07    +0.263 C  BRANCH   4   5ATOM      5  C   UNL     1      26.579  38.637  20.855 -0.26 -0.06    +0.165 CG0ATOM      6  G   UNL     1      25.782  37.815  19.813 +0.00 +0.00    +0.000 G0 BRANCH   5   7ATOM      7  O   UNL     1      25.662  39.184  21.819 -0.31 +0.16    -0.388 OA ATOM      8  H   UNL     1      24.759  38.968  21.530 +0.11 -0.13    +0.211 HD ENDBRANCH   5   7ENDBRANCH   4   5ENDBRANCH   3   4ENDBRANCH   2   3ENDBRANCH   1   2BRANCH   1   9ATOM      9  C   UNL     1      28.425  39.494  17.876 -0.23 +0.04    +0.161 C  BRANCH   9  10ATOM     10  C   UNL     1      27.184  39.934  17.605 -0.22 +0.02    +0.145 C  BRANCH  10  11ATOM     11  O   UNL     1      26.274  39.163  16.907 -0.36 -0.25    -0.490 OA BRANCH  11  12ATOM     12  C   UNL     1      24.911  39.496  17.213 -0.16 -0.01    +0.245 C  BRANCH  12  13ATOM     13  C   UNL     1      24.269  38.322  17.972 -0.38 -0.06    +0.122 C  BRANCH  13  14ATOM     14  N   UNL     1      24.499  38.417  19.425 -0.09 +0.29    -0.311 NA ATOM     15  H   UNL     1      23.736  37.905  19.895 -0.27 -0.23    +0.122 HD BRANCH  14  16ATOM     16  C   UNL     1      25.782  37.818  19.812 -0.14 -0.10    +0.116 CG0ATOM     17  G   UNL     1      26.580  38.640  20.853 +0.00 +0.00    +0.000 G0 ENDBRANCH  14  16ENDBRANCH  13  14ENDBRANCH  12  13ENDBRANCH  11  12ENDBRANCH  10  11BRANCH  10  18ATOM     18  C   UNL     1      26.664  41.196  18.164 -0.20 -0.00    +0.026 A  ATOM     19  C   UNL     1      26.408  41.239  19.547 -0.25 -0.00    +0.013 A  ATOM     20  C   UNL     1      26.424  42.347  17.363 -0.24 +0.00    -0.004 A  ATOM     21  C   UNL     1      25.920  42.397  20.147 -0.42 -0.00    +0.001 A  ATOM     22  C   UNL     1      26.640  42.403  15.969 -0.24 -0.01    +0.029 A  ATOM     23  C   UNL     1      25.927  43.512  17.988 -0.39 -0.00    +0.001 A  ATOM     24  C   UNL     1      25.681  43.528  19.371 -0.44 -0.00    +0.010 A  ATOM     25  C   UNL     1      26.370  43.574  15.278 -0.21 -0.05    +0.111 A  ATOM     26  C   UNL     1      25.690  44.634  17.190 -0.34 +0.01    +0.119 A  ATOM     27  N   UNL     1      25.898  44.694  15.856 -0.25 +0.01    -0.264 NA ENDBRANCH  10  18ENDBRANCH   9  10ENDBRANCH   1   9TORSDOF 2TERENDMDL