MODEL        10USER    Run = 10USERUSER    Estimated Free Energy of Binding    =  -4.73 kcal/mol  [=(1)+(2)+(3)-(4)]USERUSER    (1) Final Intermolecular Energy     =  -6.82 kcal/molUSER        vdW + Hbond + desolv Energy     =  -7.36 kcal/molUSER        Electrostatic Energy            =  +0.07 kcal/molUSER        Moving Ligand-Fixed Receptor    =  -7.29 kcal/molUSER        Moving Ligand-Moving Receptor   =  +0.47 kcal/molUSER    (2) Final Total Internal Energy     =  -0.87 kcal/molUSER    (3) Torsional Free Energy           =  +2.09 kcal/molUSER    (4) Unbound System's Energy         =  -0.87 kcal/molUSERUSERREMARK SMILES CC(C)C[C@@H]1CC(=O)c2ccccc2C(=O)O1REMARK SMILES IDX 17 1 5 2 4 3 2 4 1 5 3 6 6 7 15 9 16 10 14 11 13 12 9 13REMARK SMILES IDX 12 14 10 15 11 16 7 17 8 18REMARK H PARENTREMARK Flexibility Score:   28.900USER                              x       y       z     vdW  Elec       q    TypeUSER                           _______ _______ _______ _____ _____    ______ ____ROOTATOM      1  O   UNL     1      39.841  46.082  14.917 -0.17 +0.06    -0.458 OA ENDROOTBRANCH   1   2ATOM      2  C   UNL     1      40.306  47.266  15.607 -0.42 -0.03    +0.185 C  BRANCH   2   3ATOM      3  C   UNL     1      39.768  47.246  17.050 -0.50 -0.01    +0.048 C  BRANCH   3   4ATOM      4  C   UNL     1      40.524  46.317  18.020 -0.54 +0.00    -0.014 C  ATOM      5  C   UNL     1      39.563  45.816  19.102 -0.47 -0.00    +0.007 C  ATOM      6  C   UNL     1      41.738  46.971  18.676 -0.60 +0.00    +0.007 C  ENDBRANCH   3   4ENDBRANCH   2   3BRANCH   2   7ATOM      7  C   UNL     1      39.916  48.519  14.824 -0.52 -0.04    +0.126 CG0ATOM      8  G   UNL     1      38.411  48.672  14.801 +0.00 +0.00    +0.000 G0 ENDBRANCH   2   7ENDBRANCH   1   2BRANCH   1   9ATOM      9  C   UNL     1      38.578  45.698  15.205 -0.16 -0.09    +0.339 C  ATOM     10  O   UNL     1      38.256  44.911  16.075 -0.19 +0.06    -0.246 OA BRANCH   9  11ATOM     11  C   UNL     1      37.652  46.308  14.233 -0.38 -0.03    +0.070 A  ATOM     12  C   UNL     1      36.805  45.448  13.519 -0.46 -0.01    +0.016 A  ATOM     13  C   UNL     1      37.610  47.691  14.010 -0.51 -0.01    +0.032 A  ATOM     14  C   UNL     1      35.941  45.966  12.553 -0.53 -0.00    +0.001 A  ATOM     15  C   UNL     1      36.749  48.197  13.025 -0.55 -0.01    +0.013 A  ATOM     16  C   UNL     1      35.920  47.337  12.301 -0.63 -0.00    +0.001 A  BRANCH  13  17ATOM     17  C   UNL     1      38.413  48.669  14.802 -0.39 -0.10    +0.167 CG0ATOM     18  O   UNL     1      37.846  49.549  15.444 -0.34 +0.27    -0.294 OA ATOM     19  G   UNL     1      39.918  48.522  14.827 +0.00 +0.00    +0.000 G0 ENDBRANCH  13  17ENDBRANCH   9  11ENDBRANCH   1   9TORSDOF 2TERENDMDL