REMARK SMILES O[C@@H]1CNCCOC(c2cccc3cnccc23)=CN=COC1
REMARK SMILES IDX 20 1 21 2 22 3 23 4 2 5 1 7 19 9 8 10 7 11 6 12 5 13 4 14
REMARK SMILES IDX 3 16 9 18 10 19 18 20 11 21 17 22 13 23 12 24 16 25 14 26
REMARK SMILES IDX 15 27
REMARK H PARENT 1 8 4 15
REMARK Flexibility Score:   80.900
ROOT
ATOM      1  N   UNL     1       1.305   1.084  -1.213  1.00  0.00    -0.225 NA
ENDROOT
BRANCH   1   2
ATOM      2  C   UNL     1       1.626   2.248  -0.767  1.00  0.00     0.301 C 
BRANCH   2   3
ATOM      3  O   UNL     1       2.911   2.618  -0.552  1.00  0.00    -0.480 OA
BRANCH   3   4
ATOM      4  C   UNL     1       3.921   1.608  -0.779  1.00  0.00     0.263 C 
BRANCH   4   5
ATOM      5  C   UNL     1       4.023   0.644   0.423  1.00  0.00     0.165 CG0
ATOM      6  G   UNL     1       4.056  -0.843  -0.006  1.00  0.00     0.000 G0
BRANCH   5   7
ATOM      7  O   UNL     1       5.213   0.940   1.175  1.00  0.00    -0.388 OA
ATOM      8  H   UNL     1       5.981   0.744   0.611  1.00  0.00     0.211 HD
ENDBRANCH   5   7
ENDBRANCH   4   5
ENDBRANCH   3   4
ENDBRANCH   2   3
ENDBRANCH   1   2
BRANCH   1   9
ATOM      9  C   UNL     1      -0.042   0.857  -1.312  1.00  0.00     0.161 C 
BRANCH   9  10
ATOM     10  C   UNL     1      -0.695   0.006  -0.501  1.00  0.00     0.145 C 
BRANCH  10  11
ATOM     11  O   UNL     1      -0.079  -0.582   0.586  1.00  0.00    -0.490 OA
BRANCH  11  12
ATOM     12  C   UNL     1       0.452  -1.883   0.289  1.00  0.00     0.245 C 
BRANCH  12  13
ATOM     13  C   UNL     1       1.954  -1.897   0.624  1.00  0.00     0.122 C 
BRANCH  13  14
ATOM     14  N   UNL     1       2.768  -1.362  -0.482  1.00  0.00    -0.311 NA
ATOM     15  H   UNL     1       2.236  -0.591  -0.915  1.00  0.00     0.122 HD
BRANCH  14  16
ATOM     16  C   UNL     1       4.056  -0.843  -0.006  1.00  0.00     0.116 CG0
ATOM     17  G   UNL     1       4.023   0.644   0.423  1.00  0.00     0.000 G0
ENDBRANCH  14  16
ENDBRANCH  13  14
ENDBRANCH  12  13
ENDBRANCH  11  12
ENDBRANCH  10  11
BRANCH  10  18
ATOM     18  C   UNL     1      -2.145  -0.234  -0.628  1.00  0.00     0.026 A 
ATOM     19  C   UNL     1      -2.597  -0.897  -1.784  1.00  0.00     0.013 A 
ATOM     20  C   UNL     1      -3.078   0.173   0.366  1.00  0.00    -0.004 A 
ATOM     21  C   UNL     1      -3.951  -1.161  -1.972  1.00  0.00     0.001 A 
ATOM     22  C   UNL     1      -2.728   0.849   1.554  1.00  0.00     0.029 A 
ATOM     23  C   UNL     1      -4.448  -0.102   0.158  1.00  0.00     0.001 A 
ATOM     24  C   UNL     1      -4.872  -0.766  -1.006  1.00  0.00     0.010 A 
ATOM     25  C   UNL     1      -3.716   1.207   2.459  1.00  0.00     0.111 A 
ATOM     26  C   UNL     1      -5.356   0.307   1.138  1.00  0.00     0.119 A 
ATOM     27  N   UNL     1      -5.025   0.952   2.279  1.00  0.00    -0.264 NA
ENDBRANCH  10  18
ENDBRANCH   9  10
ENDBRANCH   1   9
TORSDOF 2
