REMARK SMILES COC=CC=C(CF)c1ccc(CCN2C[C@H](C)CC[C@@H]2CON)cn1
REMARK SMILES IDX 9 1 10 2 11 3 12 4 25 5 26 6 6 7 5 8 4 9 3 10 2 11 1 12 7 13
REMARK SMILES IDX 8 14 13 15 14 16 15 17 16 18 21 19 17 20 20 21 19 22 18 23
REMARK SMILES IDX 22 24 23 25 24 26
REMARK H PARENT 24 27 24 28
ROOT
ATOM      1  C   UNL     1       2.616   0.771   0.782  1.00  0.00     0.069 A 
ATOM      2  C   UNL     1       2.120   0.723   2.083  1.00  0.00     0.029 A 
ATOM      3  C   UNL     1       0.850   1.233   2.341  1.00  0.00     0.007 A 
ATOM      4  C   UNL     1       0.092   1.775   1.302  1.00  0.00    -0.028 A 
ATOM      5  C   UNL     1       0.677   1.803   0.041  1.00  0.00     0.115 A 
ATOM      6  N   UNL     1       1.906   1.312  -0.239  1.00  0.00    -0.256 NA
ENDROOT
BRANCH   1   7
ATOM      7  C   UNL     1       3.963   0.258   0.439  1.00  0.00     0.009 C 
BRANCH   7   8
ATOM      8  C   UNL     1       4.122  -0.422  -0.716  1.00  0.00     0.012 C 
BRANCH   8   9
ATOM      9  C   UNL     1       5.351  -1.008  -1.216  1.00  0.00     0.038 C 
BRANCH   9  10
ATOM     10  C   UNL     1       5.414  -1.622  -2.410  1.00  0.00     0.186 C 
BRANCH  10  11
ATOM     11  O   UNL     1       6.485  -2.217  -3.016  1.00  0.00    -0.504 OA
ATOM     12  C   UNL     1       7.720  -2.220  -2.304  1.00  0.00     0.277 C 
ENDBRANCH  10  11
ENDBRANCH   9  10
ENDBRANCH   8   9
ENDBRANCH   7   8
BRANCH   7  13
ATOM     13  C   UNL     1       5.049   0.606   1.413  1.00  0.00     0.252 C 
ATOM     14  F   UNL     1       5.024  -0.232   2.487  1.00  0.00    -0.246 F 
ENDBRANCH   7  13
ENDBRANCH   1   7
BRANCH   4  15
ATOM     15  C   UNL     1      -1.282   2.331   1.556  1.00  0.00     0.052 C 
BRANCH  15  16
ATOM     16  C   UNL     1      -2.445   1.785   0.691  1.00  0.00     0.089 C 
BRANCH  16  17
ATOM     17  N   UNL     1      -2.920   0.437   1.047  1.00  0.00    -0.297 NA
ATOM     18  C   UNL     1      -1.925  -0.599   0.703  1.00  0.00     0.088 C 
ATOM     19  C   UNL     1      -4.293   0.100   0.567  1.00  0.00     0.084 C 
ATOM     20  C   UNL     1      -2.518  -1.979   0.392  1.00  0.00    -0.000 C 
ATOM     21  C   UNL     1      -4.271  -0.577  -0.814  1.00  0.00     0.022 C 
ATOM     22  C   UNL     1      -3.473  -1.885  -0.803  1.00  0.00     0.006 C 
ATOM     23  C   UNL     1      -1.418  -3.007   0.127  1.00  0.00     0.009 C 
BRANCH  19  24
ATOM     24  C   UNL     1      -5.363   1.218   0.627  1.00  0.00     0.204 C 
BRANCH  24  25
ATOM     25  O   UNL     1      -5.276   2.087  -0.506  1.00  0.00    -0.303 OA
BRANCH  25  26
ATOM     26  N   UNL     1      -6.320   3.100  -0.393  1.00  0.00    -0.216 NA
ATOM     27  H   UNL     1      -6.810   2.979  -1.278  1.00  0.00     0.151 HD
ATOM     28  H   UNL     1      -5.779   3.958  -0.492  1.00  0.00     0.151 HD
ENDBRANCH  25  26
ENDBRANCH  24  25
ENDBRANCH  19  24
ENDBRANCH  16  17
ENDBRANCH  15  16
ENDBRANCH   4  15
TORSDOF 12
