MODEL        8USER    Run = 8USERUSER    Estimated Free Energy of Binding    =  -7.52 kcal/mol  [=(1)+(2)+(3)-(4)]USERUSER    (1) Final Intermolecular Energy     =  -9.91 kcal/molUSER        vdW + Hbond + desolv Energy     =  -9.54 kcal/molUSER        Electrostatic Energy            =  -0.37 kcal/molUSER        Moving Ligand-Fixed Receptor    =  -9.91 kcal/molUSER        Moving Ligand-Moving Receptor   =  +0.00 kcal/molUSER    (2) Final Total Internal Energy     =  -0.26 kcal/molUSER    (3) Torsional Free Energy           =  +2.39 kcal/molUSER    (4) Unbound System's Energy         =  -0.26 kcal/molUSERUSERREMARK SMILES C/C=C/CCOc1ccc(O)c(-c2cncccc(O)c[nH]2)c1CREMARK SMILES IDX 5 1 4 2 3 3 2 4 1 5 6 6 7 7 8 8 23 9 9 10 12 11 10 12 24 13REMARK SMILES IDX 13 14 14 15 22 16 15 17 21 18 16 19 19 20 17 21 18 22 20 24REMARK SMILES IDX 11 26REMARK H PARENT 22 23 20 25 11 27USER                              x       y       z     vdW  Elec       q    TypeUSER                           _______ _______ _______ _____ _____    ______ ____ROOTATOM      1  C   UNL     1      37.477  48.188  15.627 -0.28 -0.19    +0.233 C  ENDROOTBRANCH   1   2ATOM      2  C   UNL     1      37.843  47.993  14.148 -0.55 -0.03    +0.068 C  BRANCH   2   3ATOM      3  C   UNL     1      36.743  48.095  13.118 -0.66 +0.01    -0.028 C  BRANCH   3   4ATOM      4  C   UNL     1      36.099  47.087  12.508 -0.72 +0.02    -0.035 C  ATOM      5  C   UNL     1      36.779  45.869  11.972 -0.67 -0.01    +0.035 C  ENDBRANCH   3   4ENDBRANCH   2   3ENDBRANCH   1   2BRANCH   1   6ATOM      6  O   UNL     1      37.904  47.052  16.398 -0.11 +0.26    -0.493 OA BRANCH   6   7ATOM      7  C   UNL     1      39.157  47.184  16.942 -0.33 -0.04    +0.123 A  ATOM      8  C   UNL     1      40.101  48.034  16.352 -0.49 -0.01    +0.050 A  ATOM      9  C   UNL     1      39.495  46.377  18.047 -0.42 -0.00    +0.004 A  ATOM     10  C   UNL     1      41.379  48.130  16.886 -0.41 -0.00    +0.051 A  ATOM     11  C   UNL     1      40.785  46.505  18.620 -0.45 -0.00    +0.048 A  ATOM     12  C   UNL     1      41.714  47.371  18.002 -0.38 -0.01    +0.125 A  ATOM     13  C   UNL     1      38.477  45.425  18.621 -0.41 -0.01    +0.049 C  BRANCH  11  14ATOM     14  C   UNL     1      41.208  45.735  19.825 -0.37 +0.01    +0.068 A  ATOM     15  C   UNL     1      41.146  44.392  19.906 -0.26 +0.01    +0.137 A  ATOM     16  N   UNL     1      41.524  46.458  20.965 -0.11 -0.04    -0.357 N  ATOM     17  N   UNL     1      41.423  43.478  20.856 -0.16 -0.02    -0.263 NA ATOM     18  C   UNL     1      42.779  47.028  21.011 -0.29 +0.03    +0.129 A  ATOM     19  C   UNL     1      42.328  43.573  21.856 -0.27 +0.01    +0.111 A  ATOM     20  C   UNL     1      43.875  46.595  21.645 -0.23 +0.07    +0.131 A  ATOM     21  C   UNL     1      43.338  44.271  22.416 -0.23 +0.01    +0.024 A  ATOM     22  C   UNL     1      44.002  45.430  22.292 -0.17 +0.02    +0.049 A  ATOM     23  H   UNL     1      41.510  45.717  21.688 +0.09 +0.02    +0.166 HD BRANCH  20  24ATOM     24  O   UNL     1      44.986  47.450  21.696 -0.63 -0.40    -0.506 OA ATOM     25  H   UNL     1      44.689  48.318  21.374 -0.41 +0.03    +0.293 HD ENDBRANCH  20  24ENDBRANCH  11  14BRANCH  12  26ATOM     26  O   UNL     1      43.005  47.500  18.453 -0.24 -0.03    -0.507 OA ATOM     27  H   UNL     1      43.568  47.252  17.684 -0.37 -0.07    +0.293 HD ENDBRANCH  12  26ENDBRANCH   6   7ENDBRANCH   1   6TORSDOF 8TERENDMDL