REMARK SMILES CC(C)C[C@@H]1CC(=O)c2ccccc2C(=O)O1
REMARK SMILES IDX 17 1 5 2 4 3 2 4 1 5 3 6 6 7 15 9 16 10 14 11 13 12 9 13
REMARK SMILES IDX 12 14 10 15 11 16 7 17 8 18
REMARK H PARENT
REMARK Flexibility Score:   28.900
ROOT
ATOM      1  O   UNL     1       0.423  -0.647   1.229  1.00  0.00    -0.458 OA
ENDROOT
BRANCH   1   2
ATOM      2  C   UNL     1      -0.613   0.153   0.611  1.00  0.00     0.185 C 
BRANCH   2   3
ATOM      3  C   UNL     1      -1.831  -0.743   0.323  1.00  0.00     0.048 C 
BRANCH   3   4
ATOM      4  C   UNL     1      -3.204  -0.065   0.503  1.00  0.00    -0.014 C 
ATOM      5  C   UNL     1      -4.316  -1.091   0.270  1.00  0.00     0.007 C 
ATOM      6  C   UNL     1      -3.418   1.139  -0.411  1.00  0.00     0.007 C 
ENDBRANCH   3   4
ENDBRANCH   2   3
BRANCH   2   7
ATOM      7  C   UNL     1      -0.064   0.860  -0.628  1.00  0.00     0.126 CG0
ATOM      8  G   UNL     1       1.244   1.545  -0.300  1.00  0.00     0.000 G0
ENDBRANCH   2   7
ENDBRANCH   1   2
BRANCH   1   9
ATOM      9  C   UNL     1       1.177  -1.379   0.380  1.00  0.00     0.339 C 
ATOM     10  O   UNL     1       0.903  -2.488  -0.038  1.00  0.00    -0.246 OA
BRANCH   9  11
ATOM     11  C   UNL     1       2.439  -0.664   0.112  1.00  0.00     0.070 A 
ATOM     12  C   UNL     1       3.625  -1.411   0.143  1.00  0.00     0.016 A 
ATOM     13  C   UNL     1       2.474   0.711  -0.156  1.00  0.00     0.032 A 
ATOM     14  C   UNL     1       4.852  -0.778  -0.056  1.00  0.00     0.001 A 
ATOM     15  C   UNL     1       3.715   1.339  -0.340  1.00  0.00     0.013 A 
ATOM     16  C   UNL     1       4.897   0.596  -0.289  1.00  0.00     0.001 A 
BRANCH  13  17
ATOM     17  C   UNL     1       1.244   1.545  -0.300  1.00  0.00     0.167 CG0
ATOM     18  O   UNL     1       1.315   2.766  -0.185  1.00  0.00    -0.294 OA
ATOM     19  G   UNL     1      -0.064   0.860  -0.628  1.00  0.00     0.000 G0
ENDBRANCH  13  17
ENDBRANCH   9  11
ENDBRANCH   1   9
TORSDOF 2
