REMARK SMILES COc1cc(O)cc(O)c1CC1=CC(=O)OC=C(O)C1
REMARK SMILES IDX 12 1 11 2 10 3 3 4 4 5 5 6 8 7 7 8 2 9 1 10 6 11 9 13 13 15
REMARK SMILES IDX 14 16 15 17 16 18 17 19 20 21 18 22 19 24
REMARK H PARENT 6 12 9 14 19 25
REMARK Flexibility Score:   19.900
ROOT
ATOM      1  C   UNL     1       1.443  -0.063  -0.673  1.00  0.00    -0.051 C 
ENDROOT
BRANCH   1   2
ATOM      2  C   UNL     1       0.153  -0.563  -1.301  1.00  0.00     0.075 C 
BRANCH   2   3
ATOM      3  C   UNL     1      -1.089   0.122  -0.759  1.00  0.00     0.040 A 
ATOM      4  C   UNL     1      -1.907  -0.500   0.207  1.00  0.00     0.129 A 
ATOM      5  C   UNL     1      -3.030   0.172   0.703  1.00  0.00     0.093 A 
ATOM      6  C   UNL     1      -3.340   1.449   0.245  1.00  0.00     0.122 A 
ATOM      7  C   UNL     1      -1.435   1.411  -1.204  1.00  0.00     0.126 A 
ATOM      8  C   UNL     1      -2.552   2.080  -0.708  1.00  0.00     0.092 A 
BRANCH   4   9
ATOM      9  O   UNL     1      -1.535  -1.762   0.593  1.00  0.00    -0.496 OA
ATOM     10  C   UNL     1      -2.284  -2.384   1.629  1.00  0.00     0.278 C 
ENDBRANCH   4   9
BRANCH   6  11
ATOM     11  O   UNL     1      -4.447   2.053   0.767  1.00  0.00    -0.508 OA
ATOM     12  H   UNL     1      -4.546   2.933   0.368  1.00  0.00     0.293 HD
ENDBRANCH   6  11
BRANCH   7  13
ATOM     13  O   UNL     1      -0.656   2.013  -2.155  1.00  0.00    -0.507 OA
ATOM     14  H   UNL     1      -0.957   2.927  -2.288  1.00  0.00     0.293 HD
ENDBRANCH   7  13
ENDBRANCH   2   3
ENDBRANCH   1   2
BRANCH   1  15
ATOM     15  C   UNL     1       2.255   0.762  -1.360  1.00  0.00     0.094 C 
BRANCH  15  16
ATOM     16  C   UNL     1       3.493   1.400  -0.885  1.00  0.00     0.335 C 
ATOM     17  O   UNL     1       3.762   2.538  -1.264  1.00  0.00    -0.246 OA
BRANCH  16  18
ATOM     18  O   UNL     1       4.371   0.682  -0.132  1.00  0.00    -0.428 OA
BRANCH  18  19
ATOM     19  C   UNL     1       4.224  -0.588   0.453  1.00  0.00     0.241 CG0
ATOM     20  G   UNL     1       3.086  -1.162   0.859  1.00  0.00     0.000 G0
ENDBRANCH  18  19
ENDBRANCH  16  18
ENDBRANCH  15  16
ENDBRANCH   1  15
BRANCH   1  21
ATOM     21  C   UNL     1       1.733  -0.525   0.729  1.00  0.00     0.109 C 
BRANCH  21  22
ATOM     22  C   UNL     1       3.086  -1.162   0.859  1.00  0.00     0.131 CG0
ATOM     23  G   UNL     1       4.224  -0.588   0.453  1.00  0.00     0.000 G0
BRANCH  22  24
ATOM     24  O   UNL     1       3.083  -2.409   1.458  1.00  0.00    -0.509 OA
ATOM     25  H   UNL     1       3.994  -2.748   1.492  1.00  0.00     0.293 HD
ENDBRANCH  22  24
ENDBRANCH  21  22
ENDBRANCH   1  21
TORSDOF 6
