MODEL        7USER    Run = 7USERUSER    Estimated Free Energy of Binding    =  -8.41 kcal/mol  [=(1)+(2)+(3)-(4)]USERUSER    (1) Final Intermolecular Energy     = -11.99 kcal/molUSER        vdW + Hbond + desolv Energy     = -11.69 kcal/molUSER        Electrostatic Energy            =  -0.30 kcal/molUSER        Moving Ligand-Fixed Receptor    = -11.99 kcal/molUSER        Moving Ligand-Moving Receptor   =  +0.00 kcal/molUSER    (2) Final Total Internal Energy     =  -1.48 kcal/molUSER    (3) Torsional Free Energy           =  +3.58 kcal/molUSER    (4) Unbound System's Energy         =  -1.48 kcal/molUSERUSERREMARK SMILES COC=CC=C(CF)c1ccc(CCN2C[C@H](C)CC[C@@H]2CON)cn1REMARK SMILES IDX 9 1 10 2 11 3 12 4 25 5 26 6 6 7 5 8 4 9 3 10 2 11 1 12 7 13REMARK SMILES IDX 8 14 13 15 14 16 15 17 16 18 21 19 17 20 20 21 19 22 18 23REMARK SMILES IDX 22 24 23 25 24 26REMARK H PARENT 24 27 24 28USER                              x       y       z     vdW  Elec       q    TypeUSER                           _______ _______ _______ _____ _____    ______ ____ROOTATOM      1  C   UNL     1      38.151  46.180  15.795 -0.34 -0.03    +0.069 A  ATOM      2  C   UNL     1      37.865  45.909  17.132 -0.36 -0.01    +0.029 A  ATOM      3  C   UNL     1      37.044  44.828  17.441 -0.34 -0.00    +0.007 A  ATOM      4  C   UNL     1      36.526  44.031  16.420 -0.35 +0.01    -0.028 A  ATOM      5  C   UNL     1      36.845  44.390  15.115 -0.27 -0.04    +0.115 A  ATOM      6  N   UNL     1      37.643  45.431  14.785 -0.20 +0.09    -0.256 NA ENDROOTBRANCH   1   7ATOM      7  C   UNL     1      39.008  47.320  15.394 -0.54 -0.00    +0.009 C  BRANCH   7   8ATOM      8  C   UNL     1      38.440  48.358  14.744 -0.59 -0.01    +0.012 C  BRANCH   8   9ATOM      9  C   UNL     1      37.042  48.498  14.385 -0.56 -0.03    +0.038 C  BRANCH   9  10ATOM     10  C   UNL     1      36.577  48.140  13.176 -0.51 -0.09    +0.186 C  BRANCH  10  11ATOM     11  O   UNL     1      37.262  47.641  12.103 -0.87 +0.08    -0.504 OA ATOM     12  C   UNL     1      36.892  46.346  11.636 -0.45 -0.10    +0.277 C  ENDBRANCH  10  11ENDBRANCH   9  10ENDBRANCH   8   9ENDBRANCH   7   8BRANCH   7  13ATOM     13  C   UNL     1      40.444  47.222  15.813 -0.36 -0.04    +0.252 C  ATOM     14  F   UNL     1      40.783  48.259  16.629 -0.14 +0.04    -0.246 F  ENDBRANCH   7  13ENDBRANCH   1   7BRANCH   4  15ATOM     15  C   UNL     1      35.638  42.858  16.729 -0.45 -0.02    +0.052 C  BRANCH  15  16ATOM     16  C   UNL     1      35.403  42.513  18.221 -0.37 -0.02    +0.089 C  BRANCH  16  17ATOM     17  N   UNL     1      34.000  42.553  18.667 -0.17 +0.05    -0.297 NA ATOM     18  C   UNL     1      33.185  41.521  17.992 -0.41 -0.02    +0.088 C  ATOM     19  C   UNL     1      33.361  43.902  18.637 -0.37 -0.02    +0.084 C  ATOM     20  C   UNL     1      31.700  41.874  17.842 -0.38 +0.00    -0.000 C  ATOM     21  C   UNL     1      32.652  44.175  17.300 -0.35 -0.01    +0.022 C  ATOM     22  C   UNL     1      31.544  43.155  17.016 -0.35 -0.00    +0.006 C  ATOM     23  C   UNL     1      30.919  40.722  17.210 -0.40 -0.00    +0.009 C  BRANCH  19  24ATOM     24  C   UNL     1      34.229  45.110  19.068 -0.31 -0.07    +0.204 C  BRANCH  24  25ATOM     25  O   UNL     1      34.289  46.105  18.042 -0.36 +0.23    -0.303 OA BRANCH  25  26ATOM     26  N   UNL     1      33.864  47.380  18.609 -0.98 +0.19    -0.216 NA ATOM     27  H   UNL     1      32.882  47.192  18.806 -0.44 -0.13    +0.151 HD ATOM     28  H   UNL     1      33.870  47.979  17.784 -0.45 -0.35    +0.151 HD ENDBRANCH  25  26ENDBRANCH  24  25ENDBRANCH  19  24ENDBRANCH  16  17ENDBRANCH  15  16ENDBRANCH   4  15TORSDOF 12TERENDMDL