MODEL        8USER    Run = 8USERUSER    Estimated Free Energy of Binding    =  -9.96 kcal/mol  [=(1)+(2)+(3)-(4)]USERUSER    (1) Final Intermolecular Energy     = -12.35 kcal/molUSER        vdW + Hbond + desolv Energy     = -12.20 kcal/molUSER        Electrostatic Energy            =  -0.15 kcal/molUSER        Moving Ligand-Fixed Receptor    = -12.35 kcal/molUSER        Moving Ligand-Moving Receptor   =  +0.00 kcal/molUSER    (2) Final Total Internal Energy     =  -1.16 kcal/molUSER    (3) Torsional Free Energy           =  +2.39 kcal/molUSER    (4) Unbound System's Energy         =  -1.16 kcal/molUSERUSERREMARK SMILES CCCCC(=O)Nc1ccc(-c2cc(O)c3ccccc3n2)cc1CNREMARK SMILES IDX 5 1 6 2 7 3 4 5 3 6 2 7 1 8 8 9 9 10 24 11 10 12 23 13 11 14REMARK SMILES IDX 25 15 26 16 12 19 13 20 22 21 14 22 21 23 16 24 20 25 17 26REMARK SMILES IDX 19 27 18 28 15 29REMARK H PARENT 7 4 26 17 26 18 15 30USER                              x       y       z     vdW  Elec       q    TypeUSER                           _______ _______ _______ _____ _____    ______ ____ROOTATOM      1  C   UNL     1      41.113  49.611  15.734 -0.53 -0.04    +0.224 C  ATOM      2  O   UNL     1      41.786  49.516  16.753 -1.01 -0.06    -0.275 OA ATOM      3  N   UNL     1      40.049  48.806  15.373 -0.30 +0.11    -0.326 N  ATOM      4  H   UNL     1      39.596  48.999  14.478 -0.02 -0.08    +0.169 HD ENDROOTBRANCH   1   5ATOM      5  C   UNL     1      41.408  50.649  14.657 -0.36 -0.03    +0.100 C  BRANCH   5   6ATOM      6  C   UNL     1      42.745  50.452  13.939 -0.67 -0.00    +0.010 C  BRANCH   6   7ATOM      7  C   UNL     1      42.617  50.220  12.431 -0.69 +0.00    -0.003 C  ATOM      8  C   UNL     1      42.913  51.443  11.580 -0.63 -0.00    +0.004 C  ENDBRANCH   6   7ENDBRANCH   5   6ENDBRANCH   1   5BRANCH   3   9ATOM      9  C   UNL     1      39.429  47.778  16.113 -0.47 -0.02    +0.045 A  ATOM     10  C   UNL     1      40.001  47.223  17.259 -0.46 -0.01    +0.027 A  ATOM     11  C   UNL     1      38.162  47.320  15.684 -0.44 +0.00    -0.010 A  ATOM     12  C   UNL     1      39.338  46.224  17.979 -0.43 -0.00    +0.012 A  ATOM     13  C   UNL     1      37.520  46.297  16.418 -0.37 -0.01    +0.017 A  ATOM     14  C   UNL     1      38.089  45.733  17.572 -0.38 -0.00    +0.001 A  BRANCH  11  15ATOM     15  C   UNL     1      37.490  47.804  14.414 -0.50 -0.06    +0.115 C  BRANCH  15  16ATOM     16  N   UNL     1      37.376  49.264  14.334 -0.19 +0.25    -0.326 NA ATOM     17  H   UNL     1      37.693  49.550  13.403 -0.41 -0.05    +0.119 HD ATOM     18  H   UNL     1      38.051  49.674  14.982 -0.50 -0.11    +0.119 HD ENDBRANCH  15  16ENDBRANCH  11  15BRANCH  14  19ATOM     19  C   UNL     1      37.414  44.668  18.339 -0.31 -0.01    +0.075 A  ATOM     20  C   UNL     1      36.412  43.873  17.794 -0.25 -0.02    +0.075 A  ATOM     21  N   UNL     1      37.844  44.505  19.615 -0.21 +0.02    -0.248 NA ATOM     22  C   UNL     1      35.836  42.898  18.596 -0.22 -0.02    +0.127 A  ATOM     23  C   UNL     1      37.278  43.561  20.388 -0.32 -0.00    +0.075 A  ATOM     24  C   UNL     1      36.252  42.717  19.923 -0.38 -0.00    +0.042 A  ATOM     25  C   UNL     1      37.719  43.407  21.696 -0.36 +0.00    +0.029 A  ATOM     26  C   UNL     1      35.701  41.745  20.787 -0.39 +0.00    +0.014 A  ATOM     27  C   UNL     1      37.173  42.445  22.550 -0.46 +0.00    +0.002 A  ATOM     28  C   UNL     1      36.160  41.612  22.094 -0.54 +0.00    +0.001 A  BRANCH  22  29ATOM     29  O   UNL     1      34.847  42.094  18.090 -0.15 +0.14    -0.507 OA ATOM     30  H   UNL     1      35.248  41.368  17.586 -0.29 -0.14    +0.293 HD ENDBRANCH  22  29ENDBRANCH  14  19ENDBRANCH   3   9TORSDOF 8TERENDMDL