MODEL        7USER    Run = 7USERUSER    Estimated Free Energy of Binding    =  -8.13 kcal/mol  [=(1)+(2)+(3)-(4)]USERUSER    (1) Final Intermolecular Energy     = -10.52 kcal/molUSER        vdW + Hbond + desolv Energy     = -10.42 kcal/molUSER        Electrostatic Energy            =  -0.09 kcal/molUSER        Moving Ligand-Fixed Receptor    = -10.52 kcal/molUSER        Moving Ligand-Moving Receptor   =  +0.00 kcal/molUSER    (2) Final Total Internal Energy     =  -1.44 kcal/molUSER    (3) Torsional Free Energy           =  +2.39 kcal/molUSER    (4) Unbound System's Energy         =  -1.44 kcal/molUSERUSERREMARK SMILES CCOc1cc(Nc2ncc(F)c(N[C@H](C)c3ccccc3)n2)ccc1OCREMARK SMILES IDX 7 1 6 3 4 4 5 5 26 6 25 7 24 8 3 9 2 10 1 11 27 12 28 13REMARK SMILES IDX 8 14 9 15 23 16 10 17 13 18 11 19 12 20 14 21 15 23 16 24REMARK SMILES IDX 17 25 18 26 22 27 19 28 21 29 20 30REMARK H PARENT 7 2 14 22USER                              x       y       z     vdW  Elec       q    TypeUSER                           _______ _______ _______ _____ _____    ______ ____ROOTATOM      1  N   UNL     1      38.085  44.685  17.528 -0.15 +0.07    -0.324 N  ATOM      2  H   UNL     1      38.215  44.309  16.600 +0.11 -0.04    +0.170 HD ENDROOTBRANCH   1   3ATOM      3  C   UNL     1      36.860  44.434  18.147 -0.31 -0.01    +0.045 A  ATOM      4  C   UNL     1      35.633  43.360  19.963 -0.31 -0.01    +0.163 A  ATOM      5  C   UNL     1      36.837  43.630  19.296 -0.27 -0.01    +0.076 A  ATOM      6  C   UNL     1      34.410  43.844  19.483 -0.29 -0.02    +0.160 A  ATOM      7  C   UNL     1      34.424  44.623  18.327 -0.32 -0.02    +0.052 A  ATOM      8  C   UNL     1      35.635  44.906  17.668 -0.31 -0.01    +0.030 A  BRANCH   4   9ATOM      9  O   UNL     1      35.669  42.546  21.065 -0.18 -0.03    -0.490 OA BRANCH   9  10ATOM     10  C   UNL     1      36.981  42.520  21.644 -0.37 +0.01    +0.226 C  ATOM     11  C   UNL     1      37.283  41.092  22.080 -0.54 +0.00    +0.049 C  ENDBRANCH   9  10ENDBRANCH   4   9BRANCH   6  12ATOM     12  O   UNL     1      33.291  43.532  20.213 -0.74 -0.05    -0.493 OA ATOM     13  C   UNL     1      32.047  43.569  19.533 -0.26 -0.00    +0.278 C  ENDBRANCH   6  12ENDBRANCH   1   3BRANCH   1  14ATOM     14  C   UNL     1      39.251  45.332  17.923 -0.26 -0.03    +0.229 A  ATOM     15  N   UNL     1      40.015  44.866  18.924 -0.28 +0.01    -0.218 NA ATOM     16  N   UNL     1      39.528  46.462  17.243 -0.32 +0.04    -0.192 NA ATOM     17  C   UNL     1      41.100  45.594  19.252 -0.34 +0.01    +0.158 A  ATOM     18  C   UNL     1      40.632  47.163  17.570 -0.39 -0.02    +0.168 A  ATOM     19  C   UNL     1      41.449  46.753  18.609 -0.38 -0.00    +0.183 A  ATOM     20  F   UNL     1      42.548  47.436  18.963 -0.22 -0.01    -0.201 F  BRANCH  18  21ATOM     21  N   UNL     1      40.916  48.372  16.915 -0.27 +0.05    -0.361 N  ATOM     22  H   UNL     1      41.720  48.836  17.328 +0.07 +0.01    +0.162 HD BRANCH  21  23ATOM     23  C   UNL     1      40.947  48.371  15.452 -0.53 -0.01    +0.108 C  ATOM     24  C   UNL     1      41.470  49.714  14.918 -0.73 -0.01    +0.036 C  BRANCH  23  25ATOM     25  C   UNL     1      39.543  48.024  14.970 -0.52 +0.01    -0.026 A  ATOM     26  C   UNL     1      38.422  48.824  15.239 -0.48 -0.00    +0.006 A  ATOM     27  C   UNL     1      39.348  46.824  14.259 -0.39 -0.00    +0.006 A  ATOM     28  C   UNL     1      37.152  48.456  14.781 -0.51 -0.00    +0.000 A  ATOM     29  C   UNL     1      38.077  46.456  13.807 -0.44 -0.00    +0.000 A  ATOM     30  C   UNL     1      36.981  47.277  14.061 -0.50 -0.00    +0.000 A  ENDBRANCH  23  25ENDBRANCH  21  23ENDBRANCH  18  21ENDBRANCH   1  14TORSDOF 8TERENDMDL