MODEL        4USER    Run = 4USERUSER    Estimated Free Energy of Binding    =  -9.27 kcal/mol  [=(1)+(2)+(3)-(4)]USERUSER    (1) Final Intermolecular Energy     = -12.85 kcal/molUSER        vdW + Hbond + desolv Energy     = -12.66 kcal/molUSER        Electrostatic Energy            =  -0.19 kcal/molUSER        Moving Ligand-Fixed Receptor    = -12.85 kcal/molUSER        Moving Ligand-Moving Receptor   =  +0.00 kcal/molUSER    (2) Final Total Internal Energy     =  -4.00 kcal/molUSER    (3) Torsional Free Energy           =  +3.58 kcal/molUSER    (4) Unbound System's Energy         =  -4.00 kcal/molUSERUSERREMARK SMILES C[C@H](CCC=N)[C@@H](CS(C)(=O)=O)NC(=O)c1ccc(F)cc1C1=NC(=CC2=CC=CCC2)C=C1REMARK SMILES IDX 1 1 2 2 3 3 4 4 5 5 6 6 7 8 8 9 9 10 10 11 11 12 12 13 13 14REMARK SMILES IDX 14 15 15 17 16 18 17 19 22 20 18 21 21 22 19 23 20 24 23 25REMARK SMILES IDX 24 26 34 27 25 28 33 29 26 30 27 31 28 32 32 33 29 34 31 35REMARK SMILES IDX 30 36REMARK H PARENT 6 7 13 16USER                              x       y       z     vdW  Elec       q    TypeUSER                           _______ _______ _______ _____ _____    ______ ____ROOTATOM      1  C   UNL     1      42.515  46.599  25.456 -0.10 +0.00    +0.010 C  ATOM      2  C   UNL     1      41.637  46.404  24.199 -0.17 +0.00    +0.010 C  ENDROOTBRANCH   2   3ATOM      3  C   UNL     1      41.571  47.769  23.464 -0.32 +0.00    +0.011 C  BRANCH   3   4ATOM      4  C   UNL     1      42.883  48.259  22.844 -0.38 +0.01    +0.047 C  BRANCH   4   5ATOM      5  C   UNL     1      43.539  47.181  22.025 -0.35 +0.02    +0.074 C  BRANCH   5   6ATOM      6  N   UNL     1      44.790  47.208  21.701 -0.68 -0.25    -0.313 NA ATOM      7  H   UNL     1      45.054  48.133  21.340 -0.44 +0.08    +0.186 HD ENDBRANCH   5   6ENDBRANCH   4   5ENDBRANCH   3   4ENDBRANCH   2   3BRANCH   2   8ATOM      8  C   UNL     1      40.247  45.823  24.625 -0.14 +0.01    +0.100 C  BRANCH   8   9ATOM      9  C   UNL     1      39.495  46.583  25.723 -0.16 +0.01    +0.161 C  BRANCH   9  10ATOM     10  S   UNL     1      37.931  47.306  25.274 -0.40 +0.01    +0.149 S  ATOM     11  C   UNL     1      37.473  48.302  26.670 -0.30 -0.00    +0.158 C  ATOM     12  O   UNL     1      36.929  46.271  25.105 -0.88 -0.05    -0.229 OA ATOM     13  O   UNL     1      38.194  48.224  24.179 -0.41 -0.04    -0.229 OA ENDBRANCH   9  10ENDBRANCH   8   9BRANCH   8  14ATOM     14  N   UNL     1      39.415  45.546  23.447 -0.09 -0.02    -0.348 N  ATOM     15  C   UNL     1      39.854  44.803  22.378 -0.17 +0.01    +0.252 C  ATOM     16  H   UNL     1      38.566  46.107  23.344 +0.07 +0.02    +0.164 HD ATOM     17  O   UNL     1      40.921  44.195  22.409 -0.13 -0.01    -0.269 OA BRANCH  15  18ATOM     18  C   UNL     1      39.010  44.718  21.146 -0.32 +0.00    +0.049 A  ATOM     19  C   UNL     1      39.426  45.521  20.065 -0.36 -0.00    +0.017 A  ATOM     20  C   UNL     1      37.910  43.867  20.953 -0.35 +0.00    +0.016 A  ATOM     21  C   UNL     1      38.755  45.487  18.840 -0.37 -0.00    +0.040 A  ATOM     22  C   UNL     1      37.236  43.831  19.723 -0.32 -0.00    +0.050 A  ATOM     23  C   UNL     1      37.666  44.642  18.683 -0.28 -0.02    +0.123 A  ATOM     24  F   UNL     1      37.022  44.606  17.509 -0.06 +0.06    -0.207 F  BRANCH  20  25ATOM     25  C   UNL     1      37.379  42.994  21.994 -0.42 +0.00    +0.072 C  ATOM     26  N   UNL     1      37.753  43.060  23.239 -0.20 -0.02    -0.248 NA ATOM     27  C   UNL     1      36.374  41.978  21.681 -0.58 +0.00    +0.031 C  ATOM     28  C   UNL     1      37.002  42.099  23.877 -0.45 +0.00    +0.064 C  ATOM     29  C   UNL     1      36.192  41.433  22.887 -0.49 +0.00    +0.030 C  BRANCH  28  30ATOM     30  C   UNL     1      36.991  41.828  25.190 -0.38 -0.00    +0.032 C  BRANCH  30  31ATOM     31  C   UNL     1      36.593  42.723  26.267 -0.44 +0.01    -0.046 C  ATOM     32  C   UNL     1      37.311  43.803  26.624 -0.37 -0.00    +0.003 C  ATOM     33  C   UNL     1      35.263  42.425  26.930 -0.59 -0.01    +0.040 C  ATOM     34  C   UNL     1      36.882  44.694  27.673 -0.45 +0.00    -0.004 C  ATOM     35  C   UNL     1      34.651  43.600  27.716 -0.66 -0.01    +0.032 C  ATOM     36  C   UNL     1      35.645  44.624  28.182 -0.53 +0.01    -0.027 C  ENDBRANCH  30  31ENDBRANCH  28  30ENDBRANCH  20  25ENDBRANCH  15  18ENDBRANCH   8  14ENDBRANCH   2   8TORSDOF 12TERENDMDL