REMARK SMILES CN(C)C(=O)[CH][C@@H]1CN(c2ncnc3[nH]cc(-c4cccc(C#N)c4)c23)C[C@@H]2C=C12
REMARK SMILES IDX 10 1 11 2 12 3 13 4 14 5 15 6 16 7 17 8 26 9 9 11 7 12 8 13
REMARK SMILES IDX 30 14 29 15 28 16 27 17 6 18 4 19 2 20 1 21 3 22 5 23 18 24
REMARK SMILES IDX 19 25 25 26 20 27 22 28 21 29 23 30 24 31
REMARK H PARENT 15 10
ROOT
ATOM      1  C   UNL     1      -1.669  -0.164  -1.918  1.00  0.00     0.142 A 
ATOM      2  N   UNL     1      -1.579  -0.211  -3.275  1.00  0.00    -0.219 NA
ATOM      3  C   UNL     1      -2.322   0.629  -4.018  1.00  0.00     0.226 A 
ATOM      4  N   UNL     1      -3.190   1.558  -3.595  1.00  0.00    -0.218 NA
ATOM      5  C   UNL     1      -3.287   1.556  -2.259  1.00  0.00     0.143 A 
ATOM      6  N   UNL     1      -4.118   2.382  -1.555  1.00  0.00    -0.345 N 
ATOM      7  C   UNL     1      -4.015   2.114  -0.217  1.00  0.00     0.094 A 
ATOM      8  C   UNL     1      -3.089   1.097  -0.055  1.00  0.00     0.012 A 
ATOM      9  C   UNL     1      -2.599   0.749  -1.362  1.00  0.00     0.069 A 
ATOM     10  H   UNL     1      -4.729   3.061  -1.986  1.00  0.00     0.167 HD
ENDROOT
BRANCH   1  11
ATOM     11  N   UNL     1      -0.875  -1.013  -1.140  1.00  0.00    -0.354 N 
ATOM     12  C   UNL     1       1.446  -0.031  -1.249  1.00  0.00     0.048 C 
ATOM     13  C   UNL     1       0.185  -0.299  -0.380  1.00  0.00     0.127 C 
ATOM     14  C   UNL     1       2.053  -1.319  -1.722  1.00  0.00    -0.059 C 
ATOM     15  C   UNL     1       2.093  -2.507  -2.276  1.00  0.00    -0.017 C 
ATOM     16  C   UNL     1       0.857  -2.001  -2.571  1.00  0.00     0.057 C 
ATOM     17  C   UNL     1      -0.405  -2.246  -1.795  1.00  0.00     0.130 C 
BRANCH  12  18
ATOM     18  C   UNL     1       2.482   0.821  -0.583  1.00  0.00     0.100 C 
BRANCH  18  19
ATOM     19  C   UNL     1       3.076   0.474   0.713  1.00  0.00     0.226 C 
ATOM     20  N   UNL     1       4.423   0.765   0.871  1.00  0.00    -0.349 N 
ATOM     21  C   UNL     1       5.037   0.407   2.139  1.00  0.00     0.146 C 
ATOM     22  C   UNL     1       5.350   0.997  -0.231  1.00  0.00     0.146 C 
ATOM     23  O   UNL     1       2.376  -0.027   1.587  1.00  0.00    -0.275 OA
ENDBRANCH  18  19
ENDBRANCH  12  18
ENDBRANCH   1  11
BRANCH   8  24
ATOM     24  C   UNL     1      -2.789   0.528   1.250  1.00  0.00    -0.015 A 
ATOM     25  C   UNL     1      -2.448   1.355   2.328  1.00  0.00     0.009 A 
ATOM     26  C   UNL     1      -2.827  -0.860   1.438  1.00  0.00     0.028 A 
ATOM     27  C   UNL     1      -2.138   0.804   3.574  1.00  0.00     0.002 A 
ATOM     28  C   UNL     1      -2.509  -1.415   2.683  1.00  0.00     0.053 A 
ATOM     29  C   UNL     1      -2.166  -0.580   3.751  1.00  0.00     0.019 A 
BRANCH  28  30
ATOM     30  C   UNL     1      -2.531  -2.837   2.859  1.00  0.00     0.099 C 
ATOM     31  N   UNL     1      -2.557  -3.988   3.010  1.00  0.00    -0.192 NA
ENDBRANCH  28  30
ENDBRANCH   8  24
TORSDOF 5
