REMARK SMILES CCCCC(=O)Nc1ccc(-c2cc(O)c3ccccc3n2)cc1CN
REMARK SMILES IDX 5 1 6 2 7 3 4 5 3 6 2 7 1 8 8 9 9 10 24 11 10 12 23 13 11 14
REMARK SMILES IDX 25 15 26 16 12 19 13 20 22 21 14 22 21 23 16 24 20 25 17 26
REMARK SMILES IDX 19 27 18 28 15 29
REMARK H PARENT 7 4 26 17 26 18 15 30
ROOT
ATOM      1  C   UNL     1       3.746  -0.030   0.118  1.00  0.00     0.224 C 
ATOM      2  O   UNL     1       3.738   0.441  -1.013  1.00  0.00    -0.275 OA
ATOM      3  N   UNL     1       2.662  -0.142   0.969  1.00  0.00    -0.326 N 
ATOM      4  H   UNL     1       2.831  -0.542   1.894  1.00  0.00     0.169 HD
ENDROOT
BRANCH   1   5
ATOM      5  C   UNL     1       5.023  -0.531   0.783  1.00  0.00     0.100 C 
BRANCH   5   6
ATOM      6  C   UNL     1       6.208  -0.697  -0.170  1.00  0.00     0.010 C 
BRANCH   6   7
ATOM      7  C   UNL     1       6.279  -2.069  -0.847  1.00  0.00    -0.003 C 
ATOM      8  C   UNL     1       5.128  -2.362  -1.795  1.00  0.00     0.004 C 
ENDBRANCH   6   7
ENDBRANCH   5   6
ENDBRANCH   1   5
BRANCH   3   9
ATOM      9  C   UNL     1       1.306   0.150   0.715  1.00  0.00     0.045 A 
ATOM     10  C   UNL     1       0.839   0.528  -0.545  1.00  0.00     0.027 A 
ATOM     11  C   UNL     1       0.387   0.021   1.781  1.00  0.00    -0.010 A 
ATOM     12  C   UNL     1      -0.520   0.781  -0.759  1.00  0.00     0.012 A 
ATOM     13  C   UNL     1      -0.978   0.300   1.544  1.00  0.00     0.017 A 
ATOM     14  C   UNL     1      -1.457   0.682   0.279  1.00  0.00     0.001 A 
BRANCH  11  15
ATOM     15  C   UNL     1       0.802  -0.311   3.201  1.00  0.00     0.115 C 
BRANCH  15  16
ATOM     16  N   UNL     1       1.802  -1.381   3.281  1.00  0.00    -0.326 NA
ATOM     17  H   UNL     1       1.388  -2.224   2.872  1.00  0.00     0.119 HD
ATOM     18  H   UNL     1       1.950  -1.608   4.265  1.00  0.00     0.119 HD
ENDBRANCH  15  16
ENDBRANCH  11  15
BRANCH  14  19
ATOM     19  C   UNL     1      -2.884   0.968   0.034  1.00  0.00     0.075 A 
ATOM     20  C   UNL     1      -3.673   1.668   0.939  1.00  0.00     0.075 A 
ATOM     21  N   UNL     1      -3.377   0.510  -1.144  1.00  0.00    -0.248 NA
ATOM     22  C   UNL     1      -5.006   1.886   0.619  1.00  0.00     0.127 A 
ATOM     23  C   UNL     1      -4.670   0.721  -1.445  1.00  0.00     0.075 A 
ATOM     24  C   UNL     1      -5.545   1.412  -0.586  1.00  0.00     0.042 A 
ATOM     25  C   UNL     1      -5.169   0.241  -2.649  1.00  0.00     0.029 A 
ATOM     26  C   UNL     1      -6.893   1.600  -0.963  1.00  0.00     0.014 A 
ATOM     27  C   UNL     1      -6.503   0.427  -3.022  1.00  0.00     0.002 A 
ATOM     28  C   UNL     1      -7.368   1.108  -2.176  1.00  0.00     0.001 A 
BRANCH  22  29
ATOM     29  O   UNL     1      -5.812   2.576   1.487  1.00  0.00    -0.507 OA
ATOM     30  H   UNL     1      -5.283   2.892   2.237  1.00  0.00     0.293 HD
ENDBRANCH  22  29
ENDBRANCH  14  19
ENDBRANCH   3   9
TORSDOF 8
