REMARK SMILES CCOc1cc(Nc2ncc(F)c(N[C@H](C)c3ccccc3)n2)ccc1OC
REMARK SMILES IDX 7 1 6 3 4 4 5 5 26 6 25 7 24 8 3 9 2 10 1 11 27 12 28 13
REMARK SMILES IDX 8 14 9 15 23 16 10 17 13 18 11 19 12 20 14 21 15 23 16 24
REMARK SMILES IDX 17 25 18 26 22 27 19 28 21 29 20 30
REMARK H PARENT 7 2 14 22
ROOT
ATOM      1  N   UNL     1      -0.986  -0.521  -0.104  1.00  0.00    -0.324 N 
ATOM      2  H   UNL     1      -0.645   0.427  -0.166  1.00  0.00     0.170 HD
ENDROOT
BRANCH   1   3
ATOM      3  C   UNL     1      -2.314  -0.742  -0.472  1.00  0.00     0.045 A 
ATOM      4  C   UNL     1      -4.506   0.193  -0.998  1.00  0.00     0.163 A 
ATOM      5  C   UNL     1      -3.167   0.362  -0.616  1.00  0.00     0.076 A 
ATOM      6  C   UNL     1      -5.049  -1.081  -1.205  1.00  0.00     0.160 A 
ATOM      7  C   UNL     1      -4.212  -2.183  -1.039  1.00  0.00     0.052 A 
ATOM      8  C   UNL     1      -2.864  -2.011  -0.671  1.00  0.00     0.030 A 
BRANCH   4   9
ATOM      9  O   UNL     1      -5.299   1.306  -1.097  1.00  0.00    -0.490 OA
BRANCH   9  10
ATOM     10  C   UNL     1      -5.107   1.965  -2.356  1.00  0.00     0.226 C 
ATOM     11  C   UNL     1      -4.971   3.460  -2.097  1.00  0.00     0.049 C 
ENDBRANCH   9  10
ENDBRANCH   4   9
BRANCH   6  12
ATOM     12  O   UNL     1      -6.366  -1.138  -1.586  1.00  0.00    -0.493 OA
ATOM     13  C   UNL     1      -6.984  -2.415  -1.580  1.00  0.00     0.278 C 
ENDBRANCH   6  12
ENDBRANCH   1   3
BRANCH   1  14
ATOM     14  C   UNL     1       0.051  -1.350   0.311  1.00  0.00     0.229 A 
ATOM     15  N   UNL     1      -0.144  -2.652   0.572  1.00  0.00    -0.218 NA
ATOM     16  N   UNL     1       1.242  -0.735   0.452  1.00  0.00    -0.192 NA
ATOM     17  C   UNL     1       0.921  -3.352   1.009  1.00  0.00     0.158 A 
ATOM     18  C   UNL     1       2.301  -1.459   0.866  1.00  0.00     0.168 A 
ATOM     19  C   UNL     1       2.164  -2.801   1.178  1.00  0.00     0.183 A 
ATOM     20  F   UNL     1       3.198  -3.543   1.601  1.00  0.00    -0.201 F 
BRANCH  18  21
ATOM     21  N   UNL     1       3.541  -0.834   1.074  1.00  0.00    -0.361 N 
ATOM     22  H   UNL     1       4.312  -1.461   0.860  1.00  0.00     0.162 HD
BRANCH  21  23
ATOM     23  C   UNL     1       3.732   0.511   0.530  1.00  0.00     0.108 C 
ATOM     24  C   UNL     1       3.890   0.462  -0.999  1.00  0.00     0.036 C 
BRANCH  23  25
ATOM     25  C   UNL     1       4.926   1.126   1.250  1.00  0.00    -0.026 A 
ATOM     26  C   UNL     1       6.231   1.093   0.734  1.00  0.00     0.006 A 
ATOM     27  C   UNL     1       4.726   1.716   2.513  1.00  0.00     0.006 A 
ATOM     28  C   UNL     1       7.295   1.664   1.440  1.00  0.00     0.000 A 
ATOM     29  C   UNL     1       5.792   2.281   3.219  1.00  0.00     0.000 A 
ATOM     30  C   UNL     1       7.075   2.263   2.678  1.00  0.00     0.000 A 
ENDBRANCH  23  25
ENDBRANCH  21  23
ENDBRANCH  18  21
ENDBRANCH   1  14
TORSDOF 8
