MODEL        1USER    Run = 1USERUSER    Estimated Free Energy of Binding    = -10.15 kcal/mol  [=(1)+(2)+(3)-(4)]USERUSER    (1) Final Intermolecular Energy     = -11.64 kcal/molUSER        vdW + Hbond + desolv Energy     = -11.64 kcal/molUSER        Electrostatic Energy            =  -0.00 kcal/molUSER        Moving Ligand-Fixed Receptor    = -11.64 kcal/molUSER        Moving Ligand-Moving Receptor   =  +0.00 kcal/molUSER    (2) Final Total Internal Energy     =  -1.62 kcal/molUSER    (3) Torsional Free Energy           =  +1.49 kcal/molUSER    (4) Unbound System's Energy         =  -1.62 kcal/molUSERUSERREMARK SMILES CN(C)C(=O)[CH][C@@H]1CN(c2ncnc3[nH]cc(-c4cccc(C#N)c4)c23)C[C@@H]2C=C12REMARK SMILES IDX 10 1 11 2 12 3 13 4 14 5 15 6 16 7 17 8 26 9 9 11 7 12 8 13REMARK SMILES IDX 30 14 29 15 28 16 27 17 6 18 4 19 2 20 1 21 3 22 5 23 18 24REMARK SMILES IDX 19 25 25 26 20 27 22 28 21 29 23 30 24 31REMARK H PARENT 15 10USER                              x       y       z     vdW  Elec       q    TypeUSER                           _______ _______ _______ _____ _____    ______ ____ROOTATOM      1  C   UNL     1      38.240  46.023  17.630 -0.28 -0.04    +0.142 A  ATOM      2  N   UNL     1      38.659  45.565  18.841 -0.26 +0.03    -0.219 NA ATOM      3  C   UNL     1      39.904  45.851  19.263 -0.26 -0.01    +0.226 A  ATOM      4  N   UNL     1      40.848  46.559  18.629 -0.34 +0.01    -0.218 NA ATOM      5  C   UNL     1      40.423  46.964  17.425 -0.40 -0.02    +0.143 A  ATOM      6  N   UNL     1      41.188  47.682  16.550 -0.17 +0.04    -0.345 N  ATOM      7  C   UNL     1      40.485  47.910  15.398 -0.46 -0.02    +0.094 A  ATOM      8  C   UNL     1      39.235  47.331  15.538 -0.48 -0.00    +0.012 A  ATOM      9  C   UNL     1      39.179  46.741  16.849 -0.39 -0.02    +0.069 A  ATOM     10  H   UNL     1      42.138  47.965  16.739 -0.40 -0.01    +0.167 HD ENDROOTBRANCH   1  11ATOM     11  N   UNL     1      36.935  45.756  17.201 -0.12 +0.15    -0.354 N  ATOM     12  C   UNL     1      36.140  43.849  18.648 -0.36 -0.01    +0.048 C  ATOM     13  C   UNL     1      36.019  45.360  18.303 -0.27 -0.04    +0.127 C  ATOM     14  C   UNL     1      35.778  43.000  17.466 -0.35 +0.02    -0.059 C  ATOM     15  C   UNL     1      35.805  42.577  16.224 -0.48 +0.01    -0.017 C  ATOM     16  C   UNL     1      36.845  43.459  16.340 -0.32 -0.02    +0.057 C  ATOM     17  C   UNL     1      36.806  44.920  15.995 -0.32 -0.05    +0.130 C  BRANCH  12  18ATOM     18  C   UNL     1      35.356  43.429  19.853 -0.41 -0.01    +0.100 C  BRANCH  18  19ATOM     19  C   UNL     1      35.917  42.566  20.899 -0.35 +0.01    +0.226 C  ATOM     20  N   UNL     1      36.798  43.167  21.786 -0.19 -0.02    -0.349 N  ATOM     21  C   UNL     1      37.384  42.324  22.815 -0.40 +0.01    +0.146 C  ATOM     22  C   UNL     1      37.497  44.421  21.530 -0.33 +0.01    +0.146 C  ATOM     23  O   UNL     1      35.581  41.388  20.959 -0.32 +0.00    -0.275 OA ENDBRANCH  18  19ENDBRANCH  12  18ENDBRANCH   1  11BRANCH   8  24ATOM     24  C   UNL     1      38.256  47.338  14.461 -0.47 +0.01    -0.015 A  ATOM     25  C   UNL     1      37.481  48.477  14.209 -0.55 -0.01    +0.009 A  ATOM     26  C   UNL     1      38.071  46.195  13.672 -0.37 -0.01    +0.028 A  ATOM     27  C   UNL     1      36.526  48.472  13.189 -0.48 -0.00    +0.002 A  ATOM     28  C   UNL     1      37.110  46.186  12.654 -0.52 -0.02    +0.053 A  ATOM     29  C   UNL     1      36.339  47.327  12.414 -0.68 -0.01    +0.019 A  BRANCH  28  30ATOM     30  C   UNL     1      36.915  45.005  11.866 -0.52 -0.03    +0.099 C  ATOM     31  N   UNL     1      36.754  44.043  11.237 -0.37 +0.06    -0.192 NA ENDBRANCH  28  30ENDBRANCH   8  24TORSDOF 5TERENDMDL