MODEL        4USER    Run = 4USERUSER    Estimated Free Energy of Binding    =  -8.78 kcal/mol  [=(1)+(2)+(3)-(4)]USERUSER    (1) Final Intermolecular Energy     = -11.16 kcal/molUSER        vdW + Hbond + desolv Energy     = -11.12 kcal/molUSER        Electrostatic Energy            =  -0.04 kcal/molUSER        Moving Ligand-Fixed Receptor    = -11.16 kcal/molUSER        Moving Ligand-Moving Receptor   =  +0.00 kcal/molUSER    (2) Final Total Internal Energy     =  -2.07 kcal/molUSER    (3) Torsional Free Energy           =  +2.39 kcal/molUSER    (4) Unbound System's Energy         =  -2.07 kcal/molUSERUSERREMARK SMILES CC(C)(C)c1cccc(C=C(C=O)NC=Cc2ccccc2)c1REMARK SMILES IDX 11 1 10 2 9 3 5 4 6 5 23 6 7 7 8 8 2 9 1 10 3 11 4 12 12 13REMARK SMILES IDX 13 14 14 15 15 17 16 18 17 19 18 20 22 21 19 22 21 23 20 24REMARK H PARENT 14 16USER                              x       y       z     vdW  Elec       q    TypeUSER                           _______ _______ _______ _____ _____    ______ ____ROOTATOM      1  C   UNL     1      40.004  48.351  15.541 -0.57 -0.02    +0.079 C  ENDROOTBRANCH   1   2ATOM      2  C   UNL     1      39.945  47.009  15.653 -0.52 -0.01    +0.037 C  BRANCH   2   3ATOM      3  C   UNL     1      39.561  46.289  16.873 -0.44 +0.00    -0.023 A  ATOM      4  C   UNL     1      37.849  45.051  18.121 -0.35 +0.01    -0.042 A  ATOM      5  C   UNL     1      38.778  44.924  19.174 -0.39 -0.00    +0.004 A  ATOM      6  C   UNL     1      38.269  45.748  16.973 -0.38 -0.00    +0.012 A  ATOM      7  C   UNL     1      40.060  45.470  19.087 -0.44 -0.00    +0.001 A  ATOM      8  C   UNL     1      40.450  46.154  17.941 -0.48 -0.00    +0.008 A  BRANCH   4   9ATOM      9  C   UNL     1      36.442  44.443  18.256 -0.38 +0.00    -0.013 C  ATOM     10  C   UNL     1      36.351  43.631  19.566 -0.44 -0.00    +0.016 C  ATOM     11  C   UNL     1      35.306  45.492  18.291 -0.42 -0.01    +0.016 C  ATOM     12  C   UNL     1      36.163  43.508  17.060 -0.39 -0.01    +0.016 C  ENDBRANCH   4   9ENDBRANCH   2   3ENDBRANCH   1   2BRANCH   1  13ATOM     13  C   UNL     1      41.382  48.935  15.714 -0.34 -0.01    +0.277 C  ATOM     14  O   UNL     1      41.606  50.072  16.120 -1.01 +0.01    -0.296 OA ENDBRANCH   1  13BRANCH   1  15ATOM     15  N   UNL     1      38.909  49.192  15.415 -0.17 +0.23    -0.359 N  ATOM     16  H   UNL     1      39.158  50.179  15.468 -0.36 -0.15    +0.166 HD BRANCH  15  17ATOM     17  C   UNL     1      37.559  48.959  15.328 -0.44 -0.07    +0.083 C  BRANCH  17  18ATOM     18  C   UNL     1      36.814  47.865  15.113 -0.45 -0.02    +0.026 C  BRANCH  18  19ATOM     19  C   UNL     1      36.867  46.948  13.970 -0.47 +0.01    -0.024 A  ATOM     20  C   UNL     1      36.888  45.560  14.146 -0.42 -0.00    +0.008 A  ATOM     21  C   UNL     1      36.837  47.469  12.671 -0.65 -0.00    +0.008 A  ATOM     22  C   UNL     1      36.919  44.706  13.041 -0.44 -0.00    +0.001 A  ATOM     23  C   UNL     1      36.866  46.615  11.566 -0.65 -0.00    +0.001 A  ATOM     24  C   UNL     1      36.912  45.235  11.752 -0.52 -0.00    +0.000 A  ENDBRANCH  18  19ENDBRANCH  17  18ENDBRANCH  15  17ENDBRANCH   1  15TORSDOF 8TERENDMDL