REMARK SMILES CC(C)(C)c1cccc(C=C(C=O)NC=Cc2ccccc2)c1
REMARK SMILES IDX 11 1 10 2 9 3 5 4 6 5 23 6 7 7 8 8 2 9 1 10 3 11 4 12 12 13
REMARK SMILES IDX 13 14 14 15 15 17 16 18 17 19 18 20 22 21 19 22 21 23 20 24
REMARK H PARENT 14 16
ROOT
ATOM      1  C   UNL     1       1.337  -0.511  -0.874  1.00  0.00     0.079 C 
ENDROOT
BRANCH   1   2
ATOM      2  C   UNL     1       0.311   0.345  -1.053  1.00  0.00     0.037 C 
BRANCH   2   3
ATOM      3  C   UNL     1      -0.744   0.603  -0.066  1.00  0.00    -0.023 A 
ATOM      4  C   UNL     1      -3.131   0.578   0.501  1.00  0.00    -0.042 A 
ATOM      5  C   UNL     1      -2.786   1.090   1.768  1.00  0.00     0.004 A 
ATOM      6  C   UNL     1      -2.081   0.345  -0.407  1.00  0.00     0.012 A 
ATOM      7  C   UNL     1      -1.460   1.361   2.110  1.00  0.00     0.001 A 
ATOM      8  C   UNL     1      -0.441   1.122   1.194  1.00  0.00     0.008 A 
BRANCH   4   9
ATOM      9  C   UNL     1      -4.605   0.299   0.157  1.00  0.00    -0.013 C 
ATOM     10  C   UNL     1      -5.418   1.608   0.259  1.00  0.00     0.016 C 
ATOM     11  C   UNL     1      -4.821  -0.262  -1.267  1.00  0.00     0.016 C 
ATOM     12  C   UNL     1      -5.183  -0.735   1.147  1.00  0.00     0.016 C 
ENDBRANCH   4   9
ENDBRANCH   2   3
ENDBRANCH   1   2
BRANCH   1  13
ATOM     13  C   UNL     1       2.260  -0.640  -2.057  1.00  0.00     0.277 C 
ATOM     14  O   UNL     1       2.223   0.086  -3.046  1.00  0.00    -0.296 OA
ENDBRANCH   1  13
BRANCH   1  15
ATOM     15  N   UNL     1       1.507  -1.335   0.228  1.00  0.00    -0.359 N 
ATOM     16  H   UNL     1       0.661  -1.424   0.791  1.00  0.00     0.166 HD
BRANCH  15  17
ATOM     17  C   UNL     1       2.601  -1.972   0.757  1.00  0.00     0.083 C 
BRANCH  17  18
ATOM     18  C   UNL     1       3.920  -1.733   0.735  1.00  0.00     0.026 C 
BRANCH  18  19
ATOM     19  C   UNL     1       4.618  -0.583   0.151  1.00  0.00    -0.024 A 
ATOM     20  C   UNL     1       4.231   0.731   0.439  1.00  0.00     0.008 A 
ATOM     21  C   UNL     1       5.734  -0.801  -0.666  1.00  0.00     0.008 A 
ATOM     22  C   UNL     1       4.924   1.810  -0.114  1.00  0.00     0.001 A 
ATOM     23  C   UNL     1       6.428   0.279  -1.217  1.00  0.00     0.001 A 
ATOM     24  C   UNL     1       6.020   1.583  -0.944  1.00  0.00     0.000 A 
ENDBRANCH  18  19
ENDBRANCH  17  18
ENDBRANCH  15  17
ENDBRANCH   1  15
TORSDOF 8
