REMARK SMILES C[C@H](CCC=N)[C@@H](CS(C)(=O)=O)NC(=O)c1ccc(F)cc1C1=NC(=CC2=CC=CCC2)C=C1
REMARK SMILES IDX 1 1 2 2 3 3 4 4 5 5 6 6 7 8 8 9 9 10 10 11 11 12 12 13 13 14
REMARK SMILES IDX 14 15 15 17 16 18 17 19 22 20 18 21 21 22 19 23 20 24 23 25
REMARK SMILES IDX 24 26 34 27 25 28 33 29 26 30 27 31 28 32 32 33 29 34 31 35
REMARK SMILES IDX 30 36
REMARK H PARENT 6 7 13 16
ROOT
ATOM      1  C   UNL     1      -1.603   1.015  -1.590  1.00  0.00     0.010 C 
ATOM      2  C   UNL     1      -1.700  -0.397  -0.969  1.00  0.00     0.010 C 
ENDROOT
BRANCH   2   3
ATOM      3  C   UNL     1      -2.724  -1.204  -1.812  1.00  0.00     0.011 C 
BRANCH   3   4
ATOM      4  C   UNL     1      -2.419  -2.694  -1.989  1.00  0.00     0.047 C 
BRANCH   4   5
ATOM      5  C   UNL     1      -1.172  -2.906  -2.804  1.00  0.00     0.074 C 
BRANCH   5   6
ATOM      6  N   UNL     1      -1.194  -3.133  -4.076  1.00  0.00    -0.313 NA
ATOM      7  H   UNL     1      -2.160  -3.179  -4.422  1.00  0.00     0.186 HD
ENDBRANCH   5   6
ENDBRANCH   4   5
ENDBRANCH   3   4
ENDBRANCH   2   3
BRANCH   2   8
ATOM      8  C   UNL     1      -2.058  -0.270   0.549  1.00  0.00     0.100 C 
BRANCH   8   9
ATOM      9  C   UNL     1      -2.497  -1.555   1.259  1.00  0.00     0.161 C 
BRANCH   9  10
ATOM     10  S   UNL     1      -1.238  -2.777   1.563  1.00  0.00     0.149 S 
ATOM     11  C   UNL     1      -0.607  -2.387   3.176  1.00  0.00     0.158 C 
ATOM     12  O   UNL     1      -0.159  -2.635   0.606  1.00  0.00    -0.229 OA
ATOM     13  O   UNL     1      -1.918  -4.056   1.683  1.00  0.00    -0.229 OA
ENDBRANCH   9  10
ENDBRANCH   8   9
BRANCH   8  14
ATOM     14  N   UNL     1      -1.005   0.453   1.274  1.00  0.00    -0.348 N 
ATOM     15  C   UNL     1      -1.200   1.017   2.512  1.00  0.00     0.252 C 
ATOM     16  H   UNL     1      -0.176   0.717   0.736  1.00  0.00     0.164 HD
ATOM     17  O   UNL     1      -2.227   0.819   3.157  1.00  0.00    -0.269 OA
BRANCH  15  18
ATOM     18  C   UNL     1      -0.134   1.884   3.101  1.00  0.00     0.049 A 
ATOM     19  C   UNL     1      -0.572   2.831   4.049  1.00  0.00     0.017 A 
ATOM     20  C   UNL     1       1.245   1.786   2.854  1.00  0.00     0.016 A 
ATOM     21  C   UNL     1       0.334   3.661   4.713  1.00  0.00     0.040 A 
ATOM     22  C   UNL     1       2.156   2.619   3.521  1.00  0.00     0.050 A 
ATOM     23  C   UNL     1       1.690   3.546   4.441  1.00  0.00     0.123 A 
ATOM     24  F   UNL     1       2.561   4.339   5.077  1.00  0.00    -0.207 F 
BRANCH  20  25
ATOM     25  C   UNL     1       1.822   0.854   1.892  1.00  0.00     0.072 C 
ATOM     26  N   UNL     1       1.673   0.974   0.605  1.00  0.00    -0.248 NA
ATOM     27  C   UNL     1       2.617  -0.290   2.340  1.00  0.00     0.031 C 
ATOM     28  C   UNL     1       2.386  -0.077   0.074  1.00  0.00     0.064 C 
ATOM     29  C   UNL     1       2.924  -0.850   1.167  1.00  0.00     0.030 C 
BRANCH  28  30
ATOM     30  C   UNL     1       2.580  -0.343  -1.226  1.00  0.00     0.032 C 
BRANCH  30  31
ATOM     31  C   UNL     1       2.114   0.442  -2.360  1.00  0.00    -0.046 C 
ATOM     32  C   UNL     1       2.207   1.783  -2.409  1.00  0.00     0.003 C 
ATOM     33  C   UNL     1       1.582  -0.340  -3.544  1.00  0.00     0.040 C 
ATOM     34  C   UNL     1       1.767   2.539  -3.556  1.00  0.00    -0.004 C 
ATOM     35  C   UNL     1       1.530   0.442  -4.870  1.00  0.00     0.032 C 
ATOM     36  C   UNL     1       1.463   1.934  -4.712  1.00  0.00    -0.027 C 
ENDBRANCH  30  31
ENDBRANCH  28  30
ENDBRANCH  20  25
ENDBRANCH  15  18
ENDBRANCH   8  14
ENDBRANCH   2   8
TORSDOF 12
