REMARK SMILES C/C=C/CCOc1ccc(O)c(-c2cncccc(O)c[nH]2)c1C
REMARK SMILES IDX 5 1 4 2 3 3 2 4 1 5 6 6 7 7 8 8 23 9 9 10 12 11 10 12 24 13
REMARK SMILES IDX 13 14 14 15 22 16 15 17 21 18 16 19 19 20 17 21 18 22 20 24
REMARK SMILES IDX 11 26
REMARK H PARENT 22 23 20 25 11 27
ROOT
ATOM      1  C   UNL     1       3.428  -0.686   0.991  1.00  0.00     0.233 C 
ENDROOT
BRANCH   1   2
ATOM      2  C   UNL     1       4.573  -1.438   0.296  1.00  0.00     0.068 C 
BRANCH   2   3
ATOM      3  C   UNL     1       5.414  -0.689  -0.711  1.00  0.00    -0.028 C 
BRANCH   3   4
ATOM      4  C   UNL     1       5.282   0.591  -1.095  1.00  0.00    -0.035 C 
ATOM      5  C   UNL     1       6.159   1.250  -2.110  1.00  0.00     0.035 C 
ENDBRANCH   3   4
ENDBRANCH   2   3
ENDBRANCH   1   2
BRANCH   1   6
ATOM      6  O   UNL     1       2.353  -0.455   0.065  1.00  0.00    -0.493 OA
BRANCH   6   7
ATOM      7  C   UNL     1       1.166  -1.040   0.429  1.00  0.00     0.123 A 
ATOM      8  C   UNL     1       1.096  -2.419   0.662  1.00  0.00     0.050 A 
ATOM      9  C   UNL     1       0.009  -0.236   0.471  1.00  0.00     0.004 A 
ATOM     10  C   UNL     1      -0.118  -3.008   0.990  1.00  0.00     0.051 A 
ATOM     11  C   UNL     1      -1.224  -0.827   0.847  1.00  0.00     0.048 A 
ATOM     12  C   UNL     1      -1.260  -2.220   1.076  1.00  0.00     0.125 A 
ATOM     13  C   UNL     1       0.104   1.234   0.153  1.00  0.00     0.049 C 
BRANCH  11  14
ATOM     14  C   UNL     1      -2.484  -0.042   0.975  1.00  0.00     0.068 A 
ATOM     15  C   UNL     1      -2.635   0.983   1.837  1.00  0.00     0.137 A 
ATOM     16  N   UNL     1      -3.596  -0.502   0.285  1.00  0.00    -0.357 N 
ATOM     17  N   UNL     1      -3.643   1.812   2.168  1.00  0.00    -0.263 NA
ATOM     18  C   UNL     1      -3.661  -0.201  -1.059  1.00  0.00     0.129 A 
ATOM     19  C   UNL     1      -4.672   2.216   1.389  1.00  0.00     0.111 A 
ATOM     20  C   UNL     1      -4.361   0.762  -1.670  1.00  0.00     0.131 A 
ATOM     21  C   UNL     1      -5.234   2.233   0.163  1.00  0.00     0.024 A 
ATOM     22  C   UNL     1      -5.074   1.721  -1.067  1.00  0.00     0.049 A 
ATOM     23  H   UNL     1      -4.356   0.030   0.744  1.00  0.00     0.166 HD
BRANCH  20  24
ATOM     24  O   UNL     1      -4.410   0.750  -3.072  1.00  0.00    -0.506 OA
ATOM     25  H   UNL     1      -3.716   0.140  -3.373  1.00  0.00     0.293 HD
ENDBRANCH  20  24
ENDBRANCH  11  14
BRANCH  12  26
ATOM     26  O   UNL     1      -2.426  -2.881   1.377  1.00  0.00    -0.507 OA
ATOM     27  H   UNL     1      -3.137  -2.210   1.257  1.00  0.00     0.293 HD
ENDBRANCH  12  26
ENDBRANCH   6   7
ENDBRANCH   1   6
TORSDOF 8
