MODEL        1USER    Run = 1USERUSER    Estimated Free Energy of Binding    =  -3.20 kcal/mol  [=(1)+(2)+(3)-(4)]USERUSER    (1) Final Intermolecular Energy     =  -6.78 kcal/molUSER        vdW + Hbond + desolv Energy     =  -6.07 kcal/molUSER        Electrostatic Energy            =  -1.05 kcal/molUSER        Moving Ligand-Fixed Receptor    =  -7.12 kcal/molUSER        Moving Ligand-Moving Receptor   =  +0.34 kcal/molUSER    (2) Final Total Internal Energy     =  -1.46 kcal/molUSER    (3) Torsional Free Energy           =  +3.58 kcal/molUSER    (4) Unbound System's Energy         =  -1.46 kcal/molUSERUSERREMARK SMILES COc1cc(O)cc(O)c1CC1=CC(=O)OC=C(O)C1REMARK SMILES IDX 12 1 11 2 10 3 3 4 4 5 5 6 8 7 7 8 2 9 1 10 6 11 9 13 13 15REMARK SMILES IDX 14 16 15 17 16 18 17 19 20 21 18 22 19 24REMARK H PARENT 6 12 9 14 19 25REMARK Flexibility Score:   19.900USER                              x       y       z     vdW  Elec       q    TypeUSER                           _______ _______ _______ _____ _____    ______ ____ROOTATOM      1  C   UNL     1      32.017  21.026  -1.524 -0.23 +0.00    -0.051 C  ENDROOTBRANCH   1   2ATOM      2  C   UNL     1      32.840  21.354  -0.289 -0.26 +0.04    +0.075 C  BRANCH   2   3ATOM      3  C   UNL     1      32.018  21.420   0.986 -0.32 +0.01    +0.040 A  ATOM      4  C   UNL     1      31.084  22.454   1.204 -0.34 -0.07    +0.129 A  ATOM      5  C   UNL     1      30.325  22.468   2.380 -0.33 -0.08    +0.093 A  ATOM      6  C   UNL     1      30.492  21.467   3.332 -0.35 -0.09    +0.122 A  ATOM      7  C   UNL     1      32.165  20.427   1.972 -0.18 +0.05    +0.126 A  ATOM      8  C   UNL     1      31.408  20.441   3.141 -0.29 -0.02    +0.092 A  BRANCH   4   9ATOM      9  O   UNL     1      30.993  23.404   0.220 -0.17 +0.20    -0.496 OA ATOM     10  C   UNL     1      30.285  24.600   0.520 -0.42 -0.11    +0.278 C  ENDBRANCH   4   9BRANCH   6  11ATOM     11  O   UNL     1      29.723  21.535   4.457 -0.67 +0.24    -0.508 OA ATOM     12  H   UNL     1      28.836  21.192   4.257 -0.34 -0.41    +0.293 HD ENDBRANCH   6  11BRANCH   7  13ATOM     13  O   UNL     1      33.083  19.431   1.775 -0.13 -0.64    -0.507 OA ATOM     14  H   UNL     1      32.640  18.568   1.828 +0.06 +0.11    +0.293 HD ENDBRANCH   7  13ENDBRANCH   2   3ENDBRANCH   1   2BRANCH   1  15ATOM     15  C   UNL     1      32.597  21.005  -2.738 -0.18 +0.01    +0.094 C  BRANCH  15  16ATOM     16  C   UNL     1      32.093  21.608  -3.982 -0.13 +0.05    +0.335 C  ATOM     17  O   UNL     1      32.878  22.199  -4.721 -0.37 -0.11    -0.246 OA BRANCH  16  18ATOM     18  O   UNL     1      30.755  21.602  -4.236 -0.09 +0.01    -0.428 OA BRANCH  18  19ATOM     19  C   UNL     1      29.675  21.831  -3.366 -0.20 -0.08    +0.241 CG0ATOM     20  G   UNL     1      29.657  21.660  -2.039 +0.00 +0.00    +0.000 G0 ENDBRANCH  18  19ENDBRANCH  16  18ENDBRANCH  15  16ENDBRANCH   1  15BRANCH   1  21ATOM     21  C   UNL     1      30.561  20.721  -1.301 -0.16 -0.07    +0.109 C  BRANCH  21  22ATOM     22  C   UNL     1      29.654  21.662  -2.039 -0.35 -0.08    +0.131 CG0ATOM     23  G   UNL     1      29.672  21.830  -3.366 +0.00 +0.00    +0.000 G0 BRANCH  22  24ATOM     24  O   UNL     1      28.761  22.351  -1.239 -0.48 +0.41    -0.509 OA ATOM     25  H   UNL     1      29.106  22.381  -0.330 -0.14 -0.40    +0.293 HD ENDBRANCH  22  24ENDBRANCH  21  22ENDBRANCH   1  21TORSDOF 6TERENDMDL