MODEL        6USER    Run = 6USERUSER    Estimated Free Energy of Binding    =  -7.72 kcal/mol  [=(1)+(2)+(3)-(4)]USERUSER    (1) Final Intermolecular Energy     =  -9.51 kcal/molUSER        vdW + Hbond + desolv Energy     =  -9.39 kcal/molUSER        Electrostatic Energy            =  -0.12 kcal/molUSER        Moving Ligand-Fixed Receptor    =  -9.51 kcal/molUSER        Moving Ligand-Moving Receptor   =  +0.00 kcal/molUSER    (2) Final Total Internal Energy     =  -1.10 kcal/molUSER    (3) Torsional Free Energy           =  +1.79 kcal/molUSER    (4) Unbound System's Energy         =  -1.10 kcal/molUSERUSERREMARK SMILES COc1ccc(CCN(C)c2nc3cc(F)ccc3c(=O)[nH]2)cc1OCREMARK SMILES IDX 7 1 6 2 3 3 4 4 24 5 5 6 23 7 2 8 1 9 25 10 26 11 8 12 9 13REMARK SMILES IDX 10 14 11 15 12 16 22 17 13 18 20 19 14 20 19 21 15 22 18 23REMARK SMILES IDX 17 24 21 26 16 27REMARK H PARENT 22 25USER                              x       y       z     vdW  Elec       q    TypeUSER                           _______ _______ _______ _____ _____    ______ ____ROOTATOM      1  C   UNL     1      39.306  44.887  20.507 -0.38 +0.00    +0.057 C  ENDROOTBRANCH   1   2ATOM      2  C   UNL     1      37.923  44.309  20.331 -0.34 +0.00    -0.042 A  ATOM      3  C   UNL     1      35.321  43.271  20.042 -0.31 -0.01    +0.160 A  ATOM      4  C   UNL     1      36.148  42.835  21.083 -0.41 +0.00    +0.051 A  ATOM      5  C   UNL     1      35.800  44.236  19.133 -0.26 -0.03    +0.160 A  ATOM      6  C   UNL     1      37.438  43.351  21.226 -0.38 +0.00    +0.008 A  ATOM      7  C   UNL     1      37.094  44.749  19.287 -0.28 -0.01    +0.054 A  BRANCH   3   8ATOM      8  O   UNL     1      34.042  42.823  19.828 -0.49 -0.02    -0.493 OA ATOM      9  C   UNL     1      33.811  42.005  18.690 -0.26 -0.04    +0.278 C  ENDBRANCH   3   8BRANCH   5  10ATOM     10  O   UNL     1      34.929  44.614  18.142 -0.03 +0.18    -0.493 OA ATOM     11  C   UNL     1      34.617  45.994  18.026 -0.31 -0.19    +0.278 C  ENDBRANCH   5  10ENDBRANCH   1   2BRANCH   1  12ATOM     12  C   UNL     1      40.262  44.404  19.408 -0.35 +0.00    +0.124 C  BRANCH  12  13ATOM     13  N   UNL     1      40.954  45.532  18.768 -0.22 -0.01    -0.345 N  ATOM     14  C   UNL     1      41.950  46.194  19.616 -0.38 +0.02    +0.146 C  BRANCH  13  15ATOM     15  C   UNL     1      40.402  46.257  17.724 -0.34 -0.02    +0.205 A  ATOM     16  N   UNL     1      39.210  45.992  17.274 -0.27 +0.04    -0.214 NA ATOM     17  N   UNL     1      41.145  47.273  17.176 -0.27 +0.04    -0.292 N  ATOM     18  C   UNL     1      38.687  46.744  16.212 -0.36 -0.03    +0.083 A  ATOM     19  C   UNL     1      40.728  48.084  16.151 -0.33 -0.04    +0.260 A  ATOM     20  C   UNL     1      37.414  46.438  15.731 -0.34 -0.03    +0.068 A  ATOM     21  C   UNL     1      39.394  47.790  15.614 -0.47 -0.02    +0.066 A  ATOM     22  C   UNL     1      36.876  47.170  14.676 -0.34 -0.08    +0.125 A  ATOM     23  C   UNL     1      38.856  48.530  14.555 -0.48 -0.01    +0.019 A  ATOM     24  C   UNL     1      37.584  48.212  14.084 -0.52 -0.02    +0.040 A  ATOM     25  H   UNL     1      42.033  47.521  17.575 -0.26 -0.02    +0.173 HD ATOM     26  O   UNL     1      41.422  48.995  15.715 -0.90 +0.01    -0.269 OA ATOM     27  F   UNL     1      35.654  46.867  14.221 -0.11 +0.17    -0.207 F  ENDBRANCH  13  15ENDBRANCH  12  13ENDBRANCH   1  12TORSDOF 6TERENDMDL