MODEL        6USER    Run = 6USERUSER    Estimated Free Energy of Binding    =  -8.64 kcal/mol  [=(1)+(2)+(3)-(4)]USERUSER    (1) Final Intermolecular Energy     = -10.43 kcal/molUSER        vdW + Hbond + desolv Energy     = -10.33 kcal/molUSER        Electrostatic Energy            =  -0.10 kcal/molUSER        Moving Ligand-Fixed Receptor    = -10.43 kcal/molUSER        Moving Ligand-Moving Receptor   =  +0.00 kcal/molUSER    (2) Final Total Internal Energy     =  -0.79 kcal/molUSER    (3) Torsional Free Energy           =  +1.79 kcal/molUSER    (4) Unbound System's Energy         =  -0.79 kcal/molUSERUSERREMARK SMILES COc1ccc(CCN(C)c2nc3cc(Cl)ccc3c(=O)[nH]2)cc1OCREMARK SMILES IDX 7 1 6 2 3 3 4 4 24 5 5 6 23 7 2 8 1 9 25 10 26 11 8 12 9 13REMARK SMILES IDX 10 14 11 15 12 16 22 17 13 18 20 19 14 20 19 21 15 22 18 23REMARK SMILES IDX 17 24 21 26 16 27REMARK H PARENT 22 25USER                              x       y       z     vdW  Elec       q    TypeUSER                           _______ _______ _______ _____ _____    ______ ____ROOTATOM      1  C   UNL     1      36.490  45.440  15.684 -0.38 -0.03    +0.057 C  ENDROOTBRANCH   1   2ATOM      2  C   UNL     1      35.711  44.989  16.895 -0.29 +0.02    -0.042 A  ATOM      3  C   UNL     1      34.215  44.127  19.119 -0.28 -0.03    +0.160 A  ATOM      4  C   UNL     1      33.974  45.379  18.544 -0.42 -0.02    +0.051 A  ATOM      5  C   UNL     1      35.215  43.296  18.577 -0.25 -0.03    +0.160 A  ATOM      6  C   UNL     1      34.715  45.806  17.439 -0.39 -0.01    +0.008 A  ATOM      7  C   UNL     1      35.954  43.732  17.470 -0.29 -0.02    +0.054 A  BRANCH   3   8ATOM      8  O   UNL     1      33.533  43.626  20.200 -0.71 -0.03    -0.493 OA ATOM      9  C   UNL     1      32.113  43.660  20.157 -0.21 +0.02    +0.278 C  ENDBRANCH   3   8BRANCH   5  10ATOM     10  O   UNL     1      35.389  42.081  19.196 -0.16 +0.05    -0.493 OA ATOM     11  C   UNL     1      36.120  42.057  20.413 -0.32 -0.01    +0.278 C  ENDBRANCH   5  10ENDBRANCH   1   2BRANCH   1  12ATOM     12  C   UNL     1      36.118  46.871  15.274 -0.31 -0.11    +0.124 C  BRANCH  12  13ATOM     13  N   UNL     1      37.311  47.655  14.927 -0.20 +0.23    -0.345 N  ATOM     14  C   UNL     1      37.451  47.953  13.497 -0.50 -0.06    +0.146 C  BRANCH  13  15ATOM     15  C   UNL     1      38.455  47.670  15.709 -0.31 -0.10    +0.205 A  ATOM     16  N   UNL     1      38.642  46.789  16.648 -0.27 +0.08    -0.214 NA ATOM     17  N   UNL     1      39.396  48.640  15.465 -0.30 +0.13    -0.292 N  ATOM     18  C   UNL     1      39.810  46.838  17.423 -0.41 -0.02    +0.081 A  ATOM     19  C   UNL     1      40.583  48.767  16.140 -0.35 -0.06    +0.260 A  ATOM     20  C   UNL     1      39.991  45.889  18.431 -0.42 -0.00    +0.049 A  ATOM     21  C   UNL     1      40.803  47.798  17.222 -0.47 -0.01    +0.066 A  ATOM     22  C   UNL     1      41.144  45.911  19.218 -0.43 +0.00    +0.043 A  ATOM     23  C   UNL     1      41.961  47.830  18.005 -0.43 -0.00    +0.017 A  ATOM     24  C   UNL     1      42.129  46.878  19.011 -0.52 +0.00    +0.021 A  ATOM     25  H   UNL     1      39.284  49.269  14.690 -0.19 -0.11    +0.173 HD ATOM     26  O   UNL     1      41.409  49.627  15.858 -1.04 +0.02    -0.269 OA ATOM     27  Cl  UNL     1      41.356  44.734  20.454 -0.48 -0.01    -0.084 Cl ENDBRANCH  13  15ENDBRANCH  12  13ENDBRANCH   1  12TORSDOF 6TERENDMDL