MODEL        8USER    Run = 8USERUSER    Estimated Free Energy of Binding    =  -9.27 kcal/mol  [=(1)+(2)+(3)-(4)]USERUSER    (1) Final Intermolecular Energy     = -10.46 kcal/molUSER        vdW + Hbond + desolv Energy     = -10.18 kcal/molUSER        Electrostatic Energy            =  -0.29 kcal/molUSER        Moving Ligand-Fixed Receptor    = -10.46 kcal/molUSER        Moving Ligand-Moving Receptor   =  +0.00 kcal/molUSER    (2) Final Total Internal Energy     =  -1.49 kcal/molUSER    (3) Torsional Free Energy           =  +1.19 kcal/molUSER    (4) Unbound System's Energy         =  -1.49 kcal/molUSERUSERREMARK SMILES COc1ccc(NC(=O)c2cc3ncccc3n2C2CCN(C)CC2)cc1FREMARK SMILES IDX 7 1 8 2 9 3 6 5 3 6 4 7 27 8 5 9 26 10 28 11 2 12 1 13 10 14REMARK SMILES IDX 11 15 18 16 12 17 17 18 13 19 16 20 14 21 15 22 19 23 20 24REMARK SMILES IDX 25 25 21 26 24 27 22 28 23 29REMARK H PARENT 7 4USER                              x       y       z     vdW  Elec       q    TypeUSER                           _______ _______ _______ _____ _____    ______ ____ROOTATOM      1  N   UNL     1      37.762  46.357  17.249 -0.17 +0.12    -0.321 N  ATOM      2  C   UNL     1      37.801  45.133  17.900 -0.25 -0.06    +0.272 C  ATOM      3  O   UNL     1      38.831  44.599  18.290 -0.26 +0.03    -0.267 OA ATOM      4  H   UNL     1      36.852  46.680  16.955 +0.10 -0.11    +0.170 HD ENDROOTBRANCH   1   5ATOM      5  C   UNL     1      38.849  47.192  16.912 -0.35 -0.02    +0.044 A  ATOM      6  C   UNL     1      40.929  48.898  16.074 -0.47 -0.02    +0.154 A  ATOM      7  C   UNL     1      39.721  48.874  15.379 -0.51 -0.02    +0.052 A  ATOM      8  C   UNL     1      41.074  48.096  17.205 -0.38 -0.02    +0.167 A  ATOM      9  C   UNL     1      38.691  48.020  15.790 -0.45 -0.02    +0.030 A  ATOM     10  C   UNL     1      40.051  47.241  17.617 -0.38 -0.01    +0.069 A  ATOM     11  F   UNL     1      42.192  48.148  17.945 -0.21 -0.00    -0.203 F  BRANCH   6  12ATOM     12  O   UNL     1      41.868  49.787  15.627 -0.70 -0.03    -0.494 OA ATOM     13  C   UNL     1      41.786  50.030  14.221 -0.51 -0.06    +0.278 C  ENDBRANCH   6  12ENDBRANCH   1   5BRANCH   2  14ATOM     14  C   UNL     1      36.487  44.520  18.077 -0.26 -0.03    +0.110 A  ATOM     15  C   UNL     1      35.962  43.970  19.243 -0.34 -0.01    +0.062 A  ATOM     16  N   UNL     1      35.515  44.339  17.090 -0.08 +0.13    -0.332 N  ATOM     17  C   UNL     1      34.677  43.470  18.974 -0.32 -0.02    +0.089 A  ATOM     18  C   UNL     1      34.406  43.695  17.630 -0.26 -0.02    +0.068 A  ATOM     19  N   UNL     1      33.822  42.861  19.829 -0.67 -0.02    -0.255 NA ATOM     20  C   UNL     1      33.184  43.276  17.085 -0.31 -0.01    +0.030 A  ATOM     21  C   UNL     1      32.655  42.470  19.279 -0.29 -0.00    +0.112 A  ATOM     22  C   UNL     1      32.295  42.646  17.953 -0.31 -0.00    +0.022 A  BRANCH  16  23ATOM     23  C   UNL     1      35.579  44.769  15.688 -0.34 -0.05    +0.090 C  ATOM     24  C   UNL     1      35.179  46.230  15.458 -0.31 -0.04    +0.041 C  ATOM     25  C   UNL     1      36.894  44.378  14.993 -0.37 -0.01    +0.041 C  ATOM     26  C   UNL     1      35.164  46.569  13.960 -0.43 -0.07    +0.086 C  ATOM     27  C   UNL     1      37.291  45.389  13.918 -0.43 -0.03    +0.086 C  ATOM     28  N   UNL     1      36.101  45.770  13.156 -0.25 +0.15    -0.306 NA ATOM     29  C   UNL     1      36.455  46.469  11.923 -0.66 -0.04    +0.105 C  ENDBRANCH  16  23ENDBRANCH   2  14TORSDOF 4TERENDMDL