REMARK SMILES COc1ccc(NC(=O)c2cc3nc(N)ccc3[nH]2)cc1F
REMARK SMILES IDX 7 1 8 2 9 3 6 5 3 6 4 7 21 8 5 9 20 10 22 11 2 12 1 13 10 14
REMARK SMILES IDX 11 15 19 16 12 17 18 18 13 19 17 20 14 21 16 22 15 24
REMARK H PARENT 7 4 19 23 15 25 15 26
ROOT
ATOM      1  N   UNL     1      -0.639   0.192  -0.382  1.00  0.00    -0.321 N 
ATOM      2  C   UNL     1      -0.071   0.550   0.829  1.00  0.00     0.272 C 
ATOM      3  O   UNL     1      -0.687   0.976   1.798  1.00  0.00    -0.267 OA
ATOM      4  H   UNL     1      -0.006   0.075  -1.160  1.00  0.00     0.170 HD
ENDROOT
BRANCH   1   5
ATOM      5  C   UNL     1      -2.013   0.136  -0.701  1.00  0.00     0.044 A 
ATOM      6  C   UNL     1      -4.724  -0.029  -1.489  1.00  0.00     0.154 A 
ATOM      7  C   UNL     1      -4.388   0.212  -0.158  1.00  0.00     0.052 A 
ATOM      8  C   UNL     1      -3.690  -0.191  -2.413  1.00  0.00     0.167 A 
ATOM      9  C   UNL     1      -3.041   0.292   0.232  1.00  0.00     0.030 A 
ATOM     10  C   UNL     1      -2.351  -0.112  -2.033  1.00  0.00     0.069 A 
ATOM     11  F   UNL     1      -3.970  -0.429  -3.704  1.00  0.00    -0.203 F 
BRANCH   6  12
ATOM     12  O   UNL     1      -5.993  -0.130  -1.987  1.00  0.00    -0.494 OA
ATOM     13  C   UNL     1      -7.066   0.064  -1.074  1.00  0.00     0.278 C 
ENDBRANCH   6  12
ENDBRANCH   1   5
BRANCH   2  14
ATOM     14  C   UNL     1       1.374   0.411   0.851  1.00  0.00     0.107 A 
ATOM     15  C   UNL     1       2.281   1.128   1.619  1.00  0.00     0.062 A 
ATOM     16  N   UNL     1       2.113  -0.518   0.145  1.00  0.00    -0.349 N 
ATOM     17  C   UNL     1       3.579   0.655   1.330  1.00  0.00     0.091 A 
ATOM     18  C   UNL     1       3.453  -0.375   0.406  1.00  0.00     0.065 A 
ATOM     19  N   UNL     1       4.770   1.070   1.821  1.00  0.00    -0.230 NA
ATOM     20  C   UNL     1       4.569  -1.057  -0.071  1.00  0.00     0.032 A 
ATOM     21  C   UNL     1       5.844   0.411   1.363  1.00  0.00     0.124 A 
ATOM     22  C   UNL     1       5.795  -0.627   0.436  1.00  0.00     0.049 A 
ATOM     23  H   UNL     1       1.724  -1.237  -0.448  1.00  0.00     0.167 HD
BRANCH  21  24
ATOM     24  N   UNL     1       7.083   0.840   1.849  1.00  0.00    -0.384 N 
ATOM     25  H   UNL     1       6.887   1.569   2.533  1.00  0.00     0.158 HD
ATOM     26  H   UNL     1       7.601   0.073   2.260  1.00  0.00     0.158 HD
ENDBRANCH  21  24
ENDBRANCH   2  14
TORSDOF 4
