MODEL        7USER    Run = 7USERUSER    Estimated Free Energy of Binding    =  -8.00 kcal/mol  [=(1)+(2)+(3)-(4)]USERUSER    (1) Final Intermolecular Energy     =  -9.79 kcal/molUSER        vdW + Hbond + desolv Energy     =  -9.62 kcal/molUSER        Electrostatic Energy            =  -0.17 kcal/molUSER        Moving Ligand-Fixed Receptor    =  -9.79 kcal/molUSER        Moving Ligand-Moving Receptor   =  +0.00 kcal/molUSER    (2) Final Total Internal Energy     =  -1.17 kcal/molUSER    (3) Torsional Free Energy           =  +1.79 kcal/molUSER    (4) Unbound System's Energy         =  -1.17 kcal/molUSERUSERREMARK SMILES COc1ccc(CCN(C)c2nc3ccccc3c(=O)n2C)cc1OCREMARK SMILES IDX 7 1 6 2 3 3 4 4 24 5 5 6 23 7 2 8 1 9 25 10 26 11 8 12 9 13REMARK SMILES IDX 10 14 11 15 12 16 21 17 13 18 19 19 14 20 18 21 15 22 17 23REMARK SMILES IDX 16 24 22 25 20 26REMARK H PARENTUSER                              x       y       z     vdW  Elec       q    TypeUSER                           _______ _______ _______ _____ _____    ______ ____ROOTATOM      1  C   UNL     1      39.002  44.169  21.056 -0.32 +0.00    +0.057 C  ENDROOTBRANCH   1   2ATOM      2  C   UNL     1      37.601  43.704  20.738 -0.34 +0.00    -0.042 A  ATOM      3  C   UNL     1      34.973  42.879  20.161 -0.30 +0.00    +0.160 A  ATOM      4  C   UNL     1      35.802  42.095  20.970 -0.45 +0.00    +0.051 A  ATOM      5  C   UNL     1      35.459  44.093  19.638 -0.29 -0.02    +0.160 A  ATOM      6  C   UNL     1      37.106  42.506  21.259 -0.42 +0.00    +0.008 A  ATOM      7  C   UNL     1      36.769  44.494  19.929 -0.26 -0.00    +0.054 A  BRANCH   3   8ATOM      8  O   UNL     1      33.680  42.554  19.830 -0.49 -0.06    -0.493 OA ATOM      9  C   UNL     1      33.452  41.981  18.551 -0.27 -0.04    +0.278 C  ENDBRANCH   3   8BRANCH   5  10ATOM     10  O   UNL     1      34.586  44.810  18.857 -0.10 +0.16    -0.493 OA ATOM     11  C   UNL     1      35.135  45.771  17.967 -0.26 -0.16    +0.278 C  ENDBRANCH   5  10ENDBRANCH   1   2BRANCH   1  12ATOM     12  C   UNL     1      39.321  45.507  20.374 -0.33 +0.00    +0.124 C  BRANCH  12  13ATOM     13  N   UNL     1      40.195  45.381  19.187 -0.20 +0.00    -0.345 N  ATOM     14  C   UNL     1      40.670  44.020  18.932 -0.25 +0.01    +0.146 C  BRANCH  13  15ATOM     15  C   UNL     1      39.918  46.184  18.087 -0.32 -0.02    +0.208 A  ATOM     16  N   UNL     1      38.819  45.985  17.417 -0.27 +0.05    -0.214 NA ATOM     17  N   UNL     1      40.815  47.188  17.734 -0.32 +0.03    -0.281 N  ATOM     18  C   UNL     1      38.544  46.759  16.288 -0.36 -0.03    +0.080 A  ATOM     19  C   UNL     1      40.641  47.973  16.596 -0.33 -0.04    +0.262 A  ATOM     20  C   UNL     1      37.360  46.525  15.584 -0.37 -0.02    +0.029 A  ATOM     21  C   UNL     1      39.411  47.742  15.827 -0.46 -0.02    +0.066 A  ATOM     22  C   UNL     1      37.052  47.266  14.439 -0.47 -0.00    +0.002 A  ATOM     23  C   UNL     1      39.115  48.492  14.682 -0.52 -0.01    +0.016 A  ATOM     24  C   UNL     1      37.930  48.250  13.988 -0.53 -0.00    +0.001 A  ATOM     25  C   UNL     1      41.960  47.523  18.566 -0.44 -0.00    +0.157 C  ATOM     26  O   UNL     1      41.441  48.826  16.215 -0.96 +0.00    -0.269 OA ENDBRANCH  13  15ENDBRANCH  12  13ENDBRANCH   1  12TORSDOF 6TERENDMDL