REMARK SMILES COc1ccc(CCN(C)c2nc3ccccc3c(=O)n2C)cc1OC
REMARK SMILES IDX 7 1 6 2 3 3 4 4 24 5 5 6 23 7 2 8 1 9 25 10 26 11 8 12 9 13
REMARK SMILES IDX 10 14 11 15 12 16 21 17 13 18 19 19 14 20 18 21 15 22 17 23
REMARK SMILES IDX 16 24 22 25 20 26
REMARK H PARENT
ROOT
ATOM      1  C   UNL     1       0.703  -1.058   1.290  1.00  0.00     0.057 C 
ENDROOT
BRANCH   1   2
ATOM      2  C   UNL     1       2.092  -0.594   0.922  1.00  0.00    -0.042 A 
ATOM      3  C   UNL     1       4.667   0.276   0.191  1.00  0.00     0.160 A 
ATOM      4  C   UNL     1       4.495  -0.917   0.901  1.00  0.00     0.051 A 
ATOM      5  C   UNL     1       3.539   1.042  -0.164  1.00  0.00     0.160 A 
ATOM      6  C   UNL     1       3.216  -1.350   1.262  1.00  0.00     0.008 A 
ATOM      7  C   UNL     1       2.262   0.602   0.206  1.00  0.00     0.054 A 
BRANCH   3   8
ATOM      8  O   UNL     1       5.884   0.774  -0.206  1.00  0.00    -0.493 OA
ATOM      9  C   UNL     1       7.045   0.044   0.159  1.00  0.00     0.278 C 
ENDBRANCH   3   8
BRANCH   5  10
ATOM     10  O   UNL     1       3.787   2.197  -0.864  1.00  0.00    -0.493 OA
ATOM     11  C   UNL     1       2.669   2.969  -1.278  1.00  0.00     0.278 C 
ENDBRANCH   5  10
ENDBRANCH   1   2
BRANCH   1  12
ATOM     12  C   UNL     1       0.025  -1.791   0.124  1.00  0.00     0.124 C 
BRANCH  12  13
ATOM     13  N   UNL     1      -1.413  -2.059   0.340  1.00  0.00    -0.345 N 
ATOM     14  C   UNL     1      -1.701  -2.885   1.514  1.00  0.00     0.146 C 
BRANCH  13  15
ATOM     15  C   UNL     1      -2.317  -1.052   0.023  1.00  0.00     0.208 A 
ATOM     16  N   UNL     1      -1.987   0.189   0.241  1.00  0.00    -0.214 NA
ATOM     17  N   UNL     1      -3.549  -1.392  -0.529  1.00  0.00    -0.281 N 
ATOM     18  C   UNL     1      -2.898   1.210  -0.038  1.00  0.00     0.080 A 
ATOM     19  C   UNL     1      -4.533  -0.441  -0.792  1.00  0.00     0.262 A 
ATOM     20  C   UNL     1      -2.521   2.533   0.207  1.00  0.00     0.029 A 
ATOM     21  C   UNL     1      -4.171   0.959  -0.533  1.00  0.00     0.066 A 
ATOM     22  C   UNL     1      -3.407   3.585  -0.044  1.00  0.00     0.002 A 
ATOM     23  C   UNL     1      -5.069   2.003  -0.789  1.00  0.00     0.016 A 
ATOM     24  C   UNL     1      -4.682   3.320  -0.542  1.00  0.00     0.001 A 
ATOM     25  C   UNL     1      -3.864  -2.755  -0.924  1.00  0.00     0.157 C 
ATOM     26  O   UNL     1      -5.655  -0.706  -1.220  1.00  0.00    -0.269 OA
ENDBRANCH  13  15
ENDBRANCH  12  13
ENDBRANCH   1  12
TORSDOF 6
