MODEL        4USER    Run = 4USERUSER    Estimated Free Energy of Binding    =  -7.83 kcal/mol  [=(1)+(2)+(3)-(4)]USERUSER    (1) Final Intermolecular Energy     =  -9.03 kcal/molUSER        vdW + Hbond + desolv Energy     =  -8.56 kcal/molUSER        Electrostatic Energy            =  -0.47 kcal/molUSER        Moving Ligand-Fixed Receptor    =  -9.03 kcal/molUSER        Moving Ligand-Moving Receptor   =  +0.00 kcal/molUSER    (2) Final Total Internal Energy     =  -0.44 kcal/molUSER    (3) Torsional Free Energy           =  +1.19 kcal/molUSER    (4) Unbound System's Energy         =  -0.44 kcal/molUSERUSERREMARK SMILES COc1ccc(NC(=O)c2cc3nc(N)ccc3[nH]2)cc1FREMARK SMILES IDX 7 1 8 2 9 3 6 5 3 6 4 7 21 8 5 9 20 10 22 11 2 12 1 13 10 14REMARK SMILES IDX 11 15 19 16 12 17 18 18 13 19 17 20 14 21 16 22 15 24REMARK H PARENT 7 4 19 23 15 25 15 26USER                              x       y       z     vdW  Elec       q    TypeUSER                           _______ _______ _______ _____ _____    ______ ____ROOTATOM      1  N   UNL     1      40.696  46.939  18.055 -0.28 +0.03    -0.321 N  ATOM      2  C   UNL     1      40.654  47.805  16.976 -0.38 -0.04    +0.272 C  ATOM      3  O   UNL     1      41.438  48.725  16.780 -0.97 -0.00    -0.267 OA ATOM      4  H   UNL     1      39.871  46.379  18.216 +0.10 -0.02    +0.170 HD ENDROOTBRANCH   1   5ATOM      5  C   UNL     1      41.686  46.866  19.058 -0.46 +0.00    +0.044 A  ATOM      6  C   UNL     1      43.765  46.817  20.975 -0.21 +0.09    +0.154 A  ATOM      7  C   UNL     1      42.512  46.286  21.277 -0.31 +0.01    +0.052 A  ATOM      8  C   UNL     1      43.959  47.375  19.710 +0.07 +0.08    +0.167 A  ATOM      9  C   UNL     1      41.480  46.312  20.324 -0.33 +0.00    +0.030 A  ATOM     10  C   UNL     1      42.940  47.404  18.759 -0.47 +0.01    +0.069 A  ATOM     11  F   UNL     1      45.149  47.901  19.380 +0.03 -0.16    -0.203 F  BRANCH   6  12ATOM     12  O   UNL     1      44.842  46.850  21.816 -0.63 -0.46    -0.494 OA ATOM     13  C   UNL     1      44.758  47.713  22.944 -0.19 +0.10    +0.278 C  ENDBRANCH   6  12ENDBRANCH   1   5BRANCH   2  14ATOM     14  C   UNL     1      39.542  47.553  16.077 -0.42 -0.03    +0.107 A  ATOM     15  C   UNL     1      39.391  48.002  14.772 -0.48 -0.02    +0.062 A  ATOM     16  N   UNL     1      38.446  46.755  16.342 -0.17 +0.13    -0.349 N  ATOM     17  C   UNL     1      38.167  47.508  14.272 -0.43 -0.04    +0.091 A  ATOM     18  C   UNL     1      37.591  46.730  15.269 -0.36 -0.03    +0.065 A  ATOM     19  N   UNL     1      37.595  47.705  13.061 -0.86 +0.06    -0.230 NA ATOM     20  C   UNL     1      36.370  46.090  15.070 -0.36 -0.02    +0.032 A  ATOM     21  C   UNL     1      36.421  47.087  12.870 -0.54 -0.06    +0.124 A  ATOM     22  C   UNL     1      35.783  46.296  13.822 -0.44 -0.03    +0.049 A  ATOM     23  H   UNL     1      38.309  46.224  17.190 +0.10 -0.05    +0.167 HD BRANCH  21  24ATOM     24  N   UNL     1      35.810  47.296  11.630 -0.15 +0.24    -0.384 N  ATOM     25  H   UNL     1      34.937  46.771  11.647 -0.14 -0.14    +0.158 HD ATOM     26  H   UNL     1      35.649  48.281  11.461 -0.30 -0.12    +0.158 HD ENDBRANCH  21  24ENDBRANCH   2  14TORSDOF 4TERENDMDL