REMARK SMILES Nc1ccc2[nH]c(-c3ccnc(Nc4ccc(F)c(F)c4)n3)cc2n1
REMARK SMILES IDX 8 1 9 2 10 3 11 4 12 5 22 6 7 7 2 8 3 9 25 10 4 11 24 12
REMARK SMILES IDX 5 13 23 14 6 15 1 17 13 20 14 22 15 23 21 24 16 25 19 26
REMARK SMILES IDX 17 27 20 28 18 29
REMARK H PARENT 6 16 1 18 1 19 13 21
ROOT
ATOM      1  C   UNL     1       0.070  -1.927   0.666  1.00  0.00     0.092 A 
ATOM      2  C   UNL     1       0.023  -3.196   1.190  1.00  0.00     0.051 A 
ATOM      3  C   UNL     1      -1.235  -3.677   1.439  1.00  0.00     0.117 A 
ATOM      4  N   UNL     1      -2.359  -2.976   1.200  1.00  0.00    -0.221 NA
ATOM      5  C   UNL     1      -2.219  -1.736   0.703  1.00  0.00     0.227 A 
ATOM      6  N   UNL     1      -1.030  -1.186   0.418  1.00  0.00    -0.211 NA
ENDROOT
BRANCH   1   7
ATOM      7  C   UNL     1       1.321  -1.265   0.316  1.00  0.00     0.067 A 
ATOM      8  C   UNL     1       5.299   0.592  -0.681  1.00  0.00     0.124 A 
ATOM      9  C   UNL     1       4.509   1.590  -1.254  1.00  0.00     0.049 A 
ATOM     10  N   UNL     1       4.805  -0.496  -0.073  1.00  0.00    -0.230 NA
ATOM     11  C   UNL     1       3.118   1.498  -1.220  1.00  0.00     0.032 A 
ATOM     12  C   UNL     1       3.456  -0.589  -0.038  1.00  0.00     0.091 A 
ATOM     13  C   UNL     1       2.612   0.367  -0.588  1.00  0.00     0.065 A 
ATOM     14  C   UNL     1       2.648  -1.605   0.523  1.00  0.00     0.059 A 
ATOM     15  N   UNL     1       1.330  -0.062  -0.363  1.00  0.00    -0.352 N 
ATOM     16  H   UNL     1       0.485   0.414  -0.650  1.00  0.00     0.167 HD
BRANCH   8  17
ATOM     17  N   UNL     1       6.697   0.717  -0.734  1.00  0.00    -0.384 N 
ATOM     18  H   UNL     1       6.994   0.766  -1.703  1.00  0.00     0.158 HD
ATOM     19  H   UNL     1       6.976   1.576  -0.270  1.00  0.00     0.158 HD
ENDBRANCH   8  17
ENDBRANCH   1   7
BRANCH   5  20
ATOM     20  N   UNL     1      -3.413  -1.061   0.466  1.00  0.00    -0.324 N 
ATOM     21  H   UNL     1      -4.182  -1.674   0.698  1.00  0.00     0.170 HD
BRANCH  20  22
ATOM     22  C   UNL     1      -3.725   0.269   0.169  1.00  0.00     0.044 A 
ATOM     23  C   UNL     1      -2.785   1.310   0.190  1.00  0.00     0.029 A 
ATOM     24  C   UNL     1      -5.034   0.575  -0.239  1.00  0.00     0.068 A 
ATOM     25  C   UNL     1      -3.140   2.619  -0.160  1.00  0.00     0.044 A 
ATOM     26  C   UNL     1      -5.384   1.877  -0.590  1.00  0.00     0.160 A 
ATOM     27  C   UNL     1      -4.443   2.894  -0.549  1.00  0.00     0.158 A 
ATOM     28  F   UNL     1      -6.643   2.137  -0.971  1.00  0.00    -0.204 F 
ATOM     29  F   UNL     1      -4.781   4.146  -0.886  1.00  0.00    -0.204 F 
ENDBRANCH  20  22
ENDBRANCH   5  20
TORSDOF 4
