MODEL        4USER    Run = 4USERUSER    Estimated Free Energy of Binding    =  -8.58 kcal/mol  [=(1)+(2)+(3)-(4)]USERUSER    (1) Final Intermolecular Energy     =  -9.77 kcal/molUSER        vdW + Hbond + desolv Energy     =  -9.56 kcal/molUSER        Electrostatic Energy            =  -0.21 kcal/molUSER        Moving Ligand-Fixed Receptor    =  -9.77 kcal/molUSER        Moving Ligand-Moving Receptor   =  +0.00 kcal/molUSER    (2) Final Total Internal Energy     =  -0.40 kcal/molUSER    (3) Torsional Free Energy           =  +1.19 kcal/molUSER    (4) Unbound System's Energy         =  -0.40 kcal/molUSERUSERREMARK SMILES Nc1ccc2[nH]c(-c3ccnc(Nc4ccc(F)c(F)c4)n3)cc2n1REMARK SMILES IDX 8 1 9 2 10 3 11 4 12 5 22 6 7 7 2 8 3 9 25 10 4 11 24 12REMARK SMILES IDX 5 13 23 14 6 15 1 17 13 20 14 22 15 23 21 24 16 25 19 26REMARK SMILES IDX 17 27 20 28 18 29REMARK H PARENT 6 16 1 18 1 19 13 21USER                              x       y       z     vdW  Elec       q    TypeUSER                           _______ _______ _______ _____ _____    ______ ____ROOTATOM      1  C   UNL     1      35.772  46.306  14.212 -0.37 -0.06    +0.092 A  ATOM      2  C   UNL     1      35.408  46.649  12.933 -0.48 -0.03    +0.051 A  ATOM      3  C   UNL     1      36.174  47.623  12.350 -0.57 -0.06    +0.117 A  ATOM      4  N   UNL     1      37.211  48.220  12.966 -0.87 +0.06    -0.221 NA ATOM      5  C   UNL     1      37.486  47.836  14.223 -0.35 -0.12    +0.227 A  ATOM      6  N   UNL     1      36.799  46.884  14.870 -0.25 +0.14    -0.211 NA ENDROOTBRANCH   1   7ATOM      7  C   UNL     1      35.086  45.272  14.977 -0.27 -0.04    +0.067 A  ATOM      8  C   UNL     1      33.164  41.952  17.333 -0.25 -0.05    +0.124 A  ATOM      9  C   UNL     1      32.090  42.841  17.404 -0.28 -0.01    +0.049 A  ATOM     10  N   UNL     1      34.316  42.221  16.702 -0.29 +0.11    -0.230 NA ATOM     11  C   UNL     1      32.168  44.095  16.800 -0.29 -0.01    +0.032 A  ATOM     12  C   UNL     1      34.396  43.436  16.115 -0.29 -0.04    +0.091 A  ATOM     13  C   UNL     1      33.366  44.367  16.148 -0.28 -0.03    +0.065 A  ATOM     14  C   UNL     1      35.467  44.005  15.387 -0.20 -0.03    +0.059 A  ATOM     15  N   UNL     1      33.804  45.466  15.456 -0.11 +0.32    -0.352 N  ATOM     16  H   UNL     1      33.284  46.320  15.305 -0.31 -0.28    +0.167 HD BRANCH   8  17ATOM     17  N   UNL     1      33.051  40.697  17.954 -0.17 +0.11    -0.384 N  ATOM     18  H   UNL     1      32.402  40.120  17.429 -0.01 -0.06    +0.158 HD ATOM     19  H   UNL     1      33.957  40.239  17.955 -0.40 -0.07    +0.158 HD ENDBRANCH   8  17ENDBRANCH   1   7BRANCH   5  20ATOM     20  N   UNL     1      38.574  48.478  14.808 -0.28 +0.17    -0.324 N  ATOM     21  H   UNL     1      38.584  49.441  14.500 -0.37 -0.14    +0.170 HD BRANCH  20  22ATOM     22  C   UNL     1      39.478  48.120  15.812 -0.49 -0.02    +0.044 A  ATOM     23  C   UNL     1      40.596  48.893  16.162 -0.55 -0.01    +0.029 A  ATOM     24  C   UNL     1      39.223  46.960  16.561 -0.40 -0.02    +0.068 A  ATOM     25  C   UNL     1      41.446  48.512  17.207 -0.36 -0.00    +0.044 A  ATOM     26  C   UNL     1      40.068  46.584  17.603 -0.37 -0.02    +0.160 A  ATOM     27  C   UNL     1      41.175  47.355  17.923 -0.41 -0.01    +0.158 A  ATOM     28  F   UNL     1      39.799  45.469  18.296 -0.11 +0.02    -0.204 F  ATOM     29  F   UNL     1      41.988  46.992  18.925 -0.18 -0.01    -0.204 F  ENDBRANCH  20  22ENDBRANCH   5  20TORSDOF 4TERENDMDL