REMARK SMILES COc1ccc(CCN(C)c2nc3cc(F)ccc3c(=O)[nH]2)cc1OC
REMARK SMILES IDX 7 1 6 2 3 3 4 4 24 5 5 6 23 7 2 8 1 9 25 10 26 11 8 12 9 13
REMARK SMILES IDX 10 14 11 15 12 16 22 17 13 18 20 19 14 20 19 21 15 22 18 23
REMARK SMILES IDX 17 24 21 26 16 27
REMARK H PARENT 22 25
ROOT
ATOM      1  C   UNL     1       0.539  -0.384  -0.381  1.00  0.00     0.057 C 
ENDROOT
BRANCH   1   2
ATOM      2  C   UNL     1       1.911   0.141  -0.037  1.00  0.00    -0.042 A 
ATOM      3  C   UNL     1       4.466   1.099   0.659  1.00  0.00     0.160 A 
ATOM      4  C   UNL     1       3.323   1.852   0.947  1.00  0.00     0.051 A 
ATOM      5  C   UNL     1       4.332  -0.147   0.014  1.00  0.00     0.160 A 
ATOM      6  C   UNL     1       2.056   1.376   0.602  1.00  0.00     0.008 A 
ATOM      7  C   UNL     1       3.057  -0.617  -0.325  1.00  0.00     0.054 A 
BRANCH   3   8
ATOM      8  O   UNL     1       5.747   1.486   0.964  1.00  0.00    -0.493 OA
ATOM      9  C   UNL     1       5.923   2.745   1.597  1.00  0.00     0.278 C 
ENDBRANCH   3   8
BRANCH   5  10
ATOM     10  O   UNL     1       5.499  -0.827  -0.231  1.00  0.00    -0.493 OA
ATOM     11  C   UNL     1       5.417  -2.041  -0.961  1.00  0.00     0.278 C 
ENDBRANCH   5  10
ENDBRANCH   1   2
BRANCH   1  12
ATOM     12  C   UNL     1      -0.021  -1.275   0.736  1.00  0.00     0.124 C 
BRANCH  12  13
ATOM     13  N   UNL     1      -1.380  -1.738   0.421  1.00  0.00    -0.345 N 
ATOM     14  C   UNL     1      -1.433  -2.957  -0.392  1.00  0.00     0.146 C 
BRANCH  13  15
ATOM     15  C   UNL     1      -2.475  -0.889   0.395  1.00  0.00     0.205 A 
ATOM     16  N   UNL     1      -3.490  -1.119  -0.385  1.00  0.00    -0.214 NA
ATOM     17  N   UNL     1      -2.466   0.206   1.224  1.00  0.00    -0.292 N 
ATOM     18  C   UNL     1      -4.577  -0.233  -0.388  1.00  0.00     0.083 A 
ATOM     19  C   UNL     1      -3.479   1.125   1.319  1.00  0.00     0.260 A 
ATOM     20  C   UNL     1      -5.651  -0.485  -1.242  1.00  0.00     0.068 A 
ATOM     21  C   UNL     1      -4.626   0.897   0.432  1.00  0.00     0.066 A 
ATOM     22  C   UNL     1      -6.740   0.382  -1.263  1.00  0.00     0.125 A 
ATOM     23  C   UNL     1      -5.720   1.770   0.416  1.00  0.00     0.019 A 
ATOM     24  C   UNL     1      -6.785   1.506  -0.443  1.00  0.00     0.040 A 
ATOM     25  H   UNL     1      -1.714   0.339   1.877  1.00  0.00     0.173 HD
ATOM     26  O   UNL     1      -3.432   2.072   2.095  1.00  0.00    -0.269 OA
ATOM     27  F   UNL     1      -7.765   0.131  -2.087  1.00  0.00    -0.207 F 
ENDBRANCH  13  15
ENDBRANCH  12  13
ENDBRANCH   1  12
TORSDOF 6
