REMARK SMILES Cc1nn(C)c(C)c1N1CCN(C(=O)c2cc(C(C)C)[nH]c2N2CCOC2)CC1
REMARK SMILES IDX 9 1 10 2 11 3 12 4 13 5 14 6 28 7 29 8 8 9 2 10 3 11 4 12
REMARK SMILES IDX 6 13 1 14 5 15 7 16 15 17 16 18 22 19 17 20 21 21 23 23
REMARK SMILES IDX 24 24 27 25 25 26 26 27 18 28 19 29 20 30
REMARK H PARENT 21 22
ROOT
ATOM      1  N   UNL     1       2.689  -0.248  -0.529  1.00  0.00    -0.365 N 
ATOM      2  C   UNL     1       1.672   0.810  -0.413  1.00  0.00     0.138 C 
ATOM      3  C   UNL     1       0.249   0.243  -0.507  1.00  0.00     0.141 C 
ATOM      4  N   UNL     1      -0.013  -0.786   0.510  1.00  0.00    -0.335 N 
ATOM      5  C   UNL     1      -1.277  -1.193   0.928  1.00  0.00     0.257 C 
ATOM      6  O   UNL     1      -1.440  -2.196   1.619  1.00  0.00    -0.269 OA
ATOM      7  C   UNL     1       1.152  -1.560   0.950  1.00  0.00     0.141 C 
ATOM      8  C   UNL     1       2.288  -1.592  -0.082  1.00  0.00     0.138 C 
ENDROOT
BRANCH   1   9
ATOM      9  C   UNL     1       3.988   0.130  -0.376  1.00  0.00     0.081 A 
ATOM     10  C   UNL     1       4.770   0.241   0.805  1.00  0.00     0.083 A 
ATOM     11  N   UNL     1       6.020   0.646   0.527  1.00  0.00    -0.176 NA
ATOM     12  N   UNL     1       6.020   0.801  -0.815  1.00  0.00    -0.271 N 
ATOM     13  C   UNL     1       4.815   0.508  -1.409  1.00  0.00     0.059 A 
ATOM     14  C   UNL     1       4.375  -0.011   2.210  1.00  0.00     0.071 C 
ATOM     15  C   UNL     1       7.238   1.220  -1.473  1.00  0.00     0.174 C 
ATOM     16  C   UNL     1       4.582   0.595  -2.873  1.00  0.00     0.068 C 
ENDBRANCH   1   9
BRANCH   5  17
ATOM     17  C   UNL     1      -2.415  -0.384   0.516  1.00  0.00     0.082 A 
ATOM     18  C   UNL     1      -2.680   0.976   0.867  1.00  0.00     0.039 A 
ATOM     19  C   UNL     1      -3.500  -0.808  -0.236  1.00  0.00     0.121 A 
ATOM     20  C   UNL     1      -3.884   1.348   0.302  1.00  0.00     0.020 A 
ATOM     21  N   UNL     1      -4.369   0.244  -0.355  1.00  0.00    -0.344 N 
ATOM     22  H   UNL     1      -5.246   0.182  -0.851  1.00  0.00     0.168 HD
BRANCH  19  23
ATOM     23  N   UNL     1      -3.858  -1.976  -0.833  1.00  0.00    -0.332 N 
ATOM     24  C   UNL     1      -4.158  -3.111   0.052  1.00  0.00     0.149 C 
ATOM     25  C   UNL     1      -2.984  -2.502  -1.887  1.00  0.00     0.281 C 
ATOM     26  C   UNL     1      -3.222  -4.211  -0.418  1.00  0.00     0.184 C 
ATOM     27  O   UNL     1      -3.018  -3.933  -1.809  1.00  0.00    -0.359 OA
ENDBRANCH  19  23
BRANCH  20  28
ATOM     28  C   UNL     1      -4.639   2.645   0.325  1.00  0.00     0.030 C 
ATOM     29  C   UNL     1      -4.843   3.147   1.758  1.00  0.00     0.014 C 
ATOM     30  C   UNL     1      -3.923   3.696  -0.522  1.00  0.00     0.014 C 
ENDBRANCH  20  28
ENDBRANCH   5  17
TORSDOF 4
