REMARK SMILES COc1ccc(NC(=O)c2cc3ncccc3n2C2CCN(C)CC2)cc1F
REMARK SMILES IDX 7 1 8 2 9 3 6 5 3 6 4 7 27 8 5 9 26 10 28 11 2 12 1 13 10 14
REMARK SMILES IDX 11 15 18 16 12 17 17 18 13 19 16 20 14 21 15 22 19 23 20 24
REMARK SMILES IDX 25 25 21 26 24 27 22 28 23 29
REMARK H PARENT 7 4
ROOT
ATOM      1  N   UNL     1       1.950   0.843   0.750  1.00  0.00    -0.321 N 
ATOM      2  C   UNL     1       0.623   0.456   0.856  1.00  0.00     0.272 C 
ATOM      3  O   UNL     1       0.251  -0.710   0.896  1.00  0.00    -0.267 OA
ATOM      4  H   UNL     1       2.126   1.836   0.702  1.00  0.00     0.170 HD
ENDROOT
BRANCH   1   5
ATOM      5  C   UNL     1       3.088   0.013   0.662  1.00  0.00     0.044 A 
ATOM      6  C   UNL     1       5.463  -1.487   0.444  1.00  0.00     0.154 A 
ATOM      7  C   UNL     1       5.516  -0.095   0.476  1.00  0.00     0.052 A 
ATOM      8  C   UNL     1       4.226  -2.120   0.560  1.00  0.00     0.167 A 
ATOM      9  C   UNL     1       4.335   0.650   0.575  1.00  0.00     0.030 A 
ATOM     10  C   UNL     1       3.046  -1.381   0.656  1.00  0.00     0.069 A 
ATOM     11  F   UNL     1       4.141  -3.458   0.611  1.00  0.00    -0.203 F 
BRANCH   6  12
ATOM     12  O   UNL     1       6.665  -2.138   0.382  1.00  0.00    -0.494 OA
ATOM     13  C   UNL     1       6.713  -3.132  -0.643  1.00  0.00     0.278 C 
ENDBRANCH   6  12
ENDBRANCH   1   5
BRANCH   2  14
ATOM     14  C   UNL     1      -0.313   1.577   0.909  1.00  0.00     0.110 A 
ATOM     15  C   UNL     1      -0.065   2.862   1.383  1.00  0.00     0.062 A 
ATOM     16  N   UNL     1      -1.655   1.558   0.522  1.00  0.00    -0.332 N 
ATOM     17  C   UNL     1      -1.240   3.624   1.274  1.00  0.00     0.089 A 
ATOM     18  C   UNL     1      -2.230   2.805   0.744  1.00  0.00     0.068 A 
ATOM     19  N   UNL     1      -1.431   4.920   1.617  1.00  0.00    -0.255 NA
ATOM     20  C   UNL     1      -3.521   3.313   0.542  1.00  0.00     0.030 A 
ATOM     21  C   UNL     1      -2.680   5.382   1.411  1.00  0.00     0.112 A 
ATOM     22  C   UNL     1      -3.732   4.645   0.893  1.00  0.00     0.022 A 
BRANCH  16  23
ATOM     23  C   UNL     1      -2.395   0.436  -0.067  1.00  0.00     0.090 C 
ATOM     24  C   UNL     1      -1.808  -0.085  -1.383  1.00  0.00     0.041 C 
ATOM     25  C   UNL     1      -2.714  -0.678   0.943  1.00  0.00     0.041 C 
ATOM     26  C   UNL     1      -2.699  -1.179  -1.990  1.00  0.00     0.086 C 
ATOM     27  C   UNL     1      -2.758  -2.054   0.279  1.00  0.00     0.086 C 
ATOM     28  N   UNL     1      -3.466  -1.946  -0.998  1.00  0.00    -0.306 NA
ATOM     29  C   UNL     1      -3.827  -3.261  -1.522  1.00  0.00     0.105 C 
ENDBRANCH  16  23
ENDBRANCH   2  14
TORSDOF 4
