MODEL        9USER    Run = 9USERUSER    Estimated Free Energy of Binding    =  -8.89 kcal/mol  [=(1)+(2)+(3)-(4)]USERUSER    (1) Final Intermolecular Energy     = -10.08 kcal/molUSER        vdW + Hbond + desolv Energy     = -10.00 kcal/molUSER        Electrostatic Energy            =  -0.08 kcal/molUSER        Moving Ligand-Fixed Receptor    = -10.08 kcal/molUSER        Moving Ligand-Moving Receptor   =  +0.00 kcal/molUSER    (2) Final Total Internal Energy     =  -0.91 kcal/molUSER    (3) Torsional Free Energy           =  +1.19 kcal/molUSER    (4) Unbound System's Energy         =  -0.91 kcal/molUSERUSERREMARK SMILES Cc1nn(C)c(C)c1N1CCN(C(=O)c2cc(C(C)C)[nH]c2N2CCOC2)CC1REMARK SMILES IDX 9 1 10 2 11 3 12 4 13 5 14 6 28 7 29 8 8 9 2 10 3 11 4 12REMARK SMILES IDX 6 13 1 14 5 15 7 16 15 17 16 18 22 19 17 20 21 21 23 23REMARK SMILES IDX 24 24 27 25 25 26 26 27 18 28 19 29 20 30REMARK H PARENT 21 22USER                              x       y       z     vdW  Elec       q    TypeUSER                           _______ _______ _______ _____ _____    ______ ____ROOTATOM      1  N   UNL     1      37.009  44.673  19.748 -0.11 +0.03    -0.365 N  ATOM      2  C   UNL     1      35.628  44.528  19.258 -0.33 -0.03    +0.138 C  ATOM      3  C   UNL     1      35.427  45.236  17.911 -0.32 -0.06    +0.141 C  ATOM      4  N   UNL     1      36.354  44.751  16.878 -0.10 +0.13    -0.335 N  ATOM      5  C   UNL     1      36.172  44.900  15.506 -0.24 -0.12    +0.257 C  ATOM      6  O   UNL     1      37.072  44.668  14.703 -0.26 +0.10    -0.269 OA ATOM      7  C   UNL     1      37.649  44.260  17.362 -0.25 -0.03    +0.141 C  ATOM      8  C   UNL     1      38.052  44.844  18.723 -0.34 -0.02    +0.138 C  ENDROOTBRANCH   1   9ATOM      9  C   UNL     1      37.325  44.014  20.897 -0.34 +0.00    +0.081 A  ATOM     10  C   UNL     1      36.935  42.721  21.340 -0.39 +0.00    +0.083 A  ATOM     11  N   UNL     1      37.468  42.435  22.539 -0.31 -0.01    -0.176 NA ATOM     12  N   UNL     1      38.175  43.542  22.853 -0.16 -0.02    -0.271 N  ATOM     13  C   UNL     1      38.117  44.529  21.897 -0.33 +0.00    +0.059 A  ATOM     14  C   UNL     1      36.056  41.734  20.672 -0.47 -0.00    +0.071 C  ATOM     15  C   UNL     1      38.910  43.576  24.098 -0.18 +0.01    +0.174 C  ATOM     16  C   UNL     1      38.823  45.829  22.019 -0.29 +0.01    +0.068 C  ENDBRANCH   1   9BRANCH   5  17ATOM     17  C   UNL     1      34.865  45.346  15.046 -0.26 -0.06    +0.082 A  ATOM     18  C   UNL     1      33.588  44.876  15.484 -0.26 -0.03    +0.039 A  ATOM     19  C   UNL     1      34.614  46.262  14.035 -0.24 -0.11    +0.121 A  ATOM     20  C   UNL     1      32.609  45.530  14.763 -0.27 -0.02    +0.020 A  ATOM     21  N   UNL     1      33.256  46.360  13.881 -0.04 +0.34    -0.344 N  ATOM     22  H   UNL     1      32.821  46.958  13.194 -0.44 -0.16    +0.168 HD BRANCH  19  23ATOM     23  N   UNL     1      35.386  47.025  13.217 -0.28 +0.24    -0.332 N  ATOM     24  C   UNL     1      35.815  46.417  11.949 -0.54 -0.08    +0.149 C  ATOM     25  C   UNL     1      36.580  47.653  13.791 -0.38 -0.17    +0.281 C  ATOM     26  C   UNL     1      37.329  46.524  11.975 -0.41 -0.05    +0.184 C  ATOM     27  O   UNL     1      37.589  47.685  12.773 -0.90 +0.06    -0.359 OA ENDBRANCH  19  23BRANCH  20  28ATOM     28  C   UNL     1      31.111  45.447  14.810 -0.53 -0.02    +0.030 C  ATOM     29  C   UNL     1      30.478  46.049  13.552 -0.64 -0.01    +0.014 C  ATOM     30  C   UNL     1      30.661  44.000  15.005 -0.38 -0.01    +0.014 C  ENDBRANCH  20  28ENDBRANCH   5  17TORSDOF 4TERENDMDL