MODEL        5USER    Run = 5USERUSER    Estimated Free Energy of Binding    = -12.74 kcal/mol  [=(1)+(2)+(3)-(4)]USERUSER    (1) Final Intermolecular Energy     = -16.02 kcal/molUSER        vdW + Hbond + desolv Energy     = -15.31 kcal/molUSER        Electrostatic Energy            =  -0.71 kcal/molUSER        Moving Ligand-Fixed Receptor    = -16.02 kcal/molUSER        Moving Ligand-Moving Receptor   =  +0.00 kcal/molUSER    (2) Final Total Internal Energy     =  -3.47 kcal/molUSER    (3) Torsional Free Energy           =  +3.28 kcal/molUSER    (4) Unbound System's Energy         =  -3.47 kcal/molUSERUSERREMARK SMILES COc1ccc(O)c(C(=O)c2ccc(C(=O)N[C@@H]3CCN(Cc4nc5ccccc5nc4-c4ccccc4)C[C@H]3NC(=O)c3ccncc3)cc2)c1FREMARK SMILES IDX 11 1 12 2 13 3 14 4 50 5 51 6 9 7 10 8 8 9 3 10 4 11 52 12REMARK SMILES IDX 5 13 6 14 53 15 2 16 1 17 7 18 15 20 17 21 16 22 18 24 19 25REMARK SMILES IDX 40 26 20 27 39 28 21 29 41 30 42 31 43 33 44 34 45 35 49 36REMARK SMILES IDX 46 37 48 38 47 39 22 40 23 41 24 42 32 43 25 44 31 45 26 46REMARK SMILES IDX 30 47 27 48 29 49 28 50 33 51 34 52 38 53 35 54 37 55 36 56REMARK H PARENT 7 19 17 23 41 32USER                              x       y       z     vdW  Elec       q    TypeUSER                           _______ _______ _______ _____ _____    ______ ____ROOTATOM      1  C   UNL     1      35.176  43.431  18.597 -0.34 -0.00    +0.023 A  ATOM      2  C   UNL     1      34.175  43.203  19.557 -0.40 -0.00    +0.013 A  ATOM      3  C   UNL     1      33.193  42.231  19.348 -0.34 +0.00    +0.014 A  ATOM      4  C   UNL     1      33.200  41.483  18.166 -0.38 -0.01    +0.039 A  ATOM      5  C   UNL     1      34.203  41.694  17.212 -0.22 -0.01    +0.014 A  ATOM      6  C   UNL     1      35.178  42.677  17.418 -0.40 -0.00    +0.013 A  ENDROOTBRANCH   1   7ATOM      7  C   UNL     1      36.140  44.535  18.852 -0.27 -0.04    +0.199 C  ATOM      8  O   UNL     1      36.503  44.760  20.010 -0.22 +0.02    -0.288 OA BRANCH   7   9ATOM      9  C   UNL     1      36.645  45.450  17.809 -0.27 -0.04    +0.104 A  ATOM     10  C   UNL     1      38.465  46.538  16.605 -0.30 -0.05    +0.155 A  ATOM     11  C   UNL     1      37.533  47.192  15.795 -0.38 -0.03    +0.053 A  ATOM     12  C   UNL     1      38.007  45.674  17.613 -0.26 -0.05    +0.179 A  ATOM     13  C   UNL     1      36.164  47.004  16.007 -0.29 -0.05    +0.051 A  ATOM     14  C   UNL     1      35.727  46.153  17.020 -0.27 -0.10    +0.130 A  ATOM     15  F   UNL     1      38.907  45.073  18.409 -0.10 +0.02    -0.202 F  BRANCH  10  16ATOM     16  O   UNL     1      39.825  46.668  16.510 -0.13 +0.10    -0.494 OA ATOM     17  C   UNL     1      40.339  47.969  16.250 -0.39 -0.06    +0.278 C  ENDBRANCH  10  16BRANCH  14  18ATOM     18  O   UNL     1      34.372  46.056  17.195 -0.08 +0.51    -0.507 OA ATOM     19  H   UNL     1      33.970  46.908  16.900 -0.23 -0.68    +0.293 HD ENDBRANCH  14  18ENDBRANCH   7   9ENDBRANCH   1   7BRANCH   4  20ATOM     20  C   UNL     1      32.165  40.455  17.894 -0.30 -0.05    +0.251 C  ATOM     21  N   UNL     1      30.989  40.912  17.334 -0.13 +0.08    -0.347 N  ATOM     22  O   UNL     1      32.374  39.277  18.162 -0.44 +0.02    -0.269 OA ATOM     23  H   UNL     1      30.881  41.902  17.156 +0.09 -0.05    +0.164 HD BRANCH  21  24ATOM     24  C   UNL     1      29.869  40.011  17.014 -0.34 +0.00    +0.107 C  ATOM     25  C   UNL     1      29.315  40.310  15.615 -0.38 -0.00    +0.042 C  ATOM     26  C   UNL     1      28.772  40.063  18.110 -0.23 +0.01    +0.118 C  ATOM     27  C   UNL     1      27.913  40.911  15.662 -0.34 -0.02    +0.087 C  ATOM     28  C   UNL     1      27.478  39.415  17.568 -0.11 +0.04    +0.112 C  ATOM     29  N   UNL     1      26.974  39.984  16.301 -0.32 -0.08    -0.295 NA BRANCH  26  30ATOM     30  N   UNL     1      29.237  39.430  19.346 -0.07 -0.03    -0.346 N  ATOM     31  C   UNL     1      29.684  38.126  19.367 -0.27 +0.06    +0.251 C  ATOM     32  H   UNL     1      28.853  39.822  20.208 +0.09 +0.00    +0.164 HD ATOM     33  O   UNL     1      29.853  37.464  18.349 -0.46 -0.17    -0.269 OA BRANCH  31  34ATOM     34  C   UNL     1      29.913  37.512  20.707 -0.35 +0.00    +0.042 A  ATOM     35  C   UNL     1      31.167  37.471  21.317 -0.49 +0.00    +0.034 A  ATOM     36  C   UNL     1      28.817  36.954  21.370 -0.30 -0.00    +0.034 A  ATOM     37  C   UNL     1      31.262  36.900  22.575 -0.11 -0.00    +0.112 A  ATOM     38  C   UNL     1      29.016  36.403  22.621 -0.29 +0.00    +0.112 A  ATOM     39  N   UNL     1      30.214  36.370  23.241 -0.28 -0.04    -0.265 NA ENDBRANCH  31  34ENDBRANCH  26  30BRANCH  29  40ATOM     40  C   UNL     1      25.638  40.590  16.485 -0.29 -0.00    +0.143 C  BRANCH  40  41ATOM     41  C   UNL     1      25.425  41.243  17.839 -0.15 -0.01    +0.081 A  ATOM     42  N   UNL     1      24.646  40.556  18.726 -0.04 +0.03    -0.248 NA ATOM     43  C   UNL     1      26.025  42.460  18.185 -0.24 -0.01    +0.094 A  ATOM     44  C   UNL     1      24.475  41.102  19.944 -0.32 -0.02    +0.089 A  ATOM     45  N   UNL     1      25.852  43.003  19.419 -0.26 +0.06    -0.244 NA ATOM     46  C   UNL     1      23.690  40.447  20.886 -0.35 -0.01    +0.030 A  ATOM     47  C   UNL     1      25.079  42.331  20.290 -0.41 -0.03    +0.089 A  ATOM     48  C   UNL     1      23.491  40.979  22.161 -0.46 -0.00    +0.002 A  ATOM     49  C   UNL     1      24.875  42.851  21.563 -0.43 -0.01    +0.030 A  ATOM     50  C   UNL     1      24.087  42.185  22.503 -0.69 -0.00    +0.002 A  BRANCH  43  51ATOM     51  C   UNL     1      26.879  43.247  17.291 -0.26 -0.00    +0.002 A  ATOM     52  C   UNL     1      26.343  43.910  16.175 -0.30 -0.00    +0.010 A  ATOM     53  C   UNL     1      28.255  43.370  17.545 -0.18 -0.00    +0.010 A  ATOM     54  C   UNL     1      27.162  44.658  15.325 -0.18 -0.00    +0.001 A  ATOM     55  C   UNL     1      29.075  44.120  16.697 -0.23 -0.00    +0.001 A  ATOM     56  C   UNL     1      28.527  44.759  15.585 -0.23 -0.00    +0.000 A  ENDBRANCH  43  51ENDBRANCH  40  41ENDBRANCH  29  40ENDBRANCH  21  24ENDBRANCH   4  20TORSDOF 11TERENDMDL