REMARK SMILES CN1CCN(c2ccc(-c3nc4ccccc4nc3-c3ccc(CN4CCC(n5c(O)nc6ccccc65)CC4)cc3)cn2)CC1
REMARK SMILES IDX 20 1 21 2 22 3 23 4 41 5 42 6 19 7 10 8 11 9 12 10 18 11
REMARK SMILES IDX 13 12 17 13 14 14 16 15 15 16 9 17 6 18 7 19 44 20 8 21
REMARK SMILES IDX 43 22 5 23 2 24 3 25 46 26 4 27 45 28 1 29 24 30 25 31 26 32
REMARK SMILES IDX 40 33 27 34 39 35 28 36 29 37 30 38 38 39 32 40 37 41 33 42
REMARK SMILES IDX 36 43 34 44 35 45 31 46
REMARK H PARENT 31 47
ROOT
ATOM      1  C   UNL     1      -0.802  -3.531  -1.247  1.00  0.00     0.002 A 
ATOM      2  C   UNL     1       0.314  -4.055  -0.573  1.00  0.00     0.011 A 
ATOM      3  C   UNL     1       1.573  -3.455  -0.675  1.00  0.00     0.006 A 
ATOM      4  C   UNL     1       1.754  -2.313  -1.463  1.00  0.00    -0.034 A 
ATOM      5  C   UNL     1       0.654  -1.795  -2.157  1.00  0.00     0.006 A 
ATOM      6  C   UNL     1      -0.603  -2.401  -2.056  1.00  0.00     0.011 A 
ENDROOT
BRANCH   1   7
ATOM      7  C   UNL     1      -2.123  -4.174  -1.105  1.00  0.00     0.097 A 
ATOM      8  C   UNL     1      -3.319  -3.511  -0.788  1.00  0.00     0.099 A 
ATOM      9  N   UNL     1      -4.502  -4.185  -0.733  1.00  0.00    -0.244 NA
ATOM     10  C   UNL     1      -4.480  -5.510  -0.963  1.00  0.00     0.089 A 
ATOM     11  N   UNL     1      -2.105  -5.520  -1.325  1.00  0.00    -0.244 NA
ATOM     12  C   UNL     1      -5.663  -6.236  -0.907  1.00  0.00     0.030 A 
ATOM     13  C   UNL     1      -3.274  -6.181  -1.257  1.00  0.00     0.089 A 
ATOM     14  C   UNL     1      -5.682  -7.612  -1.135  1.00  0.00     0.002 A 
ATOM     15  C   UNL     1      -3.303  -7.553  -1.483  1.00  0.00     0.030 A 
ATOM     16  C   UNL     1      -4.496  -8.274  -1.425  1.00  0.00     0.002 A 
BRANCH   8  17
ATOM     17  C   UNL     1      -3.443  -2.081  -0.476  1.00  0.00     0.021 A 
ATOM     18  C   UNL     1      -3.785   0.663  -0.003  1.00  0.00     0.128 A 
ATOM     19  C   UNL     1      -2.807  -0.053   0.685  1.00  0.00     0.047 A 
ATOM     20  N   UNL     1      -4.570   0.038  -0.905  1.00  0.00    -0.239 NA
ATOM     21  C   UNL     1      -2.642  -1.424   0.458  1.00  0.00     0.016 A 
ATOM     22  C   UNL     1      -4.400  -1.294  -1.106  1.00  0.00     0.124 A 
BRANCH  18  23
ATOM     23  N   UNL     1      -3.938   2.032   0.191  1.00  0.00    -0.354 N 
ATOM     24  N   UNL     1      -5.183   4.660   0.897  1.00  0.00    -0.303 NA
ATOM     25  C   UNL     1      -5.005   3.562   1.868  1.00  0.00     0.105 C 
ATOM     26  C   UNL     1      -4.826   4.231  -0.476  1.00  0.00     0.105 C 
ATOM     27  C   UNL     1      -3.861   2.563   1.563  1.00  0.00     0.133 C 
ATOM     28  C   UNL     1      -4.896   2.704  -0.703  1.00  0.00     0.133 C 
ATOM     29  C   UNL     1      -4.426   5.851   1.276  1.00  0.00     0.105 C 
ENDBRANCH  18  23
ENDBRANCH   8  17
ENDBRANCH   1   7
BRANCH   4  30
ATOM     30  C   UNL     1       3.116  -1.660  -1.581  1.00  0.00     0.120 C 
BRANCH  30  31
ATOM     31  N   UNL     1       3.151  -0.274  -1.085  1.00  0.00    -0.299 NA
ATOM     32  C   UNL     1       2.793  -0.176   0.337  1.00  0.00     0.087 C 
ATOM     33  C   UNL     1       4.398   0.409  -1.445  1.00  0.00     0.087 C 
ATOM     34  C   UNL     1       3.480   0.985   1.052  1.00  0.00     0.041 C 
ATOM     35  C   UNL     1       5.494   0.334  -0.384  1.00  0.00     0.041 C 
ATOM     36  C   UNL     1       4.996   0.762   1.008  1.00  0.00     0.095 C 
BRANCH  36  37
ATOM     37  N   UNL     1       5.749   1.863   1.592  1.00  0.00    -0.291 N 
ATOM     38  C   UNL     1       6.491   1.775   2.740  1.00  0.00     0.295 A 
ATOM     39  C   UNL     1       5.877   3.158   1.135  1.00  0.00     0.072 A 
ATOM     40  N   UNL     1       7.088   2.888   3.059  1.00  0.00    -0.195 NA
ATOM     41  C   UNL     1       5.366   3.858   0.034  1.00  0.00     0.029 A 
ATOM     42  C   UNL     1       6.721   3.766   2.070  1.00  0.00     0.092 A 
ATOM     43  C   UNL     1       5.738   5.201  -0.110  1.00  0.00     0.002 A 
ATOM     44  C   UNL     1       7.079   5.114   1.909  1.00  0.00     0.031 A 
ATOM     45  C   UNL     1       6.582   5.822   0.810  1.00  0.00     0.002 A 
BRANCH  38  46
ATOM     46  O   UNL     1       6.611   0.689   3.477  1.00  0.00    -0.480 OA
ATOM     47  H   UNL     1       7.202   1.005   4.185  1.00  0.00     0.296 HD
ENDBRANCH  38  46
ENDBRANCH  36  37
ENDBRANCH  30  31
ENDBRANCH   4  30
TORSDOF 7
