
     RDKit          3D

 47 51  0  0  0  0  0  0  0  0999 V2000
   -4.4965   -0.5551   -2.6902 O   0  0  0  0  0  0  0  0  0  0  0  0
   -4.6314   -0.2856   -1.3985 C   0  0  0  0  0  0  0  0  0  0  0  0
   -5.6238    0.5665   -0.9942 N   0  0  0  0  0  0  0  0  0  0  0  0
   -5.6343    0.6733    0.3752 C   0  0  0  0  0  0  0  0  0  0  0  0
   -6.4721    1.4037    1.2169 C   0  0  0  0  0  0  0  0  0  0  0  0
   -7.4599    2.1583    0.7190 F   0  0  0  0  0  0  0  0  0  0  0  0
   -6.2657    1.3379    2.5923 C   0  0  0  0  0  0  0  0  0  0  0  0
   -5.2376    0.5551    3.1126 C   0  0  0  0  0  0  0  0  0  0  0  0
   -4.3971   -0.1776    2.2619 C   0  0  0  0  0  0  0  0  0  0  0  0
   -4.5979   -0.1226    0.8648 C   0  0  0  0  0  0  0  0  0  0  0  0
   -3.9571   -0.7055   -0.2693 C   0  0  0  0  0  0  0  0  0  0  0  0
   -2.8407   -1.5902   -0.2442 C   0  0  0  0  0  0  0  0  0  0  0  0
   -1.6487   -1.3874   -0.8168 C   0  0  0  0  0  0  0  0  0  0  0  0
   -1.2196   -0.2100   -1.5656 C   0  0  0  0  0  0  0  0  0  0  0  0
   -0.0020   -0.2806   -2.0048 N   0  0  0  0  0  0  0  0  0  0  0  0
    0.4017   -1.6225   -1.5169 C   0  0  0  0  0  0  0  0  0  0  0  0
    1.6087   -1.5166   -0.7251 N   0  0  0  0  0  0  0  0  0  0  0  0
    2.7626   -1.1773   -1.5515 C   0  0  0  0  0  0  0  0  0  0  0  0
    3.9649   -0.8558   -0.6838 C   0  0  0  0  0  0  0  0  0  0  0  0
    4.8418   -1.9083   -0.3620 C   0  0  0  0  0  0  0  0  0  0  0  0
    5.9603   -1.6869    0.4330 C   0  0  0  0  0  0  0  0  0  0  0  0
    6.2155   -0.4115    0.9276 C   0  0  0  0  0  0  0  0  0  0  0  0
    5.3536    0.6581    0.6440 C   0  0  0  0  0  0  0  0  0  0  0  0
    5.6250    1.9339    1.1661 C   0  0  0  0  0  0  0  0  0  0  0  0
    4.7799    3.0113    0.9080 C   0  0  0  0  0  0  0  0  0  0  0  0
    3.6495    2.8257    0.1247 C   0  0  0  0  0  0  0  0  0  0  0  0
    3.3665    1.5635   -0.4034 C   0  0  0  0  0  0  0  0  0  0  0  0
    4.2068    0.4496   -0.1651 C   0  0  0  0  0  0  0  0  0  0  0  0
   -0.6157   -2.2961   -0.7411 O   0  0  0  0  0  0  0  0  0  0  0  0
   -3.8603   -1.2879   -2.7772 H   0  0  0  0  0  0  0  0  0  0  0  0
   -6.2733    1.0265   -1.6164 H   0  0  0  0  0  0  0  0  0  0  0  0
   -6.9144    1.9045    3.2537 H   0  0  0  0  0  0  0  0  0  0  0  0
   -5.0825    0.5116    4.1883 H   0  0  0  0  0  0  0  0  0  0  0  0
   -3.5960   -0.7812    2.6806 H   0  0  0  0  0  0  0  0  0  0  0  0
   -2.9661   -2.5041    0.3338 H   0  0  0  0  0  0  0  0  0  0  0  0
   -1.8879    0.6490   -1.7145 H   0  0  0  0  0  0  0  0  0  0  0  0
    0.5807   -2.2666   -2.3883 H   0  0  0  0  0  0  0  0  0  0  0  0
    1.4518   -0.7658   -0.0590 H   0  0  0  0  0  0  0  0  0  0  0  0
    3.0090   -2.0273   -2.2015 H   0  0  0  0  0  0  0  0  0  0  0  0
    2.5711   -0.3398   -2.2319 H   0  0  0  0  0  0  0  0  0  0  0  0
    4.6455   -2.9130   -0.7310 H   0  0  0  0  0  0  0  0  0  0  0  0
    6.6304   -2.5083    0.6716 H   0  0  0  0  0  0  0  0  0  0  0  0
    7.0955   -0.2593    1.5489 H   0  0  0  0  0  0  0  0  0  0  0  0
    6.5043    2.0980    1.7855 H   0  0  0  0  0  0  0  0  0  0  0  0
    5.0046    3.9910    1.3204 H   0  0  0  0  0  0  0  0  0  0  0  0
    2.9835    3.6600   -0.0793 H   0  0  0  0  0  0  0  0  0  0  0  0
    2.4673    1.4653   -1.0075 H   0  0  0  0  0  0  0  0  0  0  0  0
  1  2  1  0
  2  3  1  0
  3  4  1  0
  4  5  2  0
  5  6  1  0
  5  7  1  0
  7  8  2  0
  8  9  1  0
  9 10  2  0
 10 11  1  0
 11 12  1  0
 12 13  2  3
 13 14  1  0
 14 15  2  0
 15 16  1  0
 16 17  1  0
 17 18  1  0
 18 19  1  0
 19 20  2  0
 20 21  1  0
 21 22  2  0
 22 23  1  0
 23 24  2  0
 24 25  1  0
 25 26  2  0
 26 27  1  0
 27 28  2  0
 16 29  1  0
 11  2  2  0
 29 13  1  0
 10  4  1  0
 28 19  1  0
 28 23  1  0
  1 30  1  0
  3 31  1  0
  7 32  1  0
  8 33  1  0
  9 34  1  0
 12 35  1  0
 14 36  1  0
 16 37  1  0
 17 38  1  0
 18 39  1  0
 18 40  1  0
 20 41  1  0
 21 42  1  0
 22 43  1  0
 24 44  1  0
 25 45  1  0
 26 46  1  0
 27 47  1  0
M  END
$$$$
