
     RDKit          3D

 43 45  0  0  0  0  0  0  0  0999 V2000
   -6.3460    0.4376   -0.3648 C   0  0  0  0  0  0  0  0  0  0  0  0
   -5.1175   -0.4587   -0.2179 C   0  0  0  0  0  0  0  0  0  0  0  0
   -3.8342    0.3956   -0.1103 C   0  0  0  0  0  0  0  0  0  0  0  0
   -2.5805   -0.4372   -0.2518 C   0  0  0  0  0  0  0  0  0  0  0  0
   -1.2916    0.1406    0.1727 C   0  0  0  0  0  0  0  0  0  0  0  0
   -1.1431    0.6769    1.4591 C   0  0  0  0  0  0  0  0  0  0  0  0
    0.0758    1.2321    1.8645 C   0  0  0  0  0  0  0  0  0  0  0  0
    1.1701    1.2493    0.9920 C   0  0  0  0  0  0  0  0  0  0  0  0
    2.4379    1.8640    1.4593 C   0  0  0  0  0  0  0  0  0  0  0  0
    2.3904    2.8062    2.2457 O   0  0  0  0  0  0  0  0  0  0  0  0
    3.7619    1.3726    1.0026 C   0  0  0  0  0  0  0  0  0  0  0  0
    4.7930    2.3043    0.8300 C   0  0  0  0  0  0  0  0  0  0  0  0
    6.0570    1.8836    0.4164 C   0  0  0  0  0  0  0  0  0  0  0  0
    6.2976    0.5285    0.1862 C   0  0  0  0  0  0  0  0  0  0  0  0
    5.2768   -0.4120    0.3776 C   0  0  0  0  0  0  0  0  0  0  0  0
    5.5867   -1.8416    0.1344 C   0  0  0  0  0  0  0  0  0  0  0  0
    6.6654   -2.2905   -0.2041 O   0  0  0  0  0  0  0  0  0  0  0  0
    4.5222   -2.6414    0.3206 O   0  0  0  0  0  0  0  0  0  0  0  0
    4.0070    0.0101    0.7939 C   0  0  0  0  0  0  0  0  0  0  0  0
    1.0319    0.7376   -0.2988 C   0  0  0  0  0  0  0  0  0  0  0  0
   -0.1869    0.1859   -0.6918 C   0  0  0  0  0  0  0  0  0  0  0  0
   -0.2802   -0.2949   -1.9415 F   0  0  0  0  0  0  0  0  0  0  0  0
   -2.6540   -1.6898   -0.7393 C   0  0  0  0  0  0  0  0  0  0  0  0
   -3.9330   -2.3191   -1.2072 C   0  0  0  0  0  0  0  0  0  0  0  0
   -5.0382   -1.3727   -1.3636 N   0  0  0  0  0  0  0  0  0  0  0  0
   -7.2648   -0.1581   -0.4001 H   0  0  0  0  0  0  0  0  0  0  0  0
   -6.4270    1.1230    0.4857 H   0  0  0  0  0  0  0  0  0  0  0  0
   -6.2984    1.0397   -1.2792 H   0  0  0  0  0  0  0  0  0  0  0  0
   -5.2400   -1.0455    0.7030 H   0  0  0  0  0  0  0  0  0  0  0  0
   -3.8239    1.1653   -0.8937 H   0  0  0  0  0  0  0  0  0  0  0  0
   -3.8557    0.9184    0.8527 H   0  0  0  0  0  0  0  0  0  0  0  0
   -1.9691    0.6599    2.1665 H   0  0  0  0  0  0  0  0  0  0  0  0
    0.1688    1.6504    2.8658 H   0  0  0  0  0  0  0  0  0  0  0  0
    4.6119    3.3613    1.0199 H   0  0  0  0  0  0  0  0  0  0  0  0
    6.8547    2.6102    0.2797 H   0  0  0  0  0  0  0  0  0  0  0  0
    7.2875    0.2066   -0.1341 H   0  0  0  0  0  0  0  0  0  0  0  0
    4.8661   -3.5393    0.1267 H   0  0  0  0  0  0  0  0  0  0  0  0
    3.2250   -0.7236    0.9713 H   0  0  0  0  0  0  0  0  0  0  0  0
    1.8402    0.7714   -1.0219 H   0  0  0  0  0  0  0  0  0  0  0  0
   -1.7634   -2.3074   -0.8229 H   0  0  0  0  0  0  0  0  0  0  0  0
   -3.7569   -2.7987   -2.1761 H   0  0  0  0  0  0  0  0  0  0  0  0
   -4.2150   -3.1095   -0.5015 H   0  0  0  0  0  0  0  0  0  0  0  0
   -5.9088   -1.8914   -1.4612 H   0  0  0  0  0  0  0  0  0  0  0  0
  1  2  1  0
  2  3  1  0
  3  4  1  0
  4  5  1  0
  5  6  2  0
  6  7  1  0
  7  8  2  0
  8  9  1  0
  9 10  2  0
  9 11  1  0
 11 12  2  0
 12 13  1  0
 13 14  2  0
 14 15  1  0
 15 16  1  0
 16 17  2  0
 16 18  1  0
 15 19  2  0
  8 20  1  0
 20 21  2  0
 21 22  1  0
  4 23  2  0
 23 24  1  0
 24 25  1  0
 25  2  1  0
 21  5  1  0
 19 11  1  0
  1 26  1  0
  1 27  1  0
  1 28  1  0
  2 29  1  0
  3 30  1  0
  3 31  1  0
  6 32  1  0
  7 33  1  0
 12 34  1  0
 13 35  1  0
 14 36  1  0
 18 37  1  0
 19 38  1  0
 20 39  1  0
 23 40  1  0
 24 41  1  0
 24 42  1  0
 25 43  1  0
M  END
$$$$
