
     RDKit          3D

 46 48  0  0  0  0  0  0  0  0999 V2000
   -5.4445    0.7751    2.6426 C   0  0  0  0  0  0  0  0  0  0  0  0
   -5.5420    1.3417    1.2312 C   0  0  0  0  0  0  0  0  0  0  0  0
   -4.7987    0.5457    0.1414 C   0  0  0  0  0  0  0  0  0  0  0  0
   -3.2675    0.5414    0.3553 C   0  0  0  0  0  0  0  0  0  0  0  0
   -2.5632   -0.3629   -0.6326 C   0  0  0  0  0  0  0  0  0  0  0  0
   -1.1121   -0.1833   -0.8412 C   0  0  0  0  0  0  0  0  0  0  0  0
   -0.2545    0.0346    0.2470 C   0  0  0  0  0  0  0  0  0  0  0  0
    1.1196    0.2200    0.0555 C   0  0  0  0  0  0  0  0  0  0  0  0
    1.6560    0.1830   -1.2348 C   0  0  0  0  0  0  0  0  0  0  0  0
    3.1055    0.3845   -1.4866 C   0  0  0  0  0  0  0  0  0  0  0  0
    3.4659    0.9587   -2.5103 O   0  0  0  0  0  0  0  0  0  0  0  0
    4.1344   -0.0972   -0.5322 C   0  0  0  0  0  0  0  0  0  0  0  0
    3.9919   -1.3172    0.1406 C   0  0  0  0  0  0  0  0  0  0  0  0
    4.9882   -1.7503    1.0167 C   0  0  0  0  0  0  0  0  0  0  0  0
    6.1319   -0.9736    1.2141 C   0  0  0  0  0  0  0  0  0  0  0  0
    6.2883    0.2385    0.5281 C   0  0  0  0  0  0  0  0  0  0  0  0
    7.4891    1.0904    0.7042 C   0  0  0  0  0  0  0  0  0  0  0  0
    7.6795    2.1735    0.1843 O   0  0  0  0  0  0  0  0  0  0  0  0
    8.3989    0.5441    1.5302 O   0  0  0  0  0  0  0  0  0  0  0  0
    5.2894    0.6726   -0.3510 C   0  0  0  0  0  0  0  0  0  0  0  0
    0.8085   -0.0040   -2.3300 C   0  0  0  0  0  0  0  0  0  0  0  0
   -0.5633   -0.1903   -2.1325 C   0  0  0  0  0  0  0  0  0  0  0  0
   -3.2624   -1.3108   -1.2856 C   0  0  0  0  0  0  0  0  0  0  0  0
   -4.7338   -1.5356   -1.0910 C   0  0  0  0  0  0  0  0  0  0  0  0
   -5.3029   -0.8328    0.0596 N   0  0  0  0  0  0  0  0  0  0  0  0
   -6.0462    1.3820    3.3274 H   0  0  0  0  0  0  0  0  0  0  0  0
   -5.8197   -0.2513    2.6927 H   0  0  0  0  0  0  0  0  0  0  0  0
   -4.4158    0.7882    3.0130 H   0  0  0  0  0  0  0  0  0  0  0  0
   -6.6039    1.4069    0.9603 H   0  0  0  0  0  0  0  0  0  0  0  0
   -5.1646    2.3718    1.2405 H   0  0  0  0  0  0  0  0  0  0  0  0
   -5.0144    1.0512   -0.8114 H   0  0  0  0  0  0  0  0  0  0  0  0
   -2.9001    1.5700    0.2498 H   0  0  0  0  0  0  0  0  0  0  0  0
   -3.0211    0.2031    1.3682 H   0  0  0  0  0  0  0  0  0  0  0  0
   -0.6459    0.0549    1.2618 H   0  0  0  0  0  0  0  0  0  0  0  0
    1.7481    0.4072    0.9221 H   0  0  0  0  0  0  0  0  0  0  0  0
    3.1214   -1.9488   -0.0219 H   0  0  0  0  0  0  0  0  0  0  0  0
    4.8795   -2.6980    1.5397 H   0  0  0  0  0  0  0  0  0  0  0  0
    6.9005   -1.3260    1.8987 H   0  0  0  0  0  0  0  0  0  0  0  0
    9.1249    1.2031    1.5436 H   0  0  0  0  0  0  0  0  0  0  0  0
    5.4085    1.6082   -0.8966 H   0  0  0  0  0  0  0  0  0  0  0  0
    1.2113   -0.0011   -3.3411 H   0  0  0  0  0  0  0  0  0  0  0  0
   -1.2020   -0.3214   -3.0033 H   0  0  0  0  0  0  0  0  0  0  0  0
   -2.7754   -1.9769   -1.9924 H   0  0  0  0  0  0  0  0  0  0  0  0
   -5.2568   -1.2335   -2.0063 H   0  0  0  0  0  0  0  0  0  0  0  0
   -4.9129   -2.6078   -0.9564 H   0  0  0  0  0  0  0  0  0  0  0  0
   -6.3177   -0.8281   -0.0243 H   0  0  0  0  0  0  0  0  0  0  0  0
  1  2  1  0
  2  3  1  0
  3  4  1  0
  4  5  1  0
  5  6  1  0
  6  7  2  0
  7  8  1  0
  8  9  2  0
  9 10  1  0
 10 11  2  0
 10 12  1  0
 12 13  2  0
 13 14  1  0
 14 15  2  0
 15 16  1  0
 16 17  1  0
 17 18  2  0
 17 19  1  0
 16 20  2  0
  9 21  1  0
 21 22  2  0
  5 23  2  0
 23 24  1  0
 24 25  1  0
 25  3  1  0
 22  6  1  0
 20 12  1  0
  1 26  1  0
  1 27  1  0
  1 28  1  0
  2 29  1  0
  2 30  1  0
  3 31  1  0
  4 32  1  0
  4 33  1  0
  7 34  1  0
  8 35  1  0
 13 36  1  0
 14 37  1  0
 15 38  1  0
 19 39  1  0
 20 40  1  0
 21 41  1  0
 22 42  1  0
 23 43  1  0
 24 44  1  0
 24 45  1  0
 25 46  1  0
M  END
$$$$
