
     RDKit          3D

 53 55  0  0  0  0  0  0  0  0999 V2000
    6.1521   -2.9798   -0.8967 N   0  0  0  0  0  0  0  0  0  0  0  0
    5.6704   -1.7705   -0.2326 C   0  0  0  0  0  0  0  0  0  0  0  0
    4.6461   -1.0620   -1.1148 C   0  0  0  0  0  0  0  0  0  0  0  0
    3.9980    0.1546   -0.4460 C   0  0  0  0  0  0  0  0  0  0  0  0
    4.9388    1.3533   -0.3208 C   0  0  0  0  0  0  0  0  0  0  0  0
    4.3134    2.5366    0.4265 C   0  0  0  0  0  0  0  0  0  0  0  0
    3.1421    3.0597   -0.2824 N   0  0  0  0  0  0  0  0  0  0  0  0
    1.8124    2.8211    0.1031 C   0  0  0  0  0  0  0  0  0  0  0  0
    0.9114    2.5121   -0.8557 C   0  0  0  0  0  0  0  0  0  0  0  0
   -0.4717    2.0994   -0.7386 C   0  0  0  0  0  0  0  0  0  0  0  0
   -1.0483    1.4662    0.3139 C   0  0  0  0  0  0  0  0  0  0  0  0
   -2.3101    0.9598    0.0861 N   0  0  0  0  0  0  0  0  0  0  0  0
   -3.0295    0.1196    0.9177 C   0  0  0  0  0  0  0  0  0  0  0  0
   -2.6889   -0.2129    2.0445 O   0  0  0  0  0  0  0  0  0  0  0  0
   -4.2663   -0.3468    0.2784 C   0  0  0  0  0  0  0  0  0  0  0  0
   -4.8466    0.4778   -0.7009 N   0  0  0  0  0  0  0  0  0  0  0  0
   -6.0082   -0.0056   -1.1061 C   0  0  0  0  0  0  0  0  0  0  0  0
   -6.9318    0.6186   -2.1185 C   0  0  0  0  0  0  0  0  0  0  0  0
   -6.7807    0.0571   -3.3469 F   0  0  0  0  0  0  0  0  0  0  0  0
   -6.7040    1.9545   -2.2720 F   0  0  0  0  0  0  0  0  0  0  0  0
   -8.2443    0.4872   -1.7836 F   0  0  0  0  0  0  0  0  0  0  0  0
   -6.4306   -1.5127   -0.3916 S   0  0  0  0  0  0  0  0  0  0  0  0
   -4.9609   -1.5283    0.4880 C   0  0  0  0  0  0  0  0  0  0  0  0
   -4.6412   -2.6893    1.2146 N   0  0  0  0  0  0  0  0  0  0  0  0
   -5.4722   -3.7724    1.4908 C   0  0  0  0  0  0  0  0  0  0  0  0
   -4.7159   -4.7049    2.1550 C   0  0  0  0  0  0  0  0  0  0  0  0
   -3.4359   -4.2540    2.3042 N   0  0  0  0  0  0  0  0  0  0  0  0
   -3.4184   -3.0624    1.7412 C   0  0  0  0  0  0  0  0  0  0  0  0
   -0.4420    1.3020    1.5472 N   0  0  0  0  0  0  0  0  0  0  0  0
    0.4747    2.1694    2.1026 C   0  0  0  0  0  0  0  0  0  0  0  0
    1.4391    2.9014    1.5203 C   0  0  0  0  0  0  0  0  0  0  0  0
    2.2788    4.0590    2.5256 Cl  0  0  0  0  0  0  0  0  0  0  0  0
    6.6199   -2.7287   -1.7676 H   0  0  0  0  0  0  0  0  0  0  0  0
    6.8491   -3.4278   -0.3090 H   0  0  0  0  0  0  0  0  0  0  0  0
    5.2200   -2.0503    0.7257 H   0  0  0  0  0  0  0  0  0  0  0  0
    6.5226   -1.1099   -0.0155 H   0  0  0  0  0  0  0  0  0  0  0  0
    5.1057   -0.7672   -2.0557 H   0  0  0  0  0  0  0  0  0  0  0  0
    3.8472   -1.7643   -1.3627 H   0  0  0  0  0  0  0  0  0  0  0  0
    3.1385    0.4339   -1.0494 H   0  0  0  0  0  0  0  0  0  0  0  0
    3.6100   -0.1296    0.5418 H   0  0  0  0  0  0  0  0  0  0  0  0
    5.2585    1.6699   -1.3209 H   0  0  0  0  0  0  0  0  0  0  0  0
    5.8419    1.0571    0.2223 H   0  0  0  0  0  0  0  0  0  0  0  0
    5.0493    3.3453    0.4884 H   0  0  0  0  0  0  0  0  0  0  0  0
    4.0857    2.2254    1.4544 H   0  0  0  0  0  0  0  0  0  0  0  0
    3.2632    2.9992   -1.2906 H   0  0  0  0  0  0  0  0  0  0  0  0
    1.2498    2.5066   -1.8952 H   0  0  0  0  0  0  0  0  0  0  0  0
   -1.0207    2.1973   -1.6764 H   0  0  0  0  0  0  0  0  0  0  0  0
   -2.7531    1.1568   -0.8079 H   0  0  0  0  0  0  0  0  0  0  0  0
   -6.5126   -3.7974    1.2032 H   0  0  0  0  0  0  0  0  0  0  0  0
   -5.0259   -5.6759    2.5300 H   0  0  0  0  0  0  0  0  0  0  0  0
   -2.5253   -2.4581    1.6598 H   0  0  0  0  0  0  0  0  0  0  0  0
   -1.0678    0.8518    2.2257 H   0  0  0  0  0  0  0  0  0  0  0  0
    0.3142    2.2583    3.1720 H   0  0  0  0  0  0  0  0  0  0  0  0
  1  2  1  0
  2  3  1  0
  3  4  1  0
  4  5  1  0
  5  6  1  0
  6  7  1  0
  7  8  1  0
  8  9  2  0
  9 10  1  0
 10 11  2  0
 11 12  1  0
 12 13  1  0
 13 14  2  0
 13 15  1  0
 15 16  1  0
 16 17  2  0
 17 18  1  0
 18 19  1  0
 18 20  1  0
 18 21  1  0
 17 22  1  0
 22 23  1  0
 23 24  1  0
 24 25  1  0
 25 26  2  0
 26 27  1  0
 27 28  2  0
 11 29  1  0
 29 30  1  0
 30 31  2  0
 31 32  1  0
 31  8  1  0
 23 15  2  0
 28 24  1  0
  1 33  1  0
  1 34  1  0
  2 35  1  0
  2 36  1  0
  3 37  1  0
  3 38  1  0
  4 39  1  0
  4 40  1  0
  5 41  1  0
  5 42  1  0
  6 43  1  0
  6 44  1  0
  7 45  1  0
  9 46  1  0
 10 47  1  0
 12 48  1  0
 25 49  1  0
 26 50  1  0
 28 51  1  0
 29 52  1  0
 30 53  1  0
M  END
$$$$
