MODEL        8USER    Run = 8USERUSER    Estimated Free Energy of Binding    =  -8.17 kcal/mol  [=(1)+(2)+(3)-(4)]USERUSER    (1) Final Intermolecular Energy     = -11.15 kcal/molUSER        vdW + Hbond + desolv Energy     = -11.10 kcal/molUSER        Electrostatic Energy            =  -0.05 kcal/molUSER        Moving Ligand-Fixed Receptor    = -11.15 kcal/molUSER        Moving Ligand-Moving Receptor   =  +0.00 kcal/molUSER    (2) Final Total Internal Energy     =  -3.36 kcal/molUSER    (3) Torsional Free Energy           =  +2.98 kcal/molUSER    (4) Unbound System's Energy         =  -3.36 kcal/molUSERUSERREMARK SMILES CNCN(Cc1ccc(OC)cc1)C(=O)c1c[nH]nc1-c1nc(F)ccc1N[C@H]1C[C@@H]1CREMARK SMILES IDX 14 1 15 2 4 3 3 4 2 5 1 6 5 8 6 9 7 10 13 11 8 12 12 13 9 14REMARK SMILES IDX 10 15 11 16 16 17 17 18 20 19 18 20 19 21 21 23 22 24 27 25REMARK SMILES IDX 23 26 26 27 25 28 24 29 28 30 29 32 30 33 31 34 32 35REMARK H PARENT 2 7 18 22 28 31USER                              x       y       z     vdW  Elec       q    TypeUSER                           _______ _______ _______ _____ _____    ______ ____ROOTATOM      1  C   UNL     1      33.928  45.083  15.705 -0.20 -0.19    +0.259 C  ATOM      2  O   UNL     1      33.914  45.862  14.755 -0.29 +0.27    -0.269 OA ENDROOTBRANCH   1   3ATOM      3  N   UNL     1      32.969  45.096  16.722 -0.12 +0.19    -0.321 N  BRANCH   3   4ATOM      4  C   UNL     1      31.545  45.110  16.448 -0.14 -0.06    +0.204 C  BRANCH   4   5ATOM      5  N   UNL     1      31.188  46.267  15.641 -0.48 +0.16    -0.303 NA ATOM      6  C   UNL     1      30.554  45.874  14.387 -0.52 -0.06    +0.103 C  ATOM      7  H   UNL     1      32.045  46.773  15.421 -0.51 -0.19    +0.124 HD ENDBRANCH   4   5ENDBRANCH   3   4BRANCH   3   8ATOM      8  C   UNL     1      33.405  45.543  18.044 -0.34 -0.09    +0.156 C  BRANCH   8   9ATOM      9  C   UNL     1      34.235  44.509  18.775 -0.37 +0.01    -0.028 A  ATOM     10  C   UNL     1      33.700  43.250  19.083 -0.39 -0.00    +0.009 A  ATOM     11  C   UNL     1      35.556  44.780  19.149 -0.34 -0.00    +0.009 A  ATOM     12  C   UNL     1      34.465  42.286  19.752 -0.32 +0.00    +0.047 A  ATOM     13  C   UNL     1      36.319  43.816  19.816 -0.37 -0.00    +0.047 A  ATOM     14  C   UNL     1      35.779  42.566  20.122 -0.37 -0.00    +0.118 A  BRANCH  14  15ATOM     15  O   UNL     1      36.632  41.717  20.773 -0.19 +0.01    -0.497 OA ATOM     16  C   UNL     1      36.349  41.451  22.140 -0.40 +0.01    +0.278 C  ENDBRANCH  14  15ENDBRANCH   8   9ENDBRANCH   3   8ENDBRANCH   1   3BRANCH   1  17ATOM     17  C   UNL     1      35.023  44.142  15.831 -0.27 -0.04    +0.087 A  ATOM     18  C   UNL     1      34.901  42.781  16.022 -0.25 -0.05    +0.119 A  ATOM     19  C   UNL     1      36.426  44.403  15.873 -0.28 -0.05    +0.125 A  ATOM     20  N   UNL     1      36.166  42.309  16.165 -0.24 +0.11    -0.284 N  ATOM     21  N   UNL     1      37.114  43.256  16.069 -0.23 +0.05    -0.173 NA ATOM     22  H   UNL     1      36.459  41.352  16.338 -0.13 -0.10    +0.189 HD BRANCH  19  23ATOM     23  C   UNL     1      37.092  45.707  15.697 -0.28 -0.05    +0.118 A  ATOM     24  N   UNL     1      36.729  46.369  14.563 -0.24 +0.12    -0.216 NA ATOM     25  C   UNL     1      38.052  46.189  16.617 -0.34 -0.02    +0.063 A  ATOM     26  C   UNL     1      37.298  47.569  14.357 -0.33 -0.12    +0.213 A  ATOM     27  C   UNL     1      38.592  47.453  16.353 -0.39 -0.02    +0.033 A  ATOM     28  C   UNL     1      38.217  48.151  15.207 -0.47 -0.04    +0.062 A  ATOM     29  F   UNL     1      36.949  48.232  13.245 -0.21 +0.08    -0.185 F  BRANCH  25  30ATOM     30  N   UNL     1      38.370  45.483  17.808 -0.15 +0.08    -0.380 N  ATOM     31  H   UNL     1      38.199  44.478  17.659 +0.10 -0.03    +0.160 HD BRANCH  30  32ATOM     32  C   UNL     1      39.532  45.839  18.619 -0.43 -0.01    +0.082 C  ATOM     33  C   UNL     1      40.574  44.801  18.947 -0.47 +0.00    +0.030 C  ATOM     34  C   UNL     1      40.907  45.930  18.011 -0.54 -0.00    +0.010 C  ATOM     35  C   UNL     1      41.842  47.010  18.434 -0.59 -0.00    +0.010 C  ENDBRANCH  30  32ENDBRANCH  25  30ENDBRANCH  19  23ENDBRANCH   1  17TORSDOF 10TERENDMDL