MODEL        8USER    Run = 8USERUSER    Estimated Free Energy of Binding    =  -9.14 kcal/mol  [=(1)+(2)+(3)-(4)]USERUSER    (1) Final Intermolecular Energy     = -10.93 kcal/molUSER        vdW + Hbond + desolv Energy     = -10.67 kcal/molUSER        Electrostatic Energy            =  -0.26 kcal/molUSER        Moving Ligand-Fixed Receptor    = -10.93 kcal/molUSER        Moving Ligand-Moving Receptor   =  +0.00 kcal/molUSER    (2) Final Total Internal Energy     =  -1.07 kcal/molUSER    (3) Torsional Free Energy           =  +1.79 kcal/molUSER    (4) Unbound System's Energy         =  -1.07 kcal/molUSERUSERREMARK SMILES Cc1ncc2n1[C@@]2(NS(=O)(=O)Cc1ccncc1)c1ccc(O)cc1REMARK SMILES IDX 1 1 2 2 3 3 4 4 5 5 6 6 7 7 8 8 9 10 10 11 11 12 12 13 13 14REMARK SMILES IDX 14 15 18 16 15 17 17 18 16 19 19 20 20 21 25 22 21 23 24 24REMARK SMILES IDX 22 25 23 26REMARK H PARENT 8 9 23 27USER                              x       y       z     vdW  Elec       q    TypeUSER                           _______ _______ _______ _____ _____    ______ ____ROOTATOM      1  C   UNL     1      36.940  44.641  12.501 -0.47 -0.03    +0.088 C  ATOM      2  C   UNL     1      36.742  46.102  12.605 -0.51 -0.04    +0.108 A  ATOM      3  N   UNL     1      35.845  46.836  11.990 -0.48 +0.14    -0.241 NA ATOM      4  C   UNL     1      36.167  48.118  12.347 -0.46 -0.07    +0.139 A  ATOM      5  C   UNL     1      37.056  48.192  13.401 -0.49 -0.04    +0.087 A  ATOM      6  N   UNL     1      37.550  46.896  13.361 -0.27 +0.10    -0.299 N  ATOM      7  C   UNL     1      37.341  47.373  14.697 -0.39 -0.10    +0.178 C  ENDROOTBRANCH   7   8ATOM      8  N   UNL     1      36.156  46.863  15.447 -0.26 +0.17    -0.180 NA ATOM      9  H   UNL     1      36.015  47.435  16.291 +0.08 -0.19    +0.144 HD BRANCH   8  10ATOM     10  S   UNL     1      36.308  45.253  15.971 -0.36 -0.11    +0.218 S  ATOM     11  O   UNL     1      35.066  44.555  15.718 -0.25 +0.11    -0.212 OA ATOM     12  O   UNL     1      37.563  44.754  15.449 -0.27 +0.07    -0.212 OA BRANCH  10  13ATOM     13  C   UNL     1      36.463  45.439  17.755 -0.27 -0.07    +0.189 C  BRANCH  13  14ATOM     14  C   UNL     1      35.400  44.654  18.479 -0.33 +0.01    -0.029 A  ATOM     15  C   UNL     1      34.117  45.187  18.644 -0.42 -0.01    +0.025 A  ATOM     16  C   UNL     1      35.664  43.388  19.012 -0.36 -0.00    +0.025 A  ATOM     17  C   UNL     1      33.171  44.447  19.336 -0.35 -0.02    +0.111 A  ATOM     18  C   UNL     1      34.654  42.729  19.695 -0.35 -0.00    +0.111 A  ATOM     19  N   UNL     1      33.415  43.235  19.871 -0.78 -0.02    -0.265 NA ENDBRANCH  13  14ENDBRANCH  10  13ENDBRANCH   8  10ENDBRANCH   7   8BRANCH   7  20ATOM     20  C   UNL     1      38.627  47.641  15.454 -0.49 -0.00    +0.000 A  ATOM     21  C   UNL     1      39.566  48.573  14.968 -0.54 -0.00    +0.012 A  ATOM     22  C   UNL     1      38.946  46.978  16.655 -0.43 -0.00    +0.012 A  ATOM     23  C   UNL     1      40.756  48.846  15.654 -0.58 -0.01    +0.046 A  ATOM     24  C   UNL     1      40.130  47.246  17.347 -0.45 -0.01    +0.046 A  ATOM     25  C   UNL     1      41.024  48.180  16.843 -0.45 -0.01    +0.115 A  BRANCH  25  26ATOM     26  O   UNL     1      42.167  48.413  17.546 -0.39 -0.05    -0.508 OA ATOM     27  H   UNL     1      42.770  47.662  17.421 -0.36 -0.06    +0.293 HD ENDBRANCH  25  26ENDBRANCH   7  20TORSDOF 6TERENDMDL