REMARK SMILES Cc1ncc2n1[C@]2(NS(=O)(=O)Cc1cccc(C#N)c1)c1ccccc1N1CCOCC1
REMARK SMILES IDX 9 1 10 2 11 3 8 4 7 6 2 7 3 8 6 9 4 10 5 11 1 12 21 13 22 14
REMARK SMILES IDX 26 15 23 16 25 17 24 18 27 19 28 20 32 21 29 22 31 23 30 24
REMARK SMILES IDX 12 25 13 26 14 27 20 28 15 29 17 30 16 31 18 32 19 33
REMARK H PARENT 8 5
ROOT
ATOM      1  S   UNL     1       1.393  -0.207  -0.050  1.00  0.00     0.218 S 
ATOM      2  O   UNL     1       1.488  -1.652  -0.141  1.00  0.00    -0.212 OA
ATOM      3  O   UNL     1       1.350   0.633  -1.232  1.00  0.00    -0.212 OA
ENDROOT
BRANCH   1   4
ATOM      4  N   UNL     1       0.022   0.095   0.876  1.00  0.00    -0.180 NA
ATOM      5  H   UNL     1      -0.542  -0.763   1.005  1.00  0.00     0.144 HD
BRANCH   4   6
ATOM      6  C   UNL     1      -0.857   1.191   0.403  1.00  0.00     0.180 C 
ATOM      7  C   UNL     1      -0.705   3.748   0.389  1.00  0.00     0.108 A 
ATOM      8  N   UNL     1      -1.715   4.248   1.058  1.00  0.00    -0.241 NA
ATOM      9  N   UNL     1      -0.461   2.484   0.817  1.00  0.00    -0.299 N 
ATOM     10  C   UNL     1      -2.098   3.216   1.879  1.00  0.00     0.139 A 
ATOM     11  C   UNL     1      -1.505   2.000   1.594  1.00  0.00     0.087 A 
ATOM     12  C   UNL     1       0.176   4.449  -0.573  1.00  0.00     0.088 C 
BRANCH   6  13
ATOM     13  C   UNL     1      -1.870   0.876  -0.709  1.00  0.00     0.023 A 
ATOM     14  C   UNL     1      -2.112   1.763  -1.783  1.00  0.00     0.010 A 
ATOM     15  C   UNL     1      -2.609  -0.347  -0.715  1.00  0.00     0.044 A 
ATOM     16  C   UNL     1      -3.074   1.514  -2.767  1.00  0.00     0.001 A 
ATOM     17  C   UNL     1      -3.585  -0.576  -1.710  1.00  0.00     0.026 A 
ATOM     18  C   UNL     1      -3.824   0.349  -2.722  1.00  0.00     0.002 A 
BRANCH  15  19
ATOM     19  N   UNL     1      -2.349  -1.333   0.283  1.00  0.00    -0.367 N 
ATOM     20  C   UNL     1      -3.469  -1.474   1.256  1.00  0.00     0.145 C 
ATOM     21  C   UNL     1      -1.920  -2.638  -0.302  1.00  0.00     0.145 C 
ATOM     22  C   UNL     1      -4.185  -2.828   1.116  1.00  0.00     0.181 C 
ATOM     23  C   UNL     1      -1.984  -3.732   0.776  1.00  0.00     0.181 C 
ATOM     24  O   UNL     1      -3.309  -3.954   1.286  1.00  0.00    -0.378 OA
ENDBRANCH  15  19
ENDBRANCH   6  13
ENDBRANCH   4   6
ENDBRANCH   1   4
BRANCH   1  25
ATOM     25  C   UNL     1       2.670   0.402   1.061  1.00  0.00     0.189 C 
BRANCH  25  26
ATOM     26  C   UNL     1       4.032  -0.011   0.566  1.00  0.00    -0.030 A 
ATOM     27  C   UNL     1       4.598   0.576  -0.578  1.00  0.00     0.005 A 
ATOM     28  C   UNL     1       4.773  -0.979   1.267  1.00  0.00     0.024 A 
ATOM     29  C   UNL     1       5.870   0.198  -1.014  1.00  0.00     0.002 A 
ATOM     30  C   UNL     1       6.054  -1.352   0.836  1.00  0.00     0.052 A 
ATOM     31  C   UNL     1       6.599  -0.761  -0.309  1.00  0.00     0.019 A 
BRANCH  30  32
ATOM     32  C   UNL     1       6.809  -2.327   1.576  1.00  0.00     0.099 C 
ATOM     33  N   UNL     1       7.424  -3.106   2.181  1.00  0.00    -0.192 NA
ENDBRANCH  30  32
ENDBRANCH  25  26
ENDBRANCH   1  25
TORSDOF 7
