MODEL        9USER    Run = 9USERUSER    Estimated Free Energy of Binding    =  -8.76 kcal/mol  [=(1)+(2)+(3)-(4)]USERUSER    (1) Final Intermolecular Energy     = -10.85 kcal/molUSER        vdW + Hbond + desolv Energy     = -10.83 kcal/molUSER        Electrostatic Energy            =  -0.02 kcal/molUSER        Moving Ligand-Fixed Receptor    = -10.85 kcal/molUSER        Moving Ligand-Moving Receptor   =  +0.00 kcal/molUSER    (2) Final Total Internal Energy     =  -2.08 kcal/molUSER    (3) Torsional Free Energy           =  +2.09 kcal/molUSER    (4) Unbound System's Energy         =  -2.08 kcal/molUSERUSERREMARK SMILES Cc1ncc2n1[C@]2(NS(=O)(=O)Cc1cccc(C#N)c1)c1ccccc1N1CCOCC1REMARK SMILES IDX 9 1 10 2 11 3 8 4 7 6 2 7 3 8 6 9 4 10 5 11 1 12 21 13 22 14REMARK SMILES IDX 26 15 23 16 25 17 24 18 27 19 28 20 32 21 29 22 31 23 30 24REMARK SMILES IDX 12 25 13 26 14 27 20 28 15 29 17 30 16 31 18 32 19 33REMARK H PARENT 8 5USER                              x       y       z     vdW  Elec       q    TypeUSER                           _______ _______ _______ _____ _____    ______ ____ROOTATOM      1  S   UNL     1      40.363  45.973  19.119 -0.46 -0.00    +0.218 S  ATOM      2  O   UNL     1      38.970  46.198  19.455 -0.25 +0.01    -0.212 OA ATOM      3  O   UNL     1      41.390  46.956  19.411 -0.36 -0.01    -0.212 OA ENDROOTBRANCH   1   4ATOM      4  N   UNL     1      40.777  44.524  19.865 -0.28 -0.01    -0.180 NA ATOM      5  H   UNL     1      40.018  43.826  19.779 +0.09 +0.00    +0.144 HD BRANCH   4   6ATOM      6  C   UNL     1      41.195  44.617  21.285 -0.26 +0.02    +0.180 C  ATOM      7  C   UNL     1      43.443  44.548  22.512 -0.18 +0.03    +0.108 A  ATOM      8  N   UNL     1      43.442  43.553  23.365 -0.11 -0.02    -0.241 NA ATOM      9  N   UNL     1      42.551  44.293  21.521 -0.14 -0.06    -0.299 N  ATOM     10  C   UNL     1      42.481  42.707  22.871 -0.20 -0.01    +0.139 A  ATOM     11  C   UNL     1      41.712  43.237  21.851 -0.30 +0.00    +0.087 A  ATOM     12  C   UNL     1      44.358  45.711  22.482 -0.20 +0.05    +0.088 C  BRANCH   6  13ATOM     13  C   UNL     1      40.261  45.340  22.268 -0.25 +0.00    +0.023 A  ATOM     14  C   UNL     1      40.636  46.533  22.927 -0.22 +0.00    +0.010 A  ATOM     15  C   UNL     1      38.952  44.840  22.551 -0.28 +0.00    +0.044 A  ATOM     16  C   UNL     1      39.818  47.166  23.868 -0.29 +0.00    +0.001 A  ATOM     17  C   UNL     1      38.145  45.486  23.513 -0.26 +0.00    +0.026 A  ATOM     18  C   UNL     1      38.575  46.632  24.174 -0.31 +0.00    +0.002 A  BRANCH  15  19ATOM     19  N   UNL     1      38.468  43.695  21.852 -0.10 -0.01    -0.367 N  ATOM     20  C   UNL     1      38.352  42.494  22.727 -0.30 +0.01    +0.145 C  ATOM     21  C   UNL     1      37.217  43.979  21.088 -0.36 +0.00    +0.145 C  ATOM     22  C   UNL     1      36.886  42.091  22.960 -0.42 +0.01    +0.181 C  ATOM     23  C   UNL     1      36.571  42.656  20.645 -0.38 -0.00    +0.181 C  ATOM     24  O   UNL     1      36.172  41.820  21.743 -0.33 -0.02    -0.378 OA ENDBRANCH  15  19ENDBRANCH   6  13ENDBRANCH   4   6ENDBRANCH   1   4BRANCH   1  25ATOM     25  C   UNL     1      40.485  45.489  17.391 -0.25 -0.01    +0.189 C  BRANCH  25  26ATOM     26  C   UNL     1      40.277  46.685  16.498 -0.46 +0.00    -0.030 A  ATOM     27  C   UNL     1      41.034  47.857  16.665 -0.50 -0.00    +0.005 A  ATOM     28  C   UNL     1      39.333  46.632  15.457 -0.43 -0.01    +0.024 A  ATOM     29  C   UNL     1      40.844  48.951  15.818 -0.62 -0.00    +0.002 A  ATOM     30  C   UNL     1      39.149  47.726  14.600 -0.46 -0.02    +0.052 A  ATOM     31  C   UNL     1      39.907  48.887  14.785 -0.50 -0.01    +0.019 A  BRANCH  30  32ATOM     32  C   UNL     1      38.196  47.649  13.526 -0.46 -0.03    +0.099 C  ATOM     33  N   UNL     1      37.419  47.596  12.662 -0.99 +0.04    -0.192 NA ENDBRANCH  30  32ENDBRANCH  25  26ENDBRANCH   1  25TORSDOF 7TERENDMDL