REMARK SMILES CNCN(Cc1ccc(OC)cc1)C(=O)c1c[nH]nc1-c1nc(F)ccc1N[C@H]1C[C@@H]1C
REMARK SMILES IDX 14 1 15 2 4 3 3 4 2 5 1 6 5 8 6 9 7 10 13 11 8 12 12 13 9 14
REMARK SMILES IDX 10 15 11 16 16 17 17 18 20 19 18 20 19 21 21 23 22 24 27 25
REMARK SMILES IDX 23 26 26 27 25 28 24 29 28 30 29 32 30 33 31 34 32 35
REMARK H PARENT 2 7 18 22 28 31
ROOT
ATOM      1  C   UNL     1       0.917   0.603  -0.244  1.00  0.00     0.259 C 
ATOM      2  O   UNL     1       1.344   1.673  -0.672  1.00  0.00    -0.269 OA
ENDROOT
BRANCH   1   3
ATOM      3  N   UNL     1       1.332   0.040   0.966  1.00  0.00    -0.321 N 
BRANCH   3   4
ATOM      4  C   UNL     1       0.571  -0.992   1.645  1.00  0.00     0.204 C 
BRANCH   4   5
ATOM      5  N   UNL     1       1.453  -2.039   2.140  1.00  0.00    -0.303 NA
ATOM      6  C   UNL     1       1.965  -2.869   1.055  1.00  0.00     0.103 C 
ATOM      7  H   UNL     1       0.914  -2.632   2.770  1.00  0.00     0.124 HD
ENDBRANCH   4   5
ENDBRANCH   3   4
BRANCH   3   8
ATOM      8  C   UNL     1       2.293   0.801   1.762  1.00  0.00     0.156 C 
BRANCH   8   9
ATOM      9  C   UNL     1       3.732   0.451   1.447  1.00  0.00    -0.028 A 
ATOM     10  C   UNL     1       4.437  -0.460   2.246  1.00  0.00     0.009 A 
ATOM     11  C   UNL     1       4.387   1.018   0.348  1.00  0.00     0.009 A 
ATOM     12  C   UNL     1       5.766  -0.795   1.956  1.00  0.00     0.047 A 
ATOM     13  C   UNL     1       5.713   0.683   0.060  1.00  0.00     0.047 A 
ATOM     14  C   UNL     1       6.410  -0.223   0.861  1.00  0.00     0.118 A 
BRANCH  14  15
ATOM     15  O   UNL     1       7.698  -0.464   0.467  1.00  0.00    -0.497 OA
ATOM     16  C   UNL     1       8.456  -1.359   1.270  1.00  0.00     0.278 C 
ENDBRANCH  14  15
ENDBRANCH   8   9
ENDBRANCH   3   8
ENDBRANCH   1   3
BRANCH   1  17
ATOM     17  C   UNL     1      -0.012  -0.162  -1.053  1.00  0.00     0.087 A 
ATOM     18  C   UNL     1       0.326  -1.152  -1.952  1.00  0.00     0.119 A 
ATOM     19  C   UNL     1      -1.427  -0.017  -1.167  1.00  0.00     0.125 A 
ATOM     20  N   UNL     1      -0.837  -1.536  -2.539  1.00  0.00    -0.284 N 
ATOM     21  N   UNL     1      -1.918  -0.882  -2.082  1.00  0.00    -0.173 NA
ATOM     22  H   UNL     1      -0.969  -2.235  -3.264  1.00  0.00     0.189 HD
BRANCH  19  23
ATOM     23  C   UNL     1      -2.291   0.899  -0.399  1.00  0.00     0.118 A 
ATOM     24  N   UNL     1      -1.824   1.192   0.847  1.00  0.00    -0.216 NA
ATOM     25  C   UNL     1      -3.514   1.387  -0.916  1.00  0.00     0.063 A 
ATOM     26  C   UNL     1      -2.567   2.032   1.588  1.00  0.00     0.213 A 
ATOM     27  C   UNL     1      -4.229   2.272  -0.101  1.00  0.00     0.033 A 
ATOM     28  C   UNL     1      -3.756   2.595   1.169  1.00  0.00     0.062 A 
ATOM     29  F   UNL     1      -2.119   2.329   2.816  1.00  0.00    -0.185 F 
BRANCH  25  30
ATOM     30  N   UNL     1      -3.942   1.088  -2.237  1.00  0.00    -0.380 N 
ATOM     31  H   UNL     1      -3.461   0.237  -2.562  1.00  0.00     0.160 HD
BRANCH  30  32
ATOM     32  C   UNL     1      -5.336   1.251  -2.643  1.00  0.00     0.082 C 
ATOM     33  C   UNL     1      -5.952   0.299  -3.635  1.00  0.00     0.030 C 
ATOM     34  C   UNL     1      -6.395   0.277  -2.198  1.00  0.00     0.010 C 
ATOM     35  C   UNL     1      -7.749   0.767  -1.818  1.00  0.00     0.010 C 
ENDBRANCH  30  32
ENDBRANCH  25  30
ENDBRANCH  19  23
ENDBRANCH   1  17
TORSDOF 10
