REMARK SMILES Nc1nccc(-c2ccc(C(F)(F)F)c(Cl)c2)n1
REMARK SMILES IDX 2 1 3 2 4 3 5 4 6 5 18 6 1 7 7 10 8 11 17 12 9 13 15 14
REMARK SMILES IDX 10 15 16 16 11 17 12 18 13 19 14 20
REMARK H PARENT 1 8 1 9
ROOT
ATOM      1  C   UNL     1      -3.448  -0.571  -0.201  1.00  0.00     0.220 A 
ATOM      2  N   UNL     1      -4.089   0.592  -0.081  1.00  0.00    -0.222 NA
ATOM      3  C   UNL     1      -3.323   1.679   0.107  1.00  0.00     0.117 A 
ATOM      4  C   UNL     1      -1.951   1.637   0.169  1.00  0.00     0.049 A 
ATOM      5  C   UNL     1      -1.371   0.392   0.022  1.00  0.00     0.076 A 
ATOM      6  N   UNL     1      -2.121  -0.716  -0.180  1.00  0.00    -0.213 NA
ENDROOT
BRANCH   1   7
ATOM      7  N   UNL     1      -4.211  -1.699  -0.409  1.00  0.00    -0.368 N 
ATOM      8  H   UNL     1      -5.103  -1.440  -0.807  1.00  0.00     0.159 HD
ATOM      9  H   UNL     1      -3.668  -2.401  -0.890  1.00  0.00     0.159 HD
ENDBRANCH   1   7
BRANCH   5  10
ATOM     10  C   UNL     1       0.091   0.172   0.060  1.00  0.00     0.002 A 
ATOM     11  C   UNL     1       0.680  -0.866  -0.682  1.00  0.00     0.011 A 
ATOM     12  C   UNL     1       0.950   0.969   0.836  1.00  0.00     0.031 A 
ATOM     13  C   UNL     1       2.062  -1.089  -0.661  1.00  0.00     0.015 A 
ATOM     14  C   UNL     1       2.336   0.749   0.861  1.00  0.00     0.053 A 
ATOM     15  C   UNL     1       2.910  -0.281   0.111  1.00  0.00     0.074 A 
ATOM     16  Cl  UNL     1       3.286   1.798   1.851  1.00  0.00    -0.084 Cl
BRANCH  15  17
ATOM     17  C   UNL     1       4.394  -0.535   0.121  1.00  0.00     0.417 C 
ATOM     18  F   UNL     1       4.761  -1.580  -0.677  1.00  0.00    -0.166 F 
ATOM     19  F   UNL     1       5.118   0.528  -0.326  1.00  0.00    -0.166 F 
ATOM     20  F   UNL     1       4.876  -0.839   1.357  1.00  0.00    -0.166 F 
ENDBRANCH  15  17
ENDBRANCH   5  10
TORSDOF 3
