MODEL        7USER    Run = 7USERUSER    Estimated Free Energy of Binding    =  -8.72 kcal/mol  [=(1)+(2)+(3)-(4)]USERUSER    (1) Final Intermolecular Energy     =  -9.31 kcal/molUSER        vdW + Hbond + desolv Energy     =  -9.33 kcal/molUSER        Electrostatic Energy            =  +0.02 kcal/molUSER        Moving Ligand-Fixed Receptor    =  -9.31 kcal/molUSER        Moving Ligand-Moving Receptor   =  +0.00 kcal/molUSER    (2) Final Total Internal Energy     =  -1.30 kcal/molUSER    (3) Torsional Free Energy           =  +0.60 kcal/molUSER    (4) Unbound System's Energy         =  -1.30 kcal/molUSERUSERREMARK SMILES Fc1ccc(-c2cc3nccnn3c2-c2ccnc3[nH]ccc23)cc1REMARK SMILES IDX 6 1 7 2 8 3 9 4 10 5 11 6 12 7 13 8 14 9 5 10 2 11 3 12REMARK SMILES IDX 25 13 4 14 24 15 1 16 15 17 16 18 23 19 17 20 22 21 19 22REMARK SMILES IDX 18 23 21 24 20 25REMARK H PARENT 20 26USER                              x       y       z     vdW  Elec       q    TypeUSER                           _______ _______ _______ _____ _____    ______ ____ROOTATOM      1  C   UNL     1      17.286 -14.210  -8.093 -0.37 -0.00    +0.012 A  ATOM      2  C   UNL     1      18.158 -15.226  -7.614 -0.37 +0.00    +0.060 A  ATOM      3  C   UNL     1      18.631 -14.845  -6.379 -0.34 +0.02    +0.154 A  ATOM      4  N   UNL     1      19.489 -15.478  -5.528 -0.30 -0.09    -0.235 NA ATOM      5  C   UNL     1      19.727 -14.835  -4.432 -0.48 +0.07    +0.135 A  ATOM      6  C   UNL     1      19.112 -13.499  -4.134 -0.42 +0.05    +0.154 A  ATOM      7  N   UNL     1      18.302 -12.893  -4.940 -0.37 -0.03    -0.173 NA ATOM      8  N   UNL     1      18.066 -13.609  -6.086 -0.29 -0.01    -0.214 N  ATOM      9  C   UNL     1      17.224 -13.219  -7.115 -0.34 -0.01    +0.083 A  ENDROOTBRANCH   1  10ATOM     10  C   UNL     1      16.559 -14.194  -9.355 -0.35 +0.00    -0.016 A  ATOM     11  C   UNL     1      15.199 -14.156 -11.791 -0.27 -0.04    +0.123 A  ATOM     12  C   UNL     1      14.479 -14.093 -10.605 -0.30 -0.02    +0.040 A  ATOM     13  C   UNL     1      16.586 -14.231 -11.784 -0.45 -0.01    +0.040 A  ATOM     14  C   UNL     1      15.159 -14.107  -9.385 -0.35 -0.00    +0.012 A  ATOM     15  C   UNL     1      17.268 -14.247 -10.565 -0.42 -0.00    +0.012 A  ATOM     16  F   UNL     1      14.546 -14.141 -12.961 -0.10 +0.09    -0.207 F  ENDBRANCH   1  10BRANCH   9  17ATOM     17  C   UNL     1      16.448 -11.981  -7.056 -0.43 -0.00    +0.013 A  ATOM     18  C   UNL     1      15.598 -11.683  -5.986 -0.49 -0.01    +0.031 A  ATOM     19  C   UNL     1      16.549 -11.040  -8.100 -0.46 -0.01    +0.028 A  ATOM     20  C   UNL     1      14.908 -10.479  -5.995 -0.32 -0.06    +0.114 A  ATOM     21  C   UNL     1      17.240 -10.934  -9.343 -0.41 -0.01    +0.030 A  ATOM     22  C   UNL     1      15.798  -9.875  -7.969 -0.54 -0.04    +0.137 A  ATOM     23  N   UNL     1      14.976  -9.535  -6.959 -0.52 +0.10    -0.239 NA ATOM     24  C   UNL     1      16.904  -9.724  -9.914 -0.36 -0.02    +0.085 A  ATOM     25  N   UNL     1      16.031  -9.093  -9.066 -0.38 +0.09    -0.346 N  ATOM     26  H   UNL     1      15.604  -8.190  -9.206 +0.10 -0.06    +0.167 HD ENDBRANCH   9  17TORSDOF 2TERENDMDL