REMARK SMILES Fc1ccc(-c2cc3nccnn3c2-c2ccnc3[nH]ccc23)cc1
REMARK SMILES IDX 6 1 7 2 8 3 9 4 10 5 11 6 12 7 13 8 14 9 5 10 2 11 3 12
REMARK SMILES IDX 25 13 4 14 24 15 1 16 15 17 16 18 23 19 17 20 22 21 19 22
REMARK SMILES IDX 18 23 21 24 20 25
REMARK H PARENT 20 26
ROOT
ATOM      1  C   UNL     1       1.252   0.755   0.131  1.00  0.00     0.012 A 
ATOM      2  C   UNL     1       1.883   1.866   0.756  1.00  0.00     0.060 A 
ATOM      3  C   UNL     1       0.943   2.857   0.930  1.00  0.00     0.154 A 
ATOM      4  N   UNL     1       1.062   4.100   1.478  1.00  0.00    -0.235 NA
ATOM      5  C   UNL     1      -0.033   4.788   1.487  1.00  0.00     0.135 A 
ATOM      6  C   UNL     1      -1.321   4.256   0.931  1.00  0.00     0.154 A 
ATOM      7  N   UNL     1      -1.437   3.079   0.406  1.00  0.00    -0.173 NA
ATOM      8  N   UNL     1      -0.259   2.377   0.423  1.00  0.00    -0.214 N 
ATOM      9  C   UNL     1      -0.090   1.085  -0.049  1.00  0.00     0.083 A 
ENDROOT
BRANCH   1  10
ATOM     10  C   UNL     1       1.865  -0.513  -0.240  1.00  0.00    -0.016 A 
ATOM     11  C   UNL     1       3.061  -2.940  -0.922  1.00  0.00     0.123 A 
ATOM     12  C   UNL     1       2.287  -2.271  -1.862  1.00  0.00     0.040 A 
ATOM     13  C   UNL     1       3.254  -2.416   0.350  1.00  0.00     0.040 A 
ATOM     14  C   UNL     1       1.692  -1.054  -1.523  1.00  0.00     0.012 A 
ATOM     15  C   UNL     1       2.658  -1.200   0.691  1.00  0.00     0.012 A 
ATOM     16  F   UNL     1       3.633  -4.107  -1.248  1.00  0.00    -0.207 F 
ENDBRANCH   1  10
BRANCH   9  17
ATOM     17  C   UNL     1      -1.202   0.305  -0.592  1.00  0.00     0.013 A 
ATOM     18  C   UNL     1      -1.890   0.690  -1.747  1.00  0.00     0.031 A 
ATOM     19  C   UNL     1      -1.607  -0.880   0.053  1.00  0.00     0.028 A 
ATOM     20  C   UNL     1      -2.923  -0.112  -2.209  1.00  0.00     0.114 A 
ATOM     21  C   UNL     1      -1.230  -1.614   1.216  1.00  0.00     0.030 A 
ATOM     22  C   UNL     1      -2.658  -1.583  -0.530  1.00  0.00     0.137 A 
ATOM     23  N   UNL     1      -3.345  -1.264  -1.642  1.00  0.00    -0.239 NA
ATOM     24  C   UNL     1      -2.040  -2.728   1.297  1.00  0.00     0.085 A 
ATOM     25  N   UNL     1      -2.899  -2.695   0.229  1.00  0.00    -0.346 N 
ATOM     26  H   UNL     1      -3.615  -3.372   0.012  1.00  0.00     0.167 HD
ENDBRANCH   9  17
TORSDOF 2
