MODEL        4USER    Run = 4USERUSER    Estimated Free Energy of Binding    =  -7.14 kcal/mol  [=(1)+(2)+(3)-(4)]USERUSER    (1) Final Intermolecular Energy     =  -8.93 kcal/molUSER        vdW + Hbond + desolv Energy     =  -8.97 kcal/molUSER        Electrostatic Energy            =  +0.04 kcal/molUSER        Moving Ligand-Fixed Receptor    =  -8.93 kcal/molUSER        Moving Ligand-Moving Receptor   =  +0.00 kcal/molUSER    (2) Final Total Internal Energy     =  -1.35 kcal/molUSER    (3) Torsional Free Energy           =  +1.79 kcal/molUSER    (4) Unbound System's Energy         =  -1.35 kcal/molUSERUSERREMARK SMILES N#Cc1cccc(-c2cc(Cl)cc3[nH]c(NCCO)nc23)c1REMARK SMILES IDX 16 1 15 3 8 4 9 5 21 6 10 7 20 8 13 9 12 10 14 11 11 12 7 14REMARK SMILES IDX 3 15 4 16 22 17 5 18 6 19 2 20 1 21 17 22 18 23 19 24REMARK H PARENT 16 2 14 13 19 25USER                              x       y       z     vdW  Elec       q    TypeUSER                           _______ _______ _______ _____ _____    ______ ____ROOTATOM      1  N   UNL     1       9.581   0.602   1.571 -0.32 +0.08    -0.353 N  ATOM      2  H   UNL     1       9.321   1.519   1.945 -0.39 -0.05    +0.163 HD ENDROOTBRANCH   1   3ATOM      3  C   UNL     1      10.920   0.583   1.382 -0.37 -0.02    +0.201 A  ATOM      4  C   UNL     1      14.108  -0.565   0.363 -0.32 +0.00    +0.011 A  ATOM      5  C   UNL     1      15.338   0.069   0.652 -0.22 +0.00    +0.031 A  ATOM      6  C   UNL     1      12.933   0.047   0.869 -0.34 +0.01    +0.098 A  ATOM      7  C   UNL     1      15.395   1.246   1.401 -0.31 +0.00    +0.043 A  ATOM      8  N   UNL     1      11.610  -0.334   0.757 -0.30 +0.02    -0.213 NA ATOM      9  C   UNL     1      13.032   1.223   1.610 -0.42 +0.01    +0.069 A  ATOM     10  C   UNL     1      14.243   1.855   1.900 -0.38 +0.01    +0.049 A  ATOM     11  N   UNL     1      11.737   1.530   1.939 -0.22 +0.01    -0.324 N  ATOM     12  Cl  UNL     1      16.927   1.968   1.719 -0.51 +0.01    -0.084 Cl ATOM     13  H   UNL     1      11.424   2.298   2.513 +0.03 -0.00    +0.170 HD BRANCH   4  14ATOM     14  C   UNL     1      14.028  -1.805  -0.427 -0.42 -0.00    -0.015 A  ATOM     15  C   UNL     1      13.192  -3.055  -2.357 -0.55 +0.01    +0.053 A  ATOM     16  C   UNL     1      13.876  -4.195  -1.930 -0.63 +0.01    +0.019 A  ATOM     17  C   UNL     1      13.268  -1.874  -1.608 -0.15 +0.01    +0.028 A  ATOM     18  C   UNL     1      14.634  -4.150  -0.762 -0.35 +0.00    +0.002 A  ATOM     19  C   UNL     1      14.708  -2.967  -0.020 -0.30 -0.00    +0.009 A  BRANCH  15  20ATOM     20  C   UNL     1      12.415  -3.093  -3.561 -0.02 +0.03    +0.099 C  ATOM     21  N   UNL     1      11.787  -3.113  -4.537 -0.80 -0.06    -0.192 NA ENDBRANCH  15  20ENDBRANCH   4  14ENDBRANCH   1   3BRANCH   1  22ATOM     22  C   UNL     1       9.011  -0.418   2.475 -0.53 -0.01    +0.144 C  BRANCH  22  23ATOM     23  C   UNL     1      10.050  -1.476   2.864 -0.52 -0.01    +0.177 C  BRANCH  23  24ATOM     24  O   UNL     1      10.171  -2.466   1.841 -0.51 +0.08    -0.395 OA ATOM     25  H   UNL     1      10.192  -1.973   0.993 -0.11 -0.09    +0.210 HD ENDBRANCH  23  24ENDBRANCH  22  23ENDBRANCH   1  22TORSDOF 6TERENDMDL