MODEL        9USER    Run = 9USERUSER    Estimated Free Energy of Binding    =  -6.45 kcal/mol  [=(1)+(2)+(3)-(4)]USERUSER    (1) Final Intermolecular Energy     =  -7.34 kcal/molUSER        vdW + Hbond + desolv Energy     =  -7.23 kcal/molUSER        Electrostatic Energy            =  -0.11 kcal/molUSER        Moving Ligand-Fixed Receptor    =  -7.34 kcal/molUSER        Moving Ligand-Moving Receptor   =  +0.00 kcal/molUSER    (2) Final Total Internal Energy     =  -0.11 kcal/molUSER    (3) Torsional Free Energy           =  +0.89 kcal/molUSER    (4) Unbound System's Energy         =  -0.11 kcal/molUSERUSERREMARK SMILES Nc1nccc(-c2ccc(C(F)(F)F)c(Cl)c2)n1REMARK SMILES IDX 2 1 3 2 4 3 5 4 6 5 18 6 1 7 7 10 8 11 17 12 9 13 15 14REMARK SMILES IDX 10 15 16 16 11 17 12 18 13 19 14 20REMARK H PARENT 1 8 1 9USER                              x       y       z     vdW  Elec       q    TypeUSER                           _______ _______ _______ _____ _____    ______ ____ROOTATOM      1  C   UNL     1      15.718  -9.779  -7.381 -0.48 -0.06    +0.220 A  ATOM      2  N   UNL     1      15.851  -9.153  -8.551 -0.52 +0.06    -0.222 NA ATOM      3  C   UNL     1      16.498  -9.826  -9.517 -0.45 -0.03    +0.117 A  ATOM      4  C   UNL     1      17.002 -11.093  -9.351 -0.42 -0.01    +0.049 A  ATOM      5  C   UNL     1      16.807 -11.669  -8.111 -0.38 -0.02    +0.076 A  ATOM      6  N   UNL     1      16.149 -11.017  -7.125 -0.31 +0.05    -0.213 NA ENDROOTBRANCH   1   7ATOM      7  N   UNL     1      15.046  -9.116  -6.378 -0.10 +0.18    -0.368 N  ATOM      8  H   UNL     1      14.253  -8.624  -6.766 -0.46 -0.12    +0.159 HD ATOM      9  H   UNL     1      14.879  -9.739  -5.602 -0.46 -0.12    +0.159 HD ENDBRANCH   1   7BRANCH   5  10ATOM     10  C   UNL     1      17.283 -13.027  -7.767 -0.38 -0.00    +0.002 A  ATOM     11  C   UNL     1      16.969 -14.126  -8.584 -0.36 -0.00    +0.011 A  ATOM     12  C   UNL     1      18.051 -13.284  -6.618 -0.39 -0.00    +0.031 A  ATOM     13  C   UNL     1      17.412 -15.418  -8.277 -0.39 -0.00    +0.015 A  ATOM     14  C   UNL     1      18.497 -14.578  -6.305 -0.42 +0.01    +0.053 A  ATOM     15  C   UNL     1      18.185 -15.661  -7.132 -0.38 +0.01    +0.074 A  ATOM     16  Cl  UNL     1      19.436 -14.765  -4.868 -0.77 -0.03    -0.084 Cl BRANCH  15  17ATOM     17  C   UNL     1      18.653 -17.057  -6.817 -0.19 +0.08    +0.417 C  ATOM     18  F   UNL     1      18.805 -17.279  -5.479 -0.13 -0.06    -0.166 F  ATOM     19  F   UNL     1      17.786 -18.016  -7.243 -0.13 -0.03    -0.166 F  ATOM     20  F   UNL     1      19.860 -17.353  -7.371 -0.12 -0.04    -0.166 F  ENDBRANCH  15  17ENDBRANCH   5  10TORSDOF 3TERENDMDL