REMARK SMILES N#Cc1cccc(-c2cc(Cl)cc3[nH]c(NCCO)nc23)c1
REMARK SMILES IDX 16 1 15 3 8 4 9 5 21 6 10 7 20 8 13 9 12 10 14 11 11 12 7 14
REMARK SMILES IDX 3 15 4 16 22 17 5 18 6 19 2 20 1 21 17 22 18 23 19 24
REMARK H PARENT 16 2 14 13 19 25
ROOT
ATOM      1  N   UNL     1       2.708   0.854  -1.172  1.00  0.00    -0.353 N 
ATOM      2  H   UNL     1       2.205   1.254  -1.969  1.00  0.00     0.163 HD
ENDROOT
BRANCH   1   3
ATOM      3  C   UNL     1       1.800   0.471  -0.245  1.00  0.00     0.201 A 
ATOM      4  C   UNL     1      -1.339  -0.249   1.220  1.00  0.00     0.011 A 
ATOM      5  C   UNL     1      -1.549  -0.612   2.570  1.00  0.00     0.031 A 
ATOM      6  C   UNL     1      -0.003   0.010   0.823  1.00  0.00     0.098 A 
ATOM      7  C   UNL     1      -0.489  -0.712   3.473  1.00  0.00     0.043 A 
ATOM      8  N   UNL     1       0.506   0.383  -0.406  1.00  0.00    -0.213 NA
ATOM      9  C   UNL     1       1.028  -0.103   1.754  1.00  0.00     0.069 A 
ATOM     10  C   UNL     1       0.829  -0.460   3.089  1.00  0.00     0.049 A 
ATOM     11  N   UNL     1       2.161   0.215   1.050  1.00  0.00    -0.324 N 
ATOM     12  Cl  UNL     1      -0.813  -1.157   5.106  1.00  0.00    -0.084 Cl
ATOM     13  H   UNL     1       3.100   0.281   1.413  1.00  0.00     0.170 HD
BRANCH   4  14
ATOM     14  C   UNL     1      -2.444  -0.141   0.253  1.00  0.00    -0.015 A 
ATOM     15  C   UNL     1      -3.600   1.056  -1.541  1.00  0.00     0.053 A 
ATOM     16  C   UNL     1      -4.576   0.058  -1.593  1.00  0.00     0.019 A 
ATOM     17  C   UNL     1      -2.547   0.955  -0.623  1.00  0.00     0.028 A 
ATOM     18  C   UNL     1      -4.495  -1.035  -0.734  1.00  0.00     0.002 A 
ATOM     19  C   UNL     1      -3.439  -1.132   0.178  1.00  0.00     0.009 A 
BRANCH  15  20
ATOM     20  C   UNL     1      -3.675   2.181  -2.426  1.00  0.00     0.099 C 
ATOM     21  N   UNL     1      -3.745   3.089  -3.146  1.00  0.00    -0.192 NA
ENDBRANCH  15  20
ENDBRANCH   4  14
ENDBRANCH   1   3
BRANCH   1  22
ATOM     22  C   UNL     1       3.614  -0.185  -1.702  1.00  0.00     0.144 C 
BRANCH  22  23
ATOM     23  C   UNL     1       4.707  -0.554  -0.692  1.00  0.00     0.177 C 
BRANCH  23  24
ATOM     24  O   UNL     1       5.191   0.612  -0.022  1.00  0.00    -0.395 OA
ATOM     25  H   UNL     1       4.575   1.335  -0.266  1.00  0.00     0.210 HD
ENDBRANCH  23  24
ENDBRANCH  22  23
ENDBRANCH   1  22
TORSDOF 6
