MODEL        8USER    Run = 8USERUSER    Estimated Free Energy of Binding    =  -9.60 kcal/mol  [=(1)+(2)+(3)-(4)]USERUSER    (1) Final Intermolecular Energy     = -11.10 kcal/molUSER        vdW + Hbond + desolv Energy     = -10.77 kcal/molUSER        Electrostatic Energy            =  -0.33 kcal/molUSER        Moving Ligand-Fixed Receptor    = -11.10 kcal/molUSER        Moving Ligand-Moving Receptor   =  +0.00 kcal/molUSER    (2) Final Total Internal Energy     =  -0.47 kcal/molUSER    (3) Torsional Free Energy           =  +1.49 kcal/molUSER    (4) Unbound System's Energy         =  -0.47 kcal/molUSERUSERREMARK SMILES COc1cc(F)ccc1C(=O)c1ccc2c(c1)nc(-c1ccnc(N)c1)n2CREMARK SMILES IDX 12 1 13 2 14 3 15 4 16 5 17 6 18 7 19 8 27 9 28 10 10 11REMARK SMILES IDX 11 12 9 13 3 14 4 15 5 16 8 17 7 18 6 19 2 20 1 21 20 22REMARK SMILES IDX 21 23 26 24 22 25 24 26 23 27 25 28REMARK H PARENT 25 29 25 30USER                              x       y       z     vdW  Elec       q    TypeUSER                           _______ _______ _______ _____ _____    ______ ____ROOTATOM      1  C   UNL     1      34.642  43.431  17.853 -0.31 -0.01    +0.025 A  ATOM      2  C   UNL     1      34.794  43.073  16.506 -0.41 -0.01    +0.014 A  ATOM      3  C   UNL     1      35.804  43.637  15.716 -0.39 -0.01    +0.029 A  ATOM      4  C   UNL     1      36.655  44.562  16.332 -0.30 -0.03    +0.068 A  ATOM      5  C   UNL     1      36.530  44.920  17.669 -0.27 -0.03    +0.090 A  ATOM      6  C   UNL     1      35.521  44.346  18.452 -0.31 -0.01    +0.042 A  ATOM      7  N   UNL     1      37.484  45.839  18.019 -0.21 +0.06    -0.228 NA ATOM      8  C   UNL     1      38.181  46.091  16.925 -0.30 -0.05    +0.141 A  ATOM      9  N   UNL     1      37.737  45.291  15.888 -0.13 +0.11    -0.327 N  ATOM     10  C   UNL     1      38.332  45.174  14.578 -0.20 -0.04    +0.152 C  ENDROOTBRANCH   1  11ATOM     11  C   UNL     1      33.581  42.831  18.704 -0.30 -0.03    +0.196 C  ATOM     12  O   UNL     1      33.673  42.888  19.928 -0.74 -0.03    -0.288 OA BRANCH  11  13ATOM     13  C   UNL     1      32.408  42.140  18.123 -0.31 -0.01    +0.065 A  ATOM     14  C   UNL     1      31.885  40.955  18.658 -0.29 -0.01    +0.132 A  ATOM     15  C   UNL     1      30.758  40.362  18.085 -0.28 -0.00    +0.086 A  ATOM     16  C   UNL     1      30.195  40.930  16.948 -0.27 -0.02    +0.126 A  ATOM     17  C   UNL     1      31.842  42.685  16.961 -0.30 -0.01    +0.019 A  ATOM     18  C   UNL     1      30.729  42.079  16.376 -0.30 -0.02    +0.040 A  ATOM     19  F   UNL     1      29.121  40.355  16.390 -0.11 -0.00    -0.207 F  BRANCH  14  20ATOM     20  O   UNL     1      32.417  40.364  19.773 -0.63 -0.16    -0.496 OA ATOM     21  C   UNL     1      31.619  39.246  20.172 -0.26 +0.07    +0.278 C  ENDBRANCH  14  20ENDBRANCH  11  13ENDBRANCH   1  11BRANCH   8  22ATOM     22  C   UNL     1      39.287  47.048  16.866 -0.44 -0.01    +0.023 A  ATOM     23  C   UNL     1      39.271  48.147  16.012 -0.47 -0.01    +0.032 A  ATOM     24  C   UNL     1      40.376  46.884  17.726 -0.45 -0.01    +0.058 A  ATOM     25  C   UNL     1      40.358  49.001  16.033 -0.47 -0.03    +0.114 A  ATOM     26  C   UNL     1      41.427  47.790  17.677 -0.41 -0.01    +0.124 A  ATOM     27  N   UNL     1      41.430  48.835  16.835 -0.91 -0.00    -0.240 NA BRANCH  26  28ATOM     28  N   UNL     1      42.521  47.643  18.536 -0.31 -0.01    -0.384 N  ATOM     29  H   UNL     1      42.756  48.541  18.946 -0.21 -0.01    +0.158 HD ATOM     30  H   UNL     1      43.324  47.326  17.999 -0.48 -0.01    +0.158 HD ENDBRANCH  26  28ENDBRANCH   8  22TORSDOF 5TERENDMDL