REMARK SMILES COc1cc(F)ccc1C(=O)c1ccc2c(c1)nc(-c1ccnc(N)c1)n2C
REMARK SMILES IDX 12 1 13 2 14 3 15 4 16 5 17 6 18 7 19 8 27 9 28 10 10 11
REMARK SMILES IDX 11 12 9 13 3 14 4 15 5 16 8 17 7 18 6 19 2 20 1 21 20 22
REMARK SMILES IDX 21 23 26 24 22 25 24 26 23 27 25 28
REMARK H PARENT 25 29 25 30
ROOT
ATOM      1  C   UNL     1      -1.512  -0.796  -0.727  1.00  0.00     0.025 A 
ATOM      2  C   UNL     1      -1.332   0.358  -1.502  1.00  0.00     0.014 A 
ATOM      3  C   UNL     1      -0.115   1.052  -1.499  1.00  0.00     0.029 A 
ATOM      4  C   UNL     1       0.910   0.538  -0.696  1.00  0.00     0.068 A 
ATOM      5  C   UNL     1       0.757  -0.612   0.070  1.00  0.00     0.090 A 
ATOM      6  C   UNL     1      -0.462  -1.302   0.054  1.00  0.00     0.042 A 
ATOM      7  N   UNL     1       1.907  -0.896   0.758  1.00  0.00    -0.228 NA
ATOM      8  C   UNL     1       2.764   0.067   0.470  1.00  0.00     0.141 A 
ATOM      9  N   UNL     1       2.209   0.932  -0.456  1.00  0.00    -0.327 N 
ATOM     10  C   UNL     1       2.878   2.025  -1.120  1.00  0.00     0.152 C 
ENDROOT
BRANCH   1  11
ATOM     11  C   UNL     1      -2.795  -1.546  -0.732  1.00  0.00     0.196 C 
ATOM     12  O   UNL     1      -2.795  -2.759  -0.535  1.00  0.00    -0.288 OA
BRANCH  11  13
ATOM     13  C   UNL     1      -4.092  -0.879  -0.987  1.00  0.00     0.065 A 
ATOM     14  C   UNL     1      -4.479   0.299  -0.334  1.00  0.00     0.132 A 
ATOM     15  C   UNL     1      -5.702   0.900  -0.635  1.00  0.00     0.086 A 
ATOM     16  C   UNL     1      -6.554   0.289  -1.548  1.00  0.00     0.126 A 
ATOM     17  C   UNL     1      -4.974  -1.495  -1.887  1.00  0.00     0.019 A 
ATOM     18  C   UNL     1      -6.207  -0.905  -2.170  1.00  0.00     0.040 A 
ATOM     19  F   UNL     1      -7.734   0.859  -1.828  1.00  0.00    -0.207 F 
BRANCH  14  20
ATOM     20  O   UNL     1      -3.668   0.926   0.575  1.00  0.00    -0.496 OA
ATOM     21  C   UNL     1      -3.906   0.414   1.889  1.00  0.00     0.278 C 
ENDBRANCH  14  20
ENDBRANCH  11  13
ENDBRANCH   1  11
BRANCH   8  22
ATOM     22  C   UNL     1       4.115   0.150   1.028  1.00  0.00     0.023 A 
ATOM     23  C   UNL     1       4.630   1.334   1.549  1.00  0.00     0.032 A 
ATOM     24  C   UNL     1       4.900  -1.004   1.086  1.00  0.00     0.058 A 
ATOM     25  C   UNL     1       5.913   1.313   2.063  1.00  0.00     0.114 A 
ATOM     26  C   UNL     1       6.181  -0.932   1.617  1.00  0.00     0.124 A 
ATOM     27  N   UNL     1       6.693   0.213   2.094  1.00  0.00    -0.240 NA
BRANCH  26  28
ATOM     28  N   UNL     1       6.977  -2.080   1.688  1.00  0.00    -0.384 N 
ATOM     29  H   UNL     1       7.081  -2.482   0.762  1.00  0.00     0.158 HD
ATOM     30  H   UNL     1       6.515  -2.768   2.276  1.00  0.00     0.158 HD
ENDBRANCH  26  28
ENDBRANCH   8  22
TORSDOF 5
