MODEL        10USER    Run = 10USERUSER    Estimated Free Energy of Binding    = -12.34 kcal/mol  [=(1)+(2)+(3)-(4)]USERUSER    (1) Final Intermolecular Energy     = -14.43 kcal/molUSER        vdW + Hbond + desolv Energy     = -14.27 kcal/molUSER        Electrostatic Energy            =  -0.16 kcal/molUSER        Moving Ligand-Fixed Receptor    = -14.43 kcal/molUSER        Moving Ligand-Moving Receptor   =  +0.00 kcal/molUSER    (2) Final Total Internal Energy     =  -1.29 kcal/molUSER    (3) Torsional Free Energy           =  +2.09 kcal/molUSER    (4) Unbound System's Energy         =  -1.29 kcal/molUSERUSERREMARK SMILES Oc1cc(-c2nc3ccccc3nc2-c2ccc(CN3CCC(n4c(O)nc5ccccc54)CC3)cc2)ccn1REMARK SMILES IDX 15 1 16 2 17 3 18 4 36 5 37 6 14 7 5 8 6 9 7 10 13 11 8 12REMARK SMILES IDX 12 13 9 14 11 15 10 16 4 17 2 18 3 19 40 20 39 21 38 22 1 23REMARK SMILES IDX 19 25 20 26 21 27 35 28 22 29 34 30 23 31 24 32 25 33 33 34REMARK SMILES IDX 27 35 32 36 28 37 31 38 29 39 30 40 26 41REMARK H PARENT 1 24 26 42USER                              x       y       z     vdW  Elec       q    TypeUSER                           _______ _______ _______ _____ _____    ______ ____ROOTATOM      1  C   UNL     1      38.228  44.104  23.114 -0.32 +0.00    +0.002 A  ATOM      2  C   UNL     1      37.596  44.027  21.862 -0.37 +0.00    +0.011 A  ATOM      3  C   UNL     1      38.322  44.167  20.672 -0.34 -0.00    +0.006 A  ATOM      4  C   UNL     1      39.711  44.345  20.696 -0.29 -0.00    -0.034 A  ATOM      5  C   UNL     1      40.356  44.394  21.936 -0.26 +0.00    +0.006 A  ATOM      6  C   UNL     1      39.624  44.278  23.122 -0.22 +0.00    +0.011 A  ENDROOTBRANCH   1   7ATOM      7  C   UNL     1      37.494  43.986  24.393 -0.26 +0.01    +0.097 A  ATOM      8  C   UNL     1      37.424  44.965  25.397 -0.27 +0.00    +0.098 A  ATOM      9  N   UNL     1      36.692  44.761  26.527 -0.22 +0.04    -0.244 NA ATOM     10  C   UNL     1      36.073  43.576  26.667 -0.37 -0.01    +0.089 A  ATOM     11  N   UNL     1      36.855  42.790  24.541 -0.24 -0.01    -0.244 NA ATOM     12  C   UNL     1      35.342  43.311  27.820 -0.51 -0.01    +0.030 A  ATOM     13  C   UNL     1      36.157  42.585  25.668 -0.32 -0.01    +0.089 A  ATOM     14  C   UNL     1      34.692  42.090  28.004 -0.36 -0.00    +0.002 A  ATOM     15  C   UNL     1      35.504  41.373  25.857 -0.28 -0.01    +0.030 A  ATOM     16  C   UNL     1      34.772  41.117  27.016 -0.63 -0.00    +0.002 A  BRANCH   8  17ATOM     17  C   UNL     1      38.120  46.264  25.388 -0.29 +0.00    +0.009 A  ATOM     18  C   UNL     1      39.200  48.060  26.555 -0.16 +0.01    +0.211 A  ATOM     19  C   UNL     1      38.547  46.842  26.593 -0.22 -0.00    +0.078 A  ATOM     20  N   UNL     1      39.459  48.740  25.428 -0.18 -0.03    -0.222 NA ATOM     21  C   UNL     1      39.068  48.166  24.273 -0.33 +0.02    +0.116 A  ATOM     22  C   UNL     1      38.412  46.948  24.201 -0.30 +0.00    +0.031 A  BRANCH  18  23ATOM     23  O   UNL     1      39.623  48.667  27.701 -0.11 -0.02    -0.493 OA ATOM     24  H   UNL     1      39.196  48.223  28.447 -0.43 -0.07    +0.295 HD ENDBRANCH  18  23ENDBRANCH   8  17ENDBRANCH   1   7BRANCH   4  25ATOM     25  C   UNL     1      40.486  44.490  19.404 -0.37 +0.00    +0.120 C  BRANCH  25  26ATOM     26  N   UNL     1      40.394  45.842  18.833 -0.24 +0.01    -0.299 NA ATOM     27  C   UNL     1      41.270  46.023  17.667 -0.40 -0.00    +0.087 C  ATOM     28  C   UNL     1      39.012  46.279  18.627 -0.21 -0.01    +0.087 C  ATOM     29  C   UNL     1      40.657  46.878  16.558 -0.50 -0.00    +0.041 C  ATOM     30  C   UNL     1      38.420  45.867  17.283 -0.43 -0.01    +0.041 C  ATOM     31  C   UNL     1      39.335  46.240  16.106 -0.42 -0.02    +0.095 C  BRANCH  31  32ATOM     32  N   UNL     1      38.647  46.993  15.065 -0.21 +0.10    -0.291 N  ATOM     33  C   UNL     1      38.645  48.365  14.926 -0.28 -0.15    +0.295 A  ATOM     34  C   UNL     1      37.867  46.481  14.047 -0.39 -0.03    +0.072 A  ATOM     35  N   UNL     1      37.861  48.763  13.960 -0.47 +0.10    -0.195 NA ATOM     36  C   UNL     1      37.530  45.185  13.632 -0.39 -0.01    +0.029 A  ATOM     37  C   UNL     1      37.382  47.615  13.392 -0.49 -0.03    +0.092 A  ATOM     38  C   UNL     1      36.671  45.059  12.533 -0.50 -0.00    +0.002 A  ATOM     39  C   UNL     1      36.523  47.467  12.292 -0.66 -0.01    +0.031 A  ATOM     40  C   UNL     1      36.173  46.181  11.871 -0.61 -0.00    +0.002 A  BRANCH  33  41ATOM     41  O   UNL     1      39.333  49.228  15.656 -0.20 +0.27    -0.480 OA ATOM     42  H   UNL     1      39.073  50.126  15.411 -0.24 -0.27    +0.296 HD ENDBRANCH  33  41ENDBRANCH  31  32ENDBRANCH  25  26ENDBRANCH   4  25TORSDOF 7TERENDMDL