
     RDKit          2D

 39 45  0  0  0  0  0  0  0  0999 V2000
   -5.3729   10.2453    0.0000 O   0  0  0  0  0  0  0  0  0  0  0  0
   -7.7319    9.7834    0.0000 N   0  0  0  0  0  0  0  0  0  0  0  0
   -6.9518   12.0380    0.0000 N   0  0  0  0  0  0  0  0  0  0  0  0
   -1.2964    1.4973    0.0000 N   0  0  0  0  0  0  0  0  0  0  0  0
   -1.2964   -1.4973    0.0000 N   0  0  0  0  0  0  0  0  0  0  0  0
   -7.7775    5.2828    0.0000 N   0  0  0  0  0  0  0  0  0  0  0  0
   -8.9299   10.6541    0.0000 C   0  0  0  0  0  0  0  0  0  0  0  0
   -8.4449   12.0682    0.0000 C   0  0  0  0  0  0  0  0  0  0  0  0
   -6.5085   10.6331    0.0000 C   0  0  0  0  0  0  0  0  0  0  0  0
   -7.7471    8.2828    0.0000 C   0  0  0  0  0  0  0  0  0  0  0  0
   -2.6111    0.7486    0.0000 C   0  0  0  0  0  0  0  0  0  0  0  0
   -2.6111   -0.7486    0.0000 C   0  0  0  0  0  0  0  0  0  0  0  0
   -3.9086    1.5029    0.0000 C   0  0  0  0  0  0  0  0  0  0  0  0
    0.0000    0.7486    0.0000 C   0  0  0  0  0  0  0  0  0  0  0  0
    0.0000   -0.7486    0.0000 C   0  0  0  0  0  0  0  0  0  0  0  0
   -3.9086   -1.5029    0.0000 C   0  0  0  0  0  0  0  0  0  0  0  0
  -10.4028   10.3497    0.0000 C   0  0  0  0  0  0  0  0  0  0  0  0
   -9.4209   13.2125    0.0000 C   0  0  0  0  0  0  0  0  0  0  0  0
   -9.0537    7.5460    0.0000 C   0  0  0  0  0  0  0  0  0  0  0  0
   -6.4557    7.5196    0.0000 C   0  0  0  0  0  0  0  0  0  0  0  0
   -5.2125    0.7617    0.0000 C   0  0  0  0  0  0  0  0  0  0  0  0
   -3.8985    3.0029    0.0000 C   0  0  0  0  0  0  0  0  0  0  0  0
   -6.4965    3.0203    0.0000 C   0  0  0  0  0  0  0  0  0  0  0  0
  -11.3960   11.4999    0.0000 C   0  0  0  0  0  0  0  0  0  0  0  0
   -9.0689    6.0460    0.0000 C   0  0  0  0  0  0  0  0  0  0  0  0
   -6.4709    6.0197    0.0000 C   0  0  0  0  0  0  0  0  0  0  0  0
    1.2964    1.4973    0.0000 C   0  0  0  0  0  0  0  0  0  0  0  0
    1.2964   -1.4973    0.0000 C   0  0  0  0  0  0  0  0  0  0  0  0
  -10.9110   12.9141    0.0000 C   0  0  0  0  0  0  0  0  0  0  0  0
   -7.7897    3.7820    0.0000 C   0  0  0  0  0  0  0  0  0  0  0  0
   -6.5065    1.5203    0.0000 C   0  0  0  0  0  0  0  0  0  0  0  0
   -5.1925    3.7616    0.0000 C   0  0  0  0  0  0  0  0  0  0  0  0
   -5.2125   -0.7617    0.0000 C   0  0  0  0  0  0  0  0  0  0  0  0
   -3.8985   -3.0029    0.0000 C   0  0  0  0  0  0  0  0  0  0  0  0
    2.5929    0.7486    0.0000 C   0  0  0  0  0  0  0  0  0  0  0  0
    2.5929   -0.7486    0.0000 C   0  0  0  0  0  0  0  0  0  0  0  0
   -6.5065   -1.5203    0.0000 C   0  0  0  0  0  0  0  0  0  0  0  0
   -5.1925   -3.7616    0.0000 C   0  0  0  0  0  0  0  0  0  0  0  0
   -6.4965   -3.0203    0.0000 C   0  0  0  0  0  0  0  0  0  0  0  0
  1  9  1  0
  2  7  1  0
  2  9  1  0
  2 10  1  0
  3  8  1  0
  3  9  2  0
  4 11  2  0
  4 14  1  0
  5 12  2  0
  5 15  1  0
  6 25  1  0
  6 26  1  0
  6 30  1  0
  7  8  1  0
  7 17  2  0
  8 18  2  0
 10 19  1  0
 10 20  1  0
 11 12  1  0
 11 13  1  0
 12 16  1  0
 13 21  2  0
 13 22  1  0
 14 15  1  0
 14 27  2  0
 15 28  2  0
 16 33  2  0
 16 34  1  0
 17 24  1  0
 18 29  1  0
 19 25  1  0
 20 26  1  0
 21 31  1  0
 22 32  2  0
 23 30  1  0
 23 31  2  0
 23 32  1  0
 24 29  2  0
 27 35  1  0
 28 36  1  0
 33 37  1  0
 34 38  2  0
 35 36  2  0
 37 39  2  0
 38 39  1  0
M  END
> <chembl_id>
CHEMBL260397

> <chembl_pref_name>
None