MODEL        2USER    Run = 2USERUSER    Estimated Free Energy of Binding    = -10.21 kcal/mol  [=(1)+(2)+(3)-(4)]USERUSER    (1) Final Intermolecular Energy     = -12.29 kcal/molUSER        vdW + Hbond + desolv Energy     = -12.19 kcal/molUSER        Electrostatic Energy            =  -0.10 kcal/molUSER        Moving Ligand-Fixed Receptor    = -12.29 kcal/molUSER        Moving Ligand-Moving Receptor   =  +0.00 kcal/molUSER    (2) Final Total Internal Energy     =  -1.38 kcal/molUSER    (3) Torsional Free Energy           =  +2.09 kcal/molUSER    (4) Unbound System's Energy         =  -1.38 kcal/molUSERUSERREMARK SMILES N#Cc1ccc(C(=O)c2ccc(CN3CCN(c4nc5cc(F)ccc5[nH]4)CC3)cc2)c(O)c1REMARK SMILES IDX 9 1 10 2 11 3 12 4 30 5 31 6 7 7 8 8 6 9 3 10 4 11 34 12REMARK SMILES IDX 5 13 32 14 2 15 1 16 33 17 13 19 14 20 15 21 29 22 16 23REMARK SMILES IDX 28 24 17 25 18 26 19 27 27 28 20 29 26 30 21 31 25 32 22 33REMARK SMILES IDX 24 34 23 36REMARK H PARENT 33 18 27 35USER                              x       y       z     vdW  Elec       q    TypeUSER                           _______ _______ _______ _____ _____    ______ ____ROOTATOM      1  C   UNL     1      40.616  45.757  19.527 -0.41 +0.00    +0.023 A  ATOM      2  C   UNL     1      39.239  45.698  19.752 -0.33 -0.00    +0.012 A  ATOM      3  C   UNL     1      38.750  45.057  20.894 -0.35 +0.00    +0.006 A  ATOM      4  C   UNL     1      39.626  44.482  21.828 -0.27 -0.00    -0.034 A  ATOM      5  C   UNL     1      41.007  44.560  21.594 -0.29 +0.00    +0.006 A  ATOM      6  C   UNL     1      41.501  45.202  20.456 -0.35 +0.00    +0.012 A  ENDROOTBRANCH   1   7ATOM      7  C   UNL     1      41.170  46.443  18.339 -0.43 -0.01    +0.196 C  ATOM      8  O   UNL     1      42.353  46.780  18.332 -0.36 -0.00    -0.288 OA BRANCH   7   9ATOM      9  C   UNL     1      40.332  46.768  17.156 -0.45 -0.01    +0.064 A  ATOM     10  C   UNL     1      38.766  47.444  14.923 -0.44 -0.02    +0.056 A  ATOM     11  C   UNL     1      38.465  46.302  15.676 -0.39 -0.01    +0.020 A  ATOM     12  C   UNL     1      39.863  48.235  15.273 -0.50 -0.02    +0.066 A  ATOM     13  C   UNL     1      39.247  45.961  16.786 -0.40 -0.00    +0.017 A  ATOM     14  C   UNL     1      40.646  47.889  16.373 -0.45 -0.02    +0.128 A  BRANCH  10  15ATOM     15  C   UNL     1      37.955  47.793  13.794 -0.52 -0.04    +0.099 C  ATOM     16  N   UNL     1      37.283  48.071  12.889 -0.95 +0.04    -0.192 NA ENDBRANCH  10  15BRANCH  14  17ATOM     17  O   UNL     1      41.720  48.699  16.636 -0.67 -0.05    -0.507 OA ATOM     18  H   UNL     1      42.476  48.125  16.900 -0.30 +0.02    +0.293 HD ENDBRANCH  14  17ENDBRANCH   7   9ENDBRANCH   1   7BRANCH   4  19ATOM     19  C   UNL     1      39.076  43.799  23.065 -0.24 +0.01    +0.120 C  BRANCH  19  20ATOM     20  N   UNL     1      38.724  44.664  24.191 -0.09 -0.02    -0.296 NA ATOM     21  C   UNL     1      37.285  44.886  24.387 -0.26 +0.02    +0.106 C  ATOM     22  C   UNL     1      39.515  45.901  24.309 -0.20 +0.01    +0.106 C  ATOM     23  C   UNL     1      36.979  45.868  25.544 -0.23 +0.00    +0.135 C  ATOM     24  C   UNL     1      38.699  47.215  24.327 -0.33 +0.02    +0.135 C  ATOM     25  N   UNL     1      37.645  47.158  25.348 -0.17 -0.03    -0.340 N  BRANCH  25  26ATOM     26  C   UNL     1      37.182  48.326  25.853 -0.30 +0.00    +0.203 A  ATOM     27  N   UNL     1      37.107  48.681  27.117 -0.20 +0.01    -0.213 NA ATOM     28  N   UNL     1      36.673  49.315  25.048 -0.28 +0.01    -0.324 N  ATOM     29  C   UNL     1      36.552  49.937  27.129 -0.26 +0.01    +0.093 A  ATOM     30  C   UNL     1      36.267  50.362  25.837 -0.39 +0.00    +0.067 A  ATOM     31  C   UNL     1      36.257  50.774  28.212 -0.18 +0.01    +0.069 A  ATOM     32  C   UNL     1      35.692  51.600  25.542 -0.39 +0.00    +0.031 A  ATOM     33  C   UNL     1      35.683  52.014  27.936 -0.15 +0.03    +0.125 A  ATOM     34  C   UNL     1      35.402  52.426  26.634 -0.27 +0.01    +0.041 A  ATOM     35  H   UNL     1      36.587  49.260  24.047 -0.39 -0.01    +0.170 HD ATOM     36  F   UNL     1      35.392  52.840  28.953 -0.02 -0.05    -0.207 F  ENDBRANCH  25  26ENDBRANCH  19  20ENDBRANCH   4  19TORSDOF 7TERENDMDL