REMARK SMILES N#Cc1ccc(C(=O)c2ccc(CN3CCN(c4nc5cc(F)ccc5[nH]4)CC3)cc2)c(O)c1
REMARK SMILES IDX 9 1 10 2 11 3 12 4 30 5 31 6 7 7 8 8 6 9 3 10 4 11 34 12
REMARK SMILES IDX 5 13 32 14 2 15 1 16 33 17 13 19 14 20 15 21 29 22 16 23
REMARK SMILES IDX 28 24 17 25 18 26 19 27 27 28 20 29 26 30 21 31 25 32 22 33
REMARK SMILES IDX 24 34 23 36
REMARK H PARENT 33 18 27 35
ROOT
ATOM      1  C   UNL     1       3.117   0.049   0.657  1.00  0.00     0.023 A 
ATOM      2  C   UNL     1       2.905  -0.008  -0.722  1.00  0.00     0.012 A 
ATOM      3  C   UNL     1       2.029  -0.960  -1.250  1.00  0.00     0.006 A 
ATOM      4  C   UNL     1       1.345  -1.854  -0.410  1.00  0.00    -0.034 A 
ATOM      5  C   UNL     1       1.560  -1.776   0.974  1.00  0.00     0.006 A 
ATOM      6  C   UNL     1       2.432  -0.824   1.507  1.00  0.00     0.012 A 
ENDROOT
BRANCH   1   7
ATOM      7  C   UNL     1       4.024   1.056   1.252  1.00  0.00     0.196 C 
ATOM      8  O   UNL     1       3.669   1.669   2.258  1.00  0.00    -0.288 OA
BRANCH   7   9
ATOM      9  C   UNL     1       5.346   1.376   0.654  1.00  0.00     0.064 A 
ATOM     10  C   UNL     1       7.830   2.043  -0.476  1.00  0.00     0.056 A 
ATOM     11  C   UNL     1       7.307   0.753  -0.634  1.00  0.00     0.020 A 
ATOM     12  C   UNL     1       7.122   2.992   0.266  1.00  0.00     0.066 A 
ATOM     13  C   UNL     1       6.071   0.418  -0.068  1.00  0.00     0.017 A 
ATOM     14  C   UNL     1       5.896   2.653   0.837  1.00  0.00     0.128 A 
BRANCH  10  15
ATOM     15  C   UNL     1       9.091   2.383  -1.067  1.00  0.00     0.099 C 
ATOM     16  N   UNL     1      10.111   2.643  -1.557  1.00  0.00    -0.192 NA
ENDBRANCH  10  15
BRANCH  14  17
ATOM     17  O   UNL     1       5.276   3.629   1.572  1.00  0.00    -0.507 OA
ATOM     18  H   UNL     1       4.537   3.210   2.071  1.00  0.00     0.293 HD
ENDBRANCH  14  17
ENDBRANCH   7   9
ENDBRANCH   1   7
BRANCH   4  19
ATOM     19  C   UNL     1       0.392  -2.874  -1.002  1.00  0.00     0.120 C 
BRANCH  19  20
ATOM     20  N   UNL     1      -1.023  -2.505  -1.041  1.00  0.00    -0.296 NA
ATOM     21  C   UNL     1      -1.330  -1.272  -1.778  1.00  0.00     0.106 C 
ATOM     22  C   UNL     1      -1.735  -2.594   0.245  1.00  0.00     0.106 C 
ATOM     23  C   UNL     1      -2.830  -0.893  -1.720  1.00  0.00     0.135 C 
ATOM     24  C   UNL     1      -2.429  -1.294   0.715  1.00  0.00     0.135 C 
ATOM     25  N   UNL     1      -3.301  -0.760  -0.340  1.00  0.00    -0.340 N 
BRANCH  25  26
ATOM     26  C   UNL     1      -4.335   0.033   0.028  1.00  0.00     0.203 A 
ATOM     27  N   UNL     1      -4.657   0.421   1.242  1.00  0.00    -0.213 NA
ATOM     28  N   UNL     1      -5.240   0.517  -0.884  1.00  0.00    -0.324 N 
ATOM     29  C   UNL     1      -5.787   1.189   1.111  1.00  0.00     0.093 A 
ATOM     30  C   UNL     1      -6.179   1.266  -0.220  1.00  0.00     0.067 A 
ATOM     31  C   UNL     1      -6.538   1.850   2.091  1.00  0.00     0.069 A 
ATOM     32  C   UNL     1      -7.300   1.978  -0.654  1.00  0.00     0.031 A 
ATOM     33  C   UNL     1      -7.660   2.566   1.676  1.00  0.00     0.125 A 
ATOM     34  C   UNL     1      -8.041   2.633   0.336  1.00  0.00     0.041 A 
ATOM     35  H   UNL     1      -5.228   0.324  -1.871  1.00  0.00     0.170 HD
ATOM     36  F   UNL     1      -8.398   3.212   2.592  1.00  0.00    -0.207 F 
ENDBRANCH  25  26
ENDBRANCH  19  20
ENDBRANCH   4  19
TORSDOF 7
