REMARK SMILES Oc1cc(CN2CCC(n3c(O)nc4ccccc43)CC2)ccc1-c1nc(N2CCOCC2)c2cc(F)ccc2n1
REMARK SMILES IDX 6 1 7 2 8 3 9 4 20 5 21 6 5 7 4 8 2 9 3 10 24 11 23 12 22 13
REMARK SMILES IDX 1 14 25 16 26 17 41 18 27 19 40 20 34 21 39 22 35 23 38 24
REMARK SMILES IDX 36 25 37 26 28 27 29 28 33 29 30 30 32 31 31 32 10 33 11 34
REMARK SMILES IDX 19 35 13 36 18 37 14 38 17 39 15 40 16 41 12 42
REMARK H PARENT 1 15 12 43
ROOT
ATOM      1  N   UNL     1       2.785   0.426  -1.473  1.00  0.00    -0.299 NA
ATOM      2  C   UNL     1       4.037   0.458  -2.237  1.00  0.00     0.087 C 
ATOM      3  C   UNL     1       5.227   0.810  -1.346  1.00  0.00     0.041 C 
ATOM      4  C   UNL     1       5.387  -0.184  -0.183  1.00  0.00     0.095 C 
ATOM      5  C   UNL     1       4.164  -1.095  -0.017  1.00  0.00     0.041 C 
ATOM      6  C   UNL     1       2.871  -0.301  -0.199  1.00  0.00     0.087 C 
ENDROOT
BRANCH   1   7
ATOM      7  C   UNL     1       1.682  -0.047  -2.324  1.00  0.00     0.120 C 
BRANCH   7   8
ATOM      8  C   UNL     1       0.311   0.302  -1.782  1.00  0.00    -0.030 A 
ATOM      9  C   UNL     1      -1.324   1.962  -1.085  1.00  0.00     0.126 A 
ATOM     10  C   UNL     1      -0.044   1.635  -1.541  1.00  0.00     0.052 A 
ATOM     11  C   UNL     1      -2.304   0.977  -0.851  1.00  0.00     0.061 A 
ATOM     12  C   UNL     1      -1.921  -0.359  -1.092  1.00  0.00     0.016 A 
ATOM     13  C   UNL     1      -0.640  -0.693  -1.552  1.00  0.00     0.006 A 
BRANCH   9  14
ATOM     14  O   UNL     1      -1.550   3.301  -0.890  1.00  0.00    -0.507 OA
ATOM     15  H   UNL     1      -2.483   3.400  -0.600  1.00  0.00     0.293 HD
ENDBRANCH   9  14
BRANCH  11  16
ATOM     16  C   UNL     1      -3.673   1.290  -0.386  1.00  0.00     0.165 A 
ATOM     17  N   UNL     1      -4.519   0.266  -0.191  1.00  0.00    -0.210 NA
ATOM     18  N   UNL     1      -3.991   2.585  -0.199  1.00  0.00    -0.228 NA
ATOM     19  C   UNL     1      -5.771   0.540   0.212  1.00  0.00     0.140 A 
ATOM     20  C   UNL     1      -5.244   2.861   0.176  1.00  0.00     0.077 A 
ATOM     21  C   UNL     1      -6.209   1.866   0.394  1.00  0.00     0.046 A 
ATOM     22  C   UNL     1      -5.605   4.194   0.345  1.00  0.00     0.032 A 
ATOM     23  C   UNL     1      -7.529   2.246   0.745  1.00  0.00     0.053 A 
ATOM     24  C   UNL     1      -6.901   4.566   0.709  1.00  0.00     0.041 A 
ATOM     25  C   UNL     1      -7.857   3.584   0.903  1.00  0.00     0.124 A 
ATOM     26  F   UNL     1      -9.105   3.930   1.243  1.00  0.00    -0.207 F 
BRANCH  19  27
ATOM     27  N   UNL     1      -6.646  -0.541   0.446  1.00  0.00    -0.351 N 
ATOM     28  C   UNL     1      -6.924  -0.773   1.885  1.00  0.00     0.146 C 
ATOM     29  C   UNL     1      -6.286  -1.777  -0.288  1.00  0.00     0.146 C 
ATOM     30  C   UNL     1      -6.366  -2.126   2.357  1.00  0.00     0.181 C 
ATOM     31  C   UNL     1      -7.128  -2.948   0.237  1.00  0.00     0.181 C 
ATOM     32  O   UNL     1      -6.887  -3.246   1.623  1.00  0.00    -0.378 OA
ENDBRANCH  19  27
ENDBRANCH  11  16
ENDBRANCH   7   8
ENDBRANCH   1   7
BRANCH   4  33
ATOM     33  N   UNL     1       6.625  -0.956  -0.250  1.00  0.00    -0.291 N 
ATOM     34  C   UNL     1       7.035  -1.754  -1.281  1.00  0.00     0.295 A 
ATOM     35  C   UNL     1       7.604  -1.024   0.721  1.00  0.00     0.072 A 
ATOM     36  N   UNL     1       8.181  -2.339  -1.063  1.00  0.00    -0.195 NA
ATOM     37  C   UNL     1       7.756  -0.435   1.984  1.00  0.00     0.029 A 
ATOM     38  C   UNL     1       8.555  -1.897   0.183  1.00  0.00     0.092 A 
ATOM     39  C   UNL     1       8.909  -0.762   2.708  1.00  0.00     0.002 A 
ATOM     40  C   UNL     1       9.705  -2.208   0.924  1.00  0.00     0.031 A 
ATOM     41  C   UNL     1       9.867  -1.637   2.190  1.00  0.00     0.002 A 
BRANCH  34  42
ATOM     42  O   UNL     1       6.354  -1.957  -2.392  1.00  0.00    -0.480 OA
ATOM     43  H   UNL     1       6.947  -2.567  -2.867  1.00  0.00     0.296 HD
ENDBRANCH  34  42
ENDBRANCH   4  33
TORSDOF 7
