MODEL        1USER    Run = 1USERUSER    Estimated Free Energy of Binding    = -10.55 kcal/mol  [=(1)+(2)+(3)-(4)]USERUSER    (1) Final Intermolecular Energy     = -12.64 kcal/molUSER        vdW + Hbond + desolv Energy     = -12.58 kcal/molUSER        Electrostatic Energy            =  -0.06 kcal/molUSER        Moving Ligand-Fixed Receptor    = -12.64 kcal/molUSER        Moving Ligand-Moving Receptor   =  +0.00 kcal/molUSER    (2) Final Total Internal Energy     =  -1.94 kcal/molUSER    (3) Torsional Free Energy           =  +2.09 kcal/molUSER    (4) Unbound System's Energy         =  -1.94 kcal/molUSERUSERREMARK SMILES Oc1cc(CN2CCC(n3c(O)nc4ccccc43)CC2)ccc1-c1nc(N2CCOCC2)c2cc(F)ccc2n1REMARK SMILES IDX 6 1 7 2 8 3 9 4 20 5 21 6 5 7 4 8 2 9 3 10 24 11 23 12 22 13REMARK SMILES IDX 1 14 25 16 26 17 41 18 27 19 40 20 34 21 39 22 35 23 38 24REMARK SMILES IDX 36 25 37 26 28 27 29 28 33 29 30 30 32 31 31 32 10 33 11 34REMARK SMILES IDX 19 35 13 36 18 37 14 38 17 39 15 40 16 41 12 42REMARK H PARENT 1 15 12 43USER                              x       y       z     vdW  Elec       q    TypeUSER                           _______ _______ _______ _____ _____    ______ ____ROOTATOM      1  N   UNL     1      43.220  46.905  23.224 -0.08 -0.06    -0.299 NA ATOM      2  C   UNL     1      42.353  45.902  23.851 -0.12 +0.01    +0.087 C  ATOM      3  C   UNL     1      41.764  46.414  25.164 -0.11 +0.00    +0.041 C  ATOM      4  C   UNL     1      40.954  47.707  24.964 -0.23 +0.01    +0.095 C  ATOM      5  C   UNL     1      41.177  48.331  23.581 -0.29 +0.01    +0.041 C  ATOM      6  C   UNL     1      42.652  48.260  23.188 -0.37 +0.02    +0.087 C  ENDROOTBRANCH   1   7ATOM      7  C   UNL     1      43.662  46.440  21.900 -0.27 +0.05    +0.120 C  BRANCH   7   8ATOM      8  C   UNL     1      42.576  46.504  20.845 -0.35 -0.01    -0.030 A  ATOM      9  C   UNL     1      41.755  47.321  18.707 -0.41 -0.00    +0.126 A  ATOM     10  C   UNL     1      42.736  47.297  19.703 -0.43 +0.01    +0.052 A  ATOM     11  C   UNL     1      40.576  46.556  18.807 -0.38 -0.00    +0.061 A  ATOM     12  C   UNL     1      40.433  45.771  19.970 -0.37 +0.00    +0.016 A  ATOM     13  C   UNL     1      41.414  45.741  20.971 -0.33 +0.00    +0.006 A  BRANCH   9  14ATOM     14  O   UNL     1      42.029  48.134  17.637 -0.42 -0.00    -0.507 OA ATOM     15  H   UNL     1      41.840  47.619  16.823 -0.27 -0.04    +0.293 HD ENDBRANCH   9  14BRANCH  11  16ATOM     16  C   UNL     1      39.527  46.544  17.764 -0.32 -0.03    +0.165 A  ATOM     17  N   UNL     1      38.475  45.729  17.941 -0.27 +0.04    -0.210 NA ATOM     18  N   UNL     1      39.698  47.343  16.693 -0.31 +0.06    -0.228 NA ATOM     19  C   UNL     1      37.526  45.695  16.990 -0.27 -0.05    +0.140 A  ATOM     20  C   UNL     1      38.768  47.291  15.734 -0.40 -0.03    +0.077 A  ATOM     21  C   UNL     1      37.638  46.464  15.815 -0.36 -0.02    +0.046 A  ATOM     22  C   UNL     1      38.939  48.084  14.604 -0.50 -0.01    +0.032 A  ATOM     23  C   UNL     1      36.723  46.433  14.733 -0.37 -0.03    +0.053 A  ATOM     24  C   UNL     1      38.027  48.066  13.546 -0.41 -0.01    +0.041 A  ATOM     25  C   UNL     1      36.924  47.234  13.619 -0.44 -0.06    +0.124 A  ATOM     26  F   UNL     1      36.048  47.202  12.607 -0.21 +0.11    -0.207 F  BRANCH  19  27ATOM     27  N   UNL     1      36.408  44.861  17.196 -0.09 +0.13    -0.351 N  ATOM     28  C   UNL     1      36.003  44.759  18.620 -0.31 -0.04    +0.146 C  ATOM     29  C   UNL     1      36.504  43.547  16.518 -0.32 -0.05    +0.146 C  ATOM     30  C   UNL     1      36.197  43.333  19.161 -0.29 -0.02    +0.181 C  ATOM     31  C   UNL     1      35.380  42.629  17.019 -0.36 -0.07    +0.181 C  ATOM     32  O   UNL     1      35.466  42.339  18.425 -0.23 +0.08    -0.378 OA ENDBRANCH  19  27ENDBRANCH  11  16ENDBRANCH   7   8ENDBRANCH   1   7BRANCH   4  33ATOM     33  N   UNL     1      39.532  47.548  25.258 -0.12 -0.02    -0.291 N  ATOM     34  C   UNL     1      38.656  46.712  24.625 -0.15 +0.03    +0.295 A  ATOM     35  C   UNL     1      38.814  48.220  26.227 -0.24 +0.00    +0.072 A  ATOM     36  N   UNL     1      37.437  46.788  25.086 -0.79 -0.04    -0.195 NA ATOM     37  C   UNL     1      39.150  49.188  27.183 -0.23 +0.00    +0.029 A  ATOM     38  C   UNL     1      37.513  47.726  26.088 -0.32 -0.00    +0.092 A  ATOM     39  C   UNL     1      38.120  49.659  28.006 -0.22 +0.00    +0.002 A  ATOM     40  C   UNL     1      36.497  48.209  26.926 -0.36 -0.00    +0.031 A  ATOM     41  C   UNL     1      36.813  49.182  27.878 -0.28 -0.00    +0.002 A  BRANCH  34  42ATOM     42  O   UNL     1      38.969  45.911  23.625 -0.10 -0.05    -0.480 OA ATOM     43  H   UNL     1      39.014  45.051  24.081 +0.14 +0.02    +0.296 HD ENDBRANCH  34  42ENDBRANCH   4  33TORSDOF 7TERENDMDL