MODEL        3USER    Run = 3USERUSER    Estimated Free Energy of Binding    = -10.62 kcal/mol  [=(1)+(2)+(3)-(4)]USERUSER    (1) Final Intermolecular Energy     = -13.60 kcal/molUSER        vdW + Hbond + desolv Energy     = -13.52 kcal/molUSER        Electrostatic Energy            =  -0.08 kcal/molUSER        Moving Ligand-Fixed Receptor    = -13.60 kcal/molUSER        Moving Ligand-Moving Receptor   =  +0.00 kcal/molUSER    (2) Final Total Internal Energy     =  -3.46 kcal/molUSER    (3) Torsional Free Energy           =  +2.98 kcal/molUSER    (4) Unbound System's Energy         =  -3.46 kcal/molUSERUSERREMARK SMILES COc1ccc(O)c(C(=O)c2ccc(C(=O)N[C@@H]3CCN(C(=O)C4CC4)C[C@H]3NC(=O)c3ccncc3)cc2)c1FREMARK SMILES IDX 11 1 12 2 13 3 14 4 38 5 39 6 9 7 10 8 8 9 3 10 4 11 40 12REMARK SMILES IDX 5 13 6 14 41 15 2 16 1 17 7 18 15 20 17 21 16 22 18 24 19 25REMARK SMILES IDX 28 26 20 27 27 28 21 29 29 30 30 31 31 33 32 34 33 35 37 36REMARK SMILES IDX 34 37 36 38 35 39 22 40 23 41 24 42 25 43 26 44REMARK H PARENT 7 19 17 23 29 32USER                              x       y       z     vdW  Elec       q    TypeUSER                           _______ _______ _______ _____ _____    ______ ____ROOTATOM      1  C   UNL     1      43.224  46.595  21.003 -0.33 +0.01    +0.023 A  ATOM      2  C   UNL     1      43.278  47.408  19.865 -0.33 +0.00    +0.013 A  ATOM      3  C   UNL     1      42.314  47.268  18.862 -0.53 +0.00    +0.014 A  ATOM      4  C   UNL     1      41.281  46.335  19.006 -0.46 +0.00    +0.039 A  ATOM      5  C   UNL     1      41.222  45.527  20.152 -0.38 +0.00    +0.014 A  ATOM      6  C   UNL     1      42.188  45.666  21.152 -0.30 +0.00    +0.013 A  ENDROOTBRANCH   1   7ATOM      7  C   UNL     1      44.213  46.719  22.100 -0.23 +0.11    +0.199 C  ATOM      8  O   UNL     1      45.194  45.974  22.091 -0.55 -0.32    -0.288 OA BRANCH   7   9ATOM      9  C   UNL     1      44.063  47.671  23.224 -0.23 +0.03    +0.104 A  ATOM     10  C   UNL     1      42.689  49.038  24.707 -0.29 +0.03    +0.155 A  ATOM     11  C   UNL     1      43.835  49.462  25.380 -0.26 +0.01    +0.053 A  ATOM     12  C   UNL     1      42.818  48.152  23.626 -0.26 +0.04    +0.179 A  ATOM     13  C   UNL     1      45.092  49.022  24.962 -0.20 +0.01    +0.051 A  ATOM     14  C   UNL     1      45.205  48.145  23.885 -0.16 +0.03    +0.130 A  ATOM     15  F   UNL     1      41.707  47.787  22.963 -0.08 -0.03    -0.202 F  BRANCH  10  16ATOM     16  O   UNL     1      41.407  49.413  25.007 -0.18 -0.11    -0.494 OA ATOM     17  C   UNL     1      40.866  48.965  26.244 -0.20 +0.04    +0.278 C  ENDBRANCH  10  16BRANCH  14  18ATOM     18  O   UNL     1      46.477  47.791  23.524 -0.04 -0.18    -0.507 OA ATOM     19  H   UNL     1      46.484  46.823  23.346 +0.07 +0.14    +0.293 HD ENDBRANCH  14  18ENDBRANCH   7   9ENDBRANCH   1   7BRANCH   4  20ATOM     20  C   UNL     1      40.276  46.214  17.919 -0.36 -0.02    +0.251 C  ATOM     21  N   UNL     1      40.257  47.235  16.990 -0.25 +0.06    -0.347 N  ATOM     22  O   UNL     1      39.535  45.237  17.858 -0.26 +0.03    -0.269 OA ATOM     23  H   UNL     1      40.988  47.933  17.009 +0.07 -0.02    +0.164 HD BRANCH  21  24ATOM     24  C   UNL     1      39.320  47.225  15.867 -0.46 -0.03    +0.108 C  ATOM     25  C   UNL     1      39.677  48.296  14.839 -0.58 -0.02    +0.048 C  ATOM     26  C   UNL     1      37.842  47.351  16.347 -0.29 -0.07    +0.124 C  ATOM     27  C   UNL     1      38.794  48.119  13.608 -0.20 -0.03    +0.121 C  ATOM     28  C   UNL     1      36.986  48.140  15.327 -0.38 -0.14    +0.146 C  ATOM     29  N   UNL     1      37.395  47.887  13.945 -0.27 +0.17    -0.340 N  BRANCH  26  30ATOM     30  N   UNL     1      37.308  46.014  16.634 -0.14 +0.15    -0.345 N  ATOM     31  C   UNL     1      36.105  45.851  17.286 -0.24 -0.14    +0.251 C  ATOM     32  H   UNL     1      38.022  45.349  16.938 +0.11 -0.05    +0.164 HD ATOM     33  O   UNL     1      35.387  46.790  17.619 -0.29 +0.25    -0.269 OA BRANCH  31  34ATOM     34  C   UNL     1      35.720  44.448  17.607 -0.28 -0.01    +0.042 A  ATOM     35  C   UNL     1      35.765  43.950  18.913 -0.34 -0.01    +0.034 A  ATOM     36  C   UNL     1      35.346  43.602  16.562 -0.35 -0.01    +0.034 A  ATOM     37  C   UNL     1      35.429  42.623  19.113 -0.33 -0.01    +0.112 A  ATOM     38  C   UNL     1      35.027  42.291  16.869 -0.33 -0.05    +0.112 A  ATOM     39  N   UNL     1      35.060  41.784  18.122 -0.39 +0.07    -0.265 NA ENDBRANCH  31  34ENDBRANCH  26  30BRANCH  29  40ATOM     40  C   UNL     1      36.523  47.620  12.896 -0.53 -0.10    +0.225 C  ATOM     41  O   UNL     1      36.175  48.472  12.084 -0.79 +0.13    -0.275 OA BRANCH  40  42ATOM     42  C   UNL     1      35.983  46.238  12.781 -0.59 -0.04    +0.079 C  ATOM     43  C   UNL     1      36.766  45.167  12.052 -0.62 -0.00    +0.014 C  ATOM     44  C   UNL     1      36.623  45.097  13.542 -0.50 -0.01    +0.014 C  ENDBRANCH  40  42ENDBRANCH  29  40ENDBRANCH  21  24ENDBRANCH   4  20TORSDOF 10TERENDMDL