MODEL        8USER    Run = 8USERUSER    Estimated Free Energy of Binding    =  -8.64 kcal/mol  [=(1)+(2)+(3)-(4)]USERUSER    (1) Final Intermolecular Energy     = -10.73 kcal/molUSER        vdW + Hbond + desolv Energy     = -10.44 kcal/molUSER        Electrostatic Energy            =  -0.29 kcal/molUSER        Moving Ligand-Fixed Receptor    = -10.73 kcal/molUSER        Moving Ligand-Moving Receptor   =  +0.00 kcal/molUSER    (2) Final Total Internal Energy     =  -1.28 kcal/molUSER    (3) Torsional Free Energy           =  +2.09 kcal/molUSER    (4) Unbound System's Energy         =  -1.28 kcal/molUSERUSERREMARK SMILES Cc1ncc2n1[C@]2(NS(=O)(=O)Cc1ccnc(N)c1)c1ccc(O)cc1REMARK SMILES IDX 8 1 7 3 2 4 3 5 6 6 4 7 5 8 1 9 20 10 21 11 26 12 22 13REMARK SMILES IDX 25 14 23 15 24 16 9 18 10 19 11 20 12 21 13 22 14 23 19 24REMARK SMILES IDX 15 25 17 26 16 27 18 28REMARK H PARENT 8 2 24 17 18 29 18 30USER                              x       y       z     vdW  Elec       q    TypeUSER                           _______ _______ _______ _____ _____    ______ ____ROOTATOM      1  N   UNL     1      36.804  45.903  17.849 -0.23 +0.07    -0.180 NA ATOM      2  H   UNL     1      36.876  46.920  17.766 +0.09 -0.08    +0.144 HD ENDROOTBRANCH   1   3ATOM      3  C   UNL     1      36.262  45.245  16.641 -0.27 -0.09    +0.178 C  ATOM      4  C   UNL     1      33.901  43.908  16.944 -0.24 -0.05    +0.108 A  ATOM      5  N   UNL     1      34.170  42.634  16.962 -0.24 +0.10    -0.241 NA ATOM      6  N   UNL     1      34.958  44.725  16.785 -0.11 +0.15    -0.299 N  ATOM      7  C   UNL     1      35.498  42.587  16.754 -0.33 -0.05    +0.139 A  ATOM      8  C   UNL     1      36.092  43.802  16.660 -0.31 -0.03    +0.087 A  ATOM      9  C   UNL     1      32.540  44.488  17.080 -0.30 -0.03    +0.088 C  BRANCH   3  10ATOM     10  C   UNL     1      36.545  45.926  15.312 -0.37 -0.00    +0.000 A  ATOM     11  C   UNL     1      36.604  45.187  14.112 -0.41 -0.01    +0.012 A  ATOM     12  C   UNL     1      36.726  47.319  15.210 -0.40 -0.01    +0.012 A  ATOM     13  C   UNL     1      36.847  45.804  12.882 -0.51 -0.02    +0.046 A  ATOM     14  C   UNL     1      36.967  47.946  13.982 -0.51 -0.03    +0.046 A  ATOM     15  C   UNL     1      37.027  47.179  12.828 -0.53 -0.04    +0.115 A  BRANCH  15  16ATOM     16  O   UNL     1      37.257  47.743  11.609 -0.78 +0.07    -0.508 OA ATOM     17  H   UNL     1      36.521  48.342  11.401 -0.15 -0.15    +0.293 HD ENDBRANCH  15  16ENDBRANCH   3  10ENDBRANCH   1   3BRANCH   1  18ATOM     18  S   UNL     1      38.270  45.308  18.457 -0.40 -0.03    +0.218 S  ATOM     19  O   UNL     1      38.786  46.219  19.453 -0.19 +0.01    -0.212 OA ATOM     20  O   UNL     1      37.985  43.923  18.772 -0.23 +0.02    -0.212 OA BRANCH  18  21ATOM     21  C   UNL     1      39.288  45.378  16.976 -0.09 -0.03    +0.189 C  BRANCH  21  22ATOM     22  C   UNL     1      40.141  46.616  17.011 -0.47 +0.00    -0.026 A  ATOM     23  C   UNL     1      39.949  47.651  16.096 -0.51 -0.01    +0.025 A  ATOM     24  C   UNL     1      41.162  46.754  17.959 -0.48 -0.00    +0.051 A  ATOM     25  C   UNL     1      40.773  48.762  16.175 -0.48 -0.02    +0.114 A  ATOM     26  C   UNL     1      41.930  47.912  17.969 -0.33 -0.00    +0.123 A  ATOM     27  N   UNL     1      41.750  48.913  17.095 -0.78 -0.03    -0.240 NA BRANCH  26  28ATOM     28  N   UNL     1      42.959  48.071  18.892 -0.23 -0.00    -0.384 N  ATOM     29  H   UNL     1      43.376  48.980  18.710 -0.48 -0.01    +0.158 HD ATOM     30  H   UNL     1      42.625  47.993  19.844 -0.14 -0.00    +0.158 HD ENDBRANCH  26  28ENDBRANCH  21  22ENDBRANCH  18  21ENDBRANCH   1  18TORSDOF 7TERENDMDL