MODEL        1USER    Run = 1USERUSER    Estimated Free Energy of Binding    =  -8.75 kcal/mol  [=(1)+(2)+(3)-(4)]USERUSER    (1) Final Intermolecular Energy     = -10.84 kcal/molUSER        vdW + Hbond + desolv Energy     = -10.59 kcal/molUSER        Electrostatic Energy            =  -0.25 kcal/molUSER        Moving Ligand-Fixed Receptor    = -10.84 kcal/molUSER        Moving Ligand-Moving Receptor   =  +0.00 kcal/molUSER    (2) Final Total Internal Energy     =  -1.09 kcal/molUSER    (3) Torsional Free Energy           =  +2.09 kcal/molUSER    (4) Unbound System's Energy         =  -1.09 kcal/molUSERUSERREMARK SMILES Cc1ncc2n1[C@]2(NS(=O)(=O)Cc1ccc(N)cc1)c1ccc(O)cc1REMARK SMILES IDX 8 1 7 3 2 4 3 5 6 6 4 7 5 8 1 9 20 10 21 11 26 12 22 13REMARK SMILES IDX 25 14 23 15 24 16 9 18 10 19 11 20 12 21 13 22 14 23 19 24REMARK SMILES IDX 15 25 18 26 16 27 17 28REMARK H PARENT 8 2 24 17 17 29 17 30USER                              x       y       z     vdW  Elec       q    TypeUSER                           _______ _______ _______ _____ _____    ______ ____ROOTATOM      1  N   UNL     1      35.537  46.886  16.836 -0.23 +0.22    -0.180 NA ATOM      2  H   UNL     1      34.667  47.346  16.563 -0.17 -0.37    +0.144 HD ENDROOTBRANCH   1   3ATOM      3  C   UNL     1      36.514  46.660  15.755 -0.32 -0.14    +0.178 C  ATOM      4  C   UNL     1      36.553  46.787  13.226 -0.49 -0.05    +0.108 A  ATOM      5  N   UNL     1      37.004  45.652  12.748 -0.34 +0.08    -0.241 NA ATOM      6  N   UNL     1      35.980  46.571  14.438 -0.21 +0.22    -0.299 N  ATOM      7  C   UNL     1      36.751  44.757  13.752 -0.28 -0.05    +0.139 A  ATOM      8  C   UNL     1      36.369  45.335  14.945 -0.31 -0.04    +0.087 A  ATOM      9  C   UNL     1      36.546  48.103  12.551 -0.59 -0.03    +0.088 C  BRANCH   3  10ATOM     10  C   UNL     1      37.891  47.280  15.928 -0.42 -0.00    +0.000 A  ATOM     11  C   UNL     1      38.222  48.541  15.397 -0.49 -0.01    +0.012 A  ATOM     12  C   UNL     1      38.912  46.581  16.603 -0.42 -0.00    +0.012 A  ATOM     13  C   UNL     1      39.502  49.088  15.544 -0.43 -0.02    +0.046 A  ATOM     14  C   UNL     1      40.192  47.119  16.752 -0.47 -0.01    +0.046 A  ATOM     15  C   UNL     1      40.475  48.370  16.224 -0.47 -0.02    +0.115 A  BRANCH  15  16ATOM     16  O   UNL     1      41.736  48.860  16.390 -0.70 -0.07    -0.508 OA ATOM     17  H   UNL     1      42.327  48.123  16.618 -0.28 +0.01    +0.293 HD ENDBRANCH  15  16ENDBRANCH   3  10ENDBRANCH   1   3BRANCH   1  18ATOM     18  S   UNL     1      35.185  45.577  17.837 -0.41 -0.12    +0.218 S  ATOM     19  O   UNL     1      34.540  44.535  17.068 -0.20 +0.10    -0.212 OA ATOM     20  O   UNL     1      34.513  46.152  18.986 -0.51 +0.10    -0.212 OA BRANCH  18  21ATOM     21  C   UNL     1      36.810  44.987  18.336 -0.27 -0.05    +0.189 C  BRANCH  21  22ATOM     22  C   UNL     1      36.718  44.045  19.510 -0.36 +0.00    -0.031 A  ATOM     23  C   UNL     1      37.560  44.210  20.616 -0.38 -0.00    +0.007 A  ATOM     24  C   UNL     1      35.826  42.966  19.505 -0.41 -0.00    +0.007 A  ATOM     25  C   UNL     1      37.484  43.336  21.705 -0.38 +0.00    +0.026 A  ATOM     26  C   UNL     1      35.755  42.098  20.599 -0.46 +0.00    +0.026 A  ATOM     27  C   UNL     1      36.545  42.305  21.731 -0.48 +0.00    +0.031 A  BRANCH  27  28ATOM     28  N   UNL     1      36.555  41.365  22.765 -0.27 -0.01    -0.399 N  ATOM     29  H   UNL     1      35.647  41.210  23.193 +0.07 -0.00    +0.156 HD ATOM     30  H   UNL     1      37.288  41.511  23.452 +0.08 +0.01    +0.156 HD ENDBRANCH  27  28ENDBRANCH  21  22ENDBRANCH  18  21ENDBRANCH   1  18TORSDOF 7TERENDMDL