REMARK SMILES Cc1cc(CS(=O)(=O)N[C@]2(c3ccc(O)cc3)c3cnc(C)n32)ccn1
REMARK SMILES IDX 9 1 6 3 7 4 8 5 5 6 4 7 2 8 3 9 26 10 25 11 24 12 1 13 10 14
REMARK SMILES IDX 18 15 23 16 19 17 21 18 20 19 22 20 11 21 12 22 17 23 13 24
REMARK SMILES IDX 16 25 14 26 15 27
REMARK H PARENT 9 2 15 28
ROOT
ATOM      1  N   UNL     1      -0.469  -0.794   0.830  1.00  0.00    -0.180 NA
ATOM      2  H   UNL     1      -0.456  -1.812   0.926  1.00  0.00     0.144 HD
ENDROOT
BRANCH   1   3
ATOM      3  S   UNL     1       0.909  -0.348  -0.061  1.00  0.00     0.218 S 
ATOM      4  O   UNL     1       1.498  -1.611  -0.456  1.00  0.00    -0.212 OA
ATOM      5  O   UNL     1       0.560   0.672  -1.025  1.00  0.00    -0.212 OA
BRANCH   3   6
ATOM      6  C   UNL     1       1.903   0.385   1.243  1.00  0.00     0.189 C 
BRANCH   6   7
ATOM      7  C   UNL     1       3.236   0.796   0.678  1.00  0.00    -0.028 A 
ATOM      8  C   UNL     1       5.551   0.338   0.184  1.00  0.00     0.038 A 
ATOM      9  C   UNL     1       4.335  -0.070   0.729  1.00  0.00     0.028 A 
ATOM     10  N   UNL     1       5.721   1.550  -0.391  1.00  0.00    -0.262 NA
ATOM     11  C   UNL     1       4.649   2.370  -0.442  1.00  0.00     0.111 A 
ATOM     12  C   UNL     1       3.404   2.043   0.071  1.00  0.00     0.025 A 
ATOM     13  C   UNL     1       6.737  -0.578   0.222  1.00  0.00     0.067 C 
ENDBRANCH   6   7
ENDBRANCH   3   6
ENDBRANCH   1   3
BRANCH   1  14
ATOM     14  C   UNL     1      -1.767  -0.301   0.310  1.00  0.00     0.178 C 
ATOM     15  C   UNL     1      -2.075   1.108   0.483  1.00  0.00     0.087 A 
ATOM     16  N   UNL     1      -2.703   0.067   1.302  1.00  0.00    -0.299 N 
ATOM     17  C   UNL     1      -2.626   2.244   0.976  1.00  0.00     0.139 A 
ATOM     18  C   UNL     1      -3.502   0.754   2.135  1.00  0.00     0.108 A 
ATOM     19  N   UNL     1      -3.485   2.048   1.992  1.00  0.00    -0.241 NA
ATOM     20  C   UNL     1      -4.337   0.024   3.124  1.00  0.00     0.088 C 
BRANCH  14  21
ATOM     21  C   UNL     1      -2.352  -1.038  -0.886  1.00  0.00     0.000 A 
ATOM     22  C   UNL     1      -2.252  -0.531  -2.196  1.00  0.00     0.012 A 
ATOM     23  C   UNL     1      -2.998  -2.283  -0.732  1.00  0.00     0.012 A 
ATOM     24  C   UNL     1      -2.781  -1.220  -3.291  1.00  0.00     0.046 A 
ATOM     25  C   UNL     1      -3.531  -2.978  -1.824  1.00  0.00     0.046 A 
ATOM     26  C   UNL     1      -3.419  -2.436  -3.096  1.00  0.00     0.115 A 
BRANCH  26  27
ATOM     27  O   UNL     1      -3.925  -3.072  -4.190  1.00  0.00    -0.508 OA
ATOM     28  H   UNL     1      -4.347  -3.898  -3.905  1.00  0.00     0.293 HD
ENDBRANCH  26  27
ENDBRANCH  14  21
ENDBRANCH   1  14
TORSDOF 6
