MODEL        8USER    Run = 8USERUSER    Estimated Free Energy of Binding    =  -8.86 kcal/mol  [=(1)+(2)+(3)-(4)]USERUSER    (1) Final Intermolecular Energy     = -10.65 kcal/molUSER        vdW + Hbond + desolv Energy     = -10.36 kcal/molUSER        Electrostatic Energy            =  -0.29 kcal/molUSER        Moving Ligand-Fixed Receptor    = -10.65 kcal/molUSER        Moving Ligand-Moving Receptor   =  +0.00 kcal/molUSER    (2) Final Total Internal Energy     =  -1.14 kcal/molUSER    (3) Torsional Free Energy           =  +1.79 kcal/molUSER    (4) Unbound System's Energy         =  -1.14 kcal/molUSERUSERREMARK SMILES Cc1ncc2n1[C@@]2(NS(=O)(=O)Cc1ccccc1)c1ccc(O)cc1REMARK SMILES IDX 1 1 2 2 3 3 4 4 5 5 6 6 7 7 8 8 9 10 10 11 11 12 12 13 13 14REMARK SMILES IDX 14 15 18 16 15 17 17 18 16 19 19 20 20 21 25 22 21 23 24 24REMARK SMILES IDX 22 25 23 26REMARK H PARENT 8 9 23 27USER                              x       y       z     vdW  Elec       q    TypeUSER                           _______ _______ _______ _____ _____    ______ ____ROOTATOM      1  C   UNL     1      36.984  44.661  12.439 -0.47 -0.03    +0.088 C  ATOM      2  C   UNL     1      36.757  46.117  12.575 -0.51 -0.04    +0.108 A  ATOM      3  N   UNL     1      35.855  46.852  11.969 -0.49 +0.14    -0.241 NA ATOM      4  C   UNL     1      36.157  48.128  12.357 -0.45 -0.07    +0.139 A  ATOM      5  C   UNL     1      37.015  48.189  13.435 -0.50 -0.04    +0.087 A  ATOM      6  N   UNL     1      37.550  46.906  13.351 -0.27 +0.10    -0.299 N  ATOM      7  C   UNL     1      37.337  47.336  14.701 -0.39 -0.10    +0.178 C  ENDROOTBRANCH   7   8ATOM      8  N   UNL     1      36.177  46.769  15.421 -0.27 +0.16    -0.180 NA ATOM      9  H   UNL     1      35.700  47.417  16.054 +0.09 -0.22    +0.144 HD BRANCH   8  10ATOM     10  S   UNL     1      36.314  45.248  16.130 -0.36 -0.11    +0.218 S  ATOM     11  O   UNL     1      37.333  44.582  15.343 -0.28 +0.07    -0.212 OA ATOM     12  O   UNL     1      36.469  45.433  17.555 -0.25 +0.08    -0.212 OA BRANCH  10  13ATOM     13  C   UNL     1      34.723  44.477  15.782 -0.24 -0.10    +0.189 C  BRANCH  13  14ATOM     14  C   UNL     1      34.125  43.965  17.067 -0.29 +0.01    -0.032 A  ATOM     15  C   UNL     1      34.167  42.597  17.376 -0.39 -0.00    +0.005 A  ATOM     16  C   UNL     1      33.509  44.846  17.968 -0.36 -0.00    +0.005 A  ATOM     17  C   UNL     1      33.614  42.124  18.566 -0.41 -0.00    +0.000 A  ATOM     18  C   UNL     1      32.956  44.369  19.157 -0.43 -0.00    +0.000 A  ATOM     19  C   UNL     1      33.011  43.010  19.458 -0.41 -0.00    +0.000 A  ENDBRANCH  13  14ENDBRANCH  10  13ENDBRANCH   8  10ENDBRANCH   7   8BRANCH   7  20ATOM     20  C   UNL     1      38.622  47.628  15.453 -0.48 -0.00    +0.000 A  ATOM     21  C   UNL     1      39.018  46.806  16.528 -0.43 -0.00    +0.012 A  ATOM     22  C   UNL     1      39.467  48.708  15.131 -0.52 -0.01    +0.012 A  ATOM     23  C   UNL     1      40.201  47.040  17.233 -0.47 -0.01    +0.046 A  ATOM     24  C   UNL     1      40.653  48.950  15.834 -0.58 -0.01    +0.046 A  ATOM     25  C   UNL     1      41.010  48.110  16.880 -0.45 -0.01    +0.115 A  BRANCH  25  26ATOM     26  O   UNL     1      42.155  48.303  17.592 -0.40 -0.03    -0.508 OA ATOM     27  H   UNL     1      42.710  47.510  17.513 -0.37 -0.07    +0.293 HD ENDBRANCH  25  26ENDBRANCH   7  20TORSDOF 6TERENDMDL