MODEL        3USER    Run = 3USERUSER    Estimated Free Energy of Binding    =  -9.14 kcal/mol  [=(1)+(2)+(3)-(4)]USERUSER    (1) Final Intermolecular Energy     = -10.93 kcal/molUSER        vdW + Hbond + desolv Energy     = -10.67 kcal/molUSER        Electrostatic Energy            =  -0.26 kcal/molUSER        Moving Ligand-Fixed Receptor    = -10.93 kcal/molUSER        Moving Ligand-Moving Receptor   =  +0.00 kcal/molUSER    (2) Final Total Internal Energy     =  -1.08 kcal/molUSER    (3) Torsional Free Energy           =  +1.79 kcal/molUSER    (4) Unbound System's Energy         =  -1.08 kcal/molUSERUSERREMARK SMILES Cc1ncc2n1[C@@]2(NS(=O)(=O)Cc1ccncc1)c1ccc(O)cc1REMARK SMILES IDX 1 1 2 2 3 3 4 4 5 5 6 6 7 7 8 8 9 10 10 11 11 12 12 13 13 14REMARK SMILES IDX 14 15 18 16 15 17 17 18 16 19 19 20 20 21 25 22 21 23 24 24REMARK SMILES IDX 22 25 23 26REMARK H PARENT 8 9 23 27USER                              x       y       z     vdW  Elec       q    TypeUSER                           _______ _______ _______ _____ _____    ______ ____ROOTATOM      1  C   UNL     1      36.947  44.639  12.525 -0.47 -0.03    +0.088 C  ATOM      2  C   UNL     1      36.747  46.101  12.616 -0.51 -0.04    +0.108 A  ATOM      3  N   UNL     1      35.850  46.828  11.993 -0.48 +0.14    -0.241 NA ATOM      4  C   UNL     1      36.169  48.113  12.340 -0.46 -0.07    +0.139 A  ATOM      5  C   UNL     1      37.055  48.198  13.395 -0.49 -0.04    +0.087 A  ATOM      6  N   UNL     1      37.551  46.903  13.367 -0.27 +0.10    -0.299 N  ATOM      7  C   UNL     1      37.339  47.390  14.699 -0.39 -0.10    +0.178 C  ENDROOTBRANCH   7   8ATOM      8  N   UNL     1      36.154  46.885  15.451 -0.26 +0.17    -0.180 NA ATOM      9  H   UNL     1      36.017  47.456  16.296 +0.08 -0.19    +0.144 HD BRANCH   8  10ATOM     10  S   UNL     1      36.299  45.273  15.971 -0.36 -0.11    +0.218 S  ATOM     11  O   UNL     1      35.054  44.581  15.717 -0.25 +0.11    -0.212 OA ATOM     12  O   UNL     1      37.552  44.770  15.447 -0.27 +0.07    -0.212 OA BRANCH  10  13ATOM     13  C   UNL     1      36.455  45.455  17.755 -0.27 -0.07    +0.189 C  BRANCH  13  14ATOM     14  C   UNL     1      35.392  44.668  18.478 -0.34 +0.01    -0.029 A  ATOM     15  C   UNL     1      34.112  45.206  18.653 -0.42 -0.01    +0.025 A  ATOM     16  C   UNL     1      35.652  43.397  18.999 -0.36 -0.00    +0.025 A  ATOM     17  C   UNL     1      33.165  44.465  19.342 -0.35 -0.02    +0.111 A  ATOM     18  C   UNL     1      34.642  42.737  19.682 -0.35 -0.00    +0.111 A  ATOM     19  N   UNL     1      33.406  43.247  19.867 -0.78 -0.01    -0.265 NA ENDBRANCH  13  14ENDBRANCH  10  13ENDBRANCH   8  10ENDBRANCH   7   8BRANCH   7  20ATOM     20  C   UNL     1      38.622  47.667  15.456 -0.49 -0.00    +0.000 A  ATOM     21  C   UNL     1      39.541  48.629  14.987 -0.52 -0.00    +0.012 A  ATOM     22  C   UNL     1      38.961  46.984  16.641 -0.43 -0.00    +0.012 A  ATOM     23  C   UNL     1      40.728  48.910  15.674 -0.58 -0.01    +0.046 A  ATOM     24  C   UNL     1      40.143  47.261  17.333 -0.45 -0.01    +0.046 A  ATOM     25  C   UNL     1      41.015  48.223  16.846 -0.44 -0.01    +0.115 A  BRANCH  25  26ATOM     26  O   UNL     1      42.157  48.464  17.551 -0.40 -0.05    -0.508 OA ATOM     27  H   UNL     1      42.760  47.711  17.433 -0.36 -0.05    +0.293 HD ENDBRANCH  25  26ENDBRANCH   7  20TORSDOF 6TERENDMDL