MODEL        2USER    Run = 2USERUSER    Estimated Free Energy of Binding    =  -9.21 kcal/mol  [=(1)+(2)+(3)-(4)]USERUSER    (1) Final Intermolecular Energy     = -11.00 kcal/molUSER        vdW + Hbond + desolv Energy     = -10.62 kcal/molUSER        Electrostatic Energy            =  -0.38 kcal/molUSER        Moving Ligand-Fixed Receptor    = -11.00 kcal/molUSER        Moving Ligand-Moving Receptor   =  +0.00 kcal/molUSER    (2) Final Total Internal Energy     =  -1.36 kcal/molUSER    (3) Torsional Free Energy           =  +1.79 kcal/molUSER    (4) Unbound System's Energy         =  -1.36 kcal/molUSERUSERREMARK SMILES Cc1cc(CS(=O)(=O)N[C@]2(c3ccc(O)cc3)c3cnc(C)n32)ccn1REMARK SMILES IDX 9 1 6 3 7 4 8 5 5 6 4 7 2 8 3 9 26 10 25 11 24 12 1 13 10 14REMARK SMILES IDX 18 15 23 16 19 17 21 18 20 19 22 20 11 21 12 22 17 23 13 24REMARK SMILES IDX 16 25 14 26 15 27REMARK H PARENT 9 2 15 28USER                              x       y       z     vdW  Elec       q    TypeUSER                           _______ _______ _______ _____ _____    ______ ____ROOTATOM      1  N   UNL     1      35.734  46.643  16.357 -0.27 +0.19    -0.180 NA ATOM      2  H   UNL     1      35.145  47.471  16.476 -0.04 -0.31    +0.144 HD ENDROOTBRANCH   1   3ATOM      3  S   UNL     1      34.761  45.417  15.693 -0.34 -0.17    +0.218 S  ATOM      4  O   UNL     1      34.357  45.945  14.406 -0.35 +0.19    -0.212 OA ATOM      5  O   UNL     1      35.425  44.139  15.825 -0.27 +0.09    -0.212 OA BRANCH   3   6ATOM      6  C   UNL     1      33.365  45.477  16.821 -0.23 -0.15    +0.189 C  BRANCH   6   7ATOM      7  C   UNL     1      33.631  44.565  17.988 -0.33 +0.01    -0.028 A  ATOM      8  C   UNL     1      35.026  43.815  19.806 -0.39 -0.00    +0.038 A  ATOM      9  C   UNL     1      34.819  44.667  18.723 -0.36 -0.01    +0.028 A  ATOM     10  N   UNL     1      34.126  42.878  20.178 -0.61 -0.03    -0.262 NA ATOM     11  C   UNL     1      32.981  42.798  19.466 -0.31 +0.00    +0.111 A  ATOM     12  C   UNL     1      32.692  43.608  18.379 -0.33 -0.00    +0.025 A  ATOM     13  C   UNL     1      36.288  43.915  20.609 -0.43 -0.00    +0.067 C  ENDBRANCH   6   7ENDBRANCH   3   6ENDBRANCH   1   3BRANCH   1  14ATOM     14  C   UNL     1      36.984  46.951  15.622 -0.34 -0.12    +0.178 C  ATOM     15  C   UNL     1      36.935  47.989  14.607 -0.42 -0.07    +0.087 A  ATOM     16  N   UNL     1      36.984  46.565  14.263 -0.19 +0.15    -0.299 N  ATOM     17  C   UNL     1      36.888  48.586  13.391 -0.34 -0.06    +0.139 A  ATOM     18  C   UNL     1      36.950  46.560  12.920 -0.50 -0.04    +0.108 A  ATOM     19  N   UNL     1      36.880  47.730  12.353 -1.03 +0.07    -0.241 NA ATOM     20  C   UNL     1      37.004  45.268  12.187 -0.49 -0.03    +0.088 C  BRANCH  14  21ATOM     21  C   UNL     1      38.292  46.708  16.360 -0.40 -0.00    +0.000 A  ATOM     22  C   UNL     1      39.442  47.484  16.115 -0.49 -0.00    +0.012 A  ATOM     23  C   UNL     1      38.398  45.707  17.349 -0.39 -0.00    +0.012 A  ATOM     24  C   UNL     1      40.636  47.263  16.806 -0.48 -0.01    +0.046 A  ATOM     25  C   UNL     1      39.592  45.480  18.044 -0.40 -0.00    +0.046 A  ATOM     26  C   UNL     1      40.703  46.261  17.763 -0.41 -0.01    +0.115 A  BRANCH  26  27ATOM     27  O   UNL     1      41.888  46.076  18.409 -0.16 -0.02    -0.508 OA ATOM     28  H   UNL     1      42.585  46.548  17.927 -0.32 -0.03    +0.293 HD ENDBRANCH  26  27ENDBRANCH  14  21ENDBRANCH   1  14TORSDOF 6TERENDMDL