MODEL        7USER    Run = 7USERUSER    Estimated Free Energy of Binding    = -13.05 kcal/mol  [=(1)+(2)+(3)-(4)]USERUSER    (1) Final Intermolecular Energy     = -15.14 kcal/molUSER        vdW + Hbond + desolv Energy     = -14.92 kcal/molUSER        Electrostatic Energy            =  -0.22 kcal/molUSER        Moving Ligand-Fixed Receptor    = -15.14 kcal/molUSER        Moving Ligand-Moving Receptor   =  +0.00 kcal/molUSER    (2) Final Total Internal Energy     =  -2.42 kcal/molUSER    (3) Torsional Free Energy           =  +2.09 kcal/molUSER    (4) Unbound System's Energy         =  -2.42 kcal/molUSERUSERREMARK SMILES Oc1ccc(-c2nc3cc(F)ccc3nc2-c2ccc(CN3CCC(n4c(O)nc5ccccc54)CC3)cc2)cc1REMARK SMILES IDX 17 1 18 2 19 3 20 4 38 5 39 6 16 7 6 8 7 9 8 10 15 11 9 12REMARK SMILES IDX 14 13 10 14 13 15 12 16 11 17 5 18 2 19 3 20 41 21 4 22REMARK SMILES IDX 40 23 1 24 21 26 22 27 23 28 37 29 24 30 36 31 25 32 26 33REMARK SMILES IDX 27 34 35 35 29 36 34 37 30 38 33 39 31 40 32 41 28 42REMARK H PARENT 1 25 28 43USER                              x       y       z     vdW  Elec       q    TypeUSER                           _______ _______ _______ _____ _____    ______ ____ROOTATOM      1  C   UNL     1      35.936  44.775  17.708 -0.32 -0.00    +0.002 A  ATOM      2  C   UNL     1      36.009  44.022  16.523 -0.35 -0.00    +0.011 A  ATOM      3  C   UNL     1      35.928  44.634  15.267 -0.35 -0.00    +0.006 A  ATOM      4  C   UNL     1      35.765  46.020  15.164 -0.35 +0.03    -0.034 A  ATOM      5  C   UNL     1      35.671  46.777  16.339 -0.19 -0.01    +0.006 A  ATOM      6  C   UNL     1      35.751  46.162  17.592 -0.33 -0.01    +0.011 A  ENDROOTBRANCH   1   7ATOM      7  C   UNL     1      36.042  44.107  19.017 -0.30 -0.02    +0.097 A  ATOM      8  C   UNL     1      35.164  43.119  19.492 -0.35 -0.01    +0.097 A  ATOM      9  N   UNL     1      35.381  42.509  20.694 -0.32 -0.01    -0.244 NA ATOM     10  C   UNL     1      36.437  42.914  21.419 -0.36 +0.00    +0.092 A  ATOM     11  N   UNL     1      37.105  44.524  19.764 -0.21 +0.02    -0.244 NA ATOM     12  C   UNL     1      36.680  42.328  22.652 -0.42 +0.01    +0.069 A  ATOM     13  C   UNL     1      37.303  43.931  20.953 -0.34 +0.00    +0.090 A  ATOM     14  C   UNL     1      37.759  42.737  23.425 -0.29 +0.01    +0.125 A  ATOM     15  C   UNL     1      38.378  44.325  21.743 -0.33 +0.00    +0.033 A  ATOM     16  C   UNL     1      38.614  43.734  22.984 -0.27 +0.00    +0.041 A  ATOM     17  F   UNL     1      37.975  42.160  24.614 -0.07 -0.01    -0.207 F  BRANCH   8  18ATOM     18  C   UNL     1      33.941  42.659  18.806 -0.39 -0.00    +0.003 A  ATOM     19  C   UNL     1      31.598  41.830  17.485 -0.24 -0.03    +0.115 A  ATOM     20  C   UNL     1      31.669  43.113  18.014 -0.27 -0.01    +0.047 A  ATOM     21  C   UNL     1      32.674  40.958  17.594 -0.31 -0.02    +0.047 A  ATOM     22  C   UNL     1      32.836  43.522  18.667 -0.37 -0.00    +0.014 A  ATOM     23  C   UNL     1      33.840  41.373  18.244 -0.27 -0.00    +0.014 A  BRANCH  19  24ATOM     24  O   UNL     1      30.482  41.388  16.837 -0.07 +0.14    -0.508 OA ATOM     25  H   UNL     1      30.751  40.990  15.992 -0.16 -0.14    +0.293 HD ENDBRANCH  19  24ENDBRANCH   8  18ENDBRANCH   1   7BRANCH   4  26ATOM     26  C   UNL     1      35.672  46.685  13.807 -0.45 -0.08    +0.120 C  BRANCH  26  27ATOM     27  N   UNL     1      36.963  47.160  13.280 -0.37 +0.13    -0.299 NA ATOM     28  C   UNL     1      37.366  48.477  13.786 -0.55 -0.04    +0.087 C  ATOM     29  C   UNL     1      38.008  46.135  13.436 -0.34 -0.02    +0.087 C  ATOM     30  C   UNL     1      37.865  48.455  15.231 -0.56 -0.03    +0.041 C  ATOM     31  C   UNL     1      39.265  46.606  14.173 -0.38 -0.01    +0.041 C  ATOM     32  C   UNL     1      38.868  47.313  15.473 -0.46 -0.03    +0.095 C  BRANCH  32  33ATOM     33  N   UNL     1      40.021  47.727  16.259 -0.29 +0.07    -0.291 N  ATOM     34  C   UNL     1      40.811  48.820  16.031 -0.34 -0.05    +0.295 A  ATOM     35  C   UNL     1      40.526  47.095  17.378 -0.46 -0.01    +0.072 A  ATOM     36  N   UNL     1      41.773  48.954  16.902 -0.86 -0.03    -0.195 NA ATOM     37  C   UNL     1      40.158  45.941  18.085 -0.45 -0.00    +0.029 A  ATOM     38  C   UNL     1      41.612  47.888  17.754 -0.38 -0.01    +0.092 A  ATOM     39  C   UNL     1      40.926  45.602  19.206 -0.45 +0.00    +0.002 A  ATOM     40  C   UNL     1      42.369  47.532  18.882 -0.48 +0.00    +0.031 A  ATOM     41  C   UNL     1      42.013  46.383  19.602 -0.44 +0.00    +0.002 A  BRANCH  34  42ATOM     42  O   UNL     1      40.640  49.678  15.046 -0.28 +0.18    -0.480 OA ATOM     43  H   UNL     1      39.823  50.131  15.330 -0.16 -0.21    +0.296 HD ENDBRANCH  34  42ENDBRANCH  32  33ENDBRANCH  26  27ENDBRANCH   4  26TORSDOF 7TERENDMDL