REMARK SMILES Oc1ccc(-c2nc3cc(F)ccc3nc2-c2ccc(CN3CCC(n4c(O)nc5ccccc54)CC3)cc2)cc1
REMARK SMILES IDX 17 1 18 2 19 3 20 4 38 5 39 6 16 7 6 8 7 9 8 10 15 11 9 12
REMARK SMILES IDX 14 13 10 14 13 15 12 16 11 17 5 18 2 19 3 20 41 21 4 22
REMARK SMILES IDX 40 23 1 24 21 26 22 27 23 28 37 29 24 30 36 31 25 32 26 33
REMARK SMILES IDX 27 34 35 35 29 36 34 37 30 38 33 39 31 40 32 41 28 42
REMARK H PARENT 1 25 28 43
ROOT
ATOM      1  C   UNL     1      -2.810   0.899   1.007  1.00  0.00     0.002 A 
ATOM      2  C   UNL     1      -1.700   1.761   0.974  1.00  0.00     0.011 A 
ATOM      3  C   UNL     1      -0.425   1.318   1.343  1.00  0.00     0.006 A 
ATOM      4  C   UNL     1      -0.228  -0.002   1.764  1.00  0.00    -0.034 A 
ATOM      5  C   UNL     1      -1.331  -0.863   1.820  1.00  0.00     0.006 A 
ATOM      6  C   UNL     1      -2.604  -0.417   1.451  1.00  0.00     0.011 A 
ENDROOT
BRANCH   1   7
ATOM      7  C   UNL     1      -4.138   1.386   0.596  1.00  0.00     0.097 A 
ATOM      8  C   UNL     1      -4.962   0.772  -0.362  1.00  0.00     0.097 A 
ATOM      9  N   UNL     1      -6.208   1.261  -0.630  1.00  0.00    -0.244 NA
ATOM     10  C   UNL     1      -6.600   2.367   0.025  1.00  0.00     0.092 A 
ATOM     11  N   UNL     1      -4.537   2.517   1.248  1.00  0.00    -0.244 NA
ATOM     12  C   UNL     1      -7.853   2.901  -0.233  1.00  0.00     0.069 A 
ATOM     13  C   UNL     1      -5.757   3.002   0.967  1.00  0.00     0.090 A 
ATOM     14  C   UNL     1      -8.277   4.050   0.423  1.00  0.00     0.125 A 
ATOM     15  C   UNL     1      -6.202   4.151   1.613  1.00  0.00     0.033 A 
ATOM     16  C   UNL     1      -7.462   4.685   1.346  1.00  0.00     0.041 A 
ATOM     17  F   UNL     1      -9.490   4.551   0.158  1.00  0.00    -0.207 F 
BRANCH   8  18
ATOM     18  C   UNL     1      -4.595  -0.398  -1.183  1.00  0.00     0.003 A 
ATOM     19  C   UNL     1      -3.944  -2.639  -2.757  1.00  0.00     0.115 A 
ATOM     20  C   UNL     1      -5.152  -2.611  -2.071  1.00  0.00     0.047 A 
ATOM     21  C   UNL     1      -3.061  -1.569  -2.681  1.00  0.00     0.047 A 
ATOM     22  C   UNL     1      -5.473  -1.494  -1.292  1.00  0.00     0.014 A 
ATOM     23  C   UNL     1      -3.388  -0.453  -1.905  1.00  0.00     0.014 A 
BRANCH  19  24
ATOM     24  O   UNL     1      -3.590  -3.704  -3.531  1.00  0.00    -0.508 OA
ATOM     25  H   UNL     1      -4.303  -4.363  -3.498  1.00  0.00     0.293 HD
ENDBRANCH  19  24
ENDBRANCH   8  18
ENDBRANCH   1   7
BRANCH   4  26
ATOM     26  C   UNL     1       1.149  -0.483   2.169  1.00  0.00     0.120 C 
BRANCH  26  27
ATOM     27  N   UNL     1       1.657  -1.605   1.361  1.00  0.00    -0.299 NA
ATOM     28  C   UNL     1       1.810  -1.293  -0.065  1.00  0.00     0.087 C 
ATOM     29  C   UNL     1       2.872  -2.182   1.960  1.00  0.00     0.087 C 
ATOM     30  C   UNL     1       3.017  -0.408  -0.375  1.00  0.00     0.041 C 
ATOM     31  C   UNL     1       4.078  -2.258   1.021  1.00  0.00     0.041 C 
ATOM     32  C   UNL     1       4.288  -0.902   0.338  1.00  0.00     0.095 C 
BRANCH  32  33
ATOM     33  N   UNL     1       5.464  -0.884  -0.520  1.00  0.00    -0.291 N 
ATOM     34  C   UNL     1       5.650  -1.616  -1.660  1.00  0.00     0.295 A 
ATOM     35  C   UNL     1       6.603  -0.125  -0.341  1.00  0.00     0.072 A 
ATOM     36  N   UNL     1       6.800  -1.394  -2.236  1.00  0.00    -0.195 NA
ATOM     37  C   UNL     1       7.006   0.800   0.633  1.00  0.00     0.029 A 
ATOM     38  C   UNL     1       7.411  -0.464  -1.429  1.00  0.00     0.092 A 
ATOM     39  C   UNL     1       8.266   1.390   0.477  1.00  0.00     0.002 A 
ATOM     40  C   UNL     1       8.671   0.140  -1.568  1.00  0.00     0.031 A 
ATOM     41  C   UNL     1       9.087   1.069  -0.605  1.00  0.00     0.002 A 
BRANCH  34  42
ATOM     42  O   UNL     1       4.773  -2.462  -2.162  1.00  0.00    -0.480 OA
ATOM     43  H   UNL     1       5.251  -2.783  -2.950  1.00  0.00     0.296 HD
ENDBRANCH  34  42
ENDBRANCH  32  33
ENDBRANCH  26  27
ENDBRANCH   4  26
TORSDOF 7
