REMARK SMILES CC[C@@H]1NC=Nc2c(Nc3ccc(OC)cc3F)nc(N3CC[C@@H](CN4CCOCC4)C3)nc21
REMARK SMILES IDX 3 1 4 2 5 3 6 4 7 5 8 6 19 7 20 8 33 9 34 10 2 12 1 13 21 14
REMARK SMILES IDX 22 15 32 16 23 17 24 18 25 19 26 20 27 21 31 22 28 23 30 24
REMARK SMILES IDX 29 25 9 26 10 28 11 29 17 30 12 31 16 32 13 33 18 34 14 35
REMARK SMILES IDX 15 36
REMARK H PARENT 4 11 9 27
ROOT
ATOM      1  C   UNL     1      -2.201   4.791  -0.311  1.00  0.00     0.131 C 
ATOM      2  N   UNL     1      -3.481   5.171  -0.906  1.00  0.00    -0.368 N 
ATOM      3  C   UNL     1      -4.505   4.268  -0.937  1.00  0.00     0.193 C 
ATOM      4  N   UNL     1      -4.416   2.991  -0.774  1.00  0.00    -0.234 NA
ATOM      5  C   UNL     1      -3.108   2.482  -0.584  1.00  0.00     0.131 A 
ATOM      6  C   UNL     1      -2.855   1.116  -0.524  1.00  0.00     0.162 A 
ATOM      7  N   UNL     1      -1.613   0.619  -0.335  1.00  0.00    -0.193 NA
ATOM      8  C   UNL     1      -0.594   1.474  -0.169  1.00  0.00     0.227 A 
ATOM      9  N   UNL     1      -0.746   2.807  -0.185  1.00  0.00    -0.213 NA
ATOM     10  C   UNL     1      -1.997   3.289  -0.386  1.00  0.00     0.096 A 
ATOM     11  H   UNL     1      -3.726   6.155  -0.858  1.00  0.00     0.162 HD
ENDROOT
BRANCH   1  12
ATOM     12  C   UNL     1      -2.144   5.245   1.159  1.00  0.00     0.028 C 
ATOM     13  C   UNL     1      -2.101   6.761   1.324  1.00  0.00     0.006 C 
ENDBRANCH   1  12
BRANCH   8  14
ATOM     14  N   UNL     1       0.647   0.964   0.067  1.00  0.00    -0.340 N 
ATOM     15  C   UNL     1       1.834   1.784   0.130  1.00  0.00     0.120 C 
ATOM     16  C   UNL     1       0.936  -0.450  -0.093  1.00  0.00     0.124 C 
ATOM     17  C   UNL     1       2.923   0.777   0.493  1.00  0.00     0.028 C 
ATOM     18  C   UNL     1       2.469  -0.492  -0.237  1.00  0.00     0.024 C 
BRANCH  18  19
ATOM     19  C   UNL     1       3.068  -1.788   0.320  1.00  0.00     0.090 C 
BRANCH  19  20
ATOM     20  N   UNL     1       4.541  -1.799   0.325  1.00  0.00    -0.298 NA
ATOM     21  C   UNL     1       5.111  -1.870  -1.040  1.00  0.00     0.113 C 
ATOM     22  C   UNL     1       5.046  -2.951   1.107  1.00  0.00     0.113 C 
ATOM     23  C   UNL     1       6.646  -1.970  -1.008  1.00  0.00     0.175 C 
ATOM     24  C   UNL     1       6.581  -3.004   1.095  1.00  0.00     0.175 C 
ATOM     25  O   UNL     1       7.081  -3.102  -0.243  1.00  0.00    -0.379 OA
ENDBRANCH  19  20
ENDBRANCH  18  19
ENDBRANCH   8  14
BRANCH   6  26
ATOM     26  N   UNL     1      -3.967   0.230  -0.678  1.00  0.00    -0.336 N 
ATOM     27  H   UNL     1      -4.750   0.680  -0.205  1.00  0.00     0.168 HD
BRANCH  26  28
ATOM     28  C   UNL     1      -3.908  -1.146  -0.342  1.00  0.00     0.076 A 
ATOM     29  C   UNL     1      -3.109  -2.034  -1.073  1.00  0.00     0.033 A 
ATOM     30  C   UNL     1      -4.592  -1.635   0.781  1.00  0.00     0.150 A 
ATOM     31  C   UNL     1      -3.020  -3.384  -0.705  1.00  0.00     0.049 A 
ATOM     32  C   UNL     1      -4.492  -2.967   1.166  1.00  0.00     0.087 A 
ATOM     33  C   UNL     1      -3.712  -3.853   0.418  1.00  0.00     0.121 A 
ATOM     34  F   UNL     1      -5.351  -0.800   1.512  1.00  0.00    -0.205 F 
BRANCH  33  35
ATOM     35  O   UNL     1      -3.690  -5.136   0.895  1.00  0.00    -0.497 OA
ATOM     36  C   UNL     1      -3.159  -6.132   0.024  1.00  0.00     0.278 C 
ENDBRANCH  33  35
ENDBRANCH  26  28
ENDBRANCH   6  26
TORSDOF 7
