MODEL        8USER    Run = 8USERUSER    Estimated Free Energy of Binding    = -10.02 kcal/mol  [=(1)+(2)+(3)-(4)]USERUSER    (1) Final Intermolecular Energy     = -12.10 kcal/molUSER        vdW + Hbond + desolv Energy     = -11.98 kcal/molUSER        Electrostatic Energy            =  -0.13 kcal/molUSER        Moving Ligand-Fixed Receptor    = -12.10 kcal/molUSER        Moving Ligand-Moving Receptor   =  +0.00 kcal/molUSER    (2) Final Total Internal Energy     =  -1.84 kcal/molUSER    (3) Torsional Free Energy           =  +2.09 kcal/molUSER    (4) Unbound System's Energy         =  -1.84 kcal/molUSERUSERREMARK SMILES CC[C@@H]1NC=Nc2c(Nc3ccc(OC)cc3F)nc(N3CC[C@@H](CN4CCOCC4)C3)nc21REMARK SMILES IDX 3 1 4 2 5 3 6 4 7 5 8 6 19 7 20 8 33 9 34 10 2 12 1 13 21 14REMARK SMILES IDX 22 15 32 16 23 17 24 18 25 19 26 20 27 21 31 22 28 23 30 24REMARK SMILES IDX 29 25 9 26 10 28 11 29 17 30 12 31 16 32 13 33 18 34 14 35REMARK SMILES IDX 15 36REMARK H PARENT 4 11 9 27USER                              x       y       z     vdW  Elec       q    TypeUSER                           _______ _______ _______ _____ _____    ______ ____ROOTATOM      1  C   UNL     1      30.830  39.158  18.126 -0.36 +0.01    +0.131 C  ATOM      2  N   UNL     1      30.528  39.911  16.910 -0.09 +0.02    -0.368 N  ATOM      3  C   UNL     1      29.317  40.530  16.784 -0.29 -0.01    +0.193 C  ATOM      4  N   UNL     1      28.254  40.301  17.479 -0.14 -0.02    -0.234 NA ATOM      5  C   UNL     1      28.357  39.268  18.443 -0.19 +0.03    +0.131 A  ATOM      6  C   UNL     1      27.255  38.832  19.170 -0.16 +0.01    +0.162 A  ATOM      7  N   UNL     1      27.343  37.854  20.097 -0.18 +0.04    -0.193 NA ATOM      8  C   UNL     1      28.541  37.306  20.347 -0.18 -0.01    +0.227 A  ATOM      9  N   UNL     1      29.663  37.681  19.715 -0.27 -0.05    -0.213 NA ATOM     10  C   UNL     1      29.556  38.656  18.780 -0.30 +0.02    +0.096 A  ATOM     11  H   UNL     1      31.319  40.327  16.429 -0.40 -0.07    +0.162 HD ENDROOTBRANCH   1  12ATOM     12  C   UNL     1      31.604  40.043  19.119 -0.44 +0.00    +0.028 C  ATOM     13  C   UNL     1      32.470  41.101  18.441 -0.46 -0.00    +0.006 C  ENDBRANCH   1  12BRANCH   8  14ATOM     14  N   UNL     1      28.627  36.353  21.316 -0.12 +0.06    -0.340 N  ATOM     15  C   UNL     1      29.698  36.313  22.285 -0.37 +0.00    +0.120 C  ATOM     16  C   UNL     1      27.883  35.109  21.235 -0.30 -0.06    +0.124 C  ATOM     17  C   UNL     1      29.303  35.140  23.179 -0.32 +0.01    +0.028 C  ATOM     18  C   UNL     1      28.639  34.171  22.194 -0.44 -0.00    +0.024 C  BRANCH  18  19ATOM     19  C   UNL     1      27.711  33.142  22.850 -0.42 +0.02    +0.090 C  BRANCH  19  20ATOM     20  N   UNL     1      28.320  31.809  22.991 -0.20 -0.03    -0.298 NA ATOM     21  C   UNL     1      27.997  31.174  24.290 -0.46 +0.06    +0.113 C  ATOM     22  C   UNL     1      29.793  31.897  22.864 -0.36 +0.02    +0.113 C  ATOM     23  C   UNL     1      28.715  29.822  24.453 -0.49 +0.04    +0.175 C  ATOM     24  C   UNL     1      30.453  30.522  23.045 -0.51 +0.01    +0.175 C  ATOM     25  O   UNL     1      30.135  29.965  24.325 -0.88 -0.15    -0.379 OA ENDBRANCH  19  20ENDBRANCH  18  19ENDBRANCH   8  14BRANCH   6  26ATOM     26  N   UNL     1      25.996  39.454  18.900 -0.09 +0.04    -0.336 N  ATOM     27  H   UNL     1      26.159  40.083  18.114 +0.10 -0.00    +0.168 HD BRANCH  26  28ATOM     28  C   UNL     1      25.224  40.098  19.900 -0.25 -0.02    +0.076 A  ATOM     29  C   UNL     1      24.871  39.432  21.080 -0.35 -0.02    +0.033 A  ATOM     30  C   UNL     1      24.861  41.446  19.761 -0.27 -0.03    +0.150 A  ATOM     31  C   UNL     1      24.148  40.091  22.084 -0.41 -0.02    +0.049 A  ATOM     32  C   UNL     1      24.164  42.114  20.761 -0.46 -0.02    +0.087 A  ATOM     33  C   UNL     1      23.794  41.436  21.926 -0.49 -0.02    +0.121 A  ATOM     34  F   UNL     1      25.204  42.115  18.647 -0.07 +0.03    -0.205 F  BRANCH  33  35ATOM     35  O   UNL     1      23.112  42.197  22.837 -0.89 +0.09    -0.497 OA ATOM     36  C   UNL     1      23.853  43.225  23.491 -0.44 -0.11    +0.278 C  ENDBRANCH  33  35ENDBRANCH  26  28ENDBRANCH   6  26TORSDOF 7TERENDMDL