REMARK SMILES O=C(Nc1cccc(-c2cn3ccccc3n2)c1CCN1CCOCC1)c1ccc(OC(F)(F)F)cc1
REMARK SMILES IDX 1 1 2 2 3 3 27 5 28 6 37 7 29 8 36 9 30 10 31 11 32 12 33 13
REMARK SMILES IDX 34 14 35 15 4 16 5 17 18 18 6 19 8 20 7 21 19 22 20 23 21 24
REMARK SMILES IDX 22 25 26 26 23 27 25 28 24 29 9 30 10 31 17 32 11 33 16 34
REMARK SMILES IDX 12 35 15 36 13 37 14 38
REMARK H PARENT 3 4
ROOT
ATOM      1  O   UNL     1       1.899  -0.738   1.976  1.00  0.00    -0.269 OA
ATOM      2  C   UNL     1       2.447  -0.814   0.884  1.00  0.00     0.255 C 
ATOM      3  N   UNL     1       1.929  -1.405  -0.255  1.00  0.00    -0.322 N 
ATOM      4  H   UNL     1       2.623  -1.775  -0.893  1.00  0.00     0.170 HD
ENDROOT
BRANCH   2   5
ATOM      5  C   UNL     1       3.843  -0.300   0.745  1.00  0.00     0.040 A 
ATOM      6  C   UNL     1       4.350   0.144  -0.483  1.00  0.00     0.017 A 
ATOM      7  C   UNL     1       4.653  -0.247   1.887  1.00  0.00     0.017 A 
ATOM      8  C   UNL     1       5.663   0.615  -0.567  1.00  0.00     0.047 A 
ATOM      9  C   UNL     1       5.965   0.228   1.802  1.00  0.00     0.047 A 
ATOM     10  C   UNL     1       6.460   0.675   0.577  1.00  0.00     0.129 A 
BRANCH  10  11
ATOM     11  O   UNL     1       7.745   1.109   0.420  1.00  0.00    -0.406 OA
BRANCH  11  12
ATOM     12  C   UNL     1       8.027   2.282   1.175  1.00  0.00     0.573 C 
ATOM     13  F   UNL     1       8.112   2.005   2.495  1.00  0.00    -0.132 F 
ATOM     14  F   UNL     1       9.220   2.776   0.773  1.00  0.00    -0.132 F 
ATOM     15  F   UNL     1       7.089   3.233   0.971  1.00  0.00    -0.132 F 
ENDBRANCH  11  12
ENDBRANCH  10  11
ENDBRANCH   2   5
BRANCH   3  16
ATOM     16  C   UNL     1       0.637  -1.967  -0.380  1.00  0.00     0.045 A 
ATOM     17  C   UNL     1       0.597  -3.179  -1.094  1.00  0.00     0.026 A 
ATOM     18  C   UNL     1      -0.560  -1.398   0.115  1.00  0.00    -0.014 A 
ATOM     19  C   UNL     1      -0.588  -3.891  -1.241  1.00  0.00     0.003 A 
ATOM     20  C   UNL     1      -1.746  -2.179   0.026  1.00  0.00     0.007 A 
ATOM     21  C   UNL     1      -1.749  -3.402  -0.662  1.00  0.00     0.011 A 
BRANCH  18  22
ATOM     22  C   UNL     1      -0.654   0.042   0.609  1.00  0.00     0.054 C 
BRANCH  22  23
ATOM     23  C   UNL     1      -0.077   1.135  -0.323  1.00  0.00     0.089 C 
BRANCH  23  24
ATOM     24  N   UNL     1      -0.565   1.121  -1.714  1.00  0.00    -0.298 NA
ATOM     25  C   UNL     1      -2.038   1.248  -1.793  1.00  0.00     0.113 C 
ATOM     26  C   UNL     1       0.092   2.154  -2.541  1.00  0.00     0.113 C 
ATOM     27  C   UNL     1      -2.497   1.781  -3.159  1.00  0.00     0.175 C 
ATOM     28  C   UNL     1      -0.778   3.399  -2.771  1.00  0.00     0.175 C 
ATOM     29  O   UNL     1      -2.012   3.104  -3.436  1.00  0.00    -0.379 OA
ENDBRANCH  23  24
ENDBRANCH  22  23
ENDBRANCH  18  22
BRANCH  20  30
ATOM     30  C   UNL     1      -3.008  -1.776   0.621  1.00  0.00     0.090 A 
ATOM     31  C   UNL     1      -3.224  -1.595   1.970  1.00  0.00     0.121 A 
ATOM     32  N   UNL     1      -4.164  -1.591  -0.099  1.00  0.00    -0.229 NA
ATOM     33  N   UNL     1      -4.547  -1.255   2.082  1.00  0.00    -0.306 N 
ATOM     34  C   UNL     1      -5.075  -1.262   0.793  1.00  0.00     0.137 A 
ATOM     35  C   UNL     1      -5.292  -0.951   3.219  1.00  0.00     0.093 A 
ATOM     36  C   UNL     1      -6.453  -0.932   0.657  1.00  0.00     0.048 A 
ATOM     37  C   UNL     1      -6.594  -0.642   3.083  1.00  0.00     0.018 A 
ATOM     38  C   UNL     1      -7.182  -0.633   1.752  1.00  0.00     0.005 A 
ENDBRANCH  20  30
ENDBRANCH   3  16
TORSDOF 8
