MODEL        2USER    Run = 2USERUSER    Estimated Free Energy of Binding    = -10.29 kcal/mol  [=(1)+(2)+(3)-(4)]USERUSER    (1) Final Intermolecular Energy     = -12.68 kcal/molUSER        vdW + Hbond + desolv Energy     = -12.64 kcal/molUSER        Electrostatic Energy            =  -0.04 kcal/molUSER        Moving Ligand-Fixed Receptor    = -12.68 kcal/molUSER        Moving Ligand-Moving Receptor   =  +0.00 kcal/molUSER    (2) Final Total Internal Energy     =  -1.80 kcal/molUSER    (3) Torsional Free Energy           =  +2.39 kcal/molUSER    (4) Unbound System's Energy         =  -1.80 kcal/molUSERUSERREMARK SMILES O=C(Nc1cccc(-c2cn3ccccc3n2)c1CCN1CCOCC1)c1ccc(OC(F)(F)F)cc1REMARK SMILES IDX 1 1 2 2 3 3 27 5 28 6 37 7 29 8 36 9 30 10 31 11 32 12 33 13REMARK SMILES IDX 34 14 35 15 4 16 5 17 18 18 6 19 8 20 7 21 19 22 20 23 21 24REMARK SMILES IDX 22 25 26 26 23 27 25 28 24 29 9 30 10 31 17 32 11 33 16 34REMARK SMILES IDX 12 35 15 36 13 37 14 38REMARK H PARENT 3 4USER                              x       y       z     vdW  Elec       q    TypeUSER                           _______ _______ _______ _____ _____    ______ ____ROOTATOM      1  O   UNL     1      38.491  45.989  22.279 -0.26 -0.03    -0.269 OA ATOM      2  C   UNL     1      38.190  44.858  21.921 -0.25 +0.02    +0.255 C  ATOM      3  N   UNL     1      38.286  44.350  20.637 -0.16 +0.00    -0.322 N  ATOM      4  H   UNL     1      37.619  43.619  20.420 +0.11 -0.00    +0.170 HD ENDROOTBRANCH   2   5ATOM      5  C   UNL     1      37.584  43.927  22.920 -0.33 +0.00    +0.040 A  ATOM      6  C   UNL     1      37.220  42.616  22.585 -0.43 +0.00    +0.017 A  ATOM      7  C   UNL     1      37.397  44.383  24.231 -0.32 +0.00    +0.017 A  ATOM      8  C   UNL     1      36.654  41.780  23.552 -0.42 +0.00    +0.047 A  ATOM      9  C   UNL     1      36.834  43.544  25.198 -0.33 +0.00    +0.047 A  ATOM     10  C   UNL     1      36.481  42.238  24.859 -0.29 -0.00    +0.129 A  BRANCH  10  11ATOM     11  O   UNL     1      35.888  41.385  25.745 -0.23 +0.12    -0.406 OA BRANCH  11  12ATOM     12  C   UNL     1      36.496  41.416  27.032 -0.13 -0.17    +0.573 C  ATOM     13  F   UNL     1      37.843  41.472  26.934 -0.16 +0.02    -0.132 F  ATOM     14  F   UNL     1      36.077  42.527  27.679 -0.17 +0.04    -0.132 F  ATOM     15  F   UNL     1      36.139  40.341  27.768 -0.26 +0.05    -0.132 F  ENDBRANCH  11  12ENDBRANCH  10  11ENDBRANCH   2   5BRANCH   3  16ATOM     16  C   UNL     1      38.818  45.031  19.517 -0.36 -0.00    +0.045 A  ATOM     17  C   UNL     1      40.151  45.454  19.674 -0.40 +0.00    +0.026 A  ATOM     18  C   UNL     1      38.119  45.325  18.323 -0.37 +0.00    -0.014 A  ATOM     19  C   UNL     1      40.839  46.073  18.636 -0.49 -0.00    +0.003 A  ATOM     20  C   UNL     1      38.862  45.885  17.246 -0.41 -0.00    +0.007 A  ATOM     21  C   UNL     1      40.201  46.265  17.420 -0.47 -0.00    +0.011 A  BRANCH  18  22ATOM     22  C   UNL     1      36.605  45.193  18.192 -0.34 -0.02    +0.054 C  BRANCH  22  23ATOM     23  C   UNL     1      36.084  44.143  17.181 -0.32 -0.03    +0.089 C  BRANCH  23  24ATOM     24  N   UNL     1      34.860  43.421  17.573 -0.12 +0.10    -0.298 NA ATOM     25  C   UNL     1      35.107  42.447  18.660 -0.38 -0.02    +0.113 C  ATOM     26  C   UNL     1      33.767  44.345  17.939 -0.31 -0.04    +0.113 C  ATOM     27  C   UNL     1      33.824  42.112  19.436 -0.29 +0.00    +0.175 C  ATOM     28  C   UNL     1      33.572  44.491  19.456 -0.33 -0.04    +0.175 C  ATOM     29  O   UNL     1      33.259  43.252  20.102 -0.80 -0.05    -0.379 OA ENDBRANCH  23  24ENDBRANCH  22  23ENDBRANCH  18  22BRANCH  20  30ATOM     30  C   UNL     1      38.301  46.102  15.924 -0.32 -0.03    +0.090 A  ATOM     31  C   UNL     1      37.919  47.325  15.418 -0.35 -0.06    +0.121 A  ATOM     32  N   UNL     1      38.023  45.087  15.040 -0.20 +0.07    -0.229 NA ATOM     33  N   UNL     1      37.421  47.061  14.169 -0.21 +0.14    -0.306 N  ATOM     34  C   UNL     1      37.509  45.683  13.984 -0.33 -0.05    +0.137 A  ATOM     35  C   UNL     1      36.906  47.936  13.215 -0.53 -0.04    +0.093 A  ATOM     36  C   UNL     1      37.047  45.167  12.740 -0.46 -0.02    +0.048 A  ATOM     37  C   UNL     1      36.469  47.441  12.043 -0.62 -0.01    +0.018 A  ATOM     38  C   UNL     1      36.550  46.007  11.809 -0.61 -0.00    +0.005 A  ENDBRANCH  20  30ENDBRANCH   3  16TORSDOF 8TERENDMDL