MODEL        5USER    Run = 5USERUSER    Estimated Free Energy of Binding    =  -9.63 kcal/mol  [=(1)+(2)+(3)-(4)]USERUSER    (1) Final Intermolecular Energy     = -12.61 kcal/molUSER        vdW + Hbond + desolv Energy     = -12.38 kcal/molUSER        Electrostatic Energy            =  -0.23 kcal/molUSER        Moving Ligand-Fixed Receptor    = -12.61 kcal/molUSER        Moving Ligand-Moving Receptor   =  +0.00 kcal/molUSER    (2) Final Total Internal Energy     =  -2.74 kcal/molUSER    (3) Torsional Free Energy           =  +2.98 kcal/molUSER    (4) Unbound System's Energy         =  -2.74 kcal/molUSERUSERREMARK SMILES N#Cc1ccc(C(=O)c2ccc(CN3CCN(c4nc5ccccc5[nH]4)CC3)cc2)c(OCCc2nnc[nH]2)c1REMARK SMILES IDX 3 1 4 2 5 3 6 4 31 5 40 6 2 7 1 8 32 9 33 10 34 11 35 12REMARK SMILES IDX 36 13 39 14 37 15 38 16 7 18 8 19 9 20 10 21 30 22 11 23REMARK SMILES IDX 29 24 12 25 13 26 14 27 15 28 28 29 16 30 27 31 17 32 18 33REMARK SMILES IDX 19 34 26 35 20 36 25 37 21 38 24 39 22 40 23 41REMARK H PARENT 39 17 26 42USER                              x       y       z     vdW  Elec       q    TypeUSER                           _______ _______ _______ _____ _____    ______ ____ROOTATOM      1  C   UNL     1      37.692  43.806  24.258 -0.28 +0.00    +0.056 A  ATOM      2  C   UNL     1      38.291  42.806  23.486 -0.30 +0.00    +0.020 A  ATOM      3  C   UNL     1      39.204  43.147  22.484 -0.27 +0.00    +0.017 A  ATOM      4  C   UNL     1      39.507  44.493  22.235 -0.24 +0.00    +0.065 A  ATOM      5  C   UNL     1      38.902  45.498  23.001 -0.24 +0.01    +0.131 A  ATOM      6  C   UNL     1      38.006  45.149  24.022 -0.26 +0.01    +0.066 A  ENDROOTBRANCH   1   7ATOM      7  C   UNL     1      36.778  43.461  25.309 -0.35 +0.00    +0.099 C  ATOM      8  N   UNL     1      36.018  43.210  26.147 -0.29 +0.02    -0.192 NA ENDBRANCH   1   7BRANCH   5   9ATOM      9  O   UNL     1      39.284  46.806  22.854 -0.08 -0.06    -0.492 OA BRANCH   9  10ATOM     10  C   UNL     1      38.941  47.639  23.977 -0.29 +0.03    +0.237 C  BRANCH  10  11ATOM     11  C   UNL     1      40.203  48.033  24.738 -0.28 +0.01    +0.119 C  BRANCH  11  12ATOM     12  C   UNL     1      41.367  48.167  23.828 -0.26 +0.02    +0.133 A  ATOM     13  N   UNL     1      42.156  49.213  23.694 -0.88 -0.04    -0.136 NA ATOM     14  N   UNL     1      41.796  47.178  22.983 -0.10 -0.04    -0.331 N  ATOM     15  N   UNL     1      43.130  48.892  22.776 -0.81 -0.04    -0.139 NA ATOM     16  C   UNL     1      42.906  47.665  22.365 -0.22 +0.04    +0.223 A  ATOM     17  H   UNL     1      41.383  46.265  22.855 +0.08 +0.02    +0.169 HD ENDBRANCH  11  12ENDBRANCH  10  11ENDBRANCH   9  10ENDBRANCH   5   9BRANCH   4  18ATOM     18  C   UNL     1      40.508  44.779  21.184 -0.25 +0.01    +0.196 C  ATOM     19  O   UNL     1      41.697  44.628  21.452 -0.18 -0.04    -0.288 OA BRANCH  18  20ATOM     20  C   UNL     1      40.099  45.213  19.823 -0.39 +0.00    +0.023 A  ATOM     21  C   UNL     1      38.807  45.678  19.550 -0.26 -0.00    +0.012 A  ATOM     22  C   UNL     1      41.038  45.124  18.791 -0.44 +0.00    +0.012 A  ATOM     23  C   UNL     1      38.477  46.107  18.261 -0.26 -0.00    +0.006 A  ATOM     24  C   UNL     1      40.703  45.547  17.504 -0.39 -0.00    +0.006 A  ATOM     25  C   UNL     1      39.427  46.062  17.230 -0.41 +0.01    -0.034 A  BRANCH  25  26ATOM     26  C   UNL     1      39.091  46.541  15.833 -0.41 -0.03    +0.120 C  BRANCH  26  27ATOM     27  N   UNL     1      37.943  45.838  15.243 -0.16 +0.10    -0.296 NA ATOM     28  C   UNL     1      36.726  46.683  15.229 -0.38 -0.07    +0.106 C  ATOM     29  C   UNL     1      37.688  44.542  15.903 -0.25 -0.03    +0.106 C  ATOM     30  C   UNL     1      35.599  46.274  16.207 -0.31 -0.13    +0.135 C  ATOM     31  C   UNL     1      36.294  43.961  15.584 -0.36 -0.05    +0.135 C  ATOM     32  N   UNL     1      35.231  44.859  16.041 -0.10 +0.19    -0.340 N  BRANCH  32  33ATOM     33  C   UNL     1      33.915  44.540  15.979 -0.17 -0.12    +0.203 A  ATOM     34  N   UNL     1      33.365  43.355  16.126 -0.22 +0.10    -0.213 NA ATOM     35  N   UNL     1      32.948  45.486  15.737 -0.14 +0.29    -0.324 N  ATOM     36  C   UNL     1      32.011  43.543  15.994 -0.28 -0.04    +0.091 A  ATOM     37  C   UNL     1      31.720  44.880  15.755 -0.32 -0.03    +0.067 A  ATOM     38  C   UNL     1      30.963  42.615  16.066 -0.32 -0.01    +0.030 A  ATOM     39  C   UNL     1      30.421  45.368  15.593 -0.39 -0.01    +0.028 A  ATOM     40  C   UNL     1      29.646  43.075  15.908 -0.28 -0.00    +0.002 A  ATOM     41  C   UNL     1      29.384  44.431  15.683 -0.30 -0.00    +0.002 A  ATOM     42  H   UNL     1      33.117  46.466  15.584 -0.34 -0.35    +0.170 HD ENDBRANCH  32  33ENDBRANCH  26  27ENDBRANCH  25  26ENDBRANCH  18  20ENDBRANCH   4  18TORSDOF 10TERENDMDL