REMARK SMILES N#Cc1ccc(C(=O)c2ccc(CN3CCN(c4nc5ccccc5[nH]4)CC3)cc2)c(OCCn2ccnc2)c1
REMARK SMILES IDX 7 1 8 2 6 3 3 4 4 5 40 6 5 7 31 8 2 9 1 10 32 11 33 12 34 13
REMARK SMILES IDX 35 14 36 15 39 16 37 17 38 18 9 19 10 20 30 21 11 22 29 23
REMARK SMILES IDX 12 24 13 25 14 26 15 27 28 28 16 29 27 30 17 31 18 32 19 33
REMARK SMILES IDX 26 34 20 35 25 36 21 37 24 38 22 39 23 40
REMARK H PARENT 26 41
ROOT
ATOM      1  C   UNL     1      -3.112  -2.248   1.446  1.00  0.00     0.196 C 
ATOM      2  O   UNL     1      -3.121  -2.747   2.570  1.00  0.00    -0.288 OA
ENDROOT
BRANCH   1   3
ATOM      3  C   UNL     1      -4.208  -2.606   0.520  1.00  0.00     0.065 A 
ATOM      4  C   UNL     1      -6.264  -3.401  -1.214  1.00  0.00     0.056 A 
ATOM      5  C   UNL     1      -5.558  -4.356  -0.476  1.00  0.00     0.020 A 
ATOM      6  C   UNL     1      -5.962  -2.043  -1.062  1.00  0.00     0.066 A 
ATOM      7  C   UNL     1      -4.538  -3.959   0.394  1.00  0.00     0.017 A 
ATOM      8  C   UNL     1      -4.957  -1.647  -0.175  1.00  0.00     0.131 A 
BRANCH   4   9
ATOM      9  C   UNL     1      -7.290  -3.815  -2.126  1.00  0.00     0.099 C 
ATOM     10  N   UNL     1      -8.107  -4.171  -2.870  1.00  0.00    -0.192 NA
ENDBRANCH   4   9
BRANCH   8  11
ATOM     11  O   UNL     1      -4.700  -0.310  -0.063  1.00  0.00    -0.491 OA
BRANCH  11  12
ATOM     12  C   UNL     1      -5.458   0.272   1.012  1.00  0.00     0.251 C 
BRANCH  12  13
ATOM     13  C   UNL     1      -5.567   1.775   0.765  1.00  0.00     0.164 C 
BRANCH  13  14
ATOM     14  N   UNL     1      -6.506   2.077  -0.298  1.00  0.00    -0.334 N 
ATOM     15  C   UNL     1      -7.816   2.436  -0.146  1.00  0.00     0.107 A 
ATOM     16  C   UNL     1      -6.238   2.030  -1.636  1.00  0.00     0.199 A 
ATOM     17  C   UNL     1      -8.296   2.566  -1.428  1.00  0.00     0.130 A 
ATOM     18  N   UNL     1      -7.308   2.309  -2.346  1.00  0.00    -0.245 NA
ENDBRANCH  13  14
ENDBRANCH  12  13
ENDBRANCH  11  12
ENDBRANCH   8  11
ENDBRANCH   1   3
BRANCH   1  19
ATOM     19  C   UNL     1      -2.023  -1.309   1.059  1.00  0.00     0.023 A 
ATOM     20  C   UNL     1      -1.328  -0.647   2.079  1.00  0.00     0.012 A 
ATOM     21  C   UNL     1      -1.675  -1.077  -0.274  1.00  0.00     0.012 A 
ATOM     22  C   UNL     1      -0.325   0.275   1.767  1.00  0.00     0.006 A 
ATOM     23  C   UNL     1      -0.672  -0.153  -0.582  1.00  0.00     0.006 A 
ATOM     24  C   UNL     1       0.010   0.540   0.431  1.00  0.00    -0.034 A 
BRANCH  24  25
ATOM     25  C   UNL     1       1.060   1.575   0.086  1.00  0.00     0.120 C 
BRANCH  25  26
ATOM     26  N   UNL     1       2.418   1.091  -0.112  1.00  0.00    -0.296 NA
ATOM     27  C   UNL     1       3.161   0.717   1.095  1.00  0.00     0.106 C 
ATOM     28  C   UNL     1       2.637   0.178  -1.236  1.00  0.00     0.106 C 
ATOM     29  C   UNL     1       4.153  -0.458   0.908  1.00  0.00     0.135 C 
ATOM     30  C   UNL     1       4.149   0.003  -1.534  1.00  0.00     0.135 C 
ATOM     31  N   UNL     1       4.941  -0.315  -0.321  1.00  0.00    -0.340 N 
BRANCH  31  32
ATOM     32  C   UNL     1       6.227   0.137  -0.316  1.00  0.00     0.203 A 
ATOM     33  N   UNL     1       6.868   0.734  -1.300  1.00  0.00    -0.213 NA
ATOM     34  N   UNL     1       7.055   0.003   0.771  1.00  0.00    -0.324 N 
ATOM     35  C   UNL     1       8.116   1.040  -0.816  1.00  0.00     0.091 A 
ATOM     36  C   UNL     1       8.261   0.594   0.489  1.00  0.00     0.067 A 
ATOM     37  C   UNL     1       9.181   1.714  -1.436  1.00  0.00     0.030 A 
ATOM     38  C   UNL     1       9.430   0.767   1.233  1.00  0.00     0.028 A 
ATOM     39  C   UNL     1      10.363   1.913  -0.710  1.00  0.00     0.002 A 
ATOM     40  C   UNL     1      10.481   1.448   0.603  1.00  0.00     0.002 A 
ATOM     41  H   UNL     1       6.824  -0.466   1.630  1.00  0.00     0.170 HD
ENDBRANCH  31  32
ENDBRANCH  25  26
ENDBRANCH  24  25
ENDBRANCH   1  19
TORSDOF 10
