REMARK SMILES N#Cc1ccc(C(=O)c2ccc(CN3CCN(c4nc5ccccc5[nH]4)CC3)cc2)c(OCCc2nnc[nH]2)c1
REMARK SMILES IDX 3 1 4 2 5 3 6 4 31 5 40 6 2 7 1 8 32 9 33 10 34 11 35 12
REMARK SMILES IDX 36 13 39 14 37 15 38 16 7 18 8 19 9 20 10 21 30 22 11 23
REMARK SMILES IDX 29 24 12 25 13 26 14 27 15 28 28 29 16 30 27 31 17 32 18 33
REMARK SMILES IDX 19 34 26 35 20 36 25 37 21 38 24 39 22 40 23 41
REMARK H PARENT 39 17 26 42
ROOT
ATOM      1  C   UNL     1       6.633  -3.845   0.978  1.00  0.00     0.056 A 
ATOM      2  C   UNL     1       5.938  -4.604   0.031  1.00  0.00     0.020 A 
ATOM      3  C   UNL     1       5.017  -3.988  -0.821  1.00  0.00     0.017 A 
ATOM      4  C   UNL     1       4.770  -2.612  -0.715  1.00  0.00     0.065 A 
ATOM      5  C   UNL     1       5.458  -1.850   0.238  1.00  0.00     0.131 A 
ATOM      6  C   UNL     1       6.400  -2.468   1.073  1.00  0.00     0.066 A 
ENDROOT
BRANCH   1   7
ATOM      7  C   UNL     1       7.603  -4.465   1.835  1.00  0.00     0.099 C 
ATOM      8  N   UNL     1       8.391  -4.934   2.543  1.00  0.00    -0.192 NA
ENDBRANCH   1   7
BRANCH   5   9
ATOM      9  O   UNL     1       5.320  -0.487   0.266  1.00  0.00    -0.492 OA
BRANCH   9  10
ATOM     10  C   UNL     1       4.822   0.018   1.519  1.00  0.00     0.237 C 
BRANCH  10  11
ATOM     11  C   UNL     1       5.784   1.059   2.081  1.00  0.00     0.119 C 
BRANCH  11  12
ATOM     12  C   UNL     1       5.661   2.354   1.367  1.00  0.00     0.133 A 
ATOM     13  N   UNL     1       4.726   3.267   1.530  1.00  0.00    -0.136 NA
ATOM     14  N   UNL     1       6.545   2.791   0.416  1.00  0.00    -0.331 N 
ATOM     15  N   UNL     1       5.021   4.325   0.701  1.00  0.00    -0.139 NA
ATOM     16  C   UNL     1       6.119   4.028   0.045  1.00  0.00     0.223 A 
ATOM     17  H   UNL     1       7.358   2.301   0.070  1.00  0.00     0.169 HD
ENDBRANCH  11  12
ENDBRANCH  10  11
ENDBRANCH   9  10
ENDBRANCH   5   9
BRANCH   4  18
ATOM     18  C   UNL     1       3.809  -2.021  -1.672  1.00  0.00     0.196 C 
ATOM     19  O   UNL     1       3.954  -2.257  -2.869  1.00  0.00    -0.288 OA
BRANCH  18  20
ATOM     20  C   UNL     1       2.673  -1.182  -1.210  1.00  0.00     0.023 A 
ATOM     21  C   UNL     1       2.073  -1.370   0.041  1.00  0.00     0.012 A 
ATOM     22  C   UNL     1       2.184  -0.198  -2.074  1.00  0.00     0.012 A 
ATOM     23  C   UNL     1       1.028  -0.535   0.447  1.00  0.00     0.006 A 
ATOM     24  C   UNL     1       1.136   0.630  -1.668  1.00  0.00     0.006 A 
ATOM     25  C   UNL     1       0.561   0.484  -0.397  1.00  0.00    -0.034 A 
BRANCH  25  26
ATOM     26  C   UNL     1      -0.557   1.409   0.037  1.00  0.00     0.120 C 
BRANCH  26  27
ATOM     27  N   UNL     1      -1.820   1.159  -0.672  1.00  0.00    -0.296 NA
ATOM     28  C   UNL     1      -2.818   2.223  -0.411  1.00  0.00     0.106 C 
ATOM     29  C   UNL     1      -2.370  -0.178  -0.370  1.00  0.00     0.106 C 
ATOM     30  C   UNL     1      -4.028   1.824   0.469  1.00  0.00     0.135 C 
ATOM     31  C   UNL     1      -3.852  -0.331  -0.775  1.00  0.00     0.135 C 
ATOM     32  N   UNL     1      -4.697   0.622  -0.053  1.00  0.00    -0.340 N 
BRANCH  32  33
ATOM     33  C   UNL     1      -6.050   0.628  -0.144  1.00  0.00     0.203 A 
ATOM     34  N   UNL     1      -6.886   1.523   0.334  1.00  0.00    -0.213 NA
ATOM     35  N   UNL     1      -6.740  -0.370  -0.789  1.00  0.00    -0.324 N 
ATOM     36  C   UNL     1      -8.143   1.102  -0.026  1.00  0.00     0.091 A 
ATOM     37  C   UNL     1      -8.079  -0.087  -0.742  1.00  0.00     0.067 A 
ATOM     38  C   UNL     1      -9.393   1.685   0.224  1.00  0.00     0.030 A 
ATOM     39  C   UNL     1      -9.204  -0.742  -1.249  1.00  0.00     0.028 A 
ATOM     40  C   UNL     1     -10.542   1.051  -0.274  1.00  0.00     0.002 A 
ATOM     41  C   UNL     1     -10.444  -0.138  -1.004  1.00  0.00     0.002 A 
ATOM     42  H   UNL     1      -6.325  -1.172  -1.233  1.00  0.00     0.170 HD
ENDBRANCH  32  33
ENDBRANCH  26  27
ENDBRANCH  25  26
ENDBRANCH  18  20
ENDBRANCH   4  18
TORSDOF 10
