REMARK SMILES N#Cc1ccc(C(=O)c2ccc(CN3CCN(c4nc5ccccc5[nH]4)CC3)cc2)c(OCCc2nc(N)n[nH]2)c1
REMARK SMILES IDX 3 1 4 2 5 3 6 4 31 5 41 6 2 7 1 8 32 9 33 10 34 11 35 12
REMARK SMILES IDX 36 13 40 14 37 15 39 16 38 18 7 21 8 22 9 23 10 24 30 25
REMARK SMILES IDX 11 26 29 27 12 28 13 29 14 30 15 31 28 32 16 33 27 34 17 35
REMARK SMILES IDX 18 36 19 37 26 38 20 39 25 40 21 41 24 42 22 43 23 44
REMARK H PARENT 40 17 38 19 38 20 26 45
ROOT
ATOM      1  C   UNL     1      -6.240  -3.776  -1.351  1.00  0.00     0.056 A 
ATOM      2  C   UNL     1      -4.944  -4.244  -1.099  1.00  0.00     0.020 A 
ATOM      3  C   UNL     1      -3.994  -3.400  -0.519  1.00  0.00     0.017 A 
ATOM      4  C   UNL     1      -4.339  -2.082  -0.182  1.00  0.00     0.065 A 
ATOM      5  C   UNL     1      -5.647  -1.625  -0.397  1.00  0.00     0.131 A 
ATOM      6  C   UNL     1      -6.586  -2.464  -1.010  1.00  0.00     0.066 A 
ENDROOT
BRANCH   1   7
ATOM      7  C   UNL     1      -7.208  -4.639  -1.960  1.00  0.00     0.099 C 
ATOM      8  N   UNL     1      -7.988  -5.339  -2.457  1.00  0.00    -0.192 NA
ENDBRANCH   1   7
BRANCH   5   9
ATOM      9  O   UNL     1      -5.952  -0.323  -0.115  1.00  0.00    -0.492 OA
BRANCH   9  10
ATOM     10  C   UNL     1      -7.114  -0.130   0.708  1.00  0.00     0.237 C 
BRANCH  10  11
ATOM     11  C   UNL     1      -6.709   0.439   2.069  1.00  0.00     0.118 C 
BRANCH  11  12
ATOM     12  C   UNL     1      -6.056   1.766   1.942  1.00  0.00     0.129 A 
ATOM     13  N   UNL     1      -6.613   2.959   1.961  1.00  0.00    -0.197 NA
ATOM     14  N   UNL     1      -4.706   1.908   1.770  1.00  0.00    -0.261 N 
ATOM     15  C   UNL     1      -5.556   3.795   1.776  1.00  0.00     0.239 A 
ATOM     16  N   UNL     1      -4.369   3.206   1.689  1.00  0.00    -0.135 NA
ATOM     17  H   UNL     1      -3.997   1.178   1.708  1.00  0.00     0.192 HD
BRANCH  15  18
ATOM     18  N   UNL     1      -5.783   5.104   1.730  1.00  0.00    -0.367 N 
ATOM     19  H   UNL     1      -4.988   5.694   1.942  1.00  0.00     0.159 HD
ATOM     20  H   UNL     1      -6.651   5.411   2.149  1.00  0.00     0.159 HD
ENDBRANCH  15  18
ENDBRANCH  11  12
ENDBRANCH  10  11
ENDBRANCH   9  10
ENDBRANCH   5   9
BRANCH   4  21
ATOM     21  C   UNL     1      -3.322  -1.212   0.461  1.00  0.00     0.196 C 
ATOM     22  O   UNL     1      -3.598  -0.596   1.488  1.00  0.00    -0.288 OA
BRANCH  21  23
ATOM     23  C   UNL     1      -1.950  -1.131  -0.096  1.00  0.00     0.023 A 
ATOM     24  C   UNL     1      -0.869  -1.086   0.790  1.00  0.00     0.012 A 
ATOM     25  C   UNL     1      -1.730  -1.083  -1.476  1.00  0.00     0.012 A 
ATOM     26  C   UNL     1       0.435  -1.032   0.296  1.00  0.00     0.006 A 
ATOM     27  C   UNL     1      -0.423  -1.015  -1.967  1.00  0.00     0.006 A 
ATOM     28  C   UNL     1       0.671  -0.999  -1.087  1.00  0.00    -0.034 A 
BRANCH  28  29
ATOM     29  C   UNL     1       2.087  -0.939  -1.627  1.00  0.00     0.120 C 
BRANCH  29  30
ATOM     30  N   UNL     1       2.393   0.330  -2.312  1.00  0.00    -0.296 NA
ATOM     31  C   UNL     1       3.710   0.242  -2.990  1.00  0.00     0.106 C 
ATOM     32  C   UNL     1       2.430   1.468  -1.362  1.00  0.00     0.106 C 
ATOM     33  C   UNL     1       4.934   0.839  -2.242  1.00  0.00     0.135 C 
ATOM     34  C   UNL     1       3.541   1.400  -0.283  1.00  0.00     0.135 C 
ATOM     35  N   UNL     1       4.764   0.732  -0.788  1.00  0.00    -0.340 N 
BRANCH  35  36
ATOM     36  C   UNL     1       5.844   0.799   0.035  1.00  0.00     0.203 A 
ATOM     37  N   UNL     1       5.942   1.403   1.199  1.00  0.00    -0.213 NA
ATOM     38  N   UNL     1       7.005   0.126  -0.255  1.00  0.00    -0.324 N 
ATOM     39  C   UNL     1       7.220   1.163   1.642  1.00  0.00     0.091 A 
ATOM     40  C   UNL     1       7.911   0.355   0.747  1.00  0.00     0.067 A 
ATOM     41  C   UNL     1       7.866   1.595   2.810  1.00  0.00     0.030 A 
ATOM     42  C   UNL     1       9.229  -0.062   0.944  1.00  0.00     0.028 A 
ATOM     43  C   UNL     1       9.190   1.195   3.034  1.00  0.00     0.002 A 
ATOM     44  C   UNL     1       9.858   0.382   2.114  1.00  0.00     0.002 A 
ATOM     45  H   UNL     1       7.144  -0.471  -1.053  1.00  0.00     0.170 HD
ENDBRANCH  35  36
ENDBRANCH  29  30
ENDBRANCH  28  29
ENDBRANCH  21  23
ENDBRANCH   4  21
TORSDOF 11
