MODEL        5USER    Run = 5USERUSER    Estimated Free Energy of Binding    = -11.06 kcal/mol  [=(1)+(2)+(3)-(4)]USERUSER    (1) Final Intermolecular Energy     = -14.34 kcal/molUSER        vdW + Hbond + desolv Energy     = -14.50 kcal/molUSER        Electrostatic Energy            =  +0.16 kcal/molUSER        Moving Ligand-Fixed Receptor    = -14.34 kcal/molUSER        Moving Ligand-Moving Receptor   =  +0.00 kcal/molUSER    (2) Final Total Internal Energy     =  -2.22 kcal/molUSER    (3) Torsional Free Energy           =  +3.28 kcal/molUSER    (4) Unbound System's Energy         =  -2.22 kcal/molUSERUSERREMARK SMILES N#Cc1ccc(C(=O)c2ccc(CN3CCN(c4nc5ccccc5[nH]4)CC3)cc2)c(OCCc2nc(N)n[nH]2)c1REMARK SMILES IDX 3 1 4 2 5 3 6 4 31 5 41 6 2 7 1 8 32 9 33 10 34 11 35 12REMARK SMILES IDX 36 13 40 14 37 15 39 16 38 18 7 21 8 22 9 23 10 24 30 25REMARK SMILES IDX 11 26 29 27 12 28 13 29 14 30 15 31 28 32 16 33 27 34 17 35REMARK SMILES IDX 18 36 19 37 26 38 20 39 25 40 21 41 24 42 22 43 23 44REMARK H PARENT 40 17 38 19 38 20 26 45USER                              x       y       z     vdW  Elec       q    TypeUSER                           _______ _______ _______ _____ _____    ______ ____ROOTATOM      1  C   UNL     1      30.856  39.084  18.745 -0.37 +0.01    +0.056 A  ATOM      2  C   UNL     1      31.085  38.028  19.637 -0.46 +0.00    +0.020 A  ATOM      3  C   UNL     1      30.009  37.358  20.223 -0.36 +0.00    +0.017 A  ATOM      4  C   UNL     1      28.694  37.738  19.914 -0.28 +0.01    +0.065 A  ATOM      5  C   UNL     1      28.462  38.768  18.991 -0.22 +0.03    +0.131 A  ATOM      6  C   UNL     1      29.545  39.459  18.432 -0.28 +0.01    +0.066 A  ENDROOTBRANCH   1   7ATOM      7  C   UNL     1      31.962  39.779  18.157 -0.44 -0.01    +0.099 C  ATOM      8  N   UNL     1      32.853  40.346  17.679 -0.32 +0.07    -0.192 NA ENDBRANCH   1   7BRANCH   5   9ATOM      9  O   UNL     1      27.178  39.163  18.743 -0.04 -0.05    -0.492 OA BRANCH   9  10ATOM     10  C   UNL     1      27.040  40.469  18.159 -0.14 +0.00    +0.237 C  BRANCH  10  11ATOM     11  C   UNL     1      25.639  41.022  18.425 -0.24 -0.01    +0.118 C  BRANCH  11  12ATOM     12  C   UNL     1      25.392  41.230  19.874 -0.26 -0.02    +0.129 A  ATOM     13  N   UNL     1      24.817  42.255  20.469 -0.34 +0.06    -0.197 NA ATOM     14  N   UNL     1      25.770  40.320  20.823 -0.20 +0.06    -0.261 N  ATOM     15  C   UNL     1      24.889  41.925  21.787 -0.39 -0.05    +0.239 A  ATOM     16  N   UNL     1      25.429  40.741  22.052 -0.95 +0.01    -0.135 NA ATOM     17  H   UNL     1      26.243  39.426  20.688 +0.11 -0.05    +0.192 HD BRANCH  15  18ATOM     18  N   UNL     1      24.396  42.776  22.681 -0.38 +0.11    -0.367 N  ATOM     19  H   UNL     1      24.935  43.622  22.824 -0.26 -0.08    +0.159 HD ATOM     20  H   UNL     1      24.045  42.359  23.533 +0.09 -0.05    +0.159 HD ENDBRANCH  15  18ENDBRANCH  11  12ENDBRANCH  10  11ENDBRANCH   9  10ENDBRANCH   5   9BRANCH   4  21ATOM     21  C   UNL     1      27.565  36.993  20.526 -0.25 -0.06    +0.196 C  ATOM     22  O   UNL     1      26.407  37.353  20.325 -0.18 +0.22    -0.288 OA BRANCH  21  23ATOM     23  C   UNL     1      27.824  35.774  21.331 -0.33 -0.01    +0.023 A  ATOM     24  C   UNL     1      28.720  35.857  22.402 -0.37 -0.00    +0.012 A  ATOM     25  C   UNL     1      27.206  34.558  21.024 -0.31 -0.01    +0.012 A  ATOM     26  C   UNL     1      28.967  34.733  23.191 -0.30 +0.00    +0.006 A  ATOM     27  C   UNL     1      27.467  33.431  21.808 -0.42 -0.00    +0.006 A  ATOM     28  C   UNL     1      28.342  33.510  22.904 -0.41 -0.01    -0.034 A  BRANCH  28  29ATOM     29  C   UNL     1      28.610  32.287  23.759 -0.41 +0.07    +0.120 C  BRANCH  29  30ATOM     30  N   UNL     1      28.349  31.018  23.055 -0.20 +0.01    -0.296 NA ATOM     31  C   UNL     1      28.865  29.876  23.848 -0.55 +0.01    +0.106 C  ATOM     32  C   UNL     1      28.994  30.993  21.720 -0.44 -0.04    +0.106 C  ATOM     33  C   UNL     1      30.261  29.316  23.458 -0.50 -0.00    +0.135 C  ATOM     34  C   UNL     1      30.543  31.052  21.727 -0.44 -0.02    +0.135 C  ATOM     35  N   UNL     1      31.118  30.375  22.913 -0.31 -0.02    -0.340 N  BRANCH  35  36ATOM     36  C   UNL     1      32.469  30.223  22.896 -0.41 +0.01    +0.203 A  ATOM     37  N   UNL     1      33.208  29.623  21.989 -0.79 +0.01    -0.213 NA ATOM     38  N   UNL     1      33.264  30.792  23.861 -0.19 -0.05    -0.324 N  ATOM     39  C   UNL     1      34.508  29.756  22.412 -0.43 -0.01    +0.091 A  ATOM     40  C   UNL     1      34.573  30.495  23.587 -0.19 +0.00    +0.067 A  ATOM     41  C   UNL     1      35.697  29.280  21.839 -0.38 -0.01    +0.030 A  ATOM     42  C   UNL     1      35.768  30.800  24.241 -0.35 +0.00    +0.028 A  ATOM     43  C   UNL     1      36.912  29.568  22.473 -0.31 -0.00    +0.002 A  ATOM     44  C   UNL     1      36.944  30.313  23.655 -0.38 +0.00    +0.002 A  ATOM     45  H   UNL     1      32.933  31.369  24.616 +0.09 +0.05    +0.170 HD ENDBRANCH  35  36ENDBRANCH  29  30ENDBRANCH  28  29ENDBRANCH  21  23ENDBRANCH   4  21TORSDOF 11TERENDMDL