REMARK SMILES N#Cc1ccc(C(=O)c2ccc(CN3CCN(c4nc5ccccc5[nH]4)CC3)cc2)c(OCCc2ccc(F)cc2)c1
REMARK SMILES IDX 3 1 4 2 5 3 6 4 31 5 42 6 2 7 1 8 32 9 33 10 34 11 35 12
REMARK SMILES IDX 36 13 41 14 37 15 40 16 38 17 39 18 7 19 8 20 9 21 10 22
REMARK SMILES IDX 30 23 11 24 29 25 12 26 13 27 14 28 15 29 28 30 16 31 27 32
REMARK SMILES IDX 17 33 18 34 19 35 26 36 20 37 25 38 21 39 24 40 22 41 23 42
REMARK H PARENT 26 43
ROOT
ATOM      1  C   UNL     1      -5.064   3.902  -2.016  1.00  0.00     0.056 A 
ATOM      2  C   UNL     1      -4.503   4.416  -0.844  1.00  0.00     0.020 A 
ATOM      3  C   UNL     1      -3.911   3.555   0.078  1.00  0.00     0.017 A 
ATOM      4  C   UNL     1      -3.874   2.178  -0.180  1.00  0.00     0.065 A 
ATOM      5  C   UNL     1      -4.478   1.643  -1.328  1.00  0.00     0.131 A 
ATOM      6  C   UNL     1      -5.052   2.519  -2.255  1.00  0.00     0.066 A 
ENDROOT
BRANCH   1   7
ATOM      7  C   UNL     1      -5.660   4.784  -2.976  1.00  0.00     0.099 C 
ATOM      8  N   UNL     1      -6.143   5.487  -3.763  1.00  0.00    -0.192 NA
ENDBRANCH   1   7
BRANCH   5   9
ATOM      9  O   UNL     1      -4.452   0.281  -1.465  1.00  0.00    -0.492 OA
BRANCH   9  10
ATOM     10  C   UNL     1      -5.497  -0.360  -2.209  1.00  0.00     0.234 C 
BRANCH  10  11
ATOM     11  C   UNL     1      -6.846  -0.344  -1.476  1.00  0.00     0.077 C 
BRANCH  11  12
ATOM     12  C   UNL     1      -6.958  -1.410  -0.409  1.00  0.00    -0.044 A 
ATOM     13  C   UNL     1      -7.788  -2.526  -0.608  1.00  0.00     0.007 A 
ATOM     14  C   UNL     1      -6.245  -1.302   0.793  1.00  0.00     0.007 A 
ATOM     15  C   UNL     1      -7.901  -3.508   0.378  1.00  0.00     0.039 A 
ATOM     16  C   UNL     1      -6.353  -2.288   1.776  1.00  0.00     0.039 A 
ATOM     17  C   UNL     1      -7.181  -3.382   1.558  1.00  0.00     0.123 A 
ATOM     18  F   UNL     1      -7.292  -4.327   2.501  1.00  0.00    -0.207 F 
ENDBRANCH  11  12
ENDBRANCH  10  11
ENDBRANCH   9  10
ENDBRANCH   5   9
BRANCH   4  19
ATOM     19  C   UNL     1      -3.234   1.313   0.833  1.00  0.00     0.196 C 
ATOM     20  O   UNL     1      -3.667   1.351   1.982  1.00  0.00    -0.288 OA
BRANCH  19  21
ATOM     21  C   UNL     1      -2.076   0.445   0.489  1.00  0.00     0.023 A 
ATOM     22  C   UNL     1      -1.283   0.684  -0.639  1.00  0.00     0.012 A 
ATOM     23  C   UNL     1      -1.750  -0.609   1.350  1.00  0.00     0.012 A 
ATOM     24  C   UNL     1      -0.179  -0.130  -0.901  1.00  0.00     0.006 A 
ATOM     25  C   UNL     1      -0.644  -1.423   1.085  1.00  0.00     0.006 A 
ATOM     26  C   UNL     1       0.156  -1.185  -0.040  1.00  0.00    -0.034 A 
BRANCH  26  27
ATOM     27  C   UNL     1       1.382  -2.031  -0.321  1.00  0.00     0.120 C 
BRANCH  27  28
ATOM     28  N   UNL     1       2.612  -1.236  -0.339  1.00  0.00    -0.296 NA
ATOM     29  C   UNL     1       3.005  -0.741   0.988  1.00  0.00     0.106 C 
ATOM     30  C   UNL     1       3.729  -1.949  -0.997  1.00  0.00     0.106 C 
ATOM     31  C   UNL     1       4.255   0.164   0.907  1.00  0.00     0.135 C 
ATOM     32  C   UNL     1       5.121  -1.826  -0.324  1.00  0.00     0.135 C 
ATOM     33  N   UNL     1       5.361  -0.468   0.177  1.00  0.00    -0.340 N 
BRANCH  33  34
ATOM     34  C   UNL     1       6.650  -0.096   0.379  1.00  0.00     0.203 A 
ATOM     35  N   UNL     1       7.739  -0.805   0.177  1.00  0.00    -0.213 NA
ATOM     36  N   UNL     1       6.973   1.167   0.807  1.00  0.00    -0.324 N 
ATOM     37  C   UNL     1       8.789   0.015   0.509  1.00  0.00     0.091 A 
ATOM     38  C   UNL     1       8.335   1.262   0.917  1.00  0.00     0.067 A 
ATOM     39  C   UNL     1      10.169  -0.233   0.487  1.00  0.00     0.030 A 
ATOM     40  C   UNL     1       9.180   2.299   1.319  1.00  0.00     0.028 A 
ATOM     41  C   UNL     1      11.043   0.787   0.885  1.00  0.00     0.002 A 
ATOM     42  C   UNL     1      10.553   2.030   1.298  1.00  0.00     0.002 A 
ATOM     43  H   UNL     1       6.311   1.903   0.988  1.00  0.00     0.170 HD
ENDBRANCH  33  34
ENDBRANCH  27  28
ENDBRANCH  26  27
ENDBRANCH  19  21
ENDBRANCH   4  19
TORSDOF 10
