MODEL        4USER    Run = 4USERUSER    Estimated Free Energy of Binding    = -10.38 kcal/mol  [=(1)+(2)+(3)-(4)]USERUSER    (1) Final Intermolecular Energy     = -13.36 kcal/molUSER        vdW + Hbond + desolv Energy     = -13.46 kcal/molUSER        Electrostatic Energy            =  +0.10 kcal/molUSER        Moving Ligand-Fixed Receptor    = -13.36 kcal/molUSER        Moving Ligand-Moving Receptor   =  +0.00 kcal/molUSER    (2) Final Total Internal Energy     =  -1.73 kcal/molUSER    (3) Torsional Free Energy           =  +2.98 kcal/molUSER    (4) Unbound System's Energy         =  -1.73 kcal/molUSERUSERREMARK SMILES N#Cc1ccc(C(=O)c2ccc(CN3CCN(c4nc5ccccc5[nH]4)CC3)cc2)c(OCCn2ccnc2)c1REMARK SMILES IDX 7 1 8 2 6 3 3 4 4 5 40 6 5 7 31 8 2 9 1 10 32 11 33 12 34 13REMARK SMILES IDX 35 14 36 15 39 16 37 17 38 18 9 19 10 20 30 21 11 22 29 23REMARK SMILES IDX 12 24 13 25 14 26 15 27 28 28 16 29 27 30 17 31 18 32 19 33REMARK SMILES IDX 26 34 20 35 25 36 21 37 24 38 22 39 23 40REMARK H PARENT 26 41USER                              x       y       z     vdW  Elec       q    TypeUSER                           _______ _______ _______ _____ _____    ______ ____ROOTATOM      1  C   UNL     1      34.215  45.586  18.415 -0.38 -0.10    +0.196 C  ATOM      2  O   UNL     1      33.865  46.700  18.802 -0.83 +0.19    -0.288 OA ENDROOTBRANCH   1   3ATOM      3  C   UNL     1      35.657  45.261  18.454 -0.27 -0.02    +0.065 A  ATOM      4  C   UNL     1      38.380  44.617  18.644 -0.33 -0.01    +0.056 A  ATOM      5  C   UNL     1      37.536  44.433  19.743 -0.35 -0.00    +0.020 A  ATOM      6  C   UNL     1      37.856  45.095  17.438 -0.32 -0.02    +0.066 A  ATOM      7  C   UNL     1      36.177  44.747  19.646 -0.20 -0.00    +0.017 A  ATOM      8  C   UNL     1      36.493  45.387  17.337 -0.25 -0.05    +0.131 A  BRANCH   4   9ATOM      9  C   UNL     1      39.779  44.320  18.757 -0.35 -0.00    +0.099 C  ATOM     10  N   UNL     1      40.916  44.104  18.850 -0.27 -0.01    -0.192 NA ENDBRANCH   4   9BRANCH   8  11ATOM     11  O   UNL     1      36.031  45.852  16.138 -0.06 +0.33    -0.491 OA BRANCH  11  12ATOM     12  C   UNL     1      35.692  44.764  15.260 -0.22 -0.12    +0.251 C  BRANCH  12  13ATOM     13  C   UNL     1      36.637  44.801  14.061 -0.33 -0.06    +0.164 C  BRANCH  13  14ATOM     14  N   UNL     1      36.676  46.115  13.449 -0.22 +0.15    -0.334 N  ATOM     15  C   UNL     1      35.671  46.708  12.736 -0.49 -0.06    +0.107 A  ATOM     16  C   UNL     1      37.738  46.973  13.467 -0.35 -0.06    +0.199 A  ATOM     17  C   UNL     1      36.195  47.911  12.325 -0.50 -0.06    +0.130 A  ATOM     18  N   UNL     1      37.480  48.064  12.782 -0.86 +0.03    -0.245 NA ENDBRANCH  13  14ENDBRANCH  12  13ENDBRANCH  11  12ENDBRANCH   8  11ENDBRANCH   1   3BRANCH   1  19ATOM     19  C   UNL     1      33.196  44.612  17.936 -0.33 -0.01    +0.023 A  ATOM     20  C   UNL     1      32.767  43.616  18.822 -0.38 -0.00    +0.012 A  ATOM     21  C   UNL     1      32.658  44.666  16.648 -0.31 -0.01    +0.012 A  ATOM     22  C   UNL     1      31.842  42.653  18.407 -0.31 -0.00    +0.006 A  ATOM     23  C   UNL     1      31.735  43.700  16.237 -0.33 -0.00    +0.006 A  ATOM     24  C   UNL     1      31.321  42.678  17.106 -0.28 +0.01    -0.034 A  BRANCH  24  25ATOM     25  C   UNL     1      30.358  41.608  16.635 -0.31 -0.04    +0.120 C  BRANCH  25  26ATOM     26  N   UNL     1      29.023  41.627  17.213 -0.08 +0.05    -0.296 NA ATOM     27  C   UNL     1      28.486  42.943  17.575 -0.19 -0.02    +0.106 C  ATOM     28  C   UNL     1      28.028  40.740  16.607 -0.28 -0.00    +0.106 C  ATOM     29  C   UNL     1      26.953  43.087  17.406 -0.22 -0.02    +0.135 C  ATOM     30  C   UNL     1      26.768  40.610  17.503 -0.22 +0.00    +0.135 C  ATOM     31  N   UNL     1      26.235  41.924  17.939 -0.06 +0.04    -0.340 N  BRANCH  31  32ATOM     32  C   UNL     1      25.618  41.940  19.154 -0.20 -0.03    +0.203 A  ATOM     33  N   UNL     1      25.380  42.989  19.916 -0.31 +0.07    -0.213 NA ATOM     34  N   UNL     1      25.159  40.800  19.768 -0.11 +0.07    -0.324 N  ATOM     35  C   UNL     1      24.704  42.520  21.015 -0.47 -0.03    +0.091 A  ATOM     36  C   UNL     1      24.547  41.144  20.947 -0.43 -0.02    +0.067 A  ATOM     37  C   UNL     1      24.179  43.219  22.114 -0.59 -0.01    +0.030 A  ATOM     38  C   UNL     1      23.897  40.396  21.932 -0.43 -0.01    +0.028 A  ATOM     39  C   UNL     1      23.511  42.497  23.113 -0.70 -0.00    +0.002 A  ATOM     40  C   UNL     1      23.372  41.110  23.018 -0.46 -0.00    +0.002 A  ATOM     41  H   UNL     1      25.266  39.863  19.419 +0.11 -0.04    +0.170 HD ENDBRANCH  31  32ENDBRANCH  25  26ENDBRANCH  24  25ENDBRANCH   1  19TORSDOF 10TERENDMDL