MODEL        1USER    Run = 1USERUSER    Estimated Free Energy of Binding    = -10.85 kcal/mol  [=(1)+(2)+(3)-(4)]USERUSER    (1) Final Intermolecular Energy     = -13.83 kcal/molUSER        vdW + Hbond + desolv Energy     = -13.73 kcal/molUSER        Electrostatic Energy            =  -0.10 kcal/molUSER        Moving Ligand-Fixed Receptor    = -13.83 kcal/molUSER        Moving Ligand-Moving Receptor   =  +0.00 kcal/molUSER    (2) Final Total Internal Energy     =  -2.19 kcal/molUSER    (3) Torsional Free Energy           =  +2.98 kcal/molUSER    (4) Unbound System's Energy         =  -2.19 kcal/molUSERUSERREMARK SMILES N#Cc1ccc(C(=O)c2ccc(CN3CCN(c4nc5ccccc5[nH]4)CC3)cc2)c(OCCc2ccc(F)cc2)c1REMARK SMILES IDX 3 1 4 2 5 3 6 4 31 5 42 6 2 7 1 8 32 9 33 10 34 11 35 12REMARK SMILES IDX 36 13 41 14 37 15 40 16 38 17 39 18 7 19 8 20 9 21 10 22REMARK SMILES IDX 30 23 11 24 29 25 12 26 13 27 14 28 15 29 28 30 16 31 27 32REMARK SMILES IDX 17 33 18 34 19 35 26 36 20 37 25 38 21 39 24 40 22 41 23 42REMARK H PARENT 26 43USER                              x       y       z     vdW  Elec       q    TypeUSER                           _______ _______ _______ _____ _____    ______ ____ROOTATOM      1  C   UNL     1      37.176  49.625  26.898 -0.27 +0.00    +0.056 A  ATOM      2  C   UNL     1      38.445  49.680  27.481 -0.20 +0.00    +0.020 A  ATOM      3  C   UNL     1      39.389  48.700  27.183 -0.24 +0.00    +0.017 A  ATOM      4  C   UNL     1      39.064  47.669  26.291 -0.22 +0.00    +0.065 A  ATOM      5  C   UNL     1      37.778  47.573  25.737 -0.29 +0.01    +0.131 A  ATOM      6  C   UNL     1      36.845  48.573  26.030 -0.40 -0.00    +0.066 A  ENDROOTBRANCH   1   7ATOM      7  C   UNL     1      36.206  50.640  27.188 -0.28 +0.01    +0.099 C  ATOM      8  N   UNL     1      35.416  51.460  27.409 -0.10 -0.03    -0.192 NA ENDBRANCH   1   7BRANCH   5   9ATOM      9  O   UNL     1      37.529  46.496  24.930 -0.64 -0.10    -0.492 OA BRANCH   9  10ATOM     10  C   UNL     1      36.930  45.325  25.502 -0.23 +0.00    +0.234 C  BRANCH  10  11ATOM     11  C   UNL     1      37.687  44.037  25.150 -0.29 +0.00    +0.077 C  BRANCH  11  12ATOM     12  C   UNL     1      37.322  43.482  23.791 -0.33 -0.00    -0.044 A  ATOM     13  C   UNL     1      36.905  42.147  23.661 -0.45 +0.00    +0.007 A  ATOM     14  C   UNL     1      37.398  44.283  22.643 -0.35 +0.00    +0.007 A  ATOM     15  C   UNL     1      36.575  41.628  22.407 -0.52 +0.00    +0.039 A  ATOM     16  C   UNL     1      37.062  43.766  21.391 -0.38 +0.00    +0.039 A  ATOM     17  C   UNL     1      36.653  42.442  21.286 -0.39 +0.00    +0.123 A  ATOM     18  F   UNL     1      36.335  41.941  20.085 -0.12 +0.01    -0.207 F  ENDBRANCH  11  12ENDBRANCH  10  11ENDBRANCH   9  10ENDBRANCH   5   9BRANCH   4  19ATOM     19  C   UNL     1      40.104  46.657  26.012 -0.12 +0.01    +0.196 C  ATOM     20  O   UNL     1      40.515  45.977  26.949 -0.31 -0.03    -0.288 OA BRANCH  19  21ATOM     21  C   UNL     1      40.669  46.484  24.647 -0.15 +0.00    +0.023 A  ATOM     22  C   UNL     1      40.426  45.334  23.887 -0.15 +0.00    +0.012 A  ATOM     23  C   UNL     1      41.423  47.526  24.097 -0.24 +0.00    +0.012 A  ATOM     24  C   UNL     1      40.939  45.231  22.593 -0.21 +0.00    +0.006 A  ATOM     25  C   UNL     1      41.937  47.421  22.800 -0.24 +0.00    +0.006 A  ATOM     26  C   UNL     1      41.692  46.274  22.034 -0.25 -0.00    -0.034 A  BRANCH  26  27ATOM     27  C   UNL     1      42.206  46.159  20.612 -0.34 +0.03    +0.120 C  BRANCH  27  28ATOM     28  N   UNL     1      41.217  46.604  19.628 -0.21 -0.01    -0.296 NA ATOM     29  C   UNL     1      41.820  47.133  18.396 -0.52 -0.00    +0.106 C  ATOM     30  C   UNL     1      40.217  45.556  19.328 -0.42 -0.00    +0.106 C  ATOM     31  C   UNL     1      40.744  47.670  17.425 -0.47 -0.02    +0.135 C  ATOM     32  C   UNL     1      39.807  45.395  17.840 -0.37 -0.01    +0.135 C  ATOM     33  N   UNL     1      39.676  46.695  17.172 -0.23 +0.07    -0.340 N  BRANCH  33  34ATOM     34  C   UNL     1      38.921  46.745  16.046 -0.29 -0.06    +0.203 A  ATOM     35  N   UNL     1      38.572  45.750  15.261 -0.23 +0.06    -0.213 NA ATOM     36  N   UNL     1      38.369  47.921  15.604 -0.23 +0.18    -0.324 N  ATOM     37  C   UNL     1      37.797  46.304  14.272 -0.36 -0.03    +0.091 A  ATOM     38  C   UNL     1      37.659  47.673  14.459 -0.46 -0.03    +0.067 A  ATOM     39  C   UNL     1      37.169  45.701  13.173 -0.47 -0.01    +0.030 A  ATOM     40  C   UNL     1      36.927  48.501  13.604 -0.54 -0.01    +0.028 A  ATOM     41  C   UNL     1      36.428  46.504  12.296 -0.67 -0.00    +0.002 A  ATOM     42  C   UNL     1      36.315  47.882  12.509 -0.64 -0.00    +0.002 A  ATOM     43  H   UNL     1      38.461  48.811  16.064 +0.10 -0.12    +0.170 HD ENDBRANCH  33  34ENDBRANCH  27  28ENDBRANCH  26  27ENDBRANCH  19  21ENDBRANCH   4  19TORSDOF 10TERENDMDL