
     RDKit          3D

 61 66  0  0  0  0  0  0  0  0999 V2000
    0.7271   -1.7637   -1.0307 C   0  0  0  0  0  0  0  0  0  0  0  0
    0.7834   -0.3149   -0.6822 C   0  0  0  0  0  0  0  0  0  0  0  0
    1.8940    0.5181   -0.6483 C   0  0  0  0  0  0  0  0  0  0  0  0
    3.1820    0.1252   -0.8514 N   0  0  0  0  0  0  0  0  0  0  0  0
    3.7719   -0.8990    0.0298 C   0  0  0  0  0  0  0  0  0  0  0  0
    4.6354   -0.2577    1.1346 C   0  0  0  0  0  0  0  0  0  0  0  0
    5.6964    0.6775    0.6131 N   0  0  0  0  0  0  0  0  0  0  0  0
    7.1193   -0.0447    0.0320 S   0  0  0  0  0  0  0  0  0  0  0  0
    7.9006   -0.5800    1.5409 C   0  0  0  0  0  0  0  0  0  0  0  0
    7.9454    1.0022   -0.5293 O   0  0  0  0  0  0  0  0  0  0  0  0
    6.7625   -1.2092   -0.7444 O   0  0  0  0  0  0  0  0  0  0  0  0
    5.1181    1.6793   -0.3144 C   0  0  0  0  0  0  0  0  0  0  0  0
    4.4277    2.5952    0.5229 O   0  0  0  0  0  0  0  0  0  0  0  0
    4.1951    1.0627   -1.3997 C   0  0  0  0  0  0  0  0  0  0  0  0
    1.4441    1.8332   -0.4289 C   0  0  0  0  0  0  0  0  0  0  0  0
    0.0853    1.7652   -0.2550 C   0  0  0  0  0  0  0  0  0  0  0  0
   -0.8684    2.7881    0.0332 C   0  0  0  0  0  0  0  0  0  0  0  0
   -2.1267    2.5268    0.2005 N   0  0  0  0  0  0  0  0  0  0  0  0
   -2.5477    1.2061    0.0850 C   0  0  0  0  0  0  0  0  0  0  0  0
   -3.9646    1.0652    0.3205 C   0  0  0  0  0  0  0  0  0  0  0  0
   -4.8325    1.9608    0.9517 C   0  0  0  0  0  0  0  0  0  0  0  0
   -6.1375    1.4095    0.9535 C   0  0  0  0  0  0  0  0  0  0  0  0
   -7.4021    1.8030    1.4233 C   0  0  0  0  0  0  0  0  0  0  0  0
   -8.4901    0.9408    1.2212 C   0  0  0  0  0  0  0  0  0  0  0  0
   -8.3265   -0.2842    0.5678 C   0  0  0  0  0  0  0  0  0  0  0  0
   -7.0744   -0.6886    0.0933 C   0  0  0  0  0  0  0  0  0  0  0  0
   -6.0176    0.1917    0.3092 C   0  0  0  0  0  0  0  0  0  0  0  0
   -4.7348   -0.0119   -0.0764 O   0  0  0  0  0  0  0  0  0  0  0  0
   -1.7163    0.1613   -0.2021 C   0  0  0  0  0  0  0  0  0  0  0  0
   -2.2128   -1.2287   -0.2700 C   0  0  0  0  0  0  0  0  0  0  0  0
   -2.2531   -2.0189    0.8809 C   0  0  0  0  0  0  0  0  0  0  0  0
   -2.7448   -3.3090    0.7736 C   0  0  0  0  0  0  0  0  0  0  0  0
   -3.1885   -3.8523   -0.3799 N   0  0  0  0  0  0  0  0  0  0  0  0
   -3.1567   -3.0618   -1.4746 C   0  0  0  0  0  0  0  0  0  0  0  0
   -2.6846   -1.7603   -1.4728 C   0  0  0  0  0  0  0  0  0  0  0  0
   -0.3417    0.4596   -0.3833 N   0  0  0  0  0  0  0  0  0  0  0  0
    1.6952   -2.1297   -1.3863 H   0  0  0  0  0  0  0  0  0  0  0  0
    0.0267   -1.9444   -1.8491 H   0  0  0  0  0  0  0  0  0  0  0  0
    0.4532   -2.3671   -0.1617 H   0  0  0  0  0  0  0  0  0  0  0  0
    3.0044   -1.5129    0.5149 H   0  0  0  0  0  0  0  0  0  0  0  0
    4.3626   -1.5847   -0.5843 H   0  0  0  0  0  0  0  0  0  0  0  0
    3.9940    0.3166    1.8148 H   0  0  0  0  0  0  0  0  0  0  0  0
    5.0937   -1.0397    1.7473 H   0  0  0  0  0  0  0  0  0  0  0  0
    8.8870   -0.9724    1.2833 H   0  0  0  0  0  0  0  0  0  0  0  0
    8.0096    0.2785    2.2059 H   0  0  0  0  0  0  0  0  0  0  0  0
    7.3066   -1.3672    2.0052 H   0  0  0  0  0  0  0  0  0  0  0  0
    5.8981    2.2671   -0.8068 H   0  0  0  0  0  0  0  0  0  0  0  0
    4.9676    2.6077    1.3294 H   0  0  0  0  0  0  0  0  0  0  0  0
    4.8130    0.4966   -2.1076 H   0  0  0  0  0  0  0  0  0  0  0  0
    3.7112    1.8600   -1.9761 H   0  0  0  0  0  0  0  0  0  0  0  0
    2.0392    2.7340   -0.3680 H   0  0  0  0  0  0  0  0  0  0  0  0
   -0.5208    3.8308    0.1216 H   0  0  0  0  0  0  0  0  0  0  0  0
   -4.5335    2.9148    1.3634 H   0  0  0  0  0  0  0  0  0  0  0  0
   -7.5379    2.7525    1.9317 H   0  0  0  0  0  0  0  0  0  0  0  0
   -9.4756    1.2315    1.5786 H   0  0  0  0  0  0  0  0  0  0  0  0
   -9.1867   -0.9349    0.4226 H   0  0  0  0  0  0  0  0  0  0  0  0
   -6.9252   -1.6336   -0.4143 H   0  0  0  0  0  0  0  0  0  0  0  0
   -1.9184   -1.6406    1.8400 H   0  0  0  0  0  0  0  0  0  0  0  0
   -2.7984   -3.9598    1.6413 H   0  0  0  0  0  0  0  0  0  0  0  0
   -3.5366   -3.5162   -2.3847 H   0  0  0  0  0  0  0  0  0  0  0  0
   -2.6958   -1.1735   -2.3847 H   0  0  0  0  0  0  0  0  0  0  0  0
  1  2  1  0
  2  3  2  0
  3  4  1  0
  4  5  1  0
  5  6  1  0
  6  7  1  0
  7  8  1  0
  8  9  1  0
  8 10  2  0
  8 11  2  0
  7 12  1  0
 12 13  1  0
 12 14  1  0
  3 15  1  0
 15 16  2  0
 16 17  1  0
 17 18  2  0
 18 19  1  0
 19 20  1  0
 20 21  2  0
 21 22  1  0
 22 23  2  0
 23 24  1  0
 24 25  2  0
 25 26  1  0
 26 27  2  0
 27 28  1  0
 19 29  2  0
 29 30  1  0
 30 31  2  0
 31 32  1  0
 32 33  2  0
 33 34  1  0
 34 35  2  0
 29 36  1  0
 36  2  1  0
 14  4  1  0
 36 16  1  0
 28 20  1  0
 35 30  1  0
 27 22  1  0
  1 37  1  0
  1 38  1  0
  1 39  1  0
  5 40  1  0
  5 41  1  0
  6 42  1  0
  6 43  1  0
  9 44  1  0
  9 45  1  0
  9 46  1  0
 12 47  1  0
 13 48  1  0
 14 49  1  0
 14 50  1  0
 15 51  1  0
 17 52  1  0
 21 53  1  0
 23 54  1  0
 24 55  1  0
 25 56  1  0
 26 57  1  0
 31 58  1  0
 32 59  1  0
 34 60  1  0
 35 61  1  0
M  END
$$$$
