
     RDKit          3D

 40 43  0  0  0  0  0  0  0  0999 V2000
    5.3539   -1.0898   -2.2702 N   0  0  0  0  0  0  0  0  0  0  0  0
    4.7015   -0.3616   -1.2550 C   0  0  0  0  0  0  0  0  0  0  0  0
    3.2993   -0.4543   -1.1768 C   0  0  0  0  0  0  0  0  0  0  0  0
    2.5570    0.1188   -0.1273 C   0  0  0  0  0  0  0  0  0  0  0  0
    1.1638    0.0019   -0.1527 N   0  0  0  0  0  0  0  0  0  0  0  0
    0.1366    0.4494    0.6730 C   0  0  0  0  0  0  0  0  0  0  0  0
    0.3705    1.1858    1.7664 N   0  0  0  0  0  0  0  0  0  0  0  0
   -0.6930    1.5673    2.4919 C   0  0  0  0  0  0  0  0  0  0  0  0
   -1.9863    1.2493    2.1648 C   0  0  0  0  0  0  0  0  0  0  0  0
   -2.1527    0.4944    1.0225 C   0  0  0  0  0  0  0  0  0  0  0  0
   -3.4790    0.0645    0.5318 C   0  0  0  0  0  0  0  0  0  0  0  0
   -4.6165    0.8878    0.6504 C   0  0  0  0  0  0  0  0  0  0  0  0
   -5.8845    0.4956    0.1941 C   0  0  0  0  0  0  0  0  0  0  0  0
   -5.9818   -0.7640   -0.3976 C   0  0  0  0  0  0  0  0  0  0  0  0
   -7.0431   -1.4403   -0.9403 N   0  0  0  0  0  0  0  0  0  0  0  0
   -6.7314   -2.6565   -1.4231 N   0  0  0  0  0  0  0  0  0  0  0  0
   -5.4210   -2.7570   -1.1839 C   0  0  0  0  0  0  0  0  0  0  0  0
   -4.8934   -1.6124   -0.5469 C   0  0  0  0  0  0  0  0  0  0  0  0
   -3.6320   -1.1977   -0.0832 C   0  0  0  0  0  0  0  0  0  0  0  0
   -1.0960    0.0886    0.2814 N   0  0  0  0  0  0  0  0  0  0  0  0
    3.2656    0.7687    0.8828 C   0  0  0  0  0  0  0  0  0  0  0  0
    4.6629    0.8313    0.8575 C   0  0  0  0  0  0  0  0  0  0  0  0
    5.3885    0.2606   -0.1978 C   0  0  0  0  0  0  0  0  0  0  0  0
    6.8683    0.3828   -0.1198 C   0  0  0  0  0  0  0  0  0  0  0  0
    7.5033    0.6932    0.8730 O   0  0  0  0  0  0  0  0  0  0  0  0
    7.5014    0.1718   -1.2921 O   0  0  0  0  0  0  0  0  0  0  0  0
    4.8409   -1.1371   -3.1441 H   0  0  0  0  0  0  0  0  0  0  0  0
    6.3160   -0.7634   -2.4020 H   0  0  0  0  0  0  0  0  0  0  0  0
    2.7723   -0.9980   -1.9582 H   0  0  0  0  0  0  0  0  0  0  0  0
    0.7582   -0.5158   -0.9185 H   0  0  0  0  0  0  0  0  0  0  0  0
   -0.4640    2.1544    3.3763 H   0  0  0  0  0  0  0  0  0  0  0  0
   -2.8119    1.5647    2.7873 H   0  0  0  0  0  0  0  0  0  0  0  0
   -4.5276    1.8794    1.0922 H   0  0  0  0  0  0  0  0  0  0  0  0
   -6.7433    1.1513    0.2935 H   0  0  0  0  0  0  0  0  0  0  0  0
   -8.0044   -1.1278   -1.0119 H   0  0  0  0  0  0  0  0  0  0  0  0
   -4.9007   -3.6581   -1.4815 H   0  0  0  0  0  0  0  0  0  0  0  0
   -2.7752   -1.8579   -0.1974 H   0  0  0  0  0  0  0  0  0  0  0  0
    2.7521    1.2265    1.7230 H   0  0  0  0  0  0  0  0  0  0  0  0
    5.1819    1.3285    1.6753 H   0  0  0  0  0  0  0  0  0  0  0  0
    8.4439    0.3116   -1.0567 H   0  0  0  0  0  0  0  0  0  0  0  0
  1  2  1  0
  2  3  2  0
  3  4  1  0
  4  5  1  0
  5  6  1  0
  6  7  2  0
  7  8  1  0
  8  9  2  0
  9 10  1  0
 10 11  1  0
 11 12  2  0
 12 13  1  0
 13 14  2  0
 14 15  1  0
 15 16  1  0
 16 17  2  0
 17 18  1  0
 18 19  2  0
 10 20  2  0
  4 21  2  0
 21 22  1  0
 22 23  2  0
 23 24  1  0
 24 25  2  0
 24 26  1  0
 23  2  1  0
 20  6  1  0
 19 11  1  0
 18 14  1  0
  1 27  1  0
  1 28  1  0
  3 29  1  0
  5 30  1  0
  8 31  1  0
  9 32  1  0
 12 33  1  0
 13 34  1  0
 15 35  1  0
 17 36  1  0
 19 37  1  0
 21 38  1  0
 22 39  1  0
 26 40  1  0
M  END
$$$$
