
     RDKit          3D

 65 67  0  0  0  0  0  0  0  0999 V2000
   -1.2069   -1.5144   -2.1119 C   0  0  0  0  0  0  0  0  0  0  0  0
   -0.4938   -0.5181   -1.2395 C   0  0  0  0  0  0  0  0  0  0  0  0
    0.8847   -0.3362   -1.4845 C   0  0  0  0  0  0  0  0  0  0  0  0
    1.6350    0.6441   -0.8206 C   0  0  0  0  0  0  0  0  0  0  0  0
    3.0651    0.8013   -1.0935 C   0  0  0  0  0  0  0  0  0  0  0  0
    4.0159    0.0902   -0.3461 C   0  0  0  0  0  0  0  0  0  0  0  0
    5.3823    0.2256   -0.6106 C   0  0  0  0  0  0  0  0  0  0  0  0
    5.8142    1.0744   -1.6360 C   0  0  0  0  0  0  0  0  0  0  0  0
    7.2573    1.2376   -1.9625 C   0  0  0  0  0  0  0  0  0  0  0  0
    7.6672    2.2850   -2.4490 O   0  0  0  0  0  0  0  0  0  0  0  0
    8.0575    0.1350   -1.7315 N   0  0  0  0  0  0  0  0  0  0  0  0
    9.4436    0.1344   -2.1817 C   0  0  0  0  0  0  0  0  0  0  0  0
   10.2324   -1.0530   -1.6112 C   0  0  0  0  0  0  0  0  0  0  0  0
   10.2899   -1.0225   -0.1500 N   0  0  0  0  0  0  0  0  0  0  0  0
    4.8755    1.8051   -2.3717 C   0  0  0  0  0  0  0  0  0  0  0  0
    3.5109    1.6643   -2.1047 C   0  0  0  0  0  0  0  0  0  0  0  0
    0.9801    1.4711    0.0938 C   0  0  0  0  0  0  0  0  0  0  0  0
   -0.3798    1.2907    0.3655 C   0  0  0  0  0  0  0  0  0  0  0  0
   -1.1140    0.2667   -0.2539 C   0  0  0  0  0  0  0  0  0  0  0  0
   -2.4568    0.1433    0.1578 N   0  0  0  0  0  0  0  0  0  0  0  0
   -3.1609   -1.0419    0.3310 C   0  0  0  0  0  0  0  0  0  0  0  0
   -2.7203   -2.1807    0.1728 O   0  0  0  0  0  0  0  0  0  0  0  0
   -4.6170   -0.7915    0.8532 C   0  0  0  0  0  0  0  0  0  0  0  0
   -4.7866    0.5251    1.1469 F   0  0  0  0  0  0  0  0  0  0  0  0
   -5.6114   -1.2745   -0.1663 C   0  0  0  0  0  0  0  0  0  0  0  0
   -6.6844   -0.6875   -0.7213 C   0  0  0  0  0  0  0  0  0  0  0  0
   -7.2181    0.6454   -0.5868 C   0  0  0  0  0  0  0  0  0  0  0  0
   -7.5674    1.4048    0.4618 C   0  0  0  0  0  0  0  0  0  0  0  0
   -7.5047    1.2520    1.9376 C   0  0  0  0  0  0  0  0  0  0  0  0
   -7.6047    2.2578    2.6370 O   0  0  0  0  0  0  0  0  0  0  0  0
   -7.3365   -0.0060    2.4417 N   0  0  0  0  0  0  0  0  0  0  0  0
   -6.8286   -0.1869    3.7893 C   0  0  0  0  0  0  0  0  0  0  0  0
   -5.3223    0.0954    3.8740 C   0  0  0  0  0  0  0  0  0  0  0  0
   -4.4295   -1.0244    3.3178 C   0  0  0  0  0  0  0  0  0  0  0  0
   -4.8541   -1.6166    2.0545 N   0  0  0  0  0  0  0  0  0  0  0  0
   -1.0790   -2.5287   -1.7271 H   0  0  0  0  0  0  0  0  0  0  0  0
   -2.2707   -1.2808   -2.2161 H   0  0  0  0  0  0  0  0  0  0  0  0
   -0.7982   -1.4835   -3.1286 H   0  0  0  0  0  0  0  0  0  0  0  0
    1.3797   -0.9646   -2.2259 H   0  0  0  0  0  0  0  0  0  0  0  0
    3.6915   -0.5716    0.4553 H   0  0  0  0  0  0  0  0  0  0  0  0
    6.0933   -0.3118    0.0084 H   0  0  0  0  0  0  0  0  0  0  0  0
    7.6014   -0.7615   -1.6412 H   0  0  0  0  0  0  0  0  0  0  0  0
    9.9111    1.0843   -1.8957 H   0  0  0  0  0  0  0  0  0  0  0  0
    9.4318    0.0857   -3.2765 H   0  0  0  0  0  0  0  0  0  0  0  0
    9.7547   -1.9887   -1.9246 H   0  0  0  0  0  0  0  0  0  0  0  0
   11.2509   -1.0459   -2.0117 H   0  0  0  0  0  0  0  0  0  0  0  0
    9.3708   -0.7859    0.2235 H   0  0  0  0  0  0  0  0  0  0  0  0
   10.5498   -1.9372    0.2123 H   0  0  0  0  0  0  0  0  0  0  0  0
    5.2054    2.4822   -3.1583 H   0  0  0  0  0  0  0  0  0  0  0  0
    2.7942    2.2350   -2.6925 H   0  0  0  0  0  0  0  0  0  0  0  0
    1.5297    2.2518    0.6159 H   0  0  0  0  0  0  0  0  0  0  0  0
   -0.8448    1.9387    1.1048 H   0  0  0  0  0  0  0  0  0  0  0  0
   -2.8576    0.9314    0.6625 H   0  0  0  0  0  0  0  0  0  0  0  0
   -5.4246   -2.3030   -0.4829 H   0  0  0  0  0  0  0  0  0  0  0  0
   -7.2323   -1.2816   -1.4571 H   0  0  0  0  0  0  0  0  0  0  0  0
   -7.4311    1.0882   -1.5651 H   0  0  0  0  0  0  0  0  0  0  0  0
   -7.9593    2.3948    0.2221 H   0  0  0  0  0  0  0  0  0  0  0  0
   -7.1473   -0.7595    1.7964 H   0  0  0  0  0  0  0  0  0  0  0  0
   -7.0643   -1.2078    4.1040 H   0  0  0  0  0  0  0  0  0  0  0  0
   -7.3622    0.5031    4.4527 H   0  0  0  0  0  0  0  0  0  0  0  0
   -5.0586    0.2279    4.9314 H   0  0  0  0  0  0  0  0  0  0  0  0
   -5.0856    1.0444    3.3809 H   0  0  0  0  0  0  0  0  0  0  0  0
   -4.4437   -1.8342    4.0577 H   0  0  0  0  0  0  0  0  0  0  0  0
   -3.3885   -0.6877    3.2659 H   0  0  0  0  0  0  0  0  0  0  0  0
   -4.3308   -2.4857    1.9082 H   0  0  0  0  0  0  0  0  0  0  0  0
  1  2  1  0
  2  3  2  0
  3  4  1  0
  4  5  1  0
  5  6  2  0
  6  7  1  0
  7  8  2  0
  8  9  1  0
  9 10  2  0
  9 11  1  0
 11 12  1  0
 12 13  1  0
 13 14  1  0
  8 15  1  0
 15 16  2  0
  4 17  2  0
 17 18  1  0
 18 19  2  0
 19 20  1  0
 20 21  1  0
 21 22  2  0
 21 23  1  0
 23 24  1  0
 23 25  1  0
 25 26  2  3
 26 27  1  0
 27 28  2  3
 28 29  1  0
 29 30  2  0
 29 31  1  0
 31 32  1  0
 32 33  1  0
 33 34  1  0
 34 35  1  0
 19  2  1  0
 35 23  1  0
 16  5  1  0
  1 36  1  0
  1 37  1  0
  1 38  1  0
  3 39  1  0
  6 40  1  0
  7 41  1  0
 11 42  1  0
 12 43  1  0
 12 44  1  0
 13 45  1  0
 13 46  1  0
 14 47  1  0
 14 48  1  0
 15 49  1  0
 16 50  1  0
 17 51  1  0
 18 52  1  0
 20 53  1  0
 25 54  1  0
 26 55  1  0
 27 56  1  0
 28 57  1  0
 31 58  1  0
 32 59  1  0
 32 60  1  0
 33 61  1  0
 33 62  1  0
 34 63  1  0
 34 64  1  0
 35 65  1  0
M  END
$$$$
