
     RDKit          3D

 45 47  0  0  0  0  0  0  0  0999 V2000
   -4.9504    4.4213    2.3360 N   0  0  0  0  0  0  0  0  0  0  0  0
   -3.6959    4.1902    1.8511 C   0  0  0  0  0  0  0  0  0  0  0  0
   -2.8738    5.0962    1.8062 O   0  0  0  0  0  0  0  0  0  0  0  0
   -3.3525    2.8031    1.4122 C   0  0  0  0  0  0  0  0  0  0  0  0
   -1.9946    2.4525    1.5273 C   0  0  0  0  0  0  0  0  0  0  0  0
   -1.5495    1.1665    1.2050 C   0  0  0  0  0  0  0  0  0  0  0  0
   -2.4430    0.1914    0.7520 C   0  0  0  0  0  0  0  0  0  0  0  0
   -2.0724   -1.1172    0.3952 N   0  0  0  0  0  0  0  0  0  0  0  0
   -0.8460   -1.6917    0.3676 C   0  0  0  0  0  0  0  0  0  0  0  0
    0.3311   -1.0958    0.3961 N   0  0  0  0  0  0  0  0  0  0  0  0
    1.3444   -2.0351    0.3047 C   0  0  0  0  0  0  0  0  0  0  0  0
    0.9282   -3.3457    0.2122 C   0  0  0  0  0  0  0  0  0  0  0  0
   -0.7671   -3.4247    0.2474 S   0  0  0  0  0  0  0  0  0  0  0  0
    1.8208   -4.5367    0.1206 C   0  0  0  0  0  0  0  0  0  0  0  0
    3.2331   -4.1091   -0.3154 C   0  0  0  0  0  0  0  0  0  0  0  0
    3.7187   -2.8521    0.4381 C   0  0  0  0  0  0  0  0  0  0  0  0
    2.7912   -1.6273    0.2473 C   0  0  1  0  0  0  0  0  0  0  0  0
    3.0553   -0.9033   -1.0773 C   0  0  0  0  0  0  0  0  0  0  0  0
    3.7658   -1.3563   -1.9771 O   0  0  0  0  0  0  0  0  0  0  0  0
    2.4203    0.3232   -1.1688 N   0  0  0  0  0  0  0  0  0  0  0  0
    2.4383    1.1199   -2.3984 C   0  0  0  0  0  0  0  0  0  0  0  0
    2.5375    2.6274   -2.1580 C   0  0  0  0  0  0  0  0  0  0  0  0
    1.5499    3.0554   -1.3308 F   0  0  0  0  0  0  0  0  0  0  0  0
    3.7191    2.9628   -1.5901 F   0  0  0  0  0  0  0  0  0  0  0  0
    2.4225    3.3129   -3.3200 F   0  0  0  0  0  0  0  0  0  0  0  0
   -3.7851    0.5754    0.5589 C   0  0  0  0  0  0  0  0  0  0  0  0
   -4.2554    1.8622    0.8869 C   0  0  0  0  0  0  0  0  0  0  0  0
   -5.9877    2.1702    0.5469 S   0  0  0  0  0  0  0  0  0  0  0  0
   -5.2135    5.3903    2.4654 H   0  0  0  0  0  0  0  0  0  0  0  0
   -5.6932    3.7363    2.2309 H   0  0  0  0  0  0  0  0  0  0  0  0
   -1.2700    3.1782    1.8988 H   0  0  0  0  0  0  0  0  0  0  0  0
   -0.4920    0.9417    1.3534 H   0  0  0  0  0  0  0  0  0  0  0  0
   -2.8393   -1.7824    0.4541 H   0  0  0  0  0  0  0  0  0  0  0  0
    1.8777   -5.0141    1.1010 H   0  0  0  0  0  0  0  0  0  0  0  0
    1.4279   -5.2669   -0.5949 H   0  0  0  0  0  0  0  0  0  0  0  0
    3.2286   -3.9152   -1.3945 H   0  0  0  0  0  0  0  0  0  0  0  0
    3.9344   -4.9382   -0.1436 H   0  0  0  0  0  0  0  0  0  0  0  0
    3.7620   -3.0937    1.5135 H   0  0  0  0  0  0  0  0  0  0  0  0
    4.7437   -2.6085    0.1298 H   0  0  0  0  0  0  0  0  0  0  0  0
    3.0005   -0.9128    1.0571 H   0  0  0  0  0  0  0  0  0  0  0  0
    1.6471    0.4864   -0.5114 H   0  0  0  0  0  0  0  0  0  0  0  0
    1.5035    0.9066   -2.9214 H   0  0  0  0  0  0  0  0  0  0  0  0
    3.2613    0.7908   -3.0453 H   0  0  0  0  0  0  0  0  0  0  0  0
   -4.4788   -0.1491    0.1447 H   0  0  0  0  0  0  0  0  0  0  0  0
   -5.9023    2.0147   -0.7867 H   0  0  0  0  0  0  0  0  0  0  0  0
  1  2  1  0
  2  3  2  0
  2  4  1  0
  4  5  2  0
  5  6  1  0
  6  7  2  0
  7  8  1  0
  8  9  1  0
  9 10  2  0
 10 11  1  0
 11 12  2  0
 12 13  1  0
 12 14  1  0
 14 15  1  0
 15 16  1  0
 16 17  1  0
 17 18  1  0
 18 19  2  0
 18 20  1  0
 20 21  1  0
 21 22  1  0
 22 23  1  0
 22 24  1  0
 22 25  1  0
  7 26  1  0
 26 27  2  0
 27 28  1  0
 27  4  1  0
 13  9  1  0
 17 11  1  0
  1 29  1  0
  1 30  1  0
  5 31  1  0
  6 32  1  0
  8 33  1  0
 14 34  1  0
 14 35  1  0
 15 36  1  0
 15 37  1  0
 16 38  1  0
 16 39  1  0
 17 40  1  1
 20 41  1  0
 21 42  1  0
 21 43  1  0
 26 44  1  0
 28 45  1  0
M  END
$$$$
