
     RDKit          3D

 55 57  0  0  0  0  0  0  0  0999 V2000
   -1.4165   -3.5993   -2.2828 N   0  0  0  0  0  0  0  0  0  0  0  0
   -1.6948   -2.2550   -2.1748 C   0  0  0  0  0  0  0  0  0  0  0  0
   -1.5553   -1.4167   -1.1243 C   0  0  0  0  0  0  0  0  0  0  0  0
   -1.0686   -1.9771    0.1335 C   0  0  0  0  0  0  0  0  0  0  0  0
    0.1142   -1.6541    0.6812 C   0  0  0  0  0  0  0  0  0  0  0  0
    0.5768   -2.2113    1.9317 C   0  0  0  0  0  0  0  0  0  0  0  0
    1.6853   -1.8582    2.6036 C   0  0  0  0  0  0  0  0  0  0  0  0
    2.6925   -0.7981    2.2505 C   0  0  0  0  0  0  0  0  0  0  0  0
    4.0910   -1.3515    2.1216 C   0  0  0  0  0  0  0  0  0  0  0  0
    4.9303   -1.4392    3.2416 C   0  0  0  0  0  0  0  0  0  0  0  0
    6.2227   -1.9510    3.1175 C   0  0  0  0  0  0  0  0  0  0  0  0
    6.6829   -2.3948    1.8765 C   0  0  0  0  0  0  0  0  0  0  0  0
    5.8497   -2.3347    0.7496 C   0  0  0  0  0  0  0  0  0  0  0  0
    6.3069   -2.8145   -0.5742 C   0  0  0  0  0  0  0  0  0  0  0  0
    5.6463   -2.9438   -1.5879 O   0  0  0  0  0  0  0  0  0  0  0  0
    7.6183   -3.1264   -0.5780 O   0  0  0  0  0  0  0  0  0  0  0  0
    4.5614   -1.8106    0.8823 C   0  0  0  0  0  0  0  0  0  0  0  0
    3.7477   -1.7243   -0.1812 F   0  0  0  0  0  0  0  0  0  0  0  0
   -1.8589   -0.0458   -1.1727 N   0  0  0  0  0  0  0  0  0  0  0  0
   -1.9755    0.7954    0.0405 C   0  0  0  0  0  0  0  0  0  0  0  0
   -2.9832    1.9470   -0.1492 C   0  0  0  0  0  0  0  0  0  0  0  0
   -2.7444    2.7591   -1.3496 N   0  0  0  0  0  0  0  0  0  0  0  0
   -3.7165    3.6405   -1.8522 C   0  0  0  0  0  0  0  0  0  0  0  0
   -3.7534    3.9227   -3.0505 O   0  0  0  0  0  0  0  0  0  0  0  0
   -4.6579    4.2152   -0.9058 C   0  0  0  0  0  0  0  0  0  0  0  0
   -4.5080    4.7550    0.3608 C   0  0  0  0  0  0  0  0  0  0  0  0
   -5.7893    5.1864    0.7802 C   0  0  0  0  0  0  0  0  0  0  0  0
   -6.6438    4.9027   -0.2575 C   0  0  0  0  0  0  0  0  0  0  0  0
   -5.9702    4.3276   -1.2849 O   0  0  0  0  0  0  0  0  0  0  0  0
   -1.7549    2.2058   -2.2777 C   0  0  0  0  0  0  0  0  0  0  0  0
   -1.9380    0.6910   -2.4614 C   0  0  0  0  0  0  0  0  0  0  0  0
   -1.2388   -4.0587   -1.3929 H   0  0  0  0  0  0  0  0  0  0  0  0
   -2.0637   -4.1093   -2.8756 H   0  0  0  0  0  0  0  0  0  0  0  0
   -2.0840   -1.8747   -3.1160 H   0  0  0  0  0  0  0  0  0  0  0  0
   -1.7343   -2.6902    0.6110 H   0  0  0  0  0  0  0  0  0  0  0  0
    0.7520   -0.9477    0.1562 H   0  0  0  0  0  0  0  0  0  0  0  0
   -0.0418   -2.9976    2.3626 H   0  0  0  0  0  0  0  0  0  0  0  0
    1.8841   -2.3867    3.5359 H   0  0  0  0  0  0  0  0  0  0  0  0
    2.6819   -0.0393    3.0437 H   0  0  0  0  0  0  0  0  0  0  0  0
    2.4330   -0.2552    1.3361 H   0  0  0  0  0  0  0  0  0  0  0  0
    4.5823   -1.1038    4.2165 H   0  0  0  0  0  0  0  0  0  0  0  0
    6.8710   -2.0099    3.9890 H   0  0  0  0  0  0  0  0  0  0  0  0
    7.6918   -2.7956    1.8002 H   0  0  0  0  0  0  0  0  0  0  0  0
    7.7752   -3.4162   -1.5013 H   0  0  0  0  0  0  0  0  0  0  0  0
   -0.9866    1.2043    0.2842 H   0  0  0  0  0  0  0  0  0  0  0  0
   -2.3141    0.2046    0.9003 H   0  0  0  0  0  0  0  0  0  0  0  0
   -3.9965    1.5340   -0.2236 H   0  0  0  0  0  0  0  0  0  0  0  0
   -2.9438    2.5955    0.7296 H   0  0  0  0  0  0  0  0  0  0  0  0
   -3.5782    4.8476    0.9041 H   0  0  0  0  0  0  0  0  0  0  0  0
   -6.0553    5.6610    1.7142 H   0  0  0  0  0  0  0  0  0  0  0  0
   -7.7034    5.0475   -0.4185 H   0  0  0  0  0  0  0  0  0  0  0  0
   -1.7891    2.7067   -3.2495 H   0  0  0  0  0  0  0  0  0  0  0  0
   -0.7677    2.4138   -1.8458 H   0  0  0  0  0  0  0  0  0  0  0  0
   -1.1563    0.3363   -3.1442 H   0  0  0  0  0  0  0  0  0  0  0  0
   -2.9143    0.4917   -2.9194 H   0  0  0  0  0  0  0  0  0  0  0  0
  1  2  1  0
  2  3  2  3
  3  4  1  0
  4  5  2  3
  5  6  1  0
  6  7  2  3
  7  8  1  0
  8  9  1  0
  9 10  2  0
 10 11  1  0
 11 12  2  0
 12 13  1  0
 13 14  1  0
 14 15  2  0
 14 16  1  0
 13 17  2  0
 17 18  1  0
  3 19  1  0
 19 20  1  0
 20 21  1  0
 21 22  1  0
 22 23  1  0
 23 24  2  0
 23 25  1  0
 25 26  2  0
 26 27  1  0
 27 28  2  0
 28 29  1  0
 22 30  1  0
 30 31  1  0
 17  9  1  0
 31 19  1  0
 29 25  1  0
  1 32  1  0
  1 33  1  0
  2 34  1  0
  4 35  1  0
  5 36  1  0
  6 37  1  0
  7 38  1  0
  8 39  1  0
  8 40  1  0
 10 41  1  0
 11 42  1  0
 12 43  1  0
 16 44  1  0
 20 45  1  0
 20 46  1  0
 21 47  1  0
 21 48  1  0
 26 49  1  0
 27 50  1  0
 28 51  1  0
 30 52  1  0
 30 53  1  0
 31 54  1  0
 31 55  1  0
M  END
$$$$
