MODEL        4USER    Run = 4USERUSER    Estimated Free Energy of Binding    =  -6.42 kcal/mol  [=(1)+(2)+(3)-(4)]USERUSER    (1) Final Intermolecular Energy     = -10.89 kcal/molUSER        vdW + Hbond + desolv Energy     = -11.50 kcal/molUSER        Electrostatic Energy            =  -0.12 kcal/molUSER        Moving Ligand-Fixed Receptor    = -11.62 kcal/molUSER        Moving Ligand-Moving Receptor   =  +0.72 kcal/molUSER    (2) Final Total Internal Energy     =  -3.18 kcal/molUSER    (3) Torsional Free Energy           =  +4.47 kcal/molUSER    (4) Unbound System's Energy         =  -3.18 kcal/molUSERUSERREMARK SMILES COc1ccc(O)c(C(=O)c2ccc(CN[C@@H]3CCCNC[C@H]3NC(=O)c3ccncc3)cc2)c1FREMARK SMILES IDX 16 1 15 3 14 4 11 5 12 6 34 7 13 8 33 9 9 10 10 11 8 12 3 13REMARK SMILES IDX 4 14 35 15 5 16 6 17 36 18 2 19 1 20 7 21 17 23 18 24 23 26REMARK SMILES IDX 22 27 21 28 20 30 19 31 24 33 25 34 26 36 27 37 28 38 32 39REMARK SMILES IDX 29 40 31 41 30 42REMARK H PARENT 16 2 7 22 21 29 24 35REMARK Flexibility Score:   99.900USER                              x       y       z     vdW  Elec       q    TypeUSER                           _______ _______ _______ _____ _____    ______ ____ROOTATOM      1  N   UNL     1      37.697  45.652  25.001 -0.48 -0.03    -0.308 NA ATOM      2  H   UNL     1      37.698  46.285  25.804 +0.06 +0.00    +0.123 HD ENDROOTBRANCH   1   3ATOM      3  C   UNL     1      39.074  45.225  24.741 -0.18 +0.01    +0.117 C  BRANCH   3   4ATOM      4  C   UNL     1      39.397  45.084  23.273 -0.23 -0.00    -0.034 A  ATOM      5  C   UNL     1      39.991  44.844  20.535 -0.35 +0.00    +0.023 A  ATOM      6  C   UNL     1      39.162  45.877  20.982 -0.16 +0.00    +0.012 A  ATOM      7  C   UNL     1      40.501  43.917  21.452 -0.26 +0.00    +0.012 A  ATOM      8  C   UNL     1      38.875  45.999  22.345 -0.27 +0.00    +0.006 A  ATOM      9  C   UNL     1      40.210  44.041  22.812 -0.23 +0.00    +0.006 A  BRANCH   5  10ATOM     10  C   UNL     1      40.292  44.648  19.096 -0.34 +0.00    +0.199 C  ATOM     11  O   UNL     1      40.750  43.566  18.723 -0.18 -0.01    -0.288 OA BRANCH  10  12ATOM     12  C   UNL     1      40.013  45.668  18.062 -0.38 -0.01    +0.104 A  ATOM     13  C   UNL     1      40.540  47.755  16.916 -0.41 -0.03    +0.155 A  ATOM     14  C   UNL     1      39.429  47.577  16.089 -0.46 -0.02    +0.053 A  ATOM     15  C   UNL     1      40.826  46.790  17.894 -0.38 -0.02    +0.179 A  ATOM     16  C   UNL     1      38.628  46.440  16.225 -0.37 -0.02    +0.051 A  ATOM     17  C   UNL     1      38.930  45.486  17.194 -0.29 -0.03    +0.130 A  ATOM     18  F   UNL     1      41.919  46.952  18.657 -0.19 -0.00    -0.202 F  BRANCH  13  19ATOM     19  O   UNL     1      41.407  48.814  16.862 -0.77 -0.00    -0.494 OA ATOM     20  C   UNL     1      41.212  49.762  15.821 -0.44 -0.04    +0.278 C  ENDBRANCH  13  19BRANCH  17  21ATOM     21  O   UNL     1      38.118  44.384  17.237 -0.07 +0.10    -0.507 OA ATOM     22  H   UNL     1      38.608  43.669  17.705 +0.20 -0.04    +0.293 HD ENDBRANCH  17  21ENDBRANCH  10  12ENDBRANCH   5  10ENDBRANCH   3   4ENDBRANCH   1   3BRANCH   1  23ATOM     23  C   UNL     1      36.766  44.528  25.293 -0.30 +0.00    +0.077 C  BRANCH  23  24ATOM     24  C   UNL     1      36.833  44.262  26.802 -0.41 -0.00    +0.022 CG0ATOM     25  G   UNL     1      38.078  43.515  27.279 +0.00 +0.00    +0.000 G0 ENDBRANCH  23  24BRANCH  23  26ATOM     26  C   UNL     1      37.144  43.287  24.425 -0.34 +0.01    +0.113 C  BRANCH  26  27ATOM     27  C   UNL     1      36.492  41.989  24.961 -0.37 -0.01    +0.107 C  BRANCH  27  28ATOM     28  N   UNL     1      36.819  41.545  26.313 -0.19 +0.07    -0.315 NA ATOM     29  H   UNL     1      36.830  40.523  26.334 -0.44 -0.06    +0.122 HD BRANCH  28  30ATOM     30  C   UNL     1      38.058  42.031  26.901 -0.37 -0.01    +0.081 C  BRANCH  30  31ATOM     31  C   UNL     1      38.080  43.510  27.275 -0.33 -0.00    +0.017 CG0ATOM     32  G   UNL     1      36.839  44.262  26.796 +0.00 +0.00    +0.000 G0 ENDBRANCH  30  31ENDBRANCH  28  30ENDBRANCH  27  28ENDBRANCH  26  27BRANCH  26  33ATOM     33  N   UNL     1      36.719  43.513  23.029 -0.11 -0.05    -0.346 N  ATOM     34  C   UNL     1      36.815  42.521  22.078 -0.35 +0.02    +0.251 C  ATOM     35  H   UNL     1      36.271  44.392  22.815 +0.09 +0.05    +0.164 HD ATOM     36  O   UNL     1      37.339  41.434  22.290 -0.41 -0.02    -0.269 OA BRANCH  34  37ATOM     37  C   UNL     1      36.273  42.831  20.730 -0.43 +0.00    +0.042 A  ATOM     38  C   UNL     1      36.332  44.153  20.287 -0.37 -0.00    +0.034 A  ATOM     39  C   UNL     1      35.744  41.847  19.895 -0.25 -0.00    +0.034 A  ATOM     40  C   UNL     1      35.830  44.443  19.034 -0.29 -0.02    +0.112 A  ATOM     41  C   UNL     1      35.270  42.240  18.655 -0.31 -0.02    +0.112 A  ATOM     42  N   UNL     1      35.292  43.514  18.213 -0.14 +0.07    -0.265 NA ENDBRANCH  34  37ENDBRANCH  26  33ENDBRANCH  23  26ENDBRANCH   1  23TORSDOF 9TERENDMDL