MODEL        2USER    Run = 2USERUSER    Estimated Free Energy of Binding    = -12.40 kcal/mol  [=(1)+(2)+(3)-(4)]USERUSER    (1) Final Intermolecular Energy     = -14.19 kcal/molUSER        vdW + Hbond + desolv Energy     = -14.04 kcal/molUSER        Electrostatic Energy            =  -0.14 kcal/molUSER        Moving Ligand-Fixed Receptor    = -14.19 kcal/molUSER        Moving Ligand-Moving Receptor   =  +0.00 kcal/molUSER    (2) Final Total Internal Energy     =  -1.86 kcal/molUSER    (3) Torsional Free Energy           =  +1.79 kcal/molUSER    (4) Unbound System's Energy         =  -1.86 kcal/molUSERUSERREMARK SMILES Oc1nc2ccccc2n1C1CCN(Cc2ccc(-c3cc4ccccc4nc3-c3ccccc3)cc2)CC1REMARK SMILES IDX 11 1 12 2 13 3 14 4 38 5 39 6 10 7 2 8 3 9 4 10 9 11 5 12REMARK SMILES IDX 8 13 6 14 7 15 1 16 15 18 16 19 17 20 37 21 18 22 36 23REMARK SMILES IDX 19 24 20 25 21 26 29 27 22 28 28 29 23 30 27 31 24 32 26 33REMARK SMILES IDX 25 34 30 35 31 36 35 37 32 38 34 39 33 40REMARK H PARENT 1 17USER                              x       y       z     vdW  Elec       q    TypeUSER                           _______ _______ _______ _____ _____    ______ ____ROOTATOM      1  C   UNL     1      30.516  39.846  17.471 -0.33 +0.00    +0.095 C  ATOM      2  C   UNL     1      31.925  40.188  17.977 -0.47 -0.01    +0.041 C  ATOM      3  C   UNL     1      32.095  41.624  18.460 -0.36 -0.01    +0.087 C  ATOM      4  N   UNL     1      31.518  42.631  17.565 -0.11 +0.07    -0.299 NA ATOM      5  C   UNL     1      30.086  42.389  17.369 -0.24 -0.02    +0.087 C  ATOM      6  C   UNL     1      29.749  41.006  16.817 -0.37 -0.01    +0.041 C  ENDROOTBRANCH   1   7ATOM      7  N   UNL     1      29.722  39.048  18.403 -0.19 -0.06    -0.291 N  ATOM      8  C   UNL     1      30.138  37.837  18.904 -0.20 +0.11    +0.295 A  ATOM      9  N   UNL     1      29.273  37.273  19.698 -0.24 -0.04    -0.195 NA ATOM     10  C   UNL     1      28.227  38.155  19.735 -0.25 +0.01    +0.092 A  ATOM     11  C   UNL     1      28.475  39.286  18.944 -0.23 +0.01    +0.072 A  ATOM     12  C   UNL     1      27.017  38.043  20.442 -0.27 -0.01    +0.031 A  ATOM     13  C   UNL     1      27.537  40.322  18.851 -0.16 -0.00    +0.029 A  ATOM     14  C   UNL     1      26.077  39.071  20.347 -0.29 -0.00    +0.002 A  ATOM     15  C   UNL     1      26.338  40.192  19.565 -0.25 -0.00    +0.002 A  BRANCH   8  16ATOM     16  O   UNL     1      31.292  37.264  18.634 -0.78 -0.19    -0.480 OA ATOM     17  H   UNL     1      31.897  37.791  19.188 +0.22 +0.06    +0.296 HD ENDBRANCH   8  16ENDBRANCH   1   7BRANCH   4  18ATOM     18  C   UNL     1      32.278  42.762  16.311 -0.19 -0.06    +0.120 C  BRANCH  18  19ATOM     19  C   UNL     1      33.618  43.441  16.494 -0.32 +0.02    -0.034 A  ATOM     20  C   UNL     1      34.813  42.719  16.386 -0.42 -0.00    +0.006 A  ATOM     21  C   UNL     1      33.682  44.813  16.776 -0.32 -0.00    +0.006 A  ATOM     22  C   UNL     1      36.045  43.355  16.559 -0.40 -0.00    +0.009 A  ATOM     23  C   UNL     1      34.915  45.444  16.958 -0.33 -0.01    +0.009 A  ATOM     24  C   UNL     1      36.114  44.725  16.857 -0.31 +0.01    -0.016 A  BRANCH  24  25ATOM     25  C   UNL     1      37.410  45.394  17.039 -0.35 -0.00    +0.009 A  ATOM     26  C   UNL     1      38.110  45.214  18.241 -0.37 -0.00    +0.021 A  ATOM     27  C   UNL     1      38.026  46.188  16.058 -0.33 -0.03    +0.079 A  ATOM     28  C   UNL     1      39.369  45.795  18.435 -0.43 -0.00    +0.001 A  ATOM     29  N   UNL     1      39.257  46.749  16.228 -0.25 +0.07    -0.247 NA ATOM     30  C   UNL     1      40.089  45.625  19.631 -0.40 -0.00    +0.010 A  ATOM     31  C   UNL     1      39.908  46.560  17.387 -0.43 -0.01    +0.071 A  ATOM     32  C   UNL     1      41.342  46.212  19.790 -0.42 +0.00    +0.001 A  ATOM     33  C   UNL     1      41.160  47.134  17.569 -0.46 -0.00    +0.029 A  ATOM     34  C   UNL     1      41.880  46.969  18.755 -0.54 +0.00    +0.002 A  BRANCH  27  35ATOM     35  C   UNL     1      37.417  46.504  14.751 -0.41 -0.00    +0.001 A  ATOM     36  C   UNL     1      37.132  45.478  13.832 -0.44 -0.00    +0.010 A  ATOM     37  C   UNL     1      37.124  47.825  14.371 -0.51 -0.01    +0.010 A  ATOM     38  C   UNL     1      36.553  45.760  12.592 -0.59 -0.00    +0.001 A  ATOM     39  C   UNL     1      36.546  48.109  13.131 -0.62 -0.00    +0.001 A  ATOM     40  C   UNL     1      36.256  47.075  12.243 -0.69 -0.00    +0.000 A  ENDBRANCH  27  35ENDBRANCH  24  25ENDBRANCH  18  19ENDBRANCH   4  18TORSDOF 6TERENDMDL