MODEL        8USER    Run = 8USERUSER    Estimated Free Energy of Binding    = -12.84 kcal/mol  [=(1)+(2)+(3)-(4)]USERUSER    (1) Final Intermolecular Energy     = -14.63 kcal/molUSER        vdW + Hbond + desolv Energy     = -14.61 kcal/molUSER        Electrostatic Energy            =  -0.02 kcal/molUSER        Moving Ligand-Fixed Receptor    = -14.63 kcal/molUSER        Moving Ligand-Moving Receptor   =  +0.00 kcal/molUSER    (2) Final Total Internal Energy     =  -2.05 kcal/molUSER    (3) Torsional Free Energy           =  +1.79 kcal/molUSER    (4) Unbound System's Energy         =  -2.05 kcal/molUSERUSERREMARK SMILES Oc1nc2ccccc2n1C1CCN(Cc2ccc(-c3nc4ccccc4nc3-c3ccccc3)cc2)CC1REMARK SMILES IDX 11 1 12 2 13 3 14 4 38 5 39 6 10 7 2 8 3 9 4 10 9 11 5 12REMARK SMILES IDX 8 13 6 14 7 15 1 16 15 18 16 19 17 20 37 21 18 22 36 23REMARK SMILES IDX 19 24 20 25 21 26 29 27 22 28 28 29 23 30 27 31 24 32 26 33REMARK SMILES IDX 25 34 30 35 31 36 35 37 32 38 34 39 33 40REMARK H PARENT 1 17USER                              x       y       z     vdW  Elec       q    TypeUSER                           _______ _______ _______ _____ _____    ______ ____ROOTATOM      1  C   UNL     1      39.415  47.282  15.865 -0.48 -0.03    +0.095 C  ATOM      2  C   UNL     1      38.059  46.941  16.506 -0.42 -0.02    +0.041 C  ATOM      3  C   UNL     1      36.902  47.646  15.799 -0.34 -0.08    +0.087 C  ATOM      4  N   UNL     1      36.991  47.609  14.336 -0.25 +0.19    -0.299 NA ATOM      5  C   UNL     1      38.251  48.174  13.826 -0.49 -0.03    +0.087 C  ATOM      6  C   UNL     1      39.308  48.465  14.896 -0.58 -0.02    +0.041 C  ENDROOTBRANCH   1   7ATOM      7  N   UNL     1      40.473  47.448  16.850 -0.30 +0.05    -0.291 N  ATOM      8  C   UNL     1      41.374  48.474  16.910 -0.20 -0.01    +0.295 A  ATOM      9  N   UNL     1      42.209  48.373  17.906 -0.48 -0.01    -0.195 NA ATOM     10  C   UNL     1      41.833  47.219  18.550 -0.46 -0.00    +0.092 A  ATOM     11  C   UNL     1      40.743  46.615  17.917 -0.46 -0.01    +0.072 A  ATOM     12  C   UNL     1      42.380  46.624  19.697 -0.43 +0.01    +0.031 A  ATOM     13  C   UNL     1      40.164  45.428  18.388 -0.44 -0.00    +0.029 A  ATOM     14  C   UNL     1      41.815  45.438  20.180 -0.34 +0.00    +0.002 A  ATOM     15  C   UNL     1      40.726  44.853  19.534 -0.41 +0.00    +0.002 A  BRANCH   8  16ATOM     16  O   UNL     1      41.416  49.487  16.069 -0.87 +0.02    -0.480 OA ATOM     17  H   UNL     1      41.361  50.245  16.679 +0.07 -0.04    +0.296 HD ENDBRANCH   8  16ENDBRANCH   1   7BRANCH   4  18ATOM     18  C   UNL     1      36.716  46.285  13.751 -0.45 -0.06    +0.120 C  BRANCH  18  19ATOM     19  C   UNL     1      35.981  45.345  14.681 -0.35 +0.02    -0.034 A  ATOM     20  C   UNL     1      36.616  44.209  15.197 -0.36 -0.00    +0.006 A  ATOM     21  C   UNL     1      34.647  45.588  15.030 -0.33 -0.00    +0.006 A  ATOM     22  C   UNL     1      35.932  43.346  16.061 -0.43 -0.00    +0.011 A  ATOM     23  C   UNL     1      33.967  44.725  15.893 -0.31 -0.01    +0.011 A  ATOM     24  C   UNL     1      34.602  43.597  16.438 -0.37 -0.00    +0.002 A  BRANCH  24  25ATOM     25  C   UNL     1      33.906  42.687  17.363 -0.31 -0.04    +0.097 A  ATOM     26  N   UNL     1      32.813  42.080  16.817 -0.08 +0.13    -0.244 NA ATOM     27  C   UNL     1      34.281  42.450  18.695 -0.34 -0.02    +0.097 A  ATOM     28  C   UNL     1      32.089  41.274  17.614 -0.29 -0.03    +0.089 A  ATOM     29  N   UNL     1      33.534  41.640  19.500 -0.27 -0.02    -0.244 NA ATOM     30  C   UNL     1      30.960  40.643  17.106 -0.30 -0.01    +0.030 A  ATOM     31  C   UNL     1      32.449  41.056  18.962 -0.31 +0.00    +0.089 A  ATOM     32  C   UNL     1      30.178  39.802  17.899 -0.35 +0.00    +0.002 A  ATOM     33  C   UNL     1      31.665  40.216  19.744 -0.29 +0.00    +0.030 A  ATOM     34  C   UNL     1      30.533  39.588  19.224 -0.31 +0.00    +0.002 A  BRANCH  27  35ATOM     35  C   UNL     1      35.480  43.000  19.353 -0.41 -0.00    +0.002 A  ATOM     36  C   UNL     1      36.115  42.285  20.385 -0.46 -0.00    +0.010 A  ATOM     37  C   UNL     1      36.047  44.227  18.964 -0.36 -0.00    +0.010 A  ATOM     38  C   UNL     1      37.255  42.787  21.020 -0.37 +0.00    +0.001 A  ATOM     39  C   UNL     1      37.184  44.732  19.600 -0.28 -0.00    +0.001 A  ATOM     40  C   UNL     1      37.787  44.014  20.629 -0.37 -0.00    +0.000 A  ENDBRANCH  27  35ENDBRANCH  24  25ENDBRANCH  18  19ENDBRANCH   4  18TORSDOF 6TERENDMDL