MODEL        2USER    Run = 2USERUSER    Estimated Free Energy of Binding    = -12.31 kcal/mol  [=(1)+(2)+(3)-(4)]USERUSER    (1) Final Intermolecular Energy     = -14.69 kcal/molUSER        vdW + Hbond + desolv Energy     = -14.60 kcal/molUSER        Electrostatic Energy            =  -0.09 kcal/molUSER        Moving Ligand-Fixed Receptor    = -14.69 kcal/molUSER        Moving Ligand-Moving Receptor   =  +0.00 kcal/molUSER    (2) Final Total Internal Energy     =  -2.05 kcal/molUSER    (3) Torsional Free Energy           =  +2.39 kcal/molUSER    (4) Unbound System's Energy         =  -2.05 kcal/molUSERUSERREMARK SMILES N#Cc1cnc(-c2ccc(CNCc3ccc(-c4csnn4)cc3)cc2)c(-c2ccccc2)c1REMARK SMILES IDX 11 1 10 2 7 3 8 4 26 5 9 6 25 7 6 8 3 9 4 10 34 11 5 12REMARK SMILES IDX 27 13 2 14 1 15 28 16 29 17 33 18 30 19 32 20 31 21 12 22REMARK SMILES IDX 13 24 14 25 15 26 24 27 16 28 23 29 17 30 18 31 19 32 22 33REMARK SMILES IDX 20 34 21 35REMARK H PARENT 12 23USER                              x       y       z     vdW  Elec       q    TypeUSER                           _______ _______ _______ _____ _____    ______ ____ROOTATOM      1  C   UNL     1      35.501  43.631  18.948 -0.34 -0.02    +0.117 C  ENDROOTBRANCH   1   2ATOM      2  C   UNL     1      36.425  44.577  18.221 -0.31 +0.01    -0.034 A  ATOM      3  C   UNL     1      38.184  46.365  16.889 -0.39 -0.00    +0.001 A  ATOM      4  C   UNL     1      36.791  46.550  16.852 -0.30 -0.01    +0.011 A  ATOM      5  C   UNL     1      38.676  45.255  17.594 -0.38 -0.00    +0.011 A  ATOM      6  C   UNL     1      35.922  45.674  17.513 -0.35 -0.00    +0.006 A  ATOM      7  C   UNL     1      37.811  44.379  18.258 -0.33 -0.00    +0.006 A  BRANCH   3   8ATOM      8  C   UNL     1      39.079  47.306  16.184 -0.40 -0.03    +0.078 A  ATOM      9  C   UNL     1      40.889  49.113  15.130 -0.57 -0.02    +0.071 A  ATOM     10  C   UNL     1      40.988  48.628  16.419 -0.46 -0.02    +0.131 A  ATOM     11  C   UNL     1      39.836  48.655  14.340 -0.39 -0.01    +0.032 A  ATOM     12  N   UNL     1      40.120  47.741  16.954 -0.32 +0.06    -0.254 NA ATOM     13  C   UNL     1      38.902  47.731  14.850 -0.50 -0.00    +0.009 A  BRANCH   9  14ATOM     14  C   UNL     1      41.845  50.048  14.629 -0.67 -0.02    +0.101 C  ATOM     15  N   UNL     1      42.622  50.806  14.221 -0.50 +0.04    -0.192 NA ENDBRANCH   9  14BRANCH  13  16ATOM     16  C   UNL     1      37.834  47.241  13.963 -0.49 +0.01    -0.016 A  ATOM     17  C   UNL     1      36.912  48.133  13.387 -0.59 -0.00    +0.009 A  ATOM     18  C   UNL     1      37.715  45.876  13.653 -0.42 -0.00    +0.009 A  ATOM     19  C   UNL     1      35.900  47.675  12.541 -0.59 -0.00    +0.001 A  ATOM     20  C   UNL     1      36.702  45.417  12.808 -0.53 -0.00    +0.001 A  ATOM     21  C   UNL     1      35.795  46.316  12.253 -0.61 -0.00    +0.000 A  ENDBRANCH  13  16ENDBRANCH   3   8ENDBRANCH   1   2BRANCH   1  22ATOM     22  N   UNL     1      34.107  44.040  18.773 -0.15 +0.07    -0.309 NA ATOM     23  H   UNL     1      34.099  44.977  18.373 +0.09 -0.05    +0.123 HD BRANCH  22  24ATOM     24  C   UNL     1      33.375  43.138  17.884 -0.31 -0.03    +0.117 C  BRANCH  24  25ATOM     25  C   UNL     1      32.634  43.855  16.779 -0.29 +0.01    -0.034 A  ATOM     26  C   UNL     1      31.650  43.196  16.031 -0.34 -0.00    +0.006 A  ATOM     27  C   UNL     1      32.933  45.186  16.469 -0.32 -0.00    +0.006 A  ATOM     28  C   UNL     1      30.972  43.860  15.002 -0.34 -0.01    +0.011 A  ATOM     29  C   UNL     1      32.258  45.849  15.440 -0.21 -0.01    +0.011 A  ATOM     30  C   UNL     1      31.264  45.197  14.697 -0.46 -0.00    +0.003 A  BRANCH  30  31ATOM     31  C   UNL     1      30.575  45.919  13.630 -0.48 -0.08    +0.105 A  ATOM     32  C   UNL     1      29.230  46.251  13.644 -0.06 -0.09    +0.118 A  ATOM     33  N   UNL     1      31.261  46.355  12.498 -0.57 +0.07    -0.138 NA ATOM     34  S   UNL     1      28.893  47.098  12.190 -0.70 +0.01    -0.020 S  ATOM     35  N   UNL     1      30.471  46.992  11.652 -0.99 +0.03    -0.091 NA ENDBRANCH  30  31ENDBRANCH  24  25ENDBRANCH  22  24ENDBRANCH   1  22TORSDOF 8TERENDMDL