MODEL        8USER    Run = 8USERUSER    Estimated Free Energy of Binding    = -12.25 kcal/mol  [=(1)+(2)+(3)-(4)]USERUSER    (1) Final Intermolecular Energy     = -14.04 kcal/molUSER        vdW + Hbond + desolv Energy     = -13.89 kcal/molUSER        Electrostatic Energy            =  -0.15 kcal/molUSER        Moving Ligand-Fixed Receptor    = -14.04 kcal/molUSER        Moving Ligand-Moving Receptor   =  +0.00 kcal/molUSER    (2) Final Total Internal Energy     =  -2.00 kcal/molUSER    (3) Torsional Free Energy           =  +1.79 kcal/molUSER    (4) Unbound System's Energy         =  -2.00 kcal/molUSERUSERREMARK SMILES Cn1ccc2ccc3c4[nH]c5c(CCCN[C@H]6CC[C@H](O)CC6)cccc5c4c4c(c3c21)C(=O)NC4=OREMARK SMILES IDX 15 1 14 2 13 3 12 4 2 5 3 6 32 7 4 8 31 9 5 10 30 11 8 12REMARK SMILES IDX 6 13 29 14 33 15 7 16 9 17 28 18 36 19 35 20 10 21 27 22REMARK SMILES IDX 11 23 26 24 25 25 24 26 1 27 34 28 37 29 16 32 17 34 23 35REMARK SMILES IDX 18 36 22 37 19 38 20 39 21 40REMARK H PARENT 35 30 10 31 16 33 21 41USER                              x       y       z     vdW  Elec       q    TypeUSER                           _______ _______ _______ _____ _____    ______ ____ROOTATOM      1  C   UNL     1      35.754  42.594  21.051 -0.40 +0.00    +0.081 C  ENDROOTBRANCH   1   2ATOM      2  C   UNL     1      37.110  41.916  21.269 -0.46 +0.00    +0.020 C  BRANCH   2   3ATOM      3  C   UNL     1      37.782  42.328  22.583 -0.45 +0.00    +0.039 C  BRANCH   3   4ATOM      4  C   UNL     1      39.084  43.071  22.404 -0.25 -0.00    -0.024 A  ATOM      5  N   UNL     1      39.611  47.825  15.170 -0.23 +0.10    -0.350 N  ATOM      6  C   UNL     1      38.642  48.267  14.300 -0.44 -0.04    +0.086 A  ATOM      7  C   UNL     1      39.032  47.239  16.289 -0.41 -0.02    +0.057 A  ATOM      8  C   UNL     1      37.438  47.781  14.734 -0.48 -0.02    +0.028 A  ATOM      9  C   UNL     1      39.545  46.762  17.553 -0.43 -0.00    +0.022 A  ATOM     10  C   UNL     1      37.680  47.069  15.937 -0.41 -0.00    +0.000 A  ATOM     11  C   UNL     1      40.782  47.039  18.158 -0.45 -0.01    +0.063 A  ATOM     12  C   UNL     1      38.669  45.904  18.289 -0.37 -0.00    +0.009 A  ATOM     13  C   UNL     1      36.833  46.301  16.753 -0.36 -0.01    +0.011 A  ATOM     14  C   UNL     1      41.209  46.401  19.329 -0.39 +0.00    +0.063 A  ATOM     15  C   UNL     1      41.798  48.071  17.888 -0.29 -0.01    +0.259 C  ATOM     16  C   UNL     1      37.342  45.683  17.891 -0.32 -0.00    +0.012 A  ATOM     17  C   UNL     1      39.139  45.264  19.479 -0.36 -0.00    +0.055 A  ATOM     18  C   UNL     1      40.417  45.475  20.013 -0.39 +0.00    +0.022 A  ATOM     19  C   UNL     1      42.521  46.937  19.683 -0.36 +0.05    +0.259 C  ATOM     20  N   UNL     1      42.847  47.825  18.712 -0.39 -0.01    -0.288 N  ATOM     21  N   UNL     1      38.516  44.369  20.321 -0.14 +0.01    -0.354 N  ATOM     22  C   UNL     1      40.540  44.657  21.187 -0.31 +0.00    +0.008 A  ATOM     23  C   UNL     1      39.335  43.975  21.352 -0.23 +0.00    +0.050 A  ATOM     24  C   UNL     1      41.563  44.427  22.130 -0.25 +0.00    +0.011 A  ATOM     25  C   UNL     1      41.349  43.538  23.188 -0.24 +0.00    +0.001 A  ATOM     26  C   UNL     1      40.133  42.876  23.320 -0.25 +0.00    +0.006 A  ATOM     27  C   UNL     1      40.999  47.779  14.758 -0.29 -0.01    +0.149 C  ATOM     28  O   UNL     1      41.692  49.035  17.158 -0.91 -0.03    -0.269 OA ATOM     29  O   UNL     1      43.179  46.700  20.674 -0.31 -0.11    -0.269 OA ATOM     30  H   UNL     1      43.613  48.473  18.819 -0.43 -0.01    +0.173 HD ATOM     31  H   UNL     1      37.579  44.020  20.191 +0.11 -0.01    +0.167 HD ENDBRANCH   3   4ENDBRANCH   2   3ENDBRANCH   1   2BRANCH   1  32ATOM     32  N   UNL     1      35.793  43.358  19.802 -0.19 +0.03    -0.314 NA ATOM     33  H   UNL     1      35.440  44.301  19.957 +0.07 -0.01    +0.122 HD BRANCH  32  34ATOM     34  C   UNL     1      35.041  42.712  18.716 -0.42 -0.01    +0.053 C  ATOM     35  C   UNL     1      33.581  43.203  18.619 -0.41 -0.00    +0.021 C  ATOM     36  C   UNL     1      35.824  42.967  17.412 -0.36 -0.01    +0.021 C  ATOM     37  C   UNL     1      33.415  44.346  17.620 -0.35 -0.01    +0.033 C  ATOM     38  C   UNL     1      34.919  42.844  16.193 -0.45 -0.01    +0.033 C  ATOM     39  C   UNL     1      33.822  43.912  16.206 -0.31 -0.06    +0.114 C  BRANCH  39  40ATOM     40  O   UNL     1      32.689  43.380  15.521 -0.17 +0.21    -0.393 OA ATOM     41  H   UNL     1      32.783  42.412  15.506 -0.42 -0.16    +0.210 HD ENDBRANCH  39  40ENDBRANCH  32  34ENDBRANCH   1  32TORSDOF 6TERENDMDL