MODEL        8USER    Run = 8USERUSER    Estimated Free Energy of Binding    =  -7.13 kcal/mol  [=(1)+(2)+(3)-(4)]USERUSER    (1) Final Intermolecular Energy     = -11.61 kcal/molUSER        vdW + Hbond + desolv Energy     = -11.77 kcal/molUSER        Electrostatic Energy            =  -0.10 kcal/molUSER        Moving Ligand-Fixed Receptor    = -11.87 kcal/molUSER        Moving Ligand-Moving Receptor   =  +0.26 kcal/molUSER    (2) Final Total Internal Energy     =  -1.69 kcal/molUSER    (3) Torsional Free Energy           =  +4.47 kcal/molUSER    (4) Unbound System's Energy         =  -1.69 kcal/molUSERUSERREMARK SMILES COc1ccc(O)c(C(=O)c2ccc(/C=C/[C@@H]3CCCNC[C@H]3NC(=O)c3ccncc3)cc2)c1FREMARK SMILES IDX 16 1 15 2 14 3 11 4 12 5 34 6 13 7 33 8 9 9 10 10 8 11 3 12REMARK SMILES IDX 4 13 35 14 5 15 6 16 36 17 2 18 1 19 7 20 17 22 18 23 23 25REMARK SMILES IDX 22 26 21 27 20 29 19 30 24 32 25 33 26 35 27 36 28 37 32 38REMARK SMILES IDX 29 39 31 40 30 41REMARK H PARENT 7 21 21 28 24 34REMARK Flexibility Score:   99.900USER                              x       y       z     vdW  Elec       q    TypeUSER                           _______ _______ _______ _____ _____    ______ ____ROOTATOM      1  C   UNL     1      41.077  45.161  24.111 -0.14 -0.00    -0.021 C  ENDROOTBRANCH   1   2ATOM      2  C   UNL     1      41.702  45.538  22.985 -0.21 +0.00    +0.004 C  BRANCH   2   3ATOM      3  C   UNL     1      41.087  45.462  21.654 -0.27 -0.00    -0.026 A  ATOM      4  C   UNL     1      39.855  45.373  19.133 -0.42 -0.00    +0.023 A  ATOM      5  C   UNL     1      39.082  45.574  20.280 -0.30 +0.00    +0.013 A  ATOM      6  C   UNL     1      41.244  45.256  19.237 -0.41 +0.00    +0.013 A  ATOM      7  C   UNL     1      39.701  45.623  21.535 -0.29 +0.00    +0.009 A  ATOM      8  C   UNL     1      41.854  45.292  20.493 -0.31 +0.00    +0.009 A  BRANCH   4   9ATOM      9  C   UNL     1      39.241  45.347  17.788 -0.32 -0.03    +0.199 C  ATOM     10  O   UNL     1      38.730  44.300  17.389 -0.13 +0.04    -0.288 OA BRANCH   9  11ATOM     11  C   UNL     1      39.259  46.511  16.874 -0.37 -0.03    +0.104 A  ATOM     12  C   UNL     1      40.358  48.479  15.941 -0.45 -0.04    +0.155 A  ATOM     13  C   UNL     1      39.248  48.707  15.126 -0.46 -0.03    +0.053 A  ATOM     14  C   UNL     1      40.351  47.379  16.813 -0.38 -0.03    +0.179 A  ATOM     15  C   UNL     1      38.138  47.861  15.201 -0.46 -0.03    +0.051 A  ATOM     16  C   UNL     1      38.140  46.781  16.078 -0.32 -0.06    +0.130 A  ATOM     17  F   UNL     1      41.408  47.192  17.619 -0.17 +0.02    -0.202 F  BRANCH  12  18ATOM     18  O   UNL     1      41.491  49.246  15.971 -0.81 -0.00    -0.494 OA ATOM     19  C   UNL     1      41.630  50.244  14.967 -0.49 -0.06    +0.278 C  ENDBRANCH  12  18BRANCH  16  20ATOM     20  O   UNL     1      37.001  46.022  16.109 -0.05 +0.26    -0.507 OA ATOM     21  H   UNL     1      37.252  45.113  16.395 +0.21 -0.11    +0.293 HD ENDBRANCH  16  20ENDBRANCH   9  11ENDBRANCH   4   9ENDBRANCH   2   3ENDBRANCH   1   2BRANCH   1  22ATOM     22  C   UNL     1      39.876  45.856  24.749 -0.18 +0.00    +0.035 C  BRANCH  22  23ATOM     23  C   UNL     1      39.765  47.247  24.092 -0.34 +0.00    +0.011 CG0ATOM     24  G   UNL     1      38.457  48.015  24.239 +0.00 +0.00    +0.000 G0 ENDBRANCH  22  23BRANCH  22  25ATOM     25  C   UNL     1      39.830  45.880  26.307 -0.14 +0.00    +0.103 C  BRANCH  25  26ATOM     26  C   UNL     1      39.731  47.336  26.846 -0.19 +0.00    +0.106 C  BRANCH  26  27ATOM     27  N   UNL     1      38.458  48.034  26.711 -0.12 -0.00    -0.315 NA ATOM     28  H   UNL     1      38.295  48.604  27.542 +0.01 -0.01    +0.122 HD BRANCH  27  29ATOM     29  C   UNL     1      38.317  48.840  25.508 -0.34 +0.01    +0.081 C  BRANCH  29  30ATOM     30  C   UNL     1      38.456  48.012  24.239 -0.44 +0.00    +0.016 CG0ATOM     31  G   UNL     1      39.766  47.246  24.094 +0.00 +0.00    +0.000 G0 ENDBRANCH  29  30ENDBRANCH  27  29ENDBRANCH  26  27ENDBRANCH  25  26BRANCH  25  32ATOM     32  N   UNL     1      38.682  45.116  26.818 -0.08 +0.01    -0.347 N  ATOM     33  C   UNL     1      37.406  45.313  26.339 -0.23 -0.02    +0.251 C  ATOM     34  H   UNL     1      38.876  44.307  27.394 +0.06 -0.01    +0.164 HD ATOM     35  O   UNL     1      37.127  46.127  25.469 -0.82 -0.02    -0.269 OA BRANCH  33  36ATOM     36  C   UNL     1      36.350  44.445  26.918 -0.35 -0.01    +0.042 A  ATOM     37  C   UNL     1      36.012  43.219  26.344 -0.40 -0.00    +0.034 A  ATOM     38  C   UNL     1      35.713  44.863  28.084 -0.42 -0.01    +0.034 A  ATOM     39  C   UNL     1      35.022  42.474  26.956 -0.45 -0.02    +0.112 A  ATOM     40  C   UNL     1      34.734  44.046  28.616 -0.50 -0.03    +0.112 A  ATOM     41  N   UNL     1      34.368  42.865  28.071 -0.31 +0.07    -0.265 NA ENDBRANCH  33  36ENDBRANCH  25  32ENDBRANCH  22  25ENDBRANCH   1  22TORSDOF 9TERENDMDL