MODEL        6USER    Run = 6USERUSER    Estimated Free Energy of Binding    =  -7.50 kcal/mol  [=(1)+(2)+(3)-(4)]USERUSER    (1) Final Intermolecular Energy     = -11.97 kcal/molUSER        vdW + Hbond + desolv Energy     = -12.20 kcal/molUSER        Electrostatic Energy            =  -0.15 kcal/molUSER        Moving Ligand-Fixed Receptor    = -12.35 kcal/molUSER        Moving Ligand-Moving Receptor   =  +0.38 kcal/molUSER    (2) Final Total Internal Energy     =  -2.77 kcal/molUSER    (3) Torsional Free Energy           =  +4.47 kcal/molUSER    (4) Unbound System's Energy         =  -2.77 kcal/molUSERUSERREMARK SMILES COc1ccc(O)c(C(=O)c2ccc(CO[C@@H]3CCCNC[C@@H]3NC(=O)c3ccncc3)cc2)c1FREMARK SMILES IDX 16 1 15 2 14 3 11 4 12 5 34 6 13 7 33 8 9 9 10 10 8 11 3 12REMARK SMILES IDX 4 13 35 14 5 15 6 16 36 17 2 18 1 19 7 20 17 22 18 23 23 25REMARK SMILES IDX 22 26 21 27 20 29 19 30 24 32 25 33 26 35 27 36 28 37 32 38REMARK SMILES IDX 29 39 31 40 30 41REMARK H PARENT 7 21 21 28 24 34REMARK Flexibility Score:   99.900USER                              x       y       z     vdW  Elec       q    TypeUSER                           _______ _______ _______ _____ _____    ______ ____ROOTATOM      1  O   UNL     1      37.747  44.886  23.322 -0.21 -0.05    -0.371 OA ENDROOTBRANCH   1   2ATOM      2  C   UNL     1      37.172  44.345  22.134 -0.26 +0.02    +0.196 C  BRANCH   2   3ATOM      3  C   UNL     1      38.021  44.767  20.964 -0.32 -0.00    -0.022 A  ATOM      4  C   UNL     1      39.609  45.586  18.795 -0.42 -0.00    +0.023 A  ATOM      5  C   UNL     1      40.088  45.719  20.102 -0.34 +0.00    +0.012 A  ATOM      6  C   UNL     1      38.352  45.014  18.571 -0.38 -0.00    +0.012 A  ATOM      7  C   UNL     1      39.294  45.317  21.178 -0.34 +0.00    +0.007 A  ATOM      8  C   UNL     1      37.561  44.613  19.649 -0.33 -0.00    +0.007 A  BRANCH   4   9ATOM      9  C   UNL     1      40.429  45.966  17.620 -0.39 -0.02    +0.199 C  ATOM     10  O   UNL     1      41.606  45.600  17.567 -0.27 +0.00    -0.288 OA BRANCH   9  11ATOM     11  C   UNL     1      39.928  46.823  16.525 -0.41 -0.02    +0.104 A  ATOM     12  C   UNL     1      38.367  47.284  14.709 -0.35 -0.06    +0.155 A  ATOM     13  C   UNL     1      39.011  48.500  14.467 -0.46 -0.02    +0.053 A  ATOM     14  C   UNL     1      38.839  46.452  15.735 -0.29 -0.05    +0.179 A  ATOM     15  C   UNL     1      40.124  48.866  15.229 -0.54 -0.02    +0.051 A  ATOM     16  C   UNL     1      40.585  48.027  16.240 -0.45 -0.02    +0.130 A  ATOM     17  F   UNL     1      38.234  45.270  15.935 -0.07 +0.06    -0.202 F  BRANCH  12  18ATOM     18  O   UNL     1      37.283  46.812  14.020 -0.10 +0.22    -0.494 OA ATOM     19  C   UNL     1      36.536  47.750  13.255 -0.44 -0.14    +0.278 C  ENDBRANCH  12  18BRANCH  16  20ATOM     20  O   UNL     1      41.698  48.446  16.918 -0.61 -0.02    -0.507 OA ATOM     21  H   UNL     1      42.220  47.648  17.165 -0.35 -0.05    +0.293 HD ENDBRANCH  16  20ENDBRANCH   9  11ENDBRANCH   4   9ENDBRANCH   2   3ENDBRANCH   1   2BRANCH   1  22ATOM     22  C   UNL     1      37.847  43.930  24.399 -0.26 +0.01    +0.142 C  BRANCH  22  23ATOM     23  C   UNL     1      36.554  43.106  24.308 -0.34 +0.00    +0.035 CG0ATOM     24  G   UNL     1      36.226  42.110  25.414 +0.00 +0.00    +0.000 G0 ENDBRANCH  22  23BRANCH  22  25ATOM     25  C   UNL     1      38.079  44.682  25.732 -0.22 -0.00    +0.125 C  BRANCH  25  26ATOM     26  C   UNL     1      37.657  43.811  26.941 -0.29 -0.01    +0.108 C  BRANCH  26  27ATOM     27  N   UNL     1      36.230  43.768  27.254 -0.21 +0.07    -0.315 NA ATOM     28  H   UNL     1      35.816  44.664  26.992 -0.15 -0.04    +0.122 HD BRANCH  27  29ATOM     29  C   UNL     1      35.508  42.666  26.635 -0.49 -0.01    +0.081 C  BRANCH  29  30ATOM     30  C   UNL     1      36.225  42.106  25.415 -0.46 -0.00    +0.018 CG0ATOM     31  G   UNL     1      36.555  43.106  24.312 +0.00 +0.00    +0.000 G0 ENDBRANCH  29  30ENDBRANCH  27  29ENDBRANCH  26  27ENDBRANCH  25  26BRANCH  25  32ATOM     32  N   UNL     1      37.462  46.015  25.704 -0.15 -0.01    -0.345 N  ATOM     33  C   UNL     1      37.121  46.672  26.868 -0.24 -0.04    +0.251 C  ATOM     34  H   UNL     1      37.770  46.605  24.940 +0.07 +0.03    +0.164 HD ATOM     35  O   UNL     1      37.201  46.169  27.981 -0.24 +0.06    -0.269 OA BRANCH  33  36ATOM     36  C   UNL     1      36.672  48.082  26.720 -0.36 -0.00    +0.042 A  ATOM     37  C   UNL     1      36.804  48.691  25.472 -0.46 +0.00    +0.034 A  ATOM     38  C   UNL     1      36.162  48.814  27.793 -0.31 -0.00    +0.034 A  ATOM     39  C   UNL     1      36.401  50.008  25.345 -0.33 -0.00    +0.112 A  ATOM     40  C   UNL     1      35.790  50.127  27.562 -0.20 +0.01    +0.112 A  ATOM     41  N   UNL     1      35.893  50.736  26.363 -0.21 -0.02    -0.265 NA ENDBRANCH  33  36ENDBRANCH  25  32ENDBRANCH  22  25ENDBRANCH   1  22TORSDOF 9TERENDMDL