MODEL        1USER    Run = 1USERUSER    Estimated Free Energy of Binding    =  -7.70 kcal/mol  [=(1)+(2)+(3)-(4)]USERUSER    (1) Final Intermolecular Energy     = -12.17 kcal/molUSER        vdW + Hbond + desolv Energy     = -12.32 kcal/molUSER        Electrostatic Energy            =  -0.28 kcal/molUSER        Moving Ligand-Fixed Receptor    = -12.61 kcal/molUSER        Moving Ligand-Moving Receptor   =  +0.44 kcal/molUSER    (2) Final Total Internal Energy     =  -2.88 kcal/molUSER    (3) Torsional Free Energy           =  +4.47 kcal/molUSER    (4) Unbound System's Energy         =  -2.88 kcal/molUSERUSERREMARK SMILES COc1ccc(O)c(C(=O)c2ccc(NC[C@@H]3CCCNC[C@@H]3NC(=O)c3ccncc3)cc2)c1FREMARK SMILES IDX 16 1 15 2 14 4 11 5 12 6 34 7 13 8 33 9 9 10 10 11 8 12 3 13REMARK SMILES IDX 4 14 35 15 5 16 6 17 36 18 2 19 1 20 7 21 17 23 18 24 23 26REMARK SMILES IDX 22 27 21 28 20 30 19 31 24 33 25 34 26 36 27 37 28 38 32 39REMARK SMILES IDX 29 40 31 41 30 42REMARK H PARENT 15 3 7 22 21 29 24 35REMARK Flexibility Score:   99.900USER                              x       y       z     vdW  Elec       q    TypeUSER                           _______ _______ _______ _____ _____    ______ ____ROOTATOM      1  C   UNL     1      37.591  44.475  23.819 -0.30 +0.01    +0.118 C  ENDROOTBRANCH   1   2ATOM      2  N   UNL     1      38.964  44.889  23.519 -0.06 -0.02    -0.385 N  ATOM      3  H   UNL     1      39.383  45.453  24.253 +0.07 +0.01    +0.160 HD BRANCH   2   4ATOM      4  C   UNL     1      39.379  45.241  22.238 -0.29 +0.00    +0.034 A  ATOM      5  C   UNL     1      40.378  45.879  19.667 -0.38 +0.00    +0.023 A  ATOM      6  C   UNL     1      39.070  45.415  19.824 -0.37 -0.00    +0.014 A  ATOM      7  C   UNL     1      41.208  45.972  20.785 -0.32 +0.00    +0.014 A  ATOM      8  C   UNL     1      38.582  45.093  21.097 -0.31 +0.00    +0.026 A  ATOM      9  C   UNL     1      40.707  45.649  22.052 -0.25 +0.00    +0.026 A  BRANCH   5  10ATOM     10  C   UNL     1      40.863  46.176  18.299 -0.41 -0.01    +0.199 C  ATOM     11  O   UNL     1      42.024  45.890  17.999 -0.27 -0.00    -0.288 OA BRANCH  10  12ATOM     12  C   UNL     1      40.040  46.855  17.274 -0.41 -0.02    +0.104 A  ATOM     13  C   UNL     1      38.066  46.975  15.846 -0.30 -0.07    +0.155 A  ATOM     14  C   UNL     1      38.512  48.196  15.338 -0.47 -0.03    +0.053 A  ATOM     15  C   UNL     1      38.842  46.310  16.808 -0.29 -0.05    +0.179 A  ATOM     16  C   UNL     1      39.725  48.735  15.773 -0.51 -0.02    +0.051 A  ATOM     17  C   UNL     1      40.488  48.060  16.722 -0.42 -0.03    +0.130 A  ATOM     18  F   UNL     1      38.424  45.116  17.257 -0.08 +0.04    -0.202 F  BRANCH  13  19ATOM     19  O   UNL     1      36.906  46.342  15.485 -0.05 +0.29    -0.494 OA ATOM     20  C   UNL     1      35.769  46.538  16.316 -0.20 -0.27    +0.278 C  ENDBRANCH  13  19BRANCH  17  21ATOM     21  O   UNL     1      41.679  48.640  17.068 -0.66 -0.03    -0.507 OA ATOM     22  H   UNL     1      42.327  47.919  17.241 -0.27 -0.02    +0.293 HD ENDBRANCH  17  21ENDBRANCH  10  12ENDBRANCH   5  10ENDBRANCH   2   4ENDBRANCH   1   2BRANCH   1  23ATOM     23  C   UNL     1      37.518  43.578  25.081 -0.34 +0.00    +0.032 C  BRANCH  23  24ATOM     24  C   UNL     1      36.166  42.839  25.127 -0.31 +0.00    +0.009 CG0ATOM     25  G   UNL     1      35.956  41.758  26.189 +0.00 +0.00    +0.000 G0 ENDBRANCH  23  24BRANCH  23  26ATOM     26  C   UNL     1      37.871  44.397  26.344 -0.25 -0.01    +0.101 C  BRANCH  26  27ATOM     27  C   UNL     1      37.492  43.639  27.638 -0.34 -0.02    +0.106 C  BRANCH  27  28ATOM     28  N   UNL     1      36.051  43.541  27.904 -0.22 +0.10    -0.315 NA ATOM     29  H   UNL     1      35.915  43.688  28.907 -0.48 -0.06    +0.122 HD BRANCH  28  30ATOM     30  C   UNL     1      35.494  42.232  27.562 -0.57 -0.03    +0.081 C  BRANCH  30  31ATOM     31  C   UNL     1      35.957  41.759  26.190 -0.55 -0.00    +0.016 CG0ATOM     32  G   UNL     1      36.173  42.838  25.129 +0.00 +0.00    +0.000 G0 ENDBRANCH  30  31ENDBRANCH  28  30ENDBRANCH  27  28ENDBRANCH  26  27BRANCH  26  33ATOM     33  N   UNL     1      37.257  45.723  26.358 -0.15 +0.03    -0.348 N  ATOM     34  C   UNL     1      37.943  46.874  26.053 -0.23 +0.00    +0.251 C  ATOM     35  H   UNL     1      36.314  45.751  26.725 -0.33 -0.05    +0.164 HD ATOM     36  O   UNL     1      39.130  46.884  25.750 -0.12 -0.01    -0.269 OA BRANCH  34  37ATOM     37  C   UNL     1      37.181  48.149  26.129 -0.38 -0.00    +0.042 A  ATOM     38  C   UNL     1      36.434  48.400  27.282 -0.34 -0.00    +0.034 A  ATOM     39  C   UNL     1      37.211  49.102  25.110 -0.43 +0.00    +0.034 A  ATOM     40  C   UNL     1      35.729  49.586  27.357 -0.22 -0.00    +0.112 A  ATOM     41  C   UNL     1      36.471  50.259  25.284 -0.30 -0.00    +0.112 A  ATOM     42  N   UNL     1      35.728  50.518  26.380 -0.18 -0.01    -0.265 NA ENDBRANCH  34  37ENDBRANCH  26  33ENDBRANCH  23  26ENDBRANCH   1  23TORSDOF 9TERENDMDL