MODEL        2USER    Run = 2USERUSER    Estimated Free Energy of Binding    =  -6.69 kcal/mol  [=(1)+(2)+(3)-(4)]USERUSER    (1) Final Intermolecular Energy     = -10.87 kcal/molUSER        vdW + Hbond + desolv Energy     = -11.20 kcal/molUSER        Electrostatic Energy            =  -0.17 kcal/molUSER        Moving Ligand-Fixed Receptor    = -11.37 kcal/molUSER        Moving Ligand-Moving Receptor   =  +0.50 kcal/molUSER    (2) Final Total Internal Energy     =  -2.56 kcal/molUSER    (3) Torsional Free Energy           =  +4.18 kcal/molUSER    (4) Unbound System's Energy         =  -2.56 kcal/molUSERUSERREMARK SMILES COc1ccc(O)c(C(=O)c2ccc(C(=O)N[C@@H]3CCCNC[C@H]3NC(=O)c3ccncc3)cc2)c1FREMARK SMILES IDX 15 1 16 2 17 3 14 5 11 6 12 7 35 8 13 9 34 10 9 11 10 12REMARK SMILES IDX 8 13 3 14 4 15 36 16 5 17 6 18 37 19 2 20 1 21 7 22 18 24REMARK SMILES IDX 19 25 24 27 23 28 22 29 21 31 20 32 25 34 26 35 27 37 28 38REMARK SMILES IDX 29 39 33 40 30 41 32 42 31 43REMARK H PARENT 17 4 7 23 22 30 25 36REMARK Flexibility Score:   88.900USER                              x       y       z     vdW  Elec       q    TypeUSER                           _______ _______ _______ _____ _____    ______ ____ROOTATOM      1  C   UNL     1      39.976  46.148  23.136 -0.18 +0.02    +0.251 C  ATOM      2  O   UNL     1      39.361  45.246  23.694 -0.12 -0.02    -0.269 OA ATOM      3  N   UNL     1      40.343  47.318  23.768 -0.11 -0.04    -0.347 N  ATOM      4  H   UNL     1      40.658  48.088  23.194 +0.08 +0.02    +0.164 HD ENDROOTBRANCH   1   5ATOM      5  C   UNL     1      40.300  46.051  21.685 -0.14 +0.00    +0.039 A  ATOM      6  C   UNL     1      40.780  45.910  18.926 -0.45 +0.00    +0.023 A  ATOM      7  C   UNL     1      39.535  45.534  19.441 -0.40 -0.00    +0.013 A  ATOM      8  C   UNL     1      41.786  46.355  19.791 -0.43 +0.00    +0.013 A  ATOM      9  C   UNL     1      39.300  45.593  20.817 -0.30 +0.00    +0.014 A  ATOM     10  C   UNL     1      41.551  46.415  21.171 -0.24 +0.00    +0.014 A  BRANCH   6  11ATOM     11  C   UNL     1      40.953  45.906  17.457 -0.36 -0.01    +0.199 C  ATOM     12  O   UNL     1      41.756  45.109  16.971 -0.11 -0.03    -0.288 OA BRANCH  11  13ATOM     13  C   UNL     1      40.186  46.769  16.528 -0.41 -0.02    +0.104 A  ATOM     14  C   UNL     1      38.283  47.183  15.057 -0.33 -0.07    +0.155 A  ATOM     15  C   UNL     1      38.772  48.462  14.782 -0.48 -0.03    +0.053 A  ATOM     16  C   UNL     1      38.996  46.347  15.934 -0.29 -0.05    +0.179 A  ATOM     17  C   UNL     1      39.948  48.906  15.393 -0.53 -0.02    +0.051 A  ATOM     18  C   UNL     1      40.637  48.071  16.268 -0.45 -0.02    +0.130 A  ATOM     19  F   UNL     1      38.492  45.135  16.216 -0.06 +0.05    -0.202 F  BRANCH  14  20ATOM     20  O   UNL     1      37.137  46.644  14.534 -0.07 +0.25    -0.494 OA ATOM     21  C   UNL     1      36.550  47.319  13.425 -0.42 -0.15    +0.278 C  ENDBRANCH  14  20BRANCH  18  22ATOM     22  O   UNL     1      41.762  48.602  16.843 -0.65 -0.05    -0.507 OA ATOM     23  H   UNL     1      42.406  47.865  16.966 -0.32 -0.04    +0.293 HD ENDBRANCH  18  22ENDBRANCH  11  13ENDBRANCH   6  11ENDBRANCH   1   5BRANCH   3  24ATOM     24  C   UNL     1      39.836  47.642  25.107 -0.25 +0.01    +0.106 C  BRANCH  24  25ATOM     25  C   UNL     1      38.510  48.404  24.989 -0.42 +0.00    +0.028 CG0ATOM     26  G   UNL     1      37.753  48.635  26.308 +0.00 +0.00    +0.000 G0 ENDBRANCH  24  25BRANCH  24  27ATOM     27  C   UNL     1      40.922  48.389  25.932 -0.24 +0.01    +0.118 C  BRANCH  27  28ATOM     28  C   UNL     1      40.845  48.170  27.462 -0.20 +0.01    +0.108 C  BRANCH  28  29ATOM     29  N   UNL     1      39.518  48.239  28.081 -0.12 +0.02    -0.315 NA ATOM     30  H   UNL     1      39.104  47.311  28.118 -0.31 -0.02    +0.122 HD BRANCH  29  31ATOM     31  C   UNL     1      38.574  49.175  27.480 -0.24 +0.00    +0.081 C  BRANCH  31  32ATOM     32  C   UNL     1      37.758  48.639  26.307 -0.37 +0.00    +0.017 CG0ATOM     33  G   UNL     1      38.510  48.406  24.986 +0.00 +0.00    +0.000 G0 ENDBRANCH  31  32ENDBRANCH  29  31ENDBRANCH  28  29ENDBRANCH  27  28BRANCH  27  34ATOM     34  N   UNL     1      42.259  48.062  25.420 -0.08 -0.04    -0.346 N  ATOM     35  C   UNL     1      42.791  48.711  24.330 -0.28 +0.06    +0.251 C  ATOM     36  H   UNL     1      42.878  47.562  26.038 +0.05 +0.01    +0.164 HD ATOM     37  O   UNL     1      42.175  49.529  23.658 -0.89 -0.11    -0.269 OA BRANCH  35  38ATOM     38  C   UNL     1      44.203  48.397  24.001 -0.26 +0.01    +0.042 A  ATOM     39  C   UNL     1      45.194  48.778  24.906 -0.19 +0.01    +0.034 A  ATOM     40  C   UNL     1      44.562  47.763  22.810 -0.27 +0.01    +0.034 A  ATOM     41  C   UNL     1      46.507  48.486  24.592 -0.08 +0.02    +0.112 A  ATOM     42  C   UNL     1      45.905  47.517  22.589 -0.18 +0.07    +0.112 A  ATOM     43  N   UNL     1      46.884  47.860  23.456 -0.07 -0.09    -0.265 NA ENDBRANCH  35  38ENDBRANCH  27  34ENDBRANCH  24  27ENDBRANCH   3  24TORSDOF 8TERENDMDL