MODEL        9USER    Run = 9USERUSER    Estimated Free Energy of Binding    = -14.02 kcal/mol  [=(1)+(2)+(3)-(4)]USERUSER    (1) Final Intermolecular Energy     = -16.41 kcal/molUSER        vdW + Hbond + desolv Energy     = -16.40 kcal/molUSER        Electrostatic Energy            =  -0.01 kcal/molUSER        Moving Ligand-Fixed Receptor    = -16.41 kcal/molUSER        Moving Ligand-Moving Receptor   =  +0.00 kcal/molUSER    (2) Final Total Internal Energy     =  -2.14 kcal/molUSER    (3) Torsional Free Energy           =  +2.39 kcal/molUSER    (4) Unbound System's Energy         =  -2.14 kcal/molUSERUSERREMARK SMILES CNS(=O)(=O)c1ccc(-c2nc3ccccc3nc2-c2ccc(CN3CC[C@@H](n4c(O)nc5ccccc54)[C@H](C)C3)cc2)cc1REMARK SMILES IDX 20 1 21 2 22 3 23 4 42 5 43 6 19 7 10 8 11 9 12 10 18 11REMARK SMILES IDX 13 12 17 13 14 14 16 15 15 16 9 17 6 18 7 19 45 20 8 21REMARK SMILES IDX 44 22 3 23 4 24 5 25 2 26 1 27 24 29 25 30 26 31 41 32 27 33REMARK SMILES IDX 39 34 28 35 40 36 29 37 30 38 38 39 32 40 37 41 33 42 36 43REMARK SMILES IDX 34 44 35 45 31 46REMARK H PARENT 2 28 31 47USER                              x       y       z     vdW  Elec       q    TypeUSER                           _______ _______ _______ _____ _____    ______ ____ROOTATOM      1  C   UNL     1      39.780  44.012  22.609 -0.25 +0.00    +0.002 A  ATOM      2  C   UNL     1      40.654  43.324  21.752 -0.16 +0.00    +0.011 A  ATOM      3  C   UNL     1      41.308  43.984  20.708 -0.32 +0.00    +0.006 A  ATOM      4  C   UNL     1      41.092  45.349  20.477 -0.35 -0.00    -0.034 A  ATOM      5  C   UNL     1      40.215  46.041  21.325 -0.09 +0.00    +0.006 A  ATOM      6  C   UNL     1      39.567  45.380  22.372 -0.29 +0.00    +0.011 A  ENDROOTBRANCH   1   7ATOM      7  C   UNL     1      39.112  43.312  23.714 -0.20 +0.01    +0.097 A  ATOM      8  C   UNL     1      37.844  42.719  23.622 -0.29 +0.01    +0.097 A  ATOM      9  N   UNL     1      37.299  42.037  24.666 -0.24 +0.00    -0.244 NA ATOM     10  C   UNL     1      38.018  41.984  25.804 -0.24 -0.00    +0.089 A  ATOM     11  N   UNL     1      39.832  43.263  24.866 -0.10 -0.00    -0.244 NA ATOM     12  C   UNL     1      37.506  41.312  26.907 -0.42 -0.01    +0.030 A  ATOM     13  C   UNL     1      39.289  42.602  25.903 -0.18 -0.00    +0.089 A  ATOM     14  C   UNL     1      38.219  41.241  28.107 -0.40 -0.00    +0.002 A  ATOM     15  C   UNL     1      39.990  42.521  27.101 -0.21 -0.00    +0.030 A  ATOM     16  C   UNL     1      39.464  41.848  28.204 -0.31 -0.00    +0.002 A  BRANCH   8  17ATOM     17  C   UNL     1      36.986  42.812  22.432 -0.43 +0.00    +0.002 A  ATOM     18  C   UNL     1      35.467  42.950  20.077 -0.39 -0.00    +0.082 A  ATOM     19  C   UNL     1      36.113  44.092  20.551 -0.37 -0.00    +0.022 A  ATOM     20  C   UNL     1      35.523  41.752  20.792 -0.31 +0.00    +0.022 A  ATOM     21  C   UNL     1      36.874  44.018  21.718 -0.37 +0.00    +0.012 A  ATOM     22  C   UNL     1      36.276  41.689  21.968 -0.54 +0.00    +0.012 A  BRANCH  18  23ATOM     23  S   UNL     1      34.508  43.047  18.587 -0.37 -0.05    +0.240 S  ATOM     24  O   UNL     1      34.460  44.424  18.151 -0.22 +0.07    -0.207 OA ATOM     25  O   UNL     1      33.307  42.265  18.775 -0.31 +0.02    -0.207 OA BRANCH  23  26ATOM     26  N   UNL     1      35.454  42.175  17.500 -0.30 +0.08    -0.214 NA ATOM     27  C   UNL     1      35.961  42.866  16.316 -0.41 -0.04    +0.120 C  ATOM     28  H   UNL     1      35.100  41.227  17.381 -0.45 -0.09    +0.141 HD ENDBRANCH  23  26ENDBRANCH  18  23ENDBRANCH   8  17ENDBRANCH   1   7BRANCH   4  29ATOM     29  C   UNL     1      41.780  46.070  19.338 -0.42 +0.01    +0.120 C  BRANCH  29  30ATOM     30  N   UNL     1      40.964  46.371  18.158 -0.28 +0.01    -0.299 NA ATOM     31  C   UNL     1      39.527  46.270  18.364 -0.42 -0.01    +0.087 C  ATOM     32  C   UNL     1      41.366  47.579  17.435 -0.44 -0.01    +0.090 C  ATOM     33  C   UNL     1      38.846  46.070  17.011 -0.44 -0.01    +0.041 C  ATOM     34  C   UNL     1      40.268  48.131  16.494 -0.59 -0.01    +0.023 C  ATOM     35  C   UNL     1      39.442  46.966  15.905 -0.46 -0.03    +0.098 C  ATOM     36  C   UNL     1      40.908  49.019  15.422 -0.70 -0.00    +0.011 C  BRANCH  35  37ATOM     37  N   UNL     1      38.409  47.373  14.960 -0.22 +0.12    -0.291 N  ATOM     38  C   UNL     1      37.828  48.608  14.872 -0.27 -0.20    +0.295 A  ATOM     39  C   UNL     1      37.810  46.581  14.002 -0.40 -0.03    +0.072 A  ATOM     40  N   UNL     1      36.920  48.689  13.938 -0.48 +0.12    -0.195 NA ATOM     41  C   UNL     1      37.969  45.241  13.622 -0.24 -0.01    +0.029 A  ATOM     42  C   UNL     1      36.887  47.429  13.388 -0.51 -0.04    +0.092 A  ATOM     43  C   UNL     1      37.150  44.767  12.589 -0.44 -0.00    +0.002 A  ATOM     44  C   UNL     1      36.080  46.934  12.352 -0.65 -0.02    +0.031 A  ATOM     45  C   UNL     1      36.220  45.597  11.963 -0.53 -0.00    +0.002 A  BRANCH  38  46ATOM     46  O   UNL     1      38.123  49.635  15.642 -0.06 +0.42    -0.480 OA ATOM     47  H   UNL     1      37.682  50.363  15.163 -0.32 -0.32    +0.296 HD ENDBRANCH  38  46ENDBRANCH  35  37ENDBRANCH  29  30ENDBRANCH   4  29TORSDOF 8TERENDMDL