REMARK SMILES CNS(=O)(=O)c1ccc(-c2nc3ccccc3nc2-c2ccc(CN3CC[C@@H](n4c(O)nc5ccccc54)[C@H](C)C3)cc2)cc1
REMARK SMILES IDX 20 1 21 2 22 3 23 4 42 5 43 6 19 7 10 8 11 9 12 10 18 11
REMARK SMILES IDX 13 12 17 13 14 14 16 15 15 16 9 17 6 18 7 19 45 20 8 21
REMARK SMILES IDX 44 22 3 23 4 24 5 25 2 26 1 27 24 29 25 30 26 31 41 32 27 33
REMARK SMILES IDX 39 34 28 35 40 36 29 37 30 38 38 39 32 40 37 41 33 42 36 43
REMARK SMILES IDX 34 44 35 45 31 46
REMARK H PARENT 2 28 31 47
ROOT
ATOM      1  C   UNL     1      -2.273   0.944  -0.867  1.00  0.00     0.002 A 
ATOM      2  C   UNL     1      -1.549   0.263  -1.858  1.00  0.00     0.011 A 
ATOM      3  C   UNL     1      -0.619  -0.725  -1.521  1.00  0.00     0.006 A 
ATOM      4  C   UNL     1      -0.372  -1.048  -0.180  1.00  0.00    -0.034 A 
ATOM      5  C   UNL     1      -1.088  -0.367   0.815  1.00  0.00     0.006 A 
ATOM      6  C   UNL     1      -2.021   0.616   0.475  1.00  0.00     0.011 A 
ENDROOT
BRANCH   1   7
ATOM      7  C   UNL     1      -3.261   1.968  -1.234  1.00  0.00     0.097 A 
ATOM      8  C   UNL     1      -4.622   1.908  -0.898  1.00  0.00     0.097 A 
ATOM      9  N   UNL     1      -5.479   2.914  -1.220  1.00  0.00    -0.244 NA
ATOM     10  C   UNL     1      -4.970   3.956  -1.905  1.00  0.00     0.089 A 
ATOM     11  N   UNL     1      -2.752   3.017  -1.932  1.00  0.00    -0.244 NA
ATOM     12  C   UNL     1      -5.802   5.007  -2.273  1.00  0.00     0.030 A 
ATOM     13  C   UNL     1      -3.601   4.005  -2.264  1.00  0.00     0.089 A 
ATOM     14  C   UNL     1      -5.313   6.102  -2.990  1.00  0.00     0.002 A 
ATOM     15  C   UNL     1      -3.125   5.101  -2.974  1.00  0.00     0.030 A 
ATOM     16  C   UNL     1      -3.970   6.149  -3.342  1.00  0.00     0.002 A 
BRANCH   8  17
ATOM     17  C   UNL     1      -5.244   0.762  -0.219  1.00  0.00     0.002 A 
ATOM     18  C   UNL     1      -6.297  -1.459   1.134  1.00  0.00     0.082 A 
ATOM     19  C   UNL     1      -5.829  -1.603  -0.173  1.00  0.00     0.022 A 
ATOM     20  C   UNL     1      -6.297  -0.209   1.756  1.00  0.00     0.022 A 
ATOM     21  C   UNL     1      -5.299  -0.498  -0.840  1.00  0.00     0.012 A 
ATOM     22  C   UNL     1      -5.777   0.896   1.076  1.00  0.00     0.012 A 
BRANCH  18  23
ATOM     23  S   UNL     1      -6.961  -2.869   1.981  1.00  0.00     0.240 S 
ATOM     24  O   UNL     1      -7.456  -3.812   1.004  1.00  0.00    -0.207 OA
ATOM     25  O   UNL     1      -7.789  -2.392   3.066  1.00  0.00    -0.207 OA
BRANCH  23  26
ATOM     26  N   UNL     1      -5.590  -3.524   2.708  1.00  0.00    -0.214 NA
ATOM     27  C   UNL     1      -4.789  -4.476   1.942  1.00  0.00     0.120 C 
ATOM     28  H   UNL     1      -5.757  -3.728   3.693  1.00  0.00     0.141 HD
ENDBRANCH  23  26
ENDBRANCH  18  23
ENDBRANCH   8  17
ENDBRANCH   1   7
BRANCH   4  29
ATOM     29  C   UNL     1       0.645  -2.103   0.197  1.00  0.00     0.120 C 
BRANCH  29  30
ATOM     30  N   UNL     1       2.051  -1.688   0.213  1.00  0.00    -0.299 NA
ATOM     31  C   UNL     1       2.617  -1.387  -1.093  1.00  0.00     0.087 C 
ATOM     32  C   UNL     1       2.377  -0.690   1.234  1.00  0.00     0.090 C 
ATOM     33  C   UNL     1       4.139  -1.503  -1.012  1.00  0.00     0.041 C 
ATOM     34  C   UNL     1       3.705   0.059   0.965  1.00  0.00     0.023 C 
ATOM     35  C   UNL     1       4.716  -0.887   0.279  1.00  0.00     0.098 C 
ATOM     36  C   UNL     1       4.231   0.659   2.273  1.00  0.00     0.011 C 
BRANCH  35  37
ATOM     37  N   UNL     1       6.024  -0.294   0.027  1.00  0.00    -0.291 N 
ATOM     38  C   UNL     1       6.280   0.830  -0.709  1.00  0.00     0.295 A 
ATOM     39  C   UNL     1       7.243  -0.774   0.461  1.00  0.00     0.072 A 
ATOM     40  N   UNL     1       7.549   1.126  -0.779  1.00  0.00    -0.195 NA
ATOM     41  C   UNL     1       7.625  -1.881   1.230  1.00  0.00     0.029 A 
ATOM     42  C   UNL     1       8.169   0.131  -0.061  1.00  0.00     0.092 A 
ATOM     43  C   UNL     1       8.995  -2.061   1.458  1.00  0.00     0.002 A 
ATOM     44  C   UNL     1       9.537  -0.066   0.184  1.00  0.00     0.031 A 
ATOM     45  C   UNL     1       9.938  -1.170   0.945  1.00  0.00     0.002 A 
BRANCH  38  46
ATOM     46  O   UNL     1       5.364   1.560  -1.310  1.00  0.00    -0.480 OA
ATOM     47  H   UNL     1       5.914   2.260  -1.712  1.00  0.00     0.296 HD
ENDBRANCH  38  46
ENDBRANCH  35  37
ENDBRANCH  29  30
ENDBRANCH   4  29
TORSDOF 8
