REMARK SMILES Nc1c(NC(=O)c2cccc(C(F)(F)F)c2)cccc1C(=O)O
REMARK SMILES IDX 2 1 3 2 17 3 18 4 19 5 20 6 1 7 4 10 5 11 6 13 7 14 8 15
REMARK SMILES IDX 16 16 9 17 11 18 10 19 12 20 13 21 14 22 15 23 21 24 22 25
REMARK SMILES IDX 23 26
REMARK H PARENT 1 8 1 9 4 12 23 27
ROOT
ATOM      1  C   UNL     1      -2.543   0.106  -0.735  1.00  0.00     0.070 A 
ATOM      2  C   UNL     1      -1.697   0.387   0.365  1.00  0.00     0.065 A 
ATOM      3  C   UNL     1      -2.239   0.807   1.580  1.00  0.00     0.028 A 
ATOM      4  C   UNL     1      -3.618   0.967   1.713  1.00  0.00     0.003 A 
ATOM      5  C   UNL     1      -4.462   0.719   0.631  1.00  0.00     0.018 A 
ATOM      6  C   UNL     1      -3.935   0.306  -0.603  1.00  0.00     0.084 A 
ENDROOT
BRANCH   1   7
ATOM      7  N   UNL     1      -1.915  -0.154  -2.000  1.00  0.00    -0.396 N 
ATOM      8  H   UNL     1      -2.598  -0.595  -2.632  1.00  0.00     0.156 HD
ATOM      9  H   UNL     1      -1.671   0.740  -2.429  1.00  0.00     0.156 HD
ENDBRANCH   1   7
BRANCH   2  10
ATOM     10  N   UNL     1      -0.316   0.193   0.139  1.00  0.00    -0.320 N 
ATOM     11  C   UNL     1       0.724   0.347   1.029  1.00  0.00     0.255 C 
ATOM     12  H   UNL     1      -0.133  -0.196  -0.782  1.00  0.00     0.170 HD
ATOM     13  O   UNL     1       0.636   0.683   2.204  1.00  0.00    -0.269 OA
BRANCH  11  14
ATOM     14  C   UNL     1       2.079   0.041   0.483  1.00  0.00     0.040 A 
ATOM     15  C   UNL     1       2.411   0.267  -0.859  1.00  0.00     0.014 A 
ATOM     16  C   UNL     1       3.053  -0.457   1.361  1.00  0.00     0.027 A 
ATOM     17  C   UNL     1       3.696  -0.025  -1.320  1.00  0.00     0.001 A 
ATOM     18  C   UNL     1       4.345  -0.762   0.904  1.00  0.00     0.056 A 
ATOM     19  C   UNL     1       4.656  -0.536  -0.445  1.00  0.00     0.013 A 
BRANCH  18  20
ATOM     20  C   UNL     1       5.390  -1.282   1.860  1.00  0.00     0.416 C 
ATOM     21  F   UNL     1       6.048  -0.280   2.505  1.00  0.00    -0.166 F 
ATOM     22  F   UNL     1       6.353  -2.025   1.244  1.00  0.00    -0.166 F 
ATOM     23  F   UNL     1       4.873  -2.082   2.833  1.00  0.00    -0.166 F 
ENDBRANCH  18  20
ENDBRANCH  11  14
ENDBRANCH   2  10
BRANCH   6  24
ATOM     24  C   UNL     1      -4.838   0.063  -1.758  1.00  0.00     0.337 C 
ATOM     25  O   UNL     1      -4.494  -0.332  -2.859  1.00  0.00    -0.246 OA
BRANCH  24  26
ATOM     26  O   UNL     1      -6.130   0.326  -1.490  1.00  0.00    -0.478 OA
ATOM     27  H   UNL     1      -6.600   0.117  -2.325  1.00  0.00     0.297 HD
ENDBRANCH  24  26
ENDBRANCH   6  24
TORSDOF 6
