MODEL        2USER    Run = 2USERUSER    Estimated Free Energy of Binding    =  -9.51 kcal/mol  [=(1)+(2)+(3)-(4)]USERUSER    (1) Final Intermolecular Energy     = -10.40 kcal/molUSER        vdW + Hbond + desolv Energy     = -10.37 kcal/molUSER        Electrostatic Energy            =  -0.04 kcal/molUSER        Moving Ligand-Fixed Receptor    = -10.40 kcal/molUSER        Moving Ligand-Moving Receptor   =  +0.00 kcal/molUSER    (2) Final Total Internal Energy     =  -0.57 kcal/molUSER    (3) Torsional Free Energy           =  +0.89 kcal/molUSER    (4) Unbound System's Energy         =  -0.57 kcal/molUSERUSERREMARK SMILES CN1CCn2c1cnc2Nc1ccc2ccc(-c3cnn[nH]3)cc2c1REMARK SMILES IDX 11 1 12 2 13 3 14 4 15 5 16 6 17 7 23 8 24 9 25 10 10 11REMARK SMILES IDX 9 13 2 14 3 15 6 16 4 17 5 18 7 19 8 20 1 21 18 22 19 23REMARK SMILES IDX 22 24 20 25 21 26REMARK H PARENT 10 12 22 27USER                              x       y       z     vdW  Elec       q    TypeUSER                           _______ _______ _______ _____ _____    ______ ____ROOTATOM      1  C   UNL     1      41.228  45.548  19.024 -0.42 +0.00    +0.041 A  ATOM      2  C   UNL     1      42.088  46.637  19.188 -0.49 +0.00    +0.027 A  ATOM      3  C   UNL     1      42.019  47.736  18.328 -0.51 -0.00    +0.011 A  ATOM      4  C   UNL     1      41.096  47.763  17.271 -0.51 +0.00    -0.018 A  ATOM      5  C   UNL     1      41.012  48.856  16.399 -0.56 -0.00    +0.009 A  ATOM      6  C   UNL     1      40.091  48.863  15.347 -0.58 -0.00    +0.011 A  ATOM      7  C   UNL     1      39.232  47.778  15.142 -0.52 -0.00    +0.002 A  ATOM      8  C   UNL     1      39.321  46.681  16.011 -0.44 -0.00    +0.019 A  ATOM      9  C   UNL     1      40.241  46.659  17.076 -0.48 +0.00    -0.016 A  ATOM     10  C   UNL     1      40.327  45.560  17.950 -0.43 -0.00    +0.034 A  ENDROOTBRANCH   1  11ATOM     11  N   UNL     1      41.290  44.387  19.835 -0.17 -0.04    -0.326 N  ATOM     12  H   UNL     1      42.268  44.120  19.943 +0.11 +0.05    +0.170 HD BRANCH  11  13ATOM     13  C   UNL     1      40.613  44.236  20.997 -0.18 +0.01    +0.209 A  ATOM     14  N   UNL     1      37.532  43.970  22.465 -0.16 -0.03    -0.358 N  ATOM     15  C   UNL     1      36.988  43.921  21.086 -0.37 +0.00    +0.139 C  ATOM     16  C   UNL     1      38.880  44.005  22.360 -0.22 +0.01    +0.130 A  ATOM     17  C   UNL     1      38.147  44.380  20.174 -0.32 -0.00    +0.149 C  ATOM     18  N   UNL     1      39.264  44.271  21.082 -0.14 -0.01    -0.295 N  ATOM     19  C   UNL     1      40.046  43.828  23.050 -0.15 +0.01    +0.160 A  ATOM     20  N   UNL     1      41.124  43.956  22.183 -0.16 -0.01    -0.219 NA ATOM     21  C   UNL     1      36.909  43.145  23.484 -0.33 +0.02    +0.145 C  ENDBRANCH  11  13ENDBRANCH   1  11BRANCH   7  22ATOM     22  C   UNL     1      38.267  47.773  14.048 -0.45 -0.03    +0.085 A  ATOM     23  C   UNL     1      37.909  46.816  13.118 -0.30 -0.04    +0.165 A  ATOM     24  N   UNL     1      37.434  48.815  13.731 -0.33 +0.13    -0.258 N  ATOM     25  N   UNL     1      36.925  47.295  12.301 -0.94 +0.05    -0.138 NA ATOM     26  N   UNL     1      36.641  48.529  12.688 -0.96 +0.02    -0.070 NA ATOM     27  H   UNL     1      37.340  49.719  14.177 -0.36 -0.16    +0.192 HD ENDBRANCH   7  22TORSDOF 3TERENDMDL