REMARK SMILES O=C(C(=CN1CCOCC1)c1cc(F)cc(F)c1)c1cccnc1
REMARK SMILES IDX 3 1 2 2 1 3 19 4 20 5 24 6 21 7 23 8 22 9 4 10 5 11 6 12
REMARK SMILES IDX 10 13 7 14 9 15 8 16 11 17 12 18 18 19 13 20 16 21 15 22
REMARK SMILES IDX 14 23 17 24
REMARK H PARENT
ROOT
ATOM      1  C   UNL     1      -0.545   0.236  -0.979  1.00  0.00     0.046 C 
ENDROOT
BRANCH   1   2
ATOM      2  C   UNL     1      -1.391  -0.470   0.027  1.00  0.00     0.196 C 
ATOM      3  O   UNL     1      -2.223  -1.300  -0.339  1.00  0.00    -0.288 OA
BRANCH   2   4
ATOM      4  C   UNL     1      -1.254  -0.125   1.468  1.00  0.00     0.041 A 
ATOM      5  C   UNL     1      -2.194  -0.621   2.378  1.00  0.00     0.015 A 
ATOM      6  C   UNL     1      -0.238   0.678   1.977  1.00  0.00     0.123 A 
ATOM      7  C   UNL     1      -2.087  -0.306   3.734  1.00  0.00     0.021 A 
ATOM      8  N   UNL     1      -0.108   1.000   3.292  1.00  0.00    -0.264 NA
ATOM      9  C   UNL     1      -1.033   0.497   4.139  1.00  0.00     0.111 A 
ENDBRANCH   2   4
ENDBRANCH   1   2
BRANCH   1  10
ATOM     10  C   UNL     1       0.768  -0.034  -1.115  1.00  0.00     0.093 C 
BRANCH  10  11
ATOM     11  N   UNL     1       1.630  -0.915  -0.459  1.00  0.00    -0.372 N 
ATOM     12  C   UNL     1       1.233  -2.318  -0.145  1.00  0.00     0.144 C 
ATOM     13  C   UNL     1       3.093  -0.846  -0.751  1.00  0.00     0.144 C 
ATOM     14  C   UNL     1       2.113  -2.878   0.983  1.00  0.00     0.181 C 
ATOM     15  C   UNL     1       3.910  -1.487   0.380  1.00  0.00     0.181 C 
ATOM     16  O   UNL     1       3.504  -2.842   0.621  1.00  0.00    -0.378 OA
ENDBRANCH  10  11
ENDBRANCH   1  10
BRANCH   1  17
ATOM     17  C   UNL     1      -1.181   1.248  -1.846  1.00  0.00    -0.007 A 
ATOM     18  C   UNL     1      -0.750   2.583  -1.819  1.00  0.00     0.048 A 
ATOM     19  C   UNL     1      -2.245   0.898  -2.688  1.00  0.00     0.048 A 
ATOM     20  C   UNL     1      -1.379   3.535  -2.620  1.00  0.00     0.126 A 
ATOM     21  C   UNL     1      -2.853   1.867  -3.484  1.00  0.00     0.126 A 
ATOM     22  C   UNL     1      -2.431   3.190  -3.457  1.00  0.00     0.078 A 
ATOM     23  F   UNL     1      -0.966   4.809  -2.568  1.00  0.00    -0.207 F 
ATOM     24  F   UNL     1      -3.871   1.521  -4.284  1.00  0.00    -0.207 F 
ENDBRANCH   1  17
TORSDOF 5
