REMARK SMILES OCCOCNc1nccc(-c2ccc(-c3ccc4[nH]ncc4c3)cc2)n1
REMARK SMILES IDX 5 1 4 2 3 3 2 4 1 5 6 7 7 9 8 10 27 11 9 12 11 13 10 14
REMARK SMILES IDX 12 15 13 16 26 17 14 18 25 19 15 20 16 21 17 22 24 23 18 24
REMARK SMILES IDX 23 25 19 26 22 27 20 28 21 29
REMARK H PARENT 1 6 6 8 20 30
ROOT
ATOM      1  C   UNL     1      -4.554  -0.396   0.850  1.00  0.00     0.280 C 
ENDROOT
BRANCH   1   2
ATOM      2  O   UNL     1      -5.901  -0.626   0.442  1.00  0.00    -0.359 OA
BRANCH   2   3
ATOM      3  C   UNL     1      -6.324   0.257  -0.607  1.00  0.00     0.190 C 
BRANCH   3   4
ATOM      4  C   UNL     1      -5.950  -0.327  -1.967  1.00  0.00     0.184 C 
BRANCH   4   5
ATOM      5  O   UNL     1      -6.532  -1.622  -2.117  1.00  0.00    -0.394 OA
ATOM      6  H   UNL     1      -6.470  -2.048  -1.240  1.00  0.00     0.210 HD
ENDBRANCH   4   5
ENDBRANCH   3   4
ENDBRANCH   2   3
ENDBRANCH   1   2
BRANCH   1   7
ATOM      7  N   UNL     1      -4.534   0.743   1.724  1.00  0.00    -0.331 N 
ATOM      8  H   UNL     1      -5.209   0.672   2.475  1.00  0.00     0.166 HD
BRANCH   7   9
ATOM      9  C   UNL     1      -3.302   0.935   2.330  1.00  0.00     0.224 A 
ATOM     10  N   UNL     1      -3.339   1.332   3.605  1.00  0.00    -0.222 NA
ATOM     11  N   UNL     1      -2.171   0.726   1.644  1.00  0.00    -0.213 NA
ATOM     12  C   UNL     1      -2.156   1.535   4.209  1.00  0.00     0.117 A 
ATOM     13  C   UNL     1      -0.991   0.950   2.269  1.00  0.00     0.076 A 
ATOM     14  C   UNL     1      -0.945   1.358   3.587  1.00  0.00     0.049 A 
BRANCH  13  15
ATOM     15  C   UNL     1       0.221   0.722   1.449  1.00  0.00     0.000 A 
ATOM     16  C   UNL     1       1.429   1.401   1.684  1.00  0.00     0.011 A 
ATOM     17  C   UNL     1       0.202  -0.187   0.376  1.00  0.00     0.011 A 
ATOM     18  C   UNL     1       2.563   1.176   0.890  1.00  0.00     0.009 A 
ATOM     19  C   UNL     1       1.333  -0.412  -0.420  1.00  0.00     0.009 A 
ATOM     20  C   UNL     1       2.532   0.268  -0.176  1.00  0.00    -0.018 A 
BRANCH  20  21
ATOM     21  C   UNL     1       3.715   0.047  -1.020  1.00  0.00    -0.018 A 
ATOM     22  C   UNL     1       3.667   0.308  -2.401  1.00  0.00     0.011 A 
ATOM     23  C   UNL     1       4.918  -0.424  -0.456  1.00  0.00     0.020 A 
ATOM     24  C   UNL     1       4.774   0.117  -3.237  1.00  0.00     0.029 A 
ATOM     25  C   UNL     1       6.040  -0.626  -1.279  1.00  0.00     0.020 A 
ATOM     26  C   UNL     1       5.944  -0.352  -2.638  1.00  0.00     0.065 A 
ATOM     27  C   UNL     1       7.369  -1.071  -1.102  1.00  0.00     0.143 A 
ATOM     28  N   UNL     1       7.180  -0.643  -3.152  1.00  0.00    -0.278 N 
ATOM     29  N   UNL     1       8.066  -1.083  -2.241  1.00  0.00    -0.183 NA
ATOM     30  H   UNL     1       7.482  -0.564  -4.116  1.00  0.00     0.190 HD
ENDBRANCH  20  21
ENDBRANCH  13  15
ENDBRANCH   7   9
ENDBRANCH   1   7
TORSDOF 8
