MODEL        10USER    Run = 10USERUSER    Estimated Free Energy of Binding    =  -7.78 kcal/mol  [=(1)+(2)+(3)-(4)]USERUSER    (1) Final Intermolecular Energy     =  -9.57 kcal/molUSER        vdW + Hbond + desolv Energy     =  -9.27 kcal/molUSER        Electrostatic Energy            =  -0.30 kcal/molUSER        Moving Ligand-Fixed Receptor    =  -9.57 kcal/molUSER        Moving Ligand-Moving Receptor   =  +0.00 kcal/molUSER    (2) Final Total Internal Energy     =  -1.63 kcal/molUSER    (3) Torsional Free Energy           =  +1.79 kcal/molUSER    (4) Unbound System's Energy         =  -1.63 kcal/molUSERUSERREMARK SMILES Nc1c(NC(=O)c2cccc(C(F)(F)F)c2)cccc1C(=O)OREMARK SMILES IDX 2 1 3 2 17 3 18 4 19 5 20 6 1 7 4 10 5 11 6 13 7 14 8 15REMARK SMILES IDX 16 16 9 17 11 18 10 19 12 20 13 21 14 22 15 23 21 24 22 25REMARK SMILES IDX 23 26REMARK H PARENT 1 8 1 9 4 12 23 27USER                              x       y       z     vdW  Elec       q    TypeUSER                           _______ _______ _______ _____ _____    ______ ____ROOTATOM      1  C   UNL     1      41.439  46.842  18.759 -0.46 -0.00    +0.070 A  ATOM      2  C   UNL     1      40.188  46.213  18.554 -0.42 -0.00    +0.065 A  ATOM      3  C   UNL     1      39.754  45.210  19.422 -0.39 -0.00    +0.028 A  ATOM      4  C   UNL     1      40.559  44.812  20.489 -0.36 +0.00    +0.003 A  ATOM      5  C   UNL     1      41.805  45.405  20.689 -0.33 +0.00    +0.018 A  ATOM      6  C   UNL     1      42.264  46.408  19.820 -0.35 +0.02    +0.084 A  ENDROOTBRANCH   1   7ATOM      7  N   UNL     1      41.901  47.740  17.737 -0.20 +0.03    -0.396 N  ATOM      8  H   UNL     1      42.930  47.774  17.758 -0.39 -0.01    +0.156 HD ATOM      9  H   UNL     1      41.650  47.349  16.828 -0.34 -0.03    +0.156 HD ENDBRANCH   1   7BRANCH   2  10ATOM     10  N   UNL     1      39.440  46.683  17.452 -0.24 +0.07    -0.320 N  ATOM     11  C   UNL     1      39.698  46.511  16.110 -0.33 -0.05    +0.255 C  ATOM     12  H   UNL     1      38.567  47.116  17.742 +0.09 -0.06    +0.170 HD ATOM     13  O   UNL     1      40.641  45.901  15.620 -0.37 +0.00    -0.269 OA BRANCH  11  14ATOM     14  C   UNL     1      38.695  47.118  15.186 -0.43 -0.01    +0.040 A  ATOM     15  C   UNL     1      38.221  48.425  15.355 -0.51 -0.01    +0.014 A  ATOM     16  C   UNL     1      38.247  46.357  14.096 -0.41 -0.01    +0.027 A  ATOM     17  C   UNL     1      37.291  48.953  14.458 -0.49 -0.00    +0.001 A  ATOM     18  C   UNL     1      37.306  46.876  13.194 -0.51 -0.02    +0.056 A  ATOM     19  C   UNL     1      36.836  48.184  13.385 -0.58 -0.01    +0.013 A  BRANCH  18  20ATOM     20  C   UNL     1      36.842  46.055  12.017 -0.33 -0.15    +0.416 C  ATOM     21  F   UNL     1      37.179  44.741  12.136 -0.20 +0.05    -0.166 F  ATOM     22  F   UNL     1      37.377  46.471  10.833 -0.23 +0.04    -0.166 F  ATOM     23  F   UNL     1      35.492  46.084  11.842 -0.24 +0.09    -0.166 F  ENDBRANCH  18  20ENDBRANCH  11  14ENDBRANCH   2  10BRANCH   6  24ATOM     24  C   UNL     1      43.602  47.021  20.026 -0.08 +0.17    +0.337 C  ATOM     25  O   UNL     1      44.252  46.979  21.057 -0.60 -0.20    -0.246 OA BRANCH  24  26ATOM     26  O   UNL     1      44.068  47.663  18.940 -0.19 -0.16    -0.478 OA ATOM     27  H   UNL     1      43.832  48.603  19.091 -0.41 -0.06    +0.297 HD ENDBRANCH  24  26ENDBRANCH   6  24TORSDOF 6TERENDMDL