MODEL        1USER    Run = 1USERUSER    Estimated Free Energy of Binding    =  -8.42 kcal/mol  [=(1)+(2)+(3)-(4)]USERUSER    (1) Final Intermolecular Energy     =  -9.91 kcal/molUSER        vdW + Hbond + desolv Energy     =  -9.75 kcal/molUSER        Electrostatic Energy            =  -0.16 kcal/molUSER        Moving Ligand-Fixed Receptor    =  -9.91 kcal/molUSER        Moving Ligand-Moving Receptor   =  +0.00 kcal/molUSER    (2) Final Total Internal Energy     =  -1.16 kcal/molUSER    (3) Torsional Free Energy           =  +1.49 kcal/molUSER    (4) Unbound System's Energy         =  -1.16 kcal/molUSERUSERREMARK SMILES O=C(C(=CN1CCOCC1)c1cc(F)cc(F)c1)c1cccnc1REMARK SMILES IDX 3 1 2 2 1 3 19 4 20 5 24 6 21 7 23 8 22 9 4 10 5 11 6 12REMARK SMILES IDX 10 13 7 14 9 15 8 16 11 17 12 18 18 19 13 20 16 21 15 22REMARK SMILES IDX 14 23 17 24REMARK H PARENTUSER                              x       y       z     vdW  Elec       q    TypeUSER                           _______ _______ _______ _____ _____    ______ ____ROOTATOM      1  C   UNL     1      39.158  46.151  16.307 -0.44 -0.01    +0.046 C  ENDROOTBRANCH   1   2ATOM      2  C   UNL     1      40.386  46.498  15.534 -0.34 -0.02    +0.196 C  ATOM      3  O   UNL     1      41.046  45.612  14.992 -0.33 -0.04    -0.288 OA BRANCH   2   4ATOM      4  C   UNL     1      40.831  47.917  15.469 -0.46 -0.01    +0.041 A  ATOM      5  C   UNL     1      40.994  48.521  14.217 -0.25 -0.00    +0.015 A  ATOM      6  C   UNL     1      41.107  48.692  16.590 -0.40 -0.01    +0.123 A  ATOM      7  C   UNL     1      41.415  49.849  14.133 -0.62 -0.01    +0.021 A  ATOM      8  N   UNL     1      41.517  49.988  16.539 -0.82 +0.00    -0.264 NA ATOM      9  C   UNL     1      41.657  50.536  15.311 -0.47 -0.02    +0.111 A  ENDBRANCH   2   4ENDBRANCH   1   2BRANCH   1  10ATOM     10  C   UNL     1      37.938  46.146  15.734 -0.37 -0.04    +0.093 C  BRANCH  10  11ATOM     11  N   UNL     1      37.445  46.685  14.544 -0.12 +0.17    -0.372 N  ATOM     12  C   UNL     1      37.576  48.135  14.222 -0.50 -0.08    +0.144 C  ATOM     13  C   UNL     1      37.524  45.870  13.294 -0.39 -0.05    +0.144 C  ATOM     14  C   UNL     1      36.543  48.538  13.158 -0.35 -0.08    +0.181 C  ATOM     15  C   UNL     1      36.518  46.370  12.248 -0.58 -0.08    +0.181 C  ATOM     16  O   UNL     1      36.707  47.763  11.958 -0.97 +0.13    -0.378 OA ENDBRANCH  10  11ENDBRANCH   1  10BRANCH   1  17ATOM     17  C   UNL     1      39.301  45.797  17.733 -0.43 +0.00    -0.007 A  ATOM     18  C   UNL     1      40.525  45.979  18.394 -0.45 -0.00    +0.048 A  ATOM     19  C   UNL     1      38.226  45.245  18.442 -0.35 -0.01    +0.048 A  ATOM     20  C   UNL     1      40.656  45.613  19.732 -0.33 +0.00    +0.126 A  ATOM     21  C   UNL     1      38.380  44.892  19.781 -0.27 -0.01    +0.126 A  ATOM     22  C   UNL     1      39.592  45.069  20.438 -0.32 +0.00    +0.078 A  ATOM     23  F   UNL     1      41.838  45.778  20.343 -0.09 -0.04    -0.207 F  ATOM     24  F   UNL     1      37.345  44.364  20.449 -0.10 +0.00    -0.207 F  ENDBRANCH   1  17TORSDOF 5TERENDMDL