REMARK SMILES CN1CCn2c1cnc2Nc1ccc2ccc(-c3cnn[nH]3)cc2c1
REMARK SMILES IDX 11 1 12 2 13 3 14 4 15 5 16 6 17 7 23 8 24 9 25 10 10 11
REMARK SMILES IDX 9 13 2 14 3 15 6 16 4 17 5 18 7 19 8 20 1 21 18 22 19 23
REMARK SMILES IDX 22 24 20 25 21 26
REMARK H PARENT 10 12 22 27
ROOT
ATOM      1  C   UNL     1      -0.097   0.196   1.183  1.00  0.00     0.041 A 
ATOM      2  C   UNL     1      -0.315   1.500   0.728  1.00  0.00     0.027 A 
ATOM      3  C   UNL     1       0.668   2.174  -0.001  1.00  0.00     0.011 A 
ATOM      4  C   UNL     1       1.901   1.564  -0.277  1.00  0.00    -0.018 A 
ATOM      5  C   UNL     1       2.898   2.225  -1.006  1.00  0.00     0.009 A 
ATOM      6  C   UNL     1       4.124   1.605  -1.267  1.00  0.00     0.011 A 
ATOM      7  C   UNL     1       4.382   0.310  -0.805  1.00  0.00     0.002 A 
ATOM      8  C   UNL     1       3.386  -0.349  -0.069  1.00  0.00     0.019 A 
ATOM      9  C   UNL     1       2.146   0.260   0.200  1.00  0.00    -0.016 A 
ATOM     10  C   UNL     1       1.146  -0.402   0.934  1.00  0.00     0.034 A 
ENDROOT
BRANCH   1  11
ATOM     11  N   UNL     1      -1.039  -0.514   1.969  1.00  0.00    -0.326 N 
ATOM     12  H   UNL     1      -0.699  -0.547   2.930  1.00  0.00     0.170 HD
BRANCH  11  13
ATOM     13  C   UNL     1      -2.374  -0.299   1.932  1.00  0.00     0.209 A 
ATOM     14  N   UNL     1      -5.177  -0.223  -0.033  1.00  0.00    -0.358 N 
ATOM     15  C   UNL     1      -4.316  -0.769  -1.111  1.00  0.00     0.139 C 
ATOM     16  C   UNL     1      -4.417  -0.150   1.084  1.00  0.00     0.130 A 
ATOM     17  C   UNL     1      -2.867  -0.583  -0.609  1.00  0.00     0.149 C 
ATOM     18  N   UNL     1      -3.099  -0.313   0.790  1.00  0.00    -0.295 N 
ATOM     19  C   UNL     1      -4.463  -0.016   2.443  1.00  0.00     0.160 A 
ATOM     20  N   UNL     1      -3.181  -0.130   2.965  1.00  0.00    -0.219 NA
ATOM     21  C   UNL     1      -6.549  -0.686   0.057  1.00  0.00     0.145 C 
ENDBRANCH  11  13
ENDBRANCH   1  11
BRANCH   7  22
ATOM     22  C   UNL     1       5.656  -0.349  -1.070  1.00  0.00     0.085 A 
ATOM     23  C   UNL     1       6.373  -1.313  -0.388  1.00  0.00     0.165 A 
ATOM     24  N   UNL     1       6.441  -0.127  -2.173  1.00  0.00    -0.258 N 
ATOM     25  N   UNL     1       7.519  -1.618  -1.065  1.00  0.00    -0.138 NA
ATOM     26  N   UNL     1       7.550  -0.880  -2.164  1.00  0.00    -0.070 NA
ATOM     27  H   UNL     1       6.282   0.492  -2.958  1.00  0.00     0.192 HD
ENDBRANCH   7  22
TORSDOF 3
