MODEL        8USER    Run = 8USERUSER    Estimated Free Energy of Binding    =  -9.02 kcal/mol  [=(1)+(2)+(3)-(4)]USERUSER    (1) Final Intermolecular Energy     = -11.41 kcal/molUSER        vdW + Hbond + desolv Energy     = -11.20 kcal/molUSER        Electrostatic Energy            =  -0.21 kcal/molUSER        Moving Ligand-Fixed Receptor    = -11.41 kcal/molUSER        Moving Ligand-Moving Receptor   =  +0.00 kcal/molUSER    (2) Final Total Internal Energy     =  -1.54 kcal/molUSER    (3) Torsional Free Energy           =  +2.39 kcal/molUSER    (4) Unbound System's Energy         =  -1.54 kcal/molUSERUSERREMARK SMILES OCCOCNc1nccc(-c2ccc(-c3ccc4[nH]ncc4c3)cc2)n1REMARK SMILES IDX 5 1 4 2 3 3 2 4 1 5 6 7 7 9 8 10 27 11 9 12 11 13 10 14REMARK SMILES IDX 12 15 13 16 26 17 14 18 25 19 15 20 16 21 17 22 24 23 18 24REMARK SMILES IDX 23 25 19 26 22 27 20 28 21 29REMARK H PARENT 1 6 6 8 20 30USER                              x       y       z     vdW  Elec       q    TypeUSER                           _______ _______ _______ _____ _____    ______ ____ROOTATOM      1  C   UNL     1      36.496  48.160  14.167 -0.16 -0.21    +0.280 C  ENDROOTBRANCH   1   2ATOM      2  O   UNL     1      35.956  48.127  12.847 -0.46 +0.20    -0.359 OA BRANCH   2   3ATOM      3  C   UNL     1      35.698  46.794  12.384 -0.47 -0.11    +0.190 C  BRANCH   3   4ATOM      4  C   UNL     1      36.896  46.271  11.597 -0.53 -0.06    +0.184 C  BRANCH   4   5ATOM      5  O   UNL     1      37.677  47.365  11.115 -0.72 +0.05    -0.394 OA ATOM      6  H   UNL     1      37.054  48.109  10.999 -0.24 -0.08    +0.210 HD ENDBRANCH   4   5ENDBRANCH   3   4ENDBRANCH   2   3ENDBRANCH   1   2BRANCH   1   7ATOM      7  N   UNL     1      37.773  48.813  14.117 -0.26 +0.19    -0.331 N  ATOM      8  H   UNL     1      37.730  49.781  14.411 -0.47 -0.16    +0.166 HD BRANCH   7   9ATOM      9  C   UNL     1      38.721  48.206  14.927 -0.35 -0.10    +0.224 A  ATOM     10  N   UNL     1      39.995  48.446  14.607 -0.36 +0.06    -0.222 NA ATOM     11  N   UNL     1      38.339  47.435  15.953 -0.28 +0.10    -0.213 NA ATOM     12  C   UNL     1      40.931  47.858  15.372 -0.35 -0.01    +0.117 A  ATOM     13  C   UNL     1      39.299  46.843  16.702 -0.40 -0.02    +0.076 A  ATOM     14  C   UNL     1      40.639  47.043  16.438 -0.44 -0.01    +0.049 A  BRANCH  13  15ATOM     15  C   UNL     1      38.811  45.986  17.807 -0.41 -0.00    +0.000 A  ATOM     16  C   UNL     1      37.574  45.319  17.754 -0.36 -0.00    +0.011 A  ATOM     17  C   UNL     1      39.573  45.819  18.977 -0.42 -0.00    +0.011 A  ATOM     18  C   UNL     1      37.127  44.519  18.816 -0.35 -0.00    +0.009 A  ATOM     19  C   UNL     1      39.127  45.022  20.040 -0.37 -0.00    +0.009 A  ATOM     20  C   UNL     1      37.895  44.360  19.976 -0.36 +0.00    -0.018 A  BRANCH  20  21ATOM     21  C   UNL     1      37.418  43.537  21.096 -0.37 -0.00    -0.018 A  ATOM     22  C   UNL     1      36.818  42.287  20.860 -0.44 +0.00    +0.011 A  ATOM     23  C   UNL     1      37.559  43.985  22.425 -0.36 +0.00    +0.020 A  ATOM     24  C   UNL     1      36.356  41.471  21.900 -0.55 +0.00    +0.029 A  ATOM     25  C   UNL     1      37.099  43.183  23.483 -0.36 +0.00    +0.020 A  ATOM     26  C   UNL     1      36.515  41.954  23.200 -0.42 +0.00    +0.065 A  ATOM     27  C   UNL     1      37.057  43.276  24.892 -0.27 +0.00    +0.143 A  ATOM     28  N   UNL     1      36.181  41.425  24.418 -0.17 +0.04    -0.278 N  ATOM     29  N   UNL     1      36.498  42.207  25.465 -0.31 +0.02    -0.183 NA ATOM     30  H   UNL     1      35.733  40.535  24.603 -0.23 -0.10    +0.190 HD ENDBRANCH  20  21ENDBRANCH  13  15ENDBRANCH   7   9ENDBRANCH   1   7TORSDOF 8TERENDMDL