REMARK SMILES Cc1nc(NCC2CCCC2)ccc1-c1ccc(C=C2SC(=O)NC2=O)cc1
REMARK SMILES IDX 1 1 2 2 3 3 4 4 12 5 13 6 14 7 15 8 16 9 28 10 17 11 27 12
REMARK SMILES IDX 18 13 19 14 20 15 21 16 25 17 22 18 24 19 26 20 23 21 5 23
REMARK SMILES IDX 6 25 7 26 8 27 11 28 9 29 10 30
REMARK H PARENT 24 22 5 24
ROOT
ATOM      1  C   UNL     1       0.505   0.598  -2.925  1.00  0.00     0.067 C 
ATOM      2  C   UNL     1      -0.036   0.600  -1.523  1.00  0.00     0.048 A 
ATOM      3  N   UNL     1      -1.386   0.736  -1.417  1.00  0.00    -0.236 NA
ATOM      4  C   UNL     1      -1.937   0.751  -0.191  1.00  0.00     0.126 A 
ATOM      5  C   UNL     1      -1.175   0.650   0.963  1.00  0.00     0.047 A 
ATOM      6  C   UNL     1       0.206   0.506   0.850  1.00  0.00     0.014 A 
ATOM      7  C   UNL     1       0.810   0.473  -0.412  1.00  0.00     0.003 A 
ENDROOT
BRANCH   7   8
ATOM      8  C   UNL     1       2.263   0.320  -0.520  1.00  0.00    -0.017 A 
ATOM      9  C   UNL     1       3.113   1.425  -0.365  1.00  0.00     0.009 A 
ATOM     10  C   UNL     1       2.836  -0.937  -0.766  1.00  0.00     0.009 A 
ATOM     11  C   UNL     1       4.500   1.280  -0.456  1.00  0.00     0.009 A 
ATOM     12  C   UNL     1       4.223  -1.084  -0.859  1.00  0.00     0.009 A 
ATOM     13  C   UNL     1       5.061   0.023  -0.700  1.00  0.00    -0.024 A 
BRANCH  13  14
ATOM     14  C   UNL     1       6.511  -0.142  -0.810  1.00  0.00     0.029 C 
BRANCH  14  15
ATOM     15  C   UNL     1       7.372  -0.169   0.217  1.00  0.00     0.083 C 
ATOM     16  S   UNL     1       9.079  -0.379  -0.003  1.00  0.00    -0.022 SA
ATOM     17  C   UNL     1       7.074  -0.046   1.674  1.00  0.00     0.265 C 
ATOM     18  C   UNL     1       9.395  -0.317   1.718  1.00  0.00     0.290 C 
ATOM     19  N   UNL     1       8.231  -0.140   2.390  1.00  0.00    -0.282 N 
ATOM     20  O   UNL     1       5.978   0.114   2.184  1.00  0.00    -0.268 OA
ATOM     21  O   UNL     1      10.502  -0.418   2.218  1.00  0.00    -0.261 OA
ATOM     22  H   UNL     1       8.222  -0.081   3.396  1.00  0.00     0.174 HD
ENDBRANCH  14  15
ENDBRANCH  13  14
ENDBRANCH   7   8
BRANCH   4  23
ATOM     23  N   UNL     1      -3.324   0.907  -0.159  1.00  0.00    -0.370 N 
ATOM     24  H   UNL     1      -3.570   0.964  -1.148  1.00  0.00     0.162 HD
BRANCH  23  25
ATOM     25  C   UNL     1      -4.029  -0.187   0.505  1.00  0.00     0.118 C 
BRANCH  25  26
ATOM     26  C   UNL     1      -5.540   0.016   0.374  1.00  0.00     0.008 C 
ATOM     27  C   UNL     1      -6.340  -1.027   1.152  1.00  0.00     0.005 C 
ATOM     28  C   UNL     1      -6.074  -0.169  -1.047  1.00  0.00     0.005 C 
ATOM     29  C   UNL     1      -7.743  -0.930   0.566  1.00  0.00     0.000 C 
ATOM     30  C   UNL     1      -7.569  -0.410  -0.861  1.00  0.00     0.000 C 
ENDBRANCH  25  26
ENDBRANCH  23  25
ENDBRANCH   4  23
TORSDOF 6
