MODEL        9USER    Run = 9USERUSER    Estimated Free Energy of Binding    = -11.14 kcal/mol  [=(1)+(2)+(3)-(4)]USERUSER    (1) Final Intermolecular Energy     = -12.93 kcal/molUSER        vdW + Hbond + desolv Energy     = -12.78 kcal/molUSER        Electrostatic Energy            =  -0.16 kcal/molUSER        Moving Ligand-Fixed Receptor    = -12.93 kcal/molUSER        Moving Ligand-Moving Receptor   =  +0.00 kcal/molUSER    (2) Final Total Internal Energy     =  -1.05 kcal/molUSER    (3) Torsional Free Energy           =  +1.79 kcal/molUSER    (4) Unbound System's Energy         =  -1.05 kcal/molUSERUSERREMARK SMILES Cc1nc(NCC2CCCC2)ccc1-c1ccc(C=C2SC(=O)NC2=O)cc1REMARK SMILES IDX 1 1 2 2 3 3 4 4 12 5 13 6 14 7 15 8 16 9 28 10 17 11 27 12REMARK SMILES IDX 18 13 19 14 20 15 21 16 25 17 22 18 24 19 26 20 23 21 5 23REMARK SMILES IDX 6 25 7 26 8 27 11 28 9 29 10 30REMARK H PARENT 24 22 5 24USER                              x       y       z     vdW  Elec       q    TypeUSER                           _______ _______ _______ _____ _____    ______ ____ROOTATOM      1  C   UNL     1      39.009  45.231  23.373 -0.28 +0.00    +0.067 C  ATOM      2  C   UNL     1      38.147  44.074  22.951 -0.30 +0.00    +0.048 A  ATOM      3  N   UNL     1      37.488  43.438  23.958 -0.20 -0.02    -0.236 NA ATOM      4  C   UNL     1      36.703  42.391  23.652 -0.32 +0.01    +0.126 A  ATOM      5  C   UNL     1      36.559  41.930  22.352 -0.50 +0.00    +0.047 A  ATOM      6  C   UNL     1      37.231  42.587  21.324 -0.40 +0.00    +0.014 A  ATOM      7  C   UNL     1      38.046  43.690  21.607 -0.35 +0.00    +0.003 A  ENDROOTBRANCH   7   8ATOM      8  C   UNL     1      38.748  44.375  20.518 -0.34 +0.00    -0.017 A  ATOM      9  C   UNL     1      38.034  44.965  19.465 -0.32 -0.00    +0.009 A  ATOM     10  C   UNL     1      40.148  44.468  20.514 -0.33 +0.00    +0.009 A  ATOM     11  C   UNL     1      38.700  45.629  18.431 -0.39 -0.00    +0.009 A  ATOM     12  C   UNL     1      40.816  45.130  19.480 -0.42 +0.00    +0.009 A  ATOM     13  C   UNL     1      40.095  45.717  18.437 -0.44 +0.00    -0.024 A  BRANCH  13  14ATOM     14  C   UNL     1      40.807  46.398  17.355 -0.51 -0.00    +0.029 C  BRANCH  14  15ATOM     15  C   UNL     1      40.236  47.116  16.377 -0.51 -0.01    +0.083 C  ATOM     16  S   UNL     1      38.976  46.481  15.369 -0.58 +0.01    -0.022 SA ATOM     17  C   UNL     1      40.543  48.515  15.960 -0.43 -0.06    +0.265 C  ATOM     18  C   UNL     1      38.855  47.961  14.441 -0.34 -0.11    +0.290 C  ATOM     19  N   UNL     1      39.745  48.869  14.912 -0.32 +0.12    -0.282 N  ATOM     20  O   UNL     1      41.373  49.259  16.455 -1.06 +0.00    -0.268 OA ATOM     21  O   UNL     1      38.080  48.131  13.516 -0.71 +0.07    -0.261 OA ATOM     22  H   UNL     1      39.816  49.783  14.495 -0.14 -0.13    +0.174 HD ENDBRANCH  14  15ENDBRANCH  13  14ENDBRANCH   7   8BRANCH   4  23ATOM     23  N   UNL     1      36.070  41.780  24.735 -0.12 +0.03    -0.370 N  ATOM     24  H   UNL     1      36.206  40.785  24.548 -0.12 -0.07    +0.162 HD BRANCH  23  25ATOM     25  C   UNL     1      36.620  42.159  26.035 -0.41 -0.02    +0.118 C  BRANCH  25  26ATOM     26  C   UNL     1      35.752  43.250  26.665 -0.53 -0.00    +0.008 C  ATOM     27  C   UNL     1      36.551  44.177  27.579 -0.49 -0.00    +0.005 C  ATOM     28  C   UNL     1      34.674  42.722  27.612 -0.66 -0.00    +0.005 C  ATOM     29  C   UNL     1      35.487  44.881  28.413 -0.53 -0.00    +0.000 C  ATOM     30  C   UNL     1      34.292  43.930  28.462 -0.71 -0.00    +0.000 C  ENDBRANCH  25  26ENDBRANCH  23  25ENDBRANCH   4  23TORSDOF 6TERENDMDL