MODEL        2USER    Run = 2USERUSER    Estimated Free Energy of Binding    = -10.17 kcal/mol  [=(1)+(2)+(3)-(4)]USERUSER    (1) Final Intermolecular Energy     = -12.26 kcal/molUSER        vdW + Hbond + desolv Energy     = -12.02 kcal/molUSER        Electrostatic Energy            =  -0.23 kcal/molUSER        Moving Ligand-Fixed Receptor    = -12.26 kcal/molUSER        Moving Ligand-Moving Receptor   =  +0.00 kcal/molUSER    (2) Final Total Internal Energy     =  -0.93 kcal/molUSER    (3) Torsional Free Energy           =  +2.09 kcal/molUSER    (4) Unbound System's Energy         =  -0.93 kcal/molUSERUSERREMARK SMILES O=C1NC(=O)C(=Cc2ccc(-c3ccc(NCC4CCOCC4)nc3O)c(F)c2)S1REMARK SMILES IDX 8 1 9 2 10 3 11 4 27 5 28 6 29 7 7 8 6 9 2 10 3 11 30 12REMARK SMILES IDX 4 13 1 14 5 16 12 17 13 18 25 19 14 20 24 21 15 22 26 23REMARK SMILES IDX 16 25 17 27 18 28 19 29 23 30 20 31 22 32 21 33REMARK H PARENT 3 15 26 24 16 26USER                              x       y       z     vdW  Elec       q    TypeUSER                           _______ _______ _______ _____ _____    ______ ____ROOTATOM      1  C   UNL     1      37.321  42.867  23.490 -0.38 -0.00    -0.021 A  ATOM      2  C   UNL     1      37.658  44.119  22.967 -0.34 +0.00    +0.009 A  ATOM      3  C   UNL     1      37.248  44.482  21.679 -0.33 +0.00    +0.012 A  ATOM      4  C   UNL     1      36.498  43.605  20.877 -0.41 +0.00    +0.023 A  ATOM      5  C   UNL     1      36.179  42.352  21.423 -0.38 +0.01    +0.131 A  ATOM      6  F   UNL     1      35.472  41.465  20.706 -0.11 +0.00    -0.206 F  ATOM      7  C   UNL     1      36.583  41.979  22.706 -0.47 +0.00    +0.048 A  ENDROOTBRANCH   1   8ATOM      8  C   UNL     1      37.776  42.498  24.832 -0.37 +0.00    +0.029 C  BRANCH   8   9ATOM      9  C   UNL     1      37.021  42.474  25.939 -0.38 -0.01    +0.083 C  ATOM     10  C   UNL     1      35.312  42.881  27.750 -0.36 -0.09    +0.290 C  ATOM     11  N   UNL     1      36.158  41.856  28.019 -0.19 +0.12    -0.282 N  ATOM     12  S   UNL     1      35.714  43.585  26.199 -0.54 +0.00    -0.022 SA ATOM     13  C   UNL     1      37.115  41.544  27.100 -0.34 -0.06    +0.265 C  ATOM     14  O   UNL     1      34.403  43.266  28.465 -0.51 +0.07    -0.261 OA ATOM     15  H   UNL     1      36.068  41.327  28.872 -0.47 -0.13    +0.174 HD ATOM     16  O   UNL     1      37.911  40.631  27.237 -0.35 +0.03    -0.268 OA ENDBRANCH   8   9ENDBRANCH   1   8BRANCH   4  17ATOM     17  C   UNL     1      36.058  43.993  19.526 -0.36 -0.01    +0.047 A  ATOM     18  C   UNL     1      36.979  44.300  18.520 -0.33 -0.00    +0.018 A  ATOM     19  C   UNL     1      34.722  44.087  19.145 -0.23 -0.05    +0.220 A  ATOM     20  C   UNL     1      36.538  44.662  17.245 -0.30 -0.02    +0.047 A  ATOM     21  N   UNL     1      34.260  44.426  17.924 -0.18 +0.07    -0.196 NA ATOM     22  C   UNL     1      35.176  44.702  16.980 -0.22 -0.06    +0.130 A  BRANCH  19  23ATOM     23  O   UNL     1      33.711  43.846  20.022 -0.42 +0.02    -0.493 OA ATOM     24  H   UNL     1      33.472  44.763  20.245 -0.19 -0.09    +0.295 HD ENDBRANCH  19  23BRANCH  22  25ATOM     25  N   UNL     1      34.659  45.055  15.741 -0.09 +0.25    -0.370 N  ATOM     26  H   UNL     1      34.550  44.186  15.224 +0.11 -0.08    +0.162 HD BRANCH  25  27ATOM     27  C   UNL     1      35.313  46.116  14.983 -0.34 -0.10    +0.118 C  BRANCH  27  28ATOM     28  C   UNL     1      36.166  45.587  13.810 -0.49 -0.01    +0.013 C  ATOM     29  C   UNL     1      37.662  45.833  14.075 -0.47 -0.01    +0.034 C  ATOM     30  C   UNL     1      35.794  46.213  12.455 -0.63 -0.02    +0.034 C  ATOM     31  C   UNL     1      38.044  47.295  13.878 -0.44 -0.05    +0.160 C  ATOM     32  C   UNL     1      36.270  47.656  12.344 -0.61 -0.08    +0.160 C  ATOM     33  O   UNL     1      37.674  47.745  12.577 -0.90 +0.04    -0.381 OA ENDBRANCH  27  28ENDBRANCH  25  27ENDBRANCH  22  25ENDBRANCH   4  17TORSDOF 7TERENDMDL