MODEL        1USER    Run = 1USERUSER    Estimated Free Energy of Binding    =  -7.87 kcal/mol  [=(1)+(2)+(3)-(4)]USERUSER    (1) Final Intermolecular Energy     =  -9.66 kcal/molUSER        vdW + Hbond + desolv Energy     =  -9.29 kcal/molUSER        Electrostatic Energy            =  -0.37 kcal/molUSER        Moving Ligand-Fixed Receptor    =  -9.66 kcal/molUSER        Moving Ligand-Moving Receptor   =  +0.00 kcal/molUSER    (2) Final Total Internal Energy     =  -1.23 kcal/molUSER    (3) Torsional Free Energy           =  +1.79 kcal/molUSER    (4) Unbound System's Energy         =  -1.23 kcal/molUSERUSERREMARK SMILES O=C(O)c1ccccc1Cc1ccc(CN2CCOCC2)[nH]c1=OREMARK SMILES IDX 4 1 5 2 6 3 7 4 8 5 9 6 2 7 1 8 3 9 10 11 11 12 12 13 23 14REMARK SMILES IDX 13 15 22 16 14 17 24 18 15 20 16 21 17 22 21 23 18 24 20 25REMARK SMILES IDX 19 26REMARK H PARENT 3 10 22 19USER                              x       y       z     vdW  Elec       q    TypeUSER                           _______ _______ _______ _____ _____    ______ ____ROOTATOM      1  C   UNL     1      42.475  46.811  21.630 -0.29 +0.01    +0.063 A  ATOM      2  C   UNL     1      42.375  47.684  22.726 -0.28 +0.00    +0.016 A  ATOM      3  C   UNL     1      41.296  47.596  23.603 -0.28 +0.00    +0.001 A  ATOM      4  C   UNL     1      40.305  46.645  23.385 -0.25 +0.00    +0.000 A  ATOM      5  C   UNL     1      40.388  45.787  22.285 -0.26 +0.00    +0.005 A  ATOM      6  C   UNL     1      41.471  45.851  21.387 -0.29 -0.00    -0.029 A  ENDROOTBRANCH   1   7ATOM      7  C   UNL     1      43.666  46.998  20.774 -0.20 +0.16    +0.335 C  ATOM      8  O   UNL     1      43.668  47.092  19.562 -0.38 -0.12    -0.246 OA BRANCH   7   9ATOM      9  O   UNL     1      44.787  47.171  21.495 -0.66 -0.44    -0.478 OA ATOM     10  H   UNL     1      44.791  48.130  21.699 -0.39 +0.09    +0.297 HD ENDBRANCH   7   9ENDBRANCH   1   7BRANCH   6  11ATOM     11  C   UNL     1      41.450  44.941  20.174 -0.37 +0.01    +0.077 C  BRANCH  11  12ATOM     12  C   UNL     1      40.334  45.252  19.218 -0.42 -0.00    +0.022 A  ATOM     13  C   UNL     1      39.081  44.778  19.338 -0.38 -0.00    +0.011 A  ATOM     14  C   UNL     1      40.621  46.201  18.097 -0.31 -0.02    +0.251 A  ATOM     15  C   UNL     1      38.047  45.118  18.390 -0.37 -0.00    +0.023 A  ATOM     16  N   UNL     1      39.580  46.465  17.241 -0.23 +0.06    -0.325 N  ATOM     17  C   UNL     1      38.305  45.955  17.372 -0.37 -0.01    +0.032 A  ATOM     18  O   UNL     1      41.719  46.729  17.945 -0.36 +0.02    -0.269 OA ATOM     19  H   UNL     1      39.798  47.097  16.483 +0.12 -0.04    +0.170 HD BRANCH  17  20ATOM     20  C   UNL     1      37.274  46.333  16.328 -0.34 -0.07    +0.138 C  BRANCH  20  21ATOM     21  N   UNL     1      37.843  46.581  14.994 -0.17 +0.12    -0.293 NA ATOM     22  C   UNL     1      37.003  46.040  13.904 -0.43 -0.05    +0.113 C  ATOM     23  C   UNL     1      38.118  48.018  14.773 -0.50 -0.06    +0.113 C  ATOM     24  C   UNL     1      37.266  46.752  12.569 -0.52 -0.05    +0.175 C  ATOM     25  C   UNL     1      37.058  48.721  13.912 -0.43 -0.11    +0.175 C  ATOM     26  O   UNL     1      36.910  48.141  12.610 -0.93 +0.10    -0.379 OA ENDBRANCH  20  21ENDBRANCH  17  20ENDBRANCH  11  12ENDBRANCH   6  11TORSDOF 6TERENDMDL