REMARK SMILES O=C(O)c1ccccc1Cc1ccc(CN2CCOCC2)[nH]c1=O
REMARK SMILES IDX 4 1 5 2 6 3 7 4 8 5 9 6 2 7 1 8 3 9 10 11 11 12 12 13 23 14
REMARK SMILES IDX 13 15 22 16 14 17 24 18 15 20 16 21 17 22 21 23 18 24 20 25
REMARK SMILES IDX 19 26
REMARK H PARENT 3 10 22 19
ROOT
ATOM      1  C   UNL     1      -4.546   0.126  -0.440  1.00  0.00     0.063 A 
ATOM      2  C   UNL     1      -5.488  -0.809  -0.900  1.00  0.00     0.016 A 
ATOM      3  C   UNL     1      -5.698  -2.000  -0.209  1.00  0.00     0.001 A 
ATOM      4  C   UNL     1      -4.960  -2.271   0.938  1.00  0.00     0.000 A 
ATOM      5  C   UNL     1      -4.007  -1.355   1.390  1.00  0.00     0.005 A 
ATOM      6  C   UNL     1      -3.780  -0.141   0.713  1.00  0.00    -0.029 A 
ENDROOT
BRANCH   1   7
ATOM      7  C   UNL     1      -4.417   1.353  -1.254  1.00  0.00     0.335 C 
ATOM      8  O   UNL     1      -4.367   1.404  -2.468  1.00  0.00    -0.246 OA
BRANCH   7   9
ATOM      9  O   UNL     1      -4.471   2.467  -0.505  1.00  0.00    -0.478 OA
ATOM     10  H   UNL     1      -4.485   3.194  -1.163  1.00  0.00     0.297 HD
ENDBRANCH   7   9
ENDBRANCH   1   7
BRANCH   6  11
ATOM     11  C   UNL     1      -2.674   0.765   1.219  1.00  0.00     0.077 C 
BRANCH  11  12
ATOM     12  C   UNL     1      -1.378   0.590   0.479  1.00  0.00     0.022 A 
ATOM     13  C   UNL     1      -0.951   1.405  -0.502  1.00  0.00     0.011 A 
ATOM     14  C   UNL     1      -0.478  -0.526   0.907  1.00  0.00     0.251 A 
ATOM     15  C   UNL     1       0.309   1.189  -1.172  1.00  0.00     0.023 A 
ATOM     16  N   UNL     1       0.699  -0.659   0.211  1.00  0.00    -0.325 N 
ATOM     17  C   UNL     1       1.112   0.178  -0.804  1.00  0.00     0.032 A 
ATOM     18  O   UNL     1      -0.759  -1.282   1.832  1.00  0.00    -0.269 OA
ATOM     19  H   UNL     1       1.287  -1.427   0.506  1.00  0.00     0.170 HD
BRANCH  17  20
ATOM     20  C   UNL     1       2.434  -0.120  -1.482  1.00  0.00     0.138 C 
BRANCH  20  21
ATOM     21  N   UNL     1       3.586   0.545  -0.855  1.00  0.00    -0.293 NA
ATOM     22  C   UNL     1       3.834   0.077   0.526  1.00  0.00     0.113 C 
ATOM     23  C   UNL     1       4.810   0.414  -1.675  1.00  0.00     0.113 C 
ATOM     24  C   UNL     1       5.288   0.317   0.961  1.00  0.00     0.175 C 
ATOM     25  C   UNL     1       5.779  -0.664  -1.166  1.00  0.00     0.175 C 
ATOM     26  O   UNL     1       6.225  -0.435   0.177  1.00  0.00    -0.379 OA
ENDBRANCH  20  21
ENDBRANCH  17  20
ENDBRANCH  11  12
ENDBRANCH   6  11
TORSDOF 6
