MODEL        9USER    Run = 9USERUSER    Estimated Free Energy of Binding    =  -9.07 kcal/mol  [=(1)+(2)+(3)-(4)]USERUSER    (1) Final Intermolecular Energy     = -11.16 kcal/molUSER        vdW + Hbond + desolv Energy     = -10.59 kcal/molUSER        Electrostatic Energy            =  -0.58 kcal/molUSER        Moving Ligand-Fixed Receptor    = -11.16 kcal/molUSER        Moving Ligand-Moving Receptor   =  +0.00 kcal/molUSER    (2) Final Total Internal Energy     =  -1.60 kcal/molUSER    (3) Torsional Free Energy           =  +2.09 kcal/molUSER    (4) Unbound System's Energy         =  -1.60 kcal/molUSERUSERREMARK SMILES O=c1[nH]c(CN2CCOCC2)ccc1Cc1ccccc1C=NOREMARK SMILES IDX 16 1 17 2 18 3 19 4 20 5 21 6 15 7 14 8 2 9 3 10 4 11 13 12REMARK SMILES IDX 12 13 1 14 5 16 6 17 7 18 11 19 8 20 10 21 9 22 22 23 23 24REMARK SMILES IDX 24 25REMARK H PARENT 3 15 24 26USER                              x       y       z     vdW  Elec       q    TypeUSER                           _______ _______ _______ _____ _____    ______ ____ROOTATOM      1  C   UNL     1      28.791  31.091  22.616 -0.46 +0.00    -0.035 A  ATOM      2  C   UNL     1      29.853  30.979  21.702 -0.50 -0.00    +0.005 A  ATOM      3  C   UNL     1      31.088  30.456  22.091 -0.61 -0.00    +0.000 A  ATOM      4  C   UNL     1      31.286  30.036  23.404 -0.63 +0.00    +0.001 A  ATOM      5  C   UNL     1      30.249  30.140  24.328 -0.50 +0.00    +0.010 A  ATOM      6  C   UNL     1      29.011  30.672  23.941 -0.54 -0.00    -0.000 A  ENDROOTBRANCH   1   7ATOM      7  C   UNL     1      27.492  31.721  22.155 -0.42 -0.03    +0.077 C  BRANCH   7   8ATOM      8  C   UNL     1      27.648  33.157  21.743 -0.41 -0.01    +0.022 A  ATOM      9  C   UNL     1      28.543  34.024  22.570 -0.23 +0.02    +0.251 A  ATOM     10  N   UNL     1      28.669  35.331  22.166 -0.18 +0.03    -0.325 N  ATOM     11  C   UNL     1      28.061  35.871  21.052 -0.29 -0.01    +0.032 A  ATOM     12  C   UNL     1      27.071  33.699  20.655 -0.38 -0.01    +0.011 A  ATOM     13  C   UNL     1      27.268  35.086  20.306 -0.25 -0.02    +0.023 A  ATOM     14  O   UNL     1      29.145  33.602  23.552 -0.30 -0.16    -0.269 OA ATOM     15  H   UNL     1      29.271  35.903  22.744 +0.10 +0.02    +0.170 HD BRANCH  11  16ATOM     16  C   UNL     1      28.286  37.339  20.753 -0.27 -0.02    +0.138 C  BRANCH  16  17ATOM     17  N   UNL     1      29.571  37.614  20.095 -0.17 -0.04    -0.293 NA ATOM     18  C   UNL     1      29.767  39.072  19.939 -0.25 +0.01    +0.113 C  ATOM     19  C   UNL     1      30.737  37.000  20.765 -0.42 +0.02    +0.113 C  ATOM     20  C   UNL     1      31.248  39.435  19.760 -0.34 +0.03    +0.175 C  ATOM     21  C   UNL     1      31.529  37.983  21.641 -0.41 +0.02    +0.175 C  ATOM     22  O   UNL     1      32.032  39.113  20.916 -1.16 -0.16    -0.379 OA ENDBRANCH  16  17ENDBRANCH  11  16ENDBRANCH   7   8ENDBRANCH   1   7BRANCH   6  23ATOM     23  C   UNL     1      27.919  30.700  24.936 -0.46 +0.10    +0.162 C  BRANCH  23  24ATOM     24  N   UNL     1      27.600  31.660  25.753 -0.95 -0.12    -0.097 NA BRANCH  24  25ATOM     25  O   UNL     1      27.018  32.745  25.089 -0.77 -0.67    -0.411 OA ATOM     26  H   UNL     1      27.695  32.972  24.426 +0.24 +0.43    +0.330 HD ENDBRANCH  24  25ENDBRANCH  23  24ENDBRANCH   6  23TORSDOF 7TERENDMDL