REMARK SMILES O=C1NC(=O)C(=Cc2ccc(-c3ccc(NCC4CCOCC4)nc3)cc2)S1
REMARK SMILES IDX 8 1 9 2 10 3 11 4 26 5 27 6 7 7 6 8 2 9 3 10 28 11 4 12 1 13
REMARK SMILES IDX 5 15 12 16 13 17 25 18 14 19 24 20 15 21 16 22 17 24 18 25
REMARK SMILES IDX 19 26 23 27 20 28 22 29 21 30
REMARK H PARENT 3 14 16 23
ROOT
ATOM      1  C   UNL     1       4.646   0.880   0.431  1.00  0.00    -0.024 A 
ATOM      2  C   UNL     1       4.329   0.355  -0.824  1.00  0.00     0.009 A 
ATOM      3  C   UNL     1       3.023  -0.061  -1.108  1.00  0.00     0.009 A 
ATOM      4  C   UNL     1       2.003   0.043  -0.148  1.00  0.00    -0.017 A 
ATOM      5  C   UNL     1       2.334   0.582   1.106  1.00  0.00     0.009 A 
ATOM      6  C   UNL     1       3.639   1.000   1.392  1.00  0.00     0.009 A 
ENDROOT
BRANCH   1   7
ATOM      7  C   UNL     1       6.001   1.340   0.749  1.00  0.00     0.029 C 
BRANCH   7   8
ATOM      8  C   UNL     1       7.098   0.574   0.820  1.00  0.00     0.083 C 
ATOM      9  C   UNL     1       8.956  -1.115   0.910  1.00  0.00     0.290 C 
ATOM     10  N   UNL     1       9.361   0.150   1.185  1.00  0.00    -0.282 N 
ATOM     11  S   UNL     1       7.236  -1.128   0.581  1.00  0.00    -0.022 SA
ATOM     12  C   UNL     1       8.428   1.142   1.166  1.00  0.00     0.265 C 
ATOM     13  O   UNL     1       9.668  -2.105   0.891  1.00  0.00    -0.261 OA
ATOM     14  H   UNL     1      10.324   0.345   1.402  1.00  0.00     0.174 HD
ATOM     15  O   UNL     1       8.656   2.317   1.401  1.00  0.00    -0.268 OA
ENDBRANCH   7   8
ENDBRANCH   1   7
BRANCH   4  16
ATOM     16  C   UNL     1       0.633  -0.397  -0.447  1.00  0.00     0.000 A 
ATOM     17  C   UNL     1      -0.051   0.030  -1.588  1.00  0.00     0.014 A 
ATOM     18  C   UNL     1      -0.062  -1.271   0.385  1.00  0.00     0.122 A 
ATOM     19  C   UNL     1      -1.353  -0.411  -1.833  1.00  0.00     0.047 A 
ATOM     20  N   UNL     1      -1.328  -1.710   0.171  1.00  0.00    -0.239 NA
ATOM     21  C   UNL     1      -1.962  -1.271  -0.930  1.00  0.00     0.125 A 
BRANCH  21  22
ATOM     22  N   UNL     1      -3.249  -1.760  -1.108  1.00  0.00    -0.370 N 
ATOM     23  H   UNL     1      -3.418  -2.359  -0.302  1.00  0.00     0.162 HD
BRANCH  22  24
ATOM     24  C   UNL     1      -4.323  -0.791  -1.330  1.00  0.00     0.118 C 
BRANCH  24  25
ATOM     25  C   UNL     1      -4.610   0.074  -0.081  1.00  0.00     0.013 C 
ATOM     26  C   UNL     1      -5.442   1.306  -0.456  1.00  0.00     0.034 C 
ATOM     27  C   UNL     1      -5.347  -0.719   1.017  1.00  0.00     0.034 C 
ATOM     28  C   UNL     1      -6.857   0.935  -0.897  1.00  0.00     0.160 C 
ATOM     29  C   UNL     1      -6.861  -0.512   0.981  1.00  0.00     0.160 C 
ATOM     30  O   UNL     1      -7.300  -0.310  -0.357  1.00  0.00    -0.381 OA
ENDBRANCH  24  25
ENDBRANCH  22  24
ENDBRANCH  21  22
ENDBRANCH   4  16
TORSDOF 6
