MODEL        10USER    Run = 10USERUSER    Estimated Free Energy of Binding    =  -9.94 kcal/mol  [=(1)+(2)+(3)-(4)]USERUSER    (1) Final Intermolecular Energy     = -12.03 kcal/molUSER        vdW + Hbond + desolv Energy     = -11.97 kcal/molUSER        Electrostatic Energy            =  -0.06 kcal/molUSER        Moving Ligand-Fixed Receptor    = -12.03 kcal/molUSER        Moving Ligand-Moving Receptor   =  +0.00 kcal/molUSER    (2) Final Total Internal Energy     =  -1.11 kcal/molUSER    (3) Torsional Free Energy           =  +2.09 kcal/molUSER    (4) Unbound System's Energy         =  -1.11 kcal/molUSERUSERREMARK SMILES Cc1nc(NCC2CCOCC2)ccc1-c1ccc(C=C2SC(=O)NC2=O)cc1OREMARK SMILES IDX 1 1 2 2 3 3 4 4 13 5 14 6 15 7 16 8 17 9 29 10 18 11 28 12REMARK SMILES IDX 19 13 30 14 20 16 21 17 22 18 26 19 23 20 25 21 27 22 24 23REMARK SMILES IDX 5 25 6 27 7 28 8 29 12 30 9 31 11 32 10 33REMARK H PARENT 30 15 25 24 5 26USER                              x       y       z     vdW  Elec       q    TypeUSER                           _______ _______ _______ _____ _____    ______ ____ROOTATOM      1  C   UNL     1      39.737  44.326  19.708 -0.31 -0.00    +0.067 C  ATOM      2  C   UNL     1      38.425  44.663  19.058 -0.35 -0.00    +0.048 A  ATOM      3  N   UNL     1      38.514  45.230  17.823 -0.24 +0.04    -0.236 NA ATOM      4  C   UNL     1      37.378  45.564  17.187 -0.28 -0.04    +0.126 A  ATOM      5  C   UNL     1      36.126  45.324  17.732 -0.31 -0.02    +0.047 A  ATOM      6  C   UNL     1      36.040  44.738  18.991 -0.33 -0.00    +0.014 A  ATOM      7  C   UNL     1      37.202  44.394  19.691 -0.36 -0.00    +0.007 A  ENDROOTBRANCH   7   8ATOM      8  C   UNL     1      37.100  43.760  21.013 -0.39 +0.00    +0.025 A  ATOM      9  C   UNL     1      36.481  42.507  21.139 -0.47 +0.00    +0.013 A  ATOM     10  C   UNL     1      37.597  44.369  22.176 -0.29 +0.01    +0.124 A  ATOM     11  C   UNL     1      36.364  41.883  22.385 -0.50 +0.00    +0.009 A  ATOM     12  C   UNL     1      37.486  43.751  23.425 -0.31 +0.01    +0.055 A  ATOM     13  C   UNL     1      36.857  42.506  23.535 -0.41 -0.00    -0.021 A  BRANCH  10  14ATOM     14  O   UNL     1      38.203  45.593  22.078 -0.10 -0.05    -0.507 OA ATOM     15  H   UNL     1      39.046  45.574  22.561 +0.15 +0.02    +0.293 HD ENDBRANCH  10  14BRANCH  13  16ATOM     16  C   UNL     1      36.737  41.818  24.826 -0.40 -0.00    +0.029 C  BRANCH  16  17ATOM     17  C   UNL     1      36.239  42.335  25.957 -0.44 -0.01    +0.083 C  ATOM     18  S   UNL     1      35.993  43.993  26.362 -0.54 +0.00    -0.022 SA ATOM     19  C   UNL     1      35.780  41.472  27.077 -0.44 -0.09    +0.265 C  ATOM     20  C   UNL     1      35.320  43.593  27.930 -0.38 -0.08    +0.290 C  ATOM     21  N   UNL     1      35.301  42.246  28.091 -0.28 +0.12    -0.282 N  ATOM     22  O   UNL     1      35.824  40.253  27.093 -0.38 +0.13    -0.268 OA ATOM     23  O   UNL     1      34.938  44.416  28.744 -0.50 +0.07    -0.261 OA ATOM     24  H   UNL     1      34.946  41.835  28.938 -0.31 -0.12    +0.174 HD ENDBRANCH  16  17ENDBRANCH  13  16ENDBRANCH   7   8BRANCH   4  25ATOM     25  N   UNL     1      37.545  46.137  15.923 -0.11 +0.16    -0.370 N  ATOM     26  H   UNL     1      36.795  45.693  15.388 +0.12 -0.08    +0.162 HD BRANCH  25  27ATOM     27  C   UNL     1      38.850  45.860  15.325 -0.34 -0.03    +0.118 C  BRANCH  27  28ATOM     28  C   UNL     1      39.832  47.016  15.570 -0.54 -0.00    +0.013 C  ATOM     29  C   UNL     1      40.688  46.805  16.832 -0.51 -0.00    +0.034 C  ATOM     30  C   UNL     1      39.163  48.392  15.612 -0.56 -0.02    +0.034 C  ATOM     31  C   UNL     1      41.193  48.125  17.408 -0.42 -0.01    +0.160 C  ATOM     32  C   UNL     1      40.211  49.499  15.744 -0.49 -0.06    +0.160 C  ATOM     33  O   UNL     1      41.423  49.062  16.362 -0.93 -0.00    -0.381 OA ENDBRANCH  27  28ENDBRANCH  25  27ENDBRANCH   4  25TORSDOF 7TERENDMDL