MODEL        2USER    Run = 2USERUSER    Estimated Free Energy of Binding    =  -8.35 kcal/mol  [=(1)+(2)+(3)-(4)]USERUSER    (1) Final Intermolecular Energy     = -10.73 kcal/molUSER        vdW + Hbond + desolv Energy     = -10.54 kcal/molUSER        Electrostatic Energy            =  -0.19 kcal/molUSER        Moving Ligand-Fixed Receptor    = -10.73 kcal/molUSER        Moving Ligand-Moving Receptor   =  +0.00 kcal/molUSER    (2) Final Total Internal Energy     =  -3.16 kcal/molUSER    (3) Torsional Free Energy           =  +2.39 kcal/molUSER    (4) Unbound System's Energy         =  -3.16 kcal/molUSERUSERREMARK SMILES N[C@@H](CCc1cc(F)n[nH]1)COC(=O)c1ccc2ccccc2c1REMARK SMILES IDX 2 1 1 2 3 5 4 6 5 7 6 8 10 9 7 10 9 11 8 13 11 14 12 15REMARK SMILES IDX 13 16 14 17 15 18 16 19 24 20 17 21 23 22 18 23 22 24 19 25REMARK SMILES IDX 21 26 20 27REMARK H PARENT 1 3 1 4 10 12USER                              x       y       z     vdW  Elec       q    TypeUSER                           _______ _______ _______ _____ _____    ______ ____ROOTATOM      1  C   UNL     1      41.967  45.898  18.763 -0.36 +0.01    +0.089 C  ENDROOTBRANCH   1   2ATOM      2  N   UNL     1      42.515  47.265  18.756 -0.34 -0.02    -0.325 NA ATOM      3  H   UNL     1      41.736  47.933  18.782 +0.04 -0.00    +0.119 HD ATOM      4  H   UNL     1      42.943  47.439  17.845 -0.50 -0.02    +0.119 HD ENDBRANCH   1   2BRANCH   1   5ATOM      5  C   UNL     1      41.750  45.441  20.215 -0.39 +0.00    +0.028 C  BRANCH   5   6ATOM      6  C   UNL     1      41.807  46.599  21.218 -0.30 +0.01    +0.057 C  BRANCH   6   7ATOM      7  C   UNL     1      43.182  46.771  21.765 -0.31 +0.01    +0.038 A  ATOM      8  C   UNL     1      43.751  46.422  22.971 -0.17 +0.03    +0.085 A  ATOM      9  N   UNL     1      44.184  47.371  21.045 -0.17 -0.15    -0.280 N  ATOM     10  C   UNL     1      45.079  46.863  22.872 -0.14 +0.12    +0.232 A  ATOM     11  N   UNL     1      45.352  47.443  21.705 -0.79 -0.14    -0.145 NA ATOM     12  H   UNL     1      44.136  47.751  20.105 -0.44 +0.06    +0.190 HD ATOM     13  F   UNL     1      45.984  46.719  23.848 -0.02 -0.06    -0.183 F  ENDBRANCH   6   7ENDBRANCH   5   6ENDBRANCH   1   5BRANCH   1  14ATOM     14  C   UNL     1      40.646  45.788  17.971 -0.36 -0.01    +0.251 C  BRANCH  14  15ATOM     15  O   UNL     1      39.998  47.069  17.867 -0.21 +0.08    -0.460 OA BRANCH  15  16ATOM     16  C   UNL     1      40.352  47.827  16.800 -0.31 -0.07    +0.338 C  ATOM     17  O   UNL     1      41.397  48.448  16.680 -0.88 +0.01    -0.246 OA BRANCH  16  18ATOM     18  C   UNL     1      39.298  47.785  15.750 -0.46 -0.02    +0.060 A  ATOM     19  C   UNL     1      38.603  48.927  15.337 -0.43 -0.01    +0.016 A  ATOM     20  C   UNL     1      38.999  46.546  15.164 -0.42 -0.01    +0.024 A  ATOM     21  C   UNL     1      37.618  48.830  14.350 -0.47 -0.01    +0.009 A  ATOM     22  C   UNL     1      38.012  46.436  14.172 -0.43 +0.01    -0.018 A  ATOM     23  C   UNL     1      37.311  47.594  13.760 -0.53 +0.01    -0.018 A  ATOM     24  C   UNL     1      37.703  45.200  13.581 -0.36 -0.00    +0.009 A  ATOM     25  C   UNL     1      36.323  47.481  12.769 -0.66 -0.00    +0.009 A  ATOM     26  C   UNL     1      36.718  45.106  12.598 -0.51 -0.00    +0.001 A  ATOM     27  C   UNL     1      36.029  46.245  12.192 -0.63 -0.00    +0.001 A  ENDBRANCH  16  18ENDBRANCH  15  16ENDBRANCH  14  15ENDBRANCH   1  14TORSDOF 8TERENDMDL