REMARK SMILES N[C@@H](CCc1cc(F)n[nH]1)COC(=O)c1ccc2ccccc2c1
REMARK SMILES IDX 2 1 1 2 3 5 4 6 5 7 6 8 10 9 7 10 9 11 8 13 11 14 12 15
REMARK SMILES IDX 13 16 14 17 15 18 16 19 24 20 17 21 23 22 18 23 22 24 19 25
REMARK SMILES IDX 21 26 20 27
REMARK H PARENT 1 3 1 4 10 12
ROOT
ATOM      1  C   UNL     1      -1.871  -0.254  -0.638  1.00  0.00     0.089 C 
ENDROOT
BRANCH   1   2
ATOM      2  N   UNL     1      -1.412  -1.388   0.182  1.00  0.00    -0.325 NA
ATOM      3  H   UNL     1      -1.403  -1.101   1.167  1.00  0.00     0.119 HD
ATOM      4  H   UNL     1      -0.426  -1.560  -0.022  1.00  0.00     0.119 HD
ENDBRANCH   1   2
BRANCH   1   5
ATOM      5  C   UNL     1      -3.401  -0.142  -0.547  1.00  0.00     0.028 C 
BRANCH   5   6
ATOM      6  C   UNL     1      -4.123  -1.361  -1.134  1.00  0.00     0.057 C 
BRANCH   6   7
ATOM      7  C   UNL     1      -5.600  -1.238  -0.980  1.00  0.00     0.038 A 
ATOM      8  C   UNL     1      -6.560  -0.589  -1.726  1.00  0.00     0.085 A 
ATOM      9  N   UNL     1      -6.278  -1.835   0.053  1.00  0.00    -0.280 N 
ATOM     10  C   UNL     1      -7.763  -0.851  -1.054  1.00  0.00     0.232 A 
ATOM     11  N   UNL     1      -7.602  -1.607   0.031  1.00  0.00    -0.145 NA
ATOM     12  H   UNL     1      -5.899  -2.407   0.801  1.00  0.00     0.190 HD
ATOM     13  F   UNL     1      -8.954  -0.390  -1.456  1.00  0.00    -0.183 F 
ENDBRANCH   6   7
ENDBRANCH   5   6
ENDBRANCH   1   5
BRANCH   1  14
ATOM     14  C   UNL     1      -1.217   1.080  -0.217  1.00  0.00     0.251 C 
BRANCH  14  15
ATOM     15  O   UNL     1       0.213   1.028  -0.377  1.00  0.00    -0.460 OA
BRANCH  15  16
ATOM     16  C   UNL     1       0.923   0.725   0.738  1.00  0.00     0.338 C 
ATOM     17  O   UNL     1       0.453   0.448   1.831  1.00  0.00    -0.246 OA
BRANCH  16  18
ATOM     18  C   UNL     1       2.384   0.742   0.454  1.00  0.00     0.060 A 
ATOM     19  C   UNL     1       2.901   1.077  -0.802  1.00  0.00     0.016 A 
ATOM     20  C   UNL     1       3.262   0.404   1.494  1.00  0.00     0.024 A 
ATOM     21  C   UNL     1       4.282   1.072  -1.016  1.00  0.00     0.009 A 
ATOM     22  C   UNL     1       4.651   0.395   1.291  1.00  0.00    -0.018 A 
ATOM     23  C   UNL     1       5.168   0.733   0.019  1.00  0.00    -0.018 A 
ATOM     24  C   UNL     1       5.539   0.055   2.325  1.00  0.00     0.009 A 
ATOM     25  C   UNL     1       6.558   0.722  -0.182  1.00  0.00     0.009 A 
ATOM     26  C   UNL     1       6.917   0.049   2.108  1.00  0.00     0.001 A 
ATOM     27  C   UNL     1       7.426   0.382   0.857  1.00  0.00     0.001 A 
ENDBRANCH  16  18
ENDBRANCH  15  16
ENDBRANCH  14  15
ENDBRANCH   1  14
TORSDOF 8
