REMARK SMILES N[C@@H](CCc1ccn[nH]1)COC(=O)c1ccc2ccccc2c1
REMARK SMILES IDX 2 1 1 2 3 5 4 6 5 7 6 8 9 9 7 10 8 11 10 13 11 14 12 15
REMARK SMILES IDX 13 16 14 17 15 18 23 19 16 20 22 21 17 22 21 23 18 24 20 25
REMARK SMILES IDX 19 26
REMARK H PARENT 1 3 1 4 9 12
ROOT
ATOM      1  C   UNL     1      -2.009  -0.496   0.425  1.00  0.00     0.089 C 
ENDROOT
BRANCH   1   2
ATOM      2  N   UNL     1      -1.901   0.859  -0.158  1.00  0.00    -0.325 NA
ATOM      3  H   UNL     1      -1.972   1.538   0.606  1.00  0.00     0.119 HD
ATOM      4  H   UNL     1      -0.942   0.974  -0.502  1.00  0.00     0.119 HD
ENDBRANCH   1   2
BRANCH   1   5
ATOM      5  C   UNL     1      -3.469  -0.980   0.518  1.00  0.00     0.028 C 
BRANCH   5   6
ATOM      6  C   UNL     1      -4.409  -0.053   1.301  1.00  0.00     0.057 C 
BRANCH   6   7
ATOM      7  C   UNL     1      -5.171   0.902   0.444  1.00  0.00     0.035 A 
ATOM      8  C   UNL     1      -6.488   1.308   0.473  1.00  0.00     0.045 A 
ATOM      9  N   UNL     1      -4.601   1.590  -0.597  1.00  0.00    -0.283 N 
ATOM     10  C   UNL     1      -6.606   2.232  -0.581  1.00  0.00     0.135 A 
ATOM     11  N   UNL     1      -5.456   2.408  -1.234  1.00  0.00    -0.184 NA
ATOM     12  H   UNL     1      -3.632   1.534  -0.911  1.00  0.00     0.190 HD
ENDBRANCH   6   7
ENDBRANCH   5   6
ENDBRANCH   1   5
BRANCH   1  13
ATOM     13  C   UNL     1      -1.178  -1.500  -0.406  1.00  0.00     0.251 C 
BRANCH  13  14
ATOM     14  O   UNL     1       0.206  -1.101  -0.456  1.00  0.00    -0.460 OA
BRANCH  14  15
ATOM     15  C   UNL     1       0.949  -1.443   0.625  1.00  0.00     0.338 C 
ATOM     16  O   UNL     1       0.535  -2.020   1.618  1.00  0.00    -0.246 OA
BRANCH  15  17
ATOM     17  C   UNL     1       2.359  -1.000   0.458  1.00  0.00     0.060 A 
ATOM     18  C   UNL     1       3.247  -1.211   1.518  1.00  0.00     0.016 A 
ATOM     19  C   UNL     1       2.820  -0.384  -0.715  1.00  0.00     0.024 A 
ATOM     20  C   UNL     1       4.580  -0.809   1.412  1.00  0.00     0.009 A 
ATOM     21  C   UNL     1       4.159   0.025  -0.834  1.00  0.00    -0.018 A 
ATOM     22  C   UNL     1       5.050  -0.190   0.244  1.00  0.00    -0.018 A 
ATOM     23  C   UNL     1       4.633   0.643  -2.002  1.00  0.00     0.009 A 
ATOM     24  C   UNL     1       6.387   0.220   0.122  1.00  0.00     0.009 A 
ATOM     25  C   UNL     1       5.966   1.045  -2.107  1.00  0.00     0.001 A 
ATOM     26  C   UNL     1       6.841   0.834  -1.046  1.00  0.00     0.001 A 
ENDBRANCH  15  17
ENDBRANCH  14  15
ENDBRANCH  13  14
ENDBRANCH   1  13
TORSDOF 8
