MODEL        6USER    Run = 6USERUSER    Estimated Free Energy of Binding    =  -8.83 kcal/mol  [=(1)+(2)+(3)-(4)]USERUSER    (1) Final Intermolecular Energy     = -11.22 kcal/molUSER        vdW + Hbond + desolv Energy     = -11.04 kcal/molUSER        Electrostatic Energy            =  -0.18 kcal/molUSER        Moving Ligand-Fixed Receptor    = -11.22 kcal/molUSER        Moving Ligand-Moving Receptor   =  +0.00 kcal/molUSER    (2) Final Total Internal Energy     =  -1.86 kcal/molUSER    (3) Torsional Free Energy           =  +2.39 kcal/molUSER    (4) Unbound System's Energy         =  -1.86 kcal/molUSERUSERREMARK SMILES N[C@@H](CCc1cn[nH]c1)COC(=O)c1ccc2ccccc2c1REMARK SMILES IDX 2 1 1 2 3 5 4 6 5 7 6 8 9 9 7 10 8 11 10 13 11 14 12 15REMARK SMILES IDX 13 16 14 17 15 18 23 19 16 20 22 21 17 22 21 23 18 24 20 25REMARK SMILES IDX 19 26REMARK H PARENT 1 3 1 4 8 12USER                              x       y       z     vdW  Elec       q    TypeUSER                           _______ _______ _______ _____ _____    ______ ____ROOTATOM      1  C   UNL     1      34.220  46.088  17.643 -0.41 -0.08    +0.089 C  ENDROOTBRANCH   1   2ATOM      2  N   UNL     1      33.924  47.053  18.714 -0.91 +0.24    -0.325 NA ATOM      3  H   UNL     1      34.045  46.630  19.632 -0.50 -0.07    +0.119 HD ATOM      4  H   UNL     1      32.946  47.351  18.653 -0.47 -0.11    +0.119 HD ENDBRANCH   1   2BRANCH   1   5ATOM      5  C   UNL     1      35.469  46.550  16.872 -0.36 -0.03    +0.027 C  BRANCH   5   6ATOM      6  C   UNL     1      35.506  46.054  15.422 -0.39 -0.03    +0.040 C  BRANCH   6   7ATOM      7  C   UNL     1      36.347  46.924  14.553 -0.42 +0.01    -0.010 A  ATOM      8  C   UNL     1      36.549  46.821  13.157 -0.48 -0.07    +0.138 A  ATOM      9  C   UNL     1      37.106  48.015  14.918 -0.40 -0.08    +0.108 A  ATOM     10  N   UNL     1      37.366  47.764  12.685 -1.03 +0.04    -0.184 NA ATOM     11  N   UNL     1      37.691  48.478  13.774 -0.33 +0.12    -0.285 N  ATOM     12  H   UNL     1      38.317  49.268  13.663 -0.34 -0.10    +0.189 HD ENDBRANCH   6   7ENDBRANCH   5   6ENDBRANCH   1   5BRANCH   1  13ATOM     13  C   UNL     1      34.372  44.650  18.195 -0.24 -0.09    +0.251 C  BRANCH  13  14ATOM     14  O   UNL     1      34.942  44.659  19.516 -0.15 +0.11    -0.460 OA BRANCH  14  15ATOM     15  C   UNL     1      35.917  43.741  19.738 -0.22 -0.03    +0.338 C  ATOM     16  O   UNL     1      35.746  42.557  19.988 -0.32 +0.01    -0.246 OA BRANCH  15  17ATOM     17  C   UNL     1      37.261  44.376  19.654 -0.33 -0.01    +0.060 A  ATOM     18  C   UNL     1      38.163  44.368  20.723 -0.36 +0.00    +0.016 A  ATOM     19  C   UNL     1      37.621  45.004  18.452 -0.35 -0.00    +0.024 A  ATOM     20  C   UNL     1      39.413  44.978  20.591 -0.36 +0.00    +0.009 A  ATOM     21  C   UNL     1      38.875  45.619  18.308 -0.40 +0.00    -0.018 A  ATOM     22  C   UNL     1      39.783  45.606  19.391 -0.40 +0.00    -0.018 A  ATOM     23  C   UNL     1      39.245  46.249  17.109 -0.43 -0.00    +0.009 A  ATOM     24  C   UNL     1      41.036  46.222  19.244 -0.45 +0.00    +0.009 A  ATOM     25  C   UNL     1      40.496  46.857  16.979 -0.50 -0.00    +0.001 A  ATOM     26  C   UNL     1      41.390  46.844  18.045 -0.51 -0.00    +0.001 A  ENDBRANCH  15  17ENDBRANCH  14  15ENDBRANCH  13  14ENDBRANCH   1  13TORSDOF 8TERENDMDL