MODEL        2USER    Run = 2USERUSER    Estimated Free Energy of Binding    =  -8.21 kcal/mol  [=(1)+(2)+(3)-(4)]USERUSER    (1) Final Intermolecular Energy     = -10.59 kcal/molUSER        vdW + Hbond + desolv Energy     = -10.32 kcal/molUSER        Electrostatic Energy            =  -0.27 kcal/molUSER        Moving Ligand-Fixed Receptor    = -10.59 kcal/molUSER        Moving Ligand-Moving Receptor   =  +0.00 kcal/molUSER    (2) Final Total Internal Energy     =  -3.10 kcal/molUSER    (3) Torsional Free Energy           =  +2.39 kcal/molUSER    (4) Unbound System's Energy         =  -3.10 kcal/molUSERUSERREMARK SMILES N[C@@H](CCc1ccn[nH]1)COC(=O)c1ccc2ccccc2c1REMARK SMILES IDX 2 1 1 2 3 5 4 6 5 7 6 8 9 9 7 10 8 11 10 13 11 14 12 15REMARK SMILES IDX 13 16 14 17 15 18 23 19 16 20 22 21 17 22 21 23 18 24 20 25REMARK SMILES IDX 19 26REMARK H PARENT 1 3 1 4 9 12USER                              x       y       z     vdW  Elec       q    TypeUSER                           _______ _______ _______ _____ _____    ______ ____ROOTATOM      1  C   UNL     1      41.763  45.838  19.057 -0.42 +0.01    +0.089 C  ENDROOTBRANCH   1   2ATOM      2  N   UNL     1      42.561  47.060  18.816 -0.32 -0.03    -0.325 NA ATOM      3  H   UNL     1      42.825  47.074  17.827 -0.51 -0.02    +0.119 HD ATOM      4  H   UNL     1      41.934  47.865  18.916 +0.04 -0.00    +0.119 HD ENDBRANCH   1   2BRANCH   1   5ATOM      5  C   UNL     1      41.588  45.537  20.558 -0.39 +0.00    +0.028 C  BRANCH   5   6ATOM      6  C   UNL     1      41.863  46.724  21.492 -0.24 +0.01    +0.057 C  BRANCH   6   7ATOM      7  C   UNL     1      43.288  46.844  21.918 -0.31 +0.01    +0.035 A  ATOM      8  C   UNL     1      43.926  46.491  23.087 -0.18 +0.01    +0.045 A  ATOM      9  N   UNL     1      44.267  47.368  21.112 -0.17 -0.17    -0.283 N  ATOM     10  C   UNL     1      45.274  46.841  22.885 -0.16 +0.08    +0.135 A  ATOM     11  N   UNL     1      45.485  47.374  21.680 -0.77 -0.21    -0.184 NA ATOM     12  H   UNL     1      44.152  47.734  20.167 -0.42 +0.06    +0.190 HD ENDBRANCH   6   7ENDBRANCH   5   6ENDBRANCH   1   5BRANCH   1  13ATOM     13  C   UNL     1      40.376  45.968  18.386 -0.36 -0.01    +0.251 C  BRANCH  13  14ATOM     14  O   UNL     1      40.062  47.350  18.124 -0.15 +0.07    -0.460 OA BRANCH  14  15ATOM     15  C   UNL     1      40.526  47.839  16.948 -0.30 -0.06    +0.338 C  ATOM     16  O   UNL     1      41.513  48.544  16.811 -0.92 -0.00    -0.246 OA BRANCH  15  17ATOM     17  C   UNL     1      39.652  47.419  15.820 -0.46 -0.02    +0.060 A  ATOM     18  C   UNL     1      39.821  46.132  15.298 -0.36 -0.00    +0.016 A  ATOM     19  C   UNL     1      38.676  48.263  15.270 -0.51 -0.01    +0.024 A  ATOM     20  C   UNL     1      39.029  45.692  14.236 -0.27 -0.00    +0.009 A  ATOM     21  C   UNL     1      37.872  47.831  14.201 -0.52 +0.01    -0.018 A  ATOM     22  C   UNL     1      38.051  46.529  13.678 -0.42 +0.01    -0.018 A  ATOM     23  C   UNL     1      36.891  48.666  13.642 -0.48 -0.00    +0.009 A  ATOM     24  C   UNL     1      37.246  46.102  12.610 -0.51 -0.00    +0.009 A  ATOM     25  C   UNL     1      36.099  48.225  12.580 -0.48 -0.00    +0.001 A  ATOM     26  C   UNL     1      36.277  46.945  12.065 -0.69 -0.00    +0.001 A  ENDBRANCH  15  17ENDBRANCH  14  15ENDBRANCH  13  14ENDBRANCH   1  13TORSDOF 8TERENDMDL