MODEL        9USER    Run = 9USERUSER    Estimated Free Energy of Binding    =  -7.44 kcal/mol  [=(1)+(2)+(3)-(4)]USERUSER    (1) Final Intermolecular Energy     = -11.62 kcal/molUSER        vdW + Hbond + desolv Energy     = -11.46 kcal/molUSER        Electrostatic Energy            =  -0.29 kcal/molUSER        Moving Ligand-Fixed Receptor    = -11.76 kcal/molUSER        Moving Ligand-Moving Receptor   =  +0.14 kcal/molUSER    (2) Final Total Internal Energy     =  -3.28 kcal/molUSER    (3) Torsional Free Energy           =  +4.18 kcal/molUSER    (4) Unbound System's Energy         =  -3.28 kcal/molUSERUSERREMARK SMILES COc1ccc(O)c(C(=O)c2ccc(C(=O)N[C@@H]3CCCNC[C@H]3NC(=O)c3ccnc(F)c3)cc2)c1FREMARK SMILES IDX 15 1 16 2 17 3 14 5 11 6 12 7 36 8 13 9 35 10 9 11 10 12REMARK SMILES IDX 8 13 3 14 4 15 37 16 5 17 6 18 38 19 2 20 1 21 7 22 18 24REMARK SMILES IDX 19 25 24 27 23 28 22 29 21 31 20 32 25 34 26 35 27 37 28 38REMARK SMILES IDX 29 39 34 40 30 41 32 42 31 43 33 44REMARK H PARENT 17 4 7 23 22 30 25 36REMARK Flexibility Score:   88.900USER                              x       y       z     vdW  Elec       q    TypeUSER                           _______ _______ _______ _____ _____    ______ ____ROOTATOM      1  C   UNL     1      39.733  43.374  23.874 -0.14 +0.01    +0.251 C  ATOM      2  O   UNL     1      40.585  42.764  24.509 -0.15 -0.00    -0.269 OA ATOM      3  N   UNL     1      38.398  43.415  24.227 -0.08 -0.02    -0.347 N  ATOM      4  H   UNL     1      37.801  44.096  23.772 +0.09 +0.01    +0.164 HD ENDROOTBRANCH   1   5ATOM      5  C   UNL     1      40.130  44.136  22.656 -0.22 +0.00    +0.039 A  ATOM      6  C   UNL     1      40.930  45.453  20.302 -0.37 +0.00    +0.023 A  ATOM      7  C   UNL     1      39.759  45.837  20.969 -0.23 +0.00    +0.013 A  ATOM      8  C   UNL     1      41.685  44.385  20.802 -0.31 +0.00    +0.013 A  ATOM      9  C   UNL     1      39.357  45.185  22.139 -0.30 +0.00    +0.014 A  ATOM     10  C   UNL     1      41.288  43.737  21.976 -0.31 +0.00    +0.014 A  BRANCH   6  11ATOM     11  C   UNL     1      41.271  46.138  19.028 -0.40 +0.01    +0.199 C  ATOM     12  O   UNL     1      42.440  46.470  18.821 -0.35 -0.04    -0.288 OA BRANCH  11  13ATOM     13  C   UNL     1      40.268  46.523  18.016 -0.41 -0.01    +0.104 A  ATOM     14  C   UNL     1      38.143  46.184  16.874 -0.29 -0.05    +0.155 A  ATOM     15  C   UNL     1      38.365  47.344  16.128 -0.39 -0.03    +0.053 A  ATOM     16  C   UNL     1      39.108  45.777  17.804 -0.30 -0.03    +0.179 A  ATOM     17  C   UNL     1      39.546  48.074  16.295 -0.44 -0.02    +0.051 A  ATOM     18  C   UNL     1      40.496  47.656  17.222 -0.40 -0.02    +0.130 A  ATOM     19  F   UNL     1      38.906  44.639  18.490 -0.10 +0.02    -0.202 F  BRANCH  14  20ATOM     20  O   UNL     1      37.037  45.379  16.782 -0.05 +0.19    -0.494 OA ATOM     21  C   UNL     1      35.913  45.897  16.082 -0.22 -0.20    +0.278 C  ENDBRANCH  14  20BRANCH  18  22ATOM     22  O   UNL     1      41.637  48.409  17.306 -0.57 -0.00    -0.507 OA ATOM     23  H   UNL     1      42.406  47.794  17.338 -0.31 -0.03    +0.293 HD ENDBRANCH  18  22ENDBRANCH  11  13ENDBRANCH   6  11ENDBRANCH   1   5BRANCH   3  24ATOM     24  C   UNL     1      37.892  42.737  25.432 -0.29 -0.00    +0.106 C  BRANCH  24  25ATOM     25  C   UNL     1      36.743  41.761  25.092 -0.38 -0.00    +0.028 CG0ATOM     26  G   UNL     1      35.548  41.835  26.042 +0.00 +0.00    +0.000 G0 ENDBRANCH  24  25BRANCH  24  27ATOM     27  C   UNL     1      37.534  43.753  26.549 -0.27 -0.01    +0.118 C  BRANCH  27  28ATOM     28  C   UNL     1      37.591  43.168  27.978 -0.31 -0.02    +0.108 C  BRANCH  28  29ATOM     29  N   UNL     1      37.199  41.752  28.010 -0.20 +0.10    -0.315 NA ATOM     30  H   UNL     1      37.242  41.415  28.974 -0.49 -0.06    +0.122 HD BRANCH  29  31ATOM     31  C   UNL     1      35.856  41.484  27.500 -0.61 -0.03    +0.081 C  BRANCH  31  32ATOM     32  C   UNL     1      35.549  41.836  26.042 -0.43 -0.00    +0.017 CG0ATOM     33  G   UNL     1      36.744  41.762  25.092 +0.00 +0.00    +0.000 G0 ENDBRANCH  31  32ENDBRANCH  29  31ENDBRANCH  28  29ENDBRANCH  27  28BRANCH  27  34ATOM     34  N   UNL     1      38.406  44.933  26.490 -0.07 +0.01    -0.346 N  ATOM     35  C   UNL     1      38.223  45.944  25.579 -0.19 +0.01    +0.251 C  ATOM     36  H   UNL     1      39.196  44.889  27.119 +0.05 -0.00    +0.164 HD ATOM     37  O   UNL     1      37.254  45.985  24.831 -0.72 -0.06    -0.269 OA BRANCH  35  38ATOM     38  C   UNL     1      39.237  47.034  25.545 -0.21 +0.00    +0.045 A  ATOM     39  C   UNL     1      39.213  48.127  26.414 -0.24 +0.00    +0.034 A  ATOM     40  C   UNL     1      40.260  46.940  24.600 -0.18 +0.01    +0.074 A  ATOM     41  C   UNL     1      40.208  49.082  26.286 -0.19 +0.02    +0.115 A  ATOM     42  C   UNL     1      41.201  47.946  24.555 -0.18 +0.03    +0.213 A  ATOM     43  N   UNL     1      41.197  49.019  25.372 -0.23 -0.04    -0.228 NA ATOM     44  F   UNL     1      42.180  47.868  23.643 -0.08 -0.03    -0.185 F  ENDBRANCH  35  38ENDBRANCH  27  34ENDBRANCH  24  27ENDBRANCH   3  24TORSDOF 8TERENDMDL