MODEL        7USER    Run = 7USERUSER    Estimated Free Energy of Binding    =  -7.81 kcal/mol  [=(1)+(2)+(3)-(4)]USERUSER    (1) Final Intermolecular Energy     = -11.99 kcal/molUSER        vdW + Hbond + desolv Energy     = -11.94 kcal/molUSER        Electrostatic Energy            =  -0.23 kcal/molUSER        Moving Ligand-Fixed Receptor    = -12.17 kcal/molUSER        Moving Ligand-Moving Receptor   =  +0.18 kcal/molUSER    (2) Final Total Internal Energy     =  -2.88 kcal/molUSER    (3) Torsional Free Energy           =  +4.18 kcal/molUSER    (4) Unbound System's Energy         =  -2.88 kcal/molUSERUSERREMARK SMILES COc1ccc(O)c(C(=O)c2ccc(C(=O)N[C@@H]3CCCN(C)C[C@H]3NC(=O)c3ccncc3)cc2)c1FREMARK SMILES IDX 15 1 16 2 17 3 14 5 11 6 12 7 36 8 13 9 35 10 9 11 10 12REMARK SMILES IDX 8 13 3 14 4 15 37 16 5 17 6 18 38 19 2 20 1 21 7 22 18 24REMARK SMILES IDX 19 25 25 27 24 28 22 29 23 30 21 31 20 32 26 34 27 35 28 37REMARK SMILES IDX 29 38 30 39 34 40 31 41 33 42 32 43REMARK H PARENT 17 4 7 23 26 36REMARK Flexibility Score:   88.900USER                              x       y       z     vdW  Elec       q    TypeUSER                           _______ _______ _______ _____ _____    ______ ____ROOTATOM      1  C   UNL     1      39.213  43.661  23.378 -0.16 +0.01    +0.251 C  ATOM      2  O   UNL     1      39.919  42.826  23.932 -0.16 -0.02    -0.269 OA ATOM      3  N   UNL     1      38.051  44.164  23.927 -0.11 -0.02    -0.347 N  ATOM      4  H   UNL     1      37.583  44.934  23.468 +0.07 +0.02    +0.164 HD ENDROOTBRANCH   1   5ATOM      5  C   UNL     1      39.608  44.211  22.054 -0.25 +0.00    +0.039 A  ATOM      6  C   UNL     1      40.434  45.277  19.598 -0.41 +0.00    +0.023 A  ATOM      7  C   UNL     1      41.201  45.498  20.747 -0.34 +0.00    +0.013 A  ATOM      8  C   UNL     1      39.277  44.491  19.669 -0.35 -0.00    +0.013 A  ATOM      9  C   UNL     1      40.786  44.966  21.971 -0.25 +0.00    +0.014 A  ATOM     10  C   UNL     1      38.862  43.961  20.895 -0.23 +0.00    +0.014 A  BRANCH   6  11ATOM     11  C   UNL     1      40.854  45.792  18.274 -0.40 -0.00    +0.199 C  ATOM     12  O   UNL     1      42.019  45.620  17.914 -0.21 -0.01    -0.288 OA BRANCH  11  13ATOM     13  C   UNL     1      39.954  46.550  17.378 -0.40 -0.02    +0.104 A  ATOM     14  C   UNL     1      37.868  46.780  16.135 -0.29 -0.07    +0.155 A  ATOM     15  C   UNL     1      38.279  48.035  15.681 -0.43 -0.03    +0.053 A  ATOM     16  C   UNL     1      38.716  46.045  16.978 -0.29 -0.05    +0.179 A  ATOM     17  C   UNL     1      39.530  48.536  16.050 -0.45 -0.02    +0.051 A  ATOM     18  C   UNL     1      40.366  47.792  16.880 -0.41 -0.03    +0.130 A  ATOM     19  F   UNL     1      38.326  44.823  17.376 -0.08 +0.04    -0.202 F  BRANCH  14  20ATOM     20  O   UNL     1      36.677  46.178  15.829 -0.06 +0.30    -0.494 OA ATOM     21  C   UNL     1      35.596  46.372  16.731 -0.21 -0.26    +0.278 C  ENDBRANCH  14  20BRANCH  18  22ATOM     22  O   UNL     1      41.585  48.343  17.166 -0.56 +0.01    -0.507 OA ATOM     23  H   UNL     1      42.257  47.623  17.141 -0.35 -0.06    +0.293 HD ENDBRANCH  18  22ENDBRANCH  11  13ENDBRANCH   6  11ENDBRANCH   1   5BRANCH   3  24ATOM     24  C   UNL     1      37.541  43.697  25.215 -0.29 +0.00    +0.106 C  BRANCH  24  25ATOM     25  C   UNL     1      36.506  42.572  25.047 -0.43 -0.00    +0.028 CG0ATOM     26  G   UNL     1      35.924  41.938  26.309 +0.00 +0.00    +0.000 G0 ENDBRANCH  24  25BRANCH  24  27ATOM     27  C   UNL     1      37.089  44.854  26.151 -0.32 -0.01    +0.118 C  BRANCH  27  28ATOM     28  C   UNL     1      36.438  44.413  27.488 -0.41 -0.02    +0.111 C  BRANCH  28  29ATOM     29  N   UNL     1      35.031  44.008  27.518 -0.31 +0.08    -0.304 NA ATOM     30  C   UNL     1      34.317  44.364  28.731 -0.62 -0.02    +0.105 C  BRANCH  29  31ATOM     31  C   UNL     1      34.784  42.663  27.023 -0.53 -0.02    +0.084 C  BRANCH  31  32ATOM     32  C   UNL     1      35.923  41.938  26.309 -0.55 -0.00    +0.018 CG0ATOM     33  G   UNL     1      36.508  42.572  25.049 +0.00 +0.00    +0.000 G0 ENDBRANCH  31  32ENDBRANCH  29  31ENDBRANCH  28  29ENDBRANCH  27  28BRANCH  27  34ATOM     34  N   UNL     1      38.155  45.844  26.359 -0.10 +0.01    -0.346 N  ATOM     35  C   UNL     1      38.427  46.818  25.422 -0.21 +0.02    +0.251 C  ATOM     36  H   UNL     1      38.751  45.751  27.169 +0.06 -0.01    +0.164 HD ATOM     37  O   UNL     1      37.843  46.899  24.348 -0.56 -0.07    -0.269 OA BRANCH  35  38ATOM     38  C   UNL     1      39.510  47.782  25.753 -0.23 +0.00    +0.042 A  ATOM     39  C   UNL     1      39.427  48.473  26.962 -0.23 +0.00    +0.034 A  ATOM     40  C   UNL     1      40.607  47.985  24.916 -0.26 +0.00    +0.034 A  ATOM     41  C   UNL     1      40.437  49.363  27.273 -0.23 +0.02    +0.112 A  ATOM     42  C   UNL     1      41.567  48.897  25.320 -0.28 +0.02    +0.112 A  ATOM     43  N   UNL     1      41.501  49.593  26.476 -0.12 -0.02    -0.265 NA ENDBRANCH  35  38ENDBRANCH  27  34ENDBRANCH  24  27ENDBRANCH   3  24TORSDOF 8TERENDMDL