MODEL        2USER    Run = 2USERUSER    Estimated Free Energy of Binding    =  -7.01 kcal/mol  [=(1)+(2)+(3)-(4)]USERUSER    (1) Final Intermolecular Energy     = -11.18 kcal/molUSER        vdW + Hbond + desolv Energy     = -11.40 kcal/molUSER        Electrostatic Energy            =  -0.35 kcal/molUSER        Moving Ligand-Fixed Receptor    = -11.75 kcal/molUSER        Moving Ligand-Moving Receptor   =  +0.57 kcal/molUSER    (2) Final Total Internal Energy     =  -2.91 kcal/molUSER    (3) Torsional Free Energy           =  +4.18 kcal/molUSER    (4) Unbound System's Energy         =  -2.91 kcal/molUSERUSERREMARK SMILES COc1ccc(O)c(C(=O)c2ccc(C(=O)N[C@@H]3CCCNC[C@H]3NC(=O)c3ccncc3)cc2)c1FREMARK SMILES IDX 15 1 16 2 17 3 14 5 11 6 12 7 35 8 13 9 34 10 9 11 10 12REMARK SMILES IDX 8 13 3 14 4 15 36 16 5 17 6 18 37 19 2 20 1 21 7 22 18 24REMARK SMILES IDX 19 25 24 27 23 28 22 29 21 31 20 32 25 34 26 35 27 37 28 38REMARK SMILES IDX 29 39 33 40 30 41 32 42 31 43REMARK H PARENT 17 4 7 23 22 30 25 36REMARK Flexibility Score:   88.900USER                              x       y       z     vdW  Elec       q    TypeUSER                           _______ _______ _______ _____ _____    ______ ____ROOTATOM      1  C   UNL     1      39.230  43.711  23.711 -0.14 +0.01    +0.251 C  ATOM      2  O   UNL     1      39.736  42.647  24.052 -0.16 -0.02    -0.269 OA ATOM      3  N   UNL     1      38.197  44.314  24.399 -0.09 -0.02    -0.347 N  ATOM      4  H   UNL     1      37.702  45.070  23.945 +0.07 +0.02    +0.164 HD ENDROOTBRANCH   1   5ATOM      5  C   UNL     1      39.673  44.387  22.459 -0.23 +0.00    +0.039 A  ATOM      6  C   UNL     1      40.571  45.540  20.067 -0.38 +0.00    +0.023 A  ATOM      7  C   UNL     1      41.398  44.662  20.775 -0.33 +0.00    +0.013 A  ATOM      8  C   UNL     1      39.295  45.842  20.555 -0.20 +0.00    +0.013 A  ATOM      9  C   UNL     1      40.954  44.097  21.974 -0.27 +0.00    +0.014 A  ATOM     10  C   UNL     1      38.849  45.275  21.757 -0.33 +0.00    +0.014 A  BRANCH   6  11ATOM     11  C   UNL     1      41.054  46.049  18.764 -0.40 +0.00    +0.199 C  ATOM     12  O   UNL     1      42.263  45.997  18.535 -0.29 -0.03    -0.288 OA BRANCH  11  13ATOM     13  C   UNL     1      40.169  46.573  17.698 -0.41 -0.01    +0.104 A  ATOM     14  C   UNL     1      38.114  46.502  16.382 -0.29 -0.06    +0.155 A  ATOM     15  C   UNL     1      38.532  47.628  15.667 -0.43 -0.02    +0.053 A  ATOM     16  C   UNL     1      38.939  45.986  17.397 -0.30 -0.04    +0.179 A  ATOM     17  C   UNL     1      39.748  48.241  15.978 -0.49 -0.02    +0.051 A  ATOM     18  C   UNL     1      40.550  47.725  16.993 -0.42 -0.02    +0.130 A  ATOM     19  F   UNL     1      38.506  44.927  18.099 -0.09 +0.03    -0.202 F  BRANCH  14  20ATOM     20  O   UNL     1      36.940  45.827  16.180 -0.05 +0.24    -0.494 OA ATOM     21  C   UNL     1      35.731  46.544  16.407 -0.19 -0.28    +0.278 C  ENDBRANCH  14  20BRANCH  18  22ATOM     22  O   UNL     1      41.709  48.410  17.249 -0.58 -0.01    -0.507 OA ATOM     23  H   UNL     1      42.440  47.748  17.284 -0.35 -0.04    +0.293 HD ENDBRANCH  18  22ENDBRANCH  11  13ENDBRANCH   6  11ENDBRANCH   1   5BRANCH   3  24ATOM     24  C   UNL     1      37.497  43.606  25.478 -0.29 -0.00    +0.106 C  BRANCH  24  25ATOM     25  C   UNL     1      36.672  42.452  24.892 -0.44 -0.00    +0.028 CG0ATOM     26  G   UNL     1      35.746  41.725  25.881 +0.00 +0.00    +0.000 G0 ENDBRANCH  24  25BRANCH  24  27ATOM     27  C   UNL     1      36.666  44.605  26.332 -0.33 -0.01    +0.118 C  BRANCH  27  28ATOM     28  C   UNL     1      35.899  43.971  27.516 -0.47 -0.03    +0.108 C  BRANCH  28  29ATOM     29  N   UNL     1      36.448  42.736  28.085 -0.01 +0.13    -0.315 NA ATOM     30  H   UNL     1      37.437  42.860  28.293 -0.14 -0.04    +0.122 HD BRANCH  29  31ATOM     31  C   UNL     1      36.260  41.524  27.296 -0.57 -0.03    +0.081 C  BRANCH  31  32ATOM     32  C   UNL     1      35.742  41.727  25.875 -0.46 -0.00    +0.017 CG0ATOM     33  G   UNL     1      36.674  42.455  24.892 +0.00 +0.00    +0.000 G0 ENDBRANCH  31  32ENDBRANCH  29  31ENDBRANCH  28  29ENDBRANCH  27  28BRANCH  27  34ATOM     34  N   UNL     1      37.519  45.711  26.788 -0.14 +0.04    -0.346 N  ATOM     35  C   UNL     1      37.725  46.828  26.013 -0.24 -0.00    +0.251 C  ATOM     36  H   UNL     1      37.719  45.759  27.775 +0.06 -0.03    +0.164 HD ATOM     37  O   UNL     1      37.302  46.950  24.870 -0.69 -0.08    -0.269 OA BRANCH  35  38ATOM     38  C   UNL     1      38.484  47.936  26.643 -0.25 +0.00    +0.042 A  ATOM     39  C   UNL     1      39.827  48.098  26.299 -0.23 +0.00    +0.034 A  ATOM     40  C   UNL     1      37.902  48.791  27.581 -0.23 -0.00    +0.034 A  ATOM     41  C   UNL     1      40.528  49.129  26.893 -0.23 +0.01    +0.112 A  ATOM     42  C   UNL     1      38.692  49.791  28.118 -0.19 +0.01    +0.112 A  ATOM     43  N   UNL     1      39.990  49.982  27.790 -0.19 -0.07    -0.265 NA ENDBRANCH  35  38ENDBRANCH  27  34ENDBRANCH  24  27ENDBRANCH   3  24TORSDOF 8TERENDMDL