REMARK SMILES COc1ncc(F)cc1C(=O)N[C@@H]1CCCN(C)C[C@H]1n1cc(C(=O)c2cnc(N3CCN(Cc4cccnc4)CC3)c(F)c2)nn1
REMARK SMILES IDX 21 1 22 2 23 3 46 4 47 5 20 6 13 7 12 8 10 9 11 10 9 12 3 13
REMARK SMILES IDX 4 14 5 15 8 16 6 17 7 18 2 19 1 20 14 21 19 23 17 24 18 25
REMARK SMILES IDX 16 26 15 27 24 29 25 30 26 31 27 32 45 33 28 34 43 35 29 36
REMARK SMILES IDX 44 37 30 38 31 39 42 40 32 41 41 42 33 43 34 44 35 45 36 46
REMARK SMILES IDX 40 47 37 48 39 49 38 50
REMARK H PARENT 12 11
REMARK Flexibility Score:  189.900
ROOT
ATOM      1  N   UNL     1      -2.978  -1.095  -0.409  1.00  0.00    -0.245 N 
ATOM      2  C   UNL     1      -2.291  -1.280  -1.571  1.00  0.00     0.143 A 
ATOM      3  C   UNL     1      -1.033  -0.772  -1.310  1.00  0.00     0.153 A 
ATOM      4  N   UNL     1      -1.012  -0.300  -0.022  1.00  0.00    -0.127 NA
ATOM      5  N   UNL     1      -2.199  -0.521   0.526  1.00  0.00    -0.066 NA
ENDROOT
BRANCH   1   6
ATOM      6  C   UNL     1      -4.343  -1.522  -0.076  1.00  0.00     0.145 C 
BRANCH   6   7
ATOM      7  C   UNL     1      -5.366  -0.729  -0.924  1.00  0.00     0.108 C 
BRANCH   7   8
ATOM      8  N   UNL     1      -5.821   0.467  -0.199  1.00  0.00    -0.347 N 
ATOM      9  C   UNL     1      -6.210   1.623  -0.839  1.00  0.00     0.257 C 
ATOM     10  O   UNL     1      -6.087   1.773  -2.051  1.00  0.00    -0.269 OA
ATOM     11  H   UNL     1      -6.083   0.364   0.780  1.00  0.00     0.164 HD
BRANCH   9  12
ATOM     12  C   UNL     1      -6.795   2.718  -0.015  1.00  0.00     0.104 A 
ATOM     13  C   UNL     1      -7.202   2.593   1.318  1.00  0.00     0.226 A 
ATOM     14  N   UNL     1      -7.739   3.615   2.037  1.00  0.00    -0.218 NA
ATOM     15  C   UNL     1      -7.874   4.805   1.406  1.00  0.00     0.154 A 
ATOM     16  C   UNL     1      -6.959   3.967  -0.630  1.00  0.00     0.060 A 
ATOM     17  C   UNL     1      -7.503   5.017   0.093  1.00  0.00     0.142 A 
ATOM     18  F   UNL     1      -7.662   6.218  -0.473  1.00  0.00    -0.205 F 
BRANCH  13  19
ATOM     19  O   UNL     1      -7.078   1.364   1.940  1.00  0.00    -0.480 OA
ATOM     20  C   UNL     1      -7.520   1.357   3.297  1.00  0.00     0.280 C 
ENDBRANCH  13  19
ENDBRANCH   9  12
ENDBRANCH   7   8
BRANCH   7  21
ATOM     21  C   UNL     1      -6.580  -1.514  -1.441  1.00  0.00     0.028 CG0
ATOM     22  G   UNL     1      -7.368  -2.249  -0.364  1.00  0.00     0.000 G0
ENDBRANCH   7  21
ENDBRANCH   6   7
BRANCH   6  23
ATOM     23  C   UNL     1      -4.420  -3.061  -0.151  1.00  0.00     0.113 C 
BRANCH  23  24
ATOM     24  N   UNL     1      -5.521  -3.627   0.652  1.00  0.00    -0.304 NA
ATOM     25  C   UNL     1      -5.188  -5.000   1.060  1.00  0.00     0.105 C 
BRANCH  24  26
ATOM     26  C   UNL     1      -6.813  -3.635  -0.043  1.00  0.00     0.084 C 
BRANCH  26  27
ATOM     27  C   UNL     1      -7.368  -2.249  -0.364  1.00  0.00     0.018 CG0
ATOM     28  G   UNL     1      -6.580  -1.514  -1.441  1.00  0.00     0.000 G0
ENDBRANCH  26  27
ENDBRANCH  24  26
ENDBRANCH  23  24
ENDBRANCH   6  23
ENDBRANCH   1   6
BRANCH   3  29
ATOM     29  C   UNL     1       0.082  -0.716  -2.240  1.00  0.00     0.216 C 
ATOM     30  O   UNL     1      -0.078  -0.909  -3.445  1.00  0.00    -0.287 OA
BRANCH  29  31
ATOM     31  C   UNL     1       1.454  -0.428  -1.758  1.00  0.00     0.046 A 
ATOM     32  C   UNL     1       1.895  -0.710  -0.478  1.00  0.00     0.126 A 
ATOM     33  C   UNL     1       2.392   0.091  -2.646  1.00  0.00     0.057 A 
ATOM     34  N   UNL     1       3.170  -0.506  -0.053  1.00  0.00    -0.236 NA
ATOM     35  C   UNL     1       3.704   0.304  -2.223  1.00  0.00     0.166 A 
ATOM     36  C   UNL     1       4.103  -0.015  -0.914  1.00  0.00     0.164 A 
ATOM     37  F   UNL     1       4.547   0.841  -3.119  1.00  0.00    -0.203 F 
BRANCH  36  38
ATOM     38  N   UNL     1       5.397   0.163  -0.430  1.00  0.00    -0.352 N 
ATOM     39  C   UNL     1       6.555   0.030  -1.321  1.00  0.00     0.133 C 
ATOM     40  C   UNL     1       5.622  -0.228   0.977  1.00  0.00     0.133 C 
ATOM     41  C   UNL     1       7.849   0.609  -0.685  1.00  0.00     0.106 C 
ATOM     42  C   UNL     1       7.090  -0.620   1.266  1.00  0.00     0.106 C 
ATOM     43  N   UNL     1       8.054   0.363   0.758  1.00  0.00    -0.296 NA
BRANCH  43  44
ATOM     44  C   UNL     1       9.435  -0.015   1.087  1.00  0.00     0.121 C 
BRANCH  44  45
ATOM     45  C   UNL     1      10.452   1.058   0.783  1.00  0.00    -0.016 A 
ATOM     46  C   UNL     1      10.261   2.391   1.162  1.00  0.00     0.008 A 
ATOM     47  C   UNL     1      11.650   0.743   0.145  1.00  0.00     0.116 A 
ATOM     48  C   UNL     1      11.236   3.341   0.871  1.00  0.00     0.020 A 
ATOM     49  N   UNL     1      12.617   1.642  -0.145  1.00  0.00    -0.264 NA
ATOM     50  C   UNL     1      12.385   2.921   0.222  1.00  0.00     0.111 A 
ENDBRANCH  44  45
ENDBRANCH  43  44
ENDBRANCH  36  38
ENDBRANCH  29  31
ENDBRANCH   3  29
TORSDOF 9
