MODEL        5USER    Run = 5USERUSER    Estimated Free Energy of Binding    =  -8.47 kcal/mol  [=(1)+(2)+(3)-(4)]USERUSER    (1) Final Intermolecular Energy     = -12.94 kcal/molUSER        vdW + Hbond + desolv Energy     = -13.60 kcal/molUSER        Electrostatic Energy            =  -0.03 kcal/molUSER        Moving Ligand-Fixed Receptor    = -13.63 kcal/molUSER        Moving Ligand-Moving Receptor   =  +0.69 kcal/molUSER    (2) Final Total Internal Energy     =  -2.72 kcal/molUSER    (3) Torsional Free Energy           =  +4.47 kcal/molUSER    (4) Unbound System's Energy         =  -2.72 kcal/molUSERUSERREMARK SMILES COc1ncc(F)cc1C(=O)N[C@@H]1CCCN(C)C[C@H]1n1cc(C(=O)c2cnc(N3CCN(Cc4cccnc4)CC3)c(F)c2)nn1REMARK SMILES IDX 21 1 22 2 23 3 46 4 47 5 20 6 13 7 12 8 10 9 11 10 9 12 3 13REMARK SMILES IDX 4 14 5 15 8 16 6 17 7 18 2 19 1 20 14 21 19 23 17 24 18 25REMARK SMILES IDX 16 26 15 27 24 29 25 30 26 31 27 32 45 33 28 34 43 35 29 36REMARK SMILES IDX 44 37 30 38 31 39 42 40 32 41 41 42 33 43 34 44 35 45 36 46REMARK SMILES IDX 40 47 37 48 39 49 38 50REMARK H PARENT 12 11REMARK Flexibility Score:  189.900USER                              x       y       z     vdW  Elec       q    TypeUSER                           _______ _______ _______ _____ _____    ______ ____ROOTATOM      1  N   UNL     1      35.523  44.639  17.301 -0.14 +0.10    -0.245 N  ATOM      2  C   UNL     1      34.551  44.160  16.475 -0.23 -0.07    +0.143 A  ATOM      3  C   UNL     1      33.703  43.461  17.313 -0.22 -0.06    +0.153 A  ATOM      4  N   UNL     1      34.193  43.538  18.592 -0.25 +0.03    -0.127 NA ATOM      5  N   UNL     1      35.294  44.277  18.577 -0.30 +0.02    -0.066 NA ENDROOTBRANCH   1   6ATOM      6  C   UNL     1      36.647  45.526  16.973 -0.31 -0.06    +0.145 C  BRANCH   6   7ATOM      7  C   UNL     1      37.986  44.831  17.317 -0.34 -0.02    +0.108 C  BRANCH   7   8ATOM      8  N   UNL     1      38.055  44.528  18.754 -0.15 +0.04    -0.347 N  ATOM      9  C   UNL     1      38.717  45.333  19.655 -0.23 -0.01    +0.257 C  ATOM     10  O   UNL     1      39.396  46.292  19.299 -0.26 +0.02    -0.269 OA ATOM     11  H   UNL     1      37.404  43.842  19.132 +0.11 -0.02    +0.164 HD BRANCH   9  12ATOM     12  C   UNL     1      38.596  45.011  21.105 -0.27 +0.00    +0.104 A  ATOM     13  C   UNL     1      37.700  44.087  21.652 -0.23 +0.01    +0.226 A  ATOM     14  N   UNL     1      37.613  43.825  22.984 -0.22 -0.02    -0.218 NA ATOM     15  C   UNL     1      38.451  44.507  23.800 -0.19 +0.01    +0.154 A  ATOM     16  C   UNL     1      39.441  45.699  21.987 -0.27 +0.00    +0.060 A  ATOM     17  C   UNL     1      39.363  45.439  23.347 -0.19 +0.01    +0.142 A  ATOM     18  F   UNL     1      40.164  46.079  24.205 -0.02 -0.01    -0.205 F  BRANCH  13  19ATOM     19  O   UNL     1      36.835  43.416  20.806 -0.13 -0.00    -0.480 OA ATOM     20  C   UNL     1      36.484  42.109  21.259 -0.37 +0.01    +0.280 C  ENDBRANCH  13  19ENDBRANCH   9  12ENDBRANCH   7   8BRANCH   7  21ATOM     21  C   UNL     1      39.265  45.558  16.879 -0.34 -0.01    +0.028 CG0ATOM     22  G   UNL     1      39.184  46.218  15.508 +0.00 +0.00    +0.000 G0 ENDBRANCH   7  21ENDBRANCH   6   7BRANCH   6  23ATOM     23  C   UNL     1      36.478  46.035  15.526 -0.35 -0.07    +0.113 C  BRANCH  23  24ATOM     24  N   UNL     1      36.974  47.411  15.334 -0.20 +0.24    -0.304 NA ATOM     25  C   UNL     1      36.600  47.896  13.997 -0.48 -0.07    +0.105 C  BRANCH  24  26ATOM     26  C   UNL     1      38.426  47.543  15.501 -0.47 -0.04    +0.084 C  BRANCH  26  27ATOM     27  C   UNL     1      39.185  46.217  15.508 -0.46 -0.00    +0.018 CG0ATOM     28  G   UNL     1      39.257  45.567  16.884 +0.00 +0.00    +0.000 G0 ENDBRANCH  26  27ENDBRANCH  24  26ENDBRANCH  23  24ENDBRANCH   6  23ENDBRANCH   1   6BRANCH   3  29ATOM     29  C   UNL     1      32.505  42.740  16.918 -0.23 -0.09    +0.216 C  ATOM     30  O   UNL     1      31.854  43.073  15.929 -0.23 +0.14    -0.287 OA BRANCH  29  31ATOM     31  C   UNL     1      32.029  41.578  17.706 -0.32 -0.01    +0.046 A  ATOM     32  C   UNL     1      32.555  41.211  18.931 -0.28 -0.00    +0.126 A  ATOM     33  C   UNL     1      30.944  40.840  17.241 -0.31 -0.01    +0.057 A  ATOM     34  N   UNL     1      32.078  40.185  19.684 -0.73 -0.06    -0.236 NA ATOM     35  C   UNL     1      30.444  39.785  18.005 -0.26 +0.01    +0.166 A  ATOM     36  C   UNL     1      31.008  39.464  19.251 -0.28 +0.02    +0.164 A  ATOM     37  F   UNL     1      29.421  39.093  17.480 -0.10 -0.08    -0.203 F  BRANCH  36  38ATOM     38  N   UNL     1      30.552  38.432  20.068 -0.16 -0.05    -0.352 N  ATOM     39  C   UNL     1      29.123  38.291  20.371 -0.26 +0.01    +0.133 C  ATOM     40  C   UNL     1      31.479  37.989  21.130 -0.46 +0.02    +0.133 C  ATOM     41  C   UNL     1      28.792  36.902  20.984 -0.31 -0.01    +0.106 C  ATOM     42  C   UNL     1      30.751  37.361  22.342 -0.45 -0.00    +0.106 C  ATOM     43  N   UNL     1      29.762  36.349  21.952 -0.19 -0.00    -0.296 NA BRANCH  43  44ATOM     44  C   UNL     1      29.121  35.740  23.125 -0.26 +0.03    +0.121 C  BRANCH  44  45ATOM     45  C   UNL     1      28.480  34.403  22.847 -0.39 -0.00    -0.016 A  ATOM     46  C   UNL     1      29.115  33.196  23.159 -0.36 +0.00    +0.008 A  ATOM     47  C   UNL     1      27.199  34.327  22.304 -0.26 -0.04    +0.116 A  ATOM     48  C   UNL     1      28.475  31.988  22.895 -0.45 +0.00    +0.020 A  ATOM     49  N   UNL     1      26.551  33.169  22.044 -0.55 +0.10    -0.264 NA ATOM     50  C   UNL     1      27.206  32.027  22.342 -0.24 -0.03    +0.111 A  ENDBRANCH  44  45ENDBRANCH  43  44ENDBRANCH  36  38ENDBRANCH  29  31ENDBRANCH   3  29TORSDOF 9TERENDMDL