REMARK SMILES CN1CCN(c2cnncc2-c2nc3cc(F)ccc3nc2-c2ccc(CN3CCN(Cc4cccnc4)CC3)cc2)CC1
REMARK SMILES IDX 23 1 24 2 25 3 26 4 41 5 42 6 22 7 12 8 13 9 14 10 21 11
REMARK SMILES IDX 15 12 20 13 16 14 19 15 18 16 17 17 11 18 6 19 7 20 8 21
REMARK SMILES IDX 10 22 9 23 5 24 2 25 3 26 44 27 4 28 43 29 1 30 27 31 28 32
REMARK SMILES IDX 29 33 40 34 30 35 39 36 31 37 32 38 33 39 34 40 38 41 35 42
REMARK SMILES IDX 37 43 36 44
REMARK H PARENT
ROOT
ATOM      1  C   UNL     1      -1.092  -1.442  -0.641  1.00  0.00     0.002 A 
ATOM      2  C   UNL     1      -0.828  -0.455   0.320  1.00  0.00     0.011 A 
ATOM      3  C   UNL     1       0.418   0.177   0.377  1.00  0.00     0.006 A 
ATOM      4  C   UNL     1       1.443  -0.181  -0.510  1.00  0.00    -0.034 A 
ATOM      5  C   UNL     1       1.185  -1.173  -1.467  1.00  0.00     0.006 A 
ATOM      6  C   UNL     1      -0.064  -1.800  -1.528  1.00  0.00     0.011 A 
ENDROOT
BRANCH   1   7
ATOM      7  C   UNL     1      -2.408  -2.081  -0.726  1.00  0.00     0.097 A 
ATOM      8  C   UNL     1      -3.450  -1.612  -1.536  1.00  0.00     0.101 A 
ATOM      9  N   UNL     1      -4.627  -2.291  -1.643  1.00  0.00    -0.244 NA
ATOM     10  C   UNL     1      -4.760  -3.408  -0.907  1.00  0.00     0.092 A 
ATOM     11  N   UNL     1      -2.538  -3.222   0.005  1.00  0.00    -0.244 NA
ATOM     12  C   UNL     1      -5.953  -4.110  -0.954  1.00  0.00     0.069 A 
ATOM     13  C   UNL     1      -3.710  -3.874  -0.075  1.00  0.00     0.090 A 
ATOM     14  C   UNL     1      -6.122  -5.259  -0.195  1.00  0.00     0.125 A 
ATOM     15  C   UNL     1      -3.901  -5.030   0.672  1.00  0.00     0.033 A 
ATOM     16  C   UNL     1      -5.106  -5.730   0.620  1.00  0.00     0.041 A 
ATOM     17  F   UNL     1      -7.286  -5.919  -0.247  1.00  0.00    -0.207 F 
BRANCH   8  18
ATOM     18  C   UNL     1      -3.373  -0.392  -2.341  1.00  0.00     0.048 A 
ATOM     19  C   UNL     1      -3.494   0.906  -1.807  1.00  0.00     0.068 A 
ATOM     20  C   UNL     1      -3.294   1.941  -2.722  1.00  0.00     0.162 A 
ATOM     21  N   UNL     1      -3.034   1.776  -4.043  1.00  0.00    -0.157 NA
ATOM     22  C   UNL     1      -3.133  -0.514  -3.707  1.00  0.00     0.148 A 
ATOM     23  N   UNL     1      -2.967   0.531  -4.545  1.00  0.00    -0.158 NA
BRANCH  19  24
ATOM     24  N   UNL     1      -3.806   1.128  -0.450  1.00  0.00    -0.367 N 
ATOM     25  N   UNL     1      -5.899   2.894   0.659  1.00  0.00    -0.303 NA
ATOM     26  C   UNL     1      -5.813   1.478   1.043  1.00  0.00     0.105 C 
ATOM     27  C   UNL     1      -4.584   3.430   0.249  1.00  0.00     0.105 C 
ATOM     28  C   UNL     1      -5.156   0.623  -0.064  1.00  0.00     0.132 C 
ATOM     29  C   UNL     1      -3.423   2.406   0.186  1.00  0.00     0.132 C 
ATOM     30  C   UNL     1      -6.532   3.704   1.694  1.00  0.00     0.105 C 
ENDBRANCH  19  24
ENDBRANCH   8  18
ENDBRANCH   1   7
BRANCH   4  31
ATOM     31  C   UNL     1       2.786   0.522  -0.492  1.00  0.00     0.120 C 
BRANCH  31  32
ATOM     32  N   UNL     1       3.320   0.772   0.857  1.00  0.00    -0.297 NA
ATOM     33  C   UNL     1       3.707  -0.473   1.559  1.00  0.00     0.100 C 
ATOM     34  C   UNL     1       4.457   1.717   0.775  1.00  0.00     0.100 C 
ATOM     35  C   UNL     1       5.218  -0.788   1.509  1.00  0.00     0.100 C 
ATOM     36  C   UNL     1       5.435   1.608   1.964  1.00  0.00     0.100 C 
ATOM     37  N   UNL     1       6.030   0.274   2.119  1.00  0.00    -0.296 NA
BRANCH  37  38
ATOM     38  C   UNL     1       7.466   0.182   1.848  1.00  0.00     0.121 C 
BRANCH  38  39
ATOM     39  C   UNL     1       7.910   0.413   0.424  1.00  0.00    -0.016 A 
ATOM     40  C   UNL     1       8.236   1.685  -0.056  1.00  0.00     0.008 A 
ATOM     41  C   UNL     1       8.031  -0.649  -0.470  1.00  0.00     0.116 A 
ATOM     42  C   UNL     1       8.640   1.846  -1.379  1.00  0.00     0.020 A 
ATOM     43  N   UNL     1       8.419  -0.525  -1.761  1.00  0.00    -0.264 NA
ATOM     44  C   UNL     1       8.713   0.722  -2.185  1.00  0.00     0.111 A 
ENDBRANCH  38  39
ENDBRANCH  37  38
ENDBRANCH  31  32
ENDBRANCH   4  31
TORSDOF 7
