REMARK SMILES COc1ncc(F)cc1C(=O)N[C@@H]1CCCN(C)C[C@H]1NC(=O)c1nc2cc(F)ccc2nc1-c1cncc(N2CCN(C)CC2)c1
REMARK SMILES IDX 20 1 13 2 12 3 10 4 11 5 9 7 3 8 4 9 5 10 8 11 6 12 7 13
REMARK SMILES IDX 2 14 1 15 14 16 19 18 17 19 18 20 16 21 15 22 21 24 22 25
REMARK SMILES IDX 23 27 24 28 25 29 34 30 26 31 33 32 27 33 32 34 28 35 31 36
REMARK SMILES IDX 30 37 29 38 35 39 36 40 47 41 37 42 39 43 38 44 40 45 41 46
REMARK SMILES IDX 46 47 42 48 45 49 43 50 44 51
REMARK H PARENT 12 6 21 26
REMARK Flexibility Score:  161.900
ROOT
ATOM      1  C   UNL     1      -2.644   1.438   1.273  1.00  0.00     0.118 C 
ENDROOT
BRANCH   1   2
ATOM      2  C   UNL     1      -4.129   1.002   1.292  1.00  0.00     0.106 C 
BRANCH   2   3
ATOM      3  N   UNL     1      -4.527   0.562  -0.052  1.00  0.00    -0.347 N 
ATOM      4  C   UNL     1      -5.412  -0.467  -0.275  1.00  0.00     0.257 C 
ATOM      5  O   UNL     1      -5.981  -1.059   0.638  1.00  0.00    -0.269 OA
ATOM      6  H   UNL     1      -4.082   1.006  -0.851  1.00  0.00     0.164 HD
BRANCH   4   7
ATOM      7  C   UNL     1      -5.672  -0.870  -1.686  1.00  0.00     0.104 A 
ATOM      8  C   UNL     1      -4.945  -0.429  -2.797  1.00  0.00     0.226 A 
ATOM      9  N   UNL     1      -5.207  -0.827  -4.071  1.00  0.00    -0.218 NA
ATOM     10  C   UNL     1      -6.227  -1.700  -4.244  1.00  0.00     0.154 A 
ATOM     11  C   UNL     1      -6.714  -1.782  -1.912  1.00  0.00     0.060 A 
ATOM     12  C   UNL     1      -6.991  -2.195  -3.205  1.00  0.00     0.142 A 
ATOM     13  F   UNL     1      -7.984  -3.062  -3.441  1.00  0.00    -0.205 F 
BRANCH   8  14
ATOM     14  O   UNL     1      -3.903   0.459  -2.604  1.00  0.00    -0.480 OA
ATOM     15  C   UNL     1      -3.182   0.773  -3.794  1.00  0.00     0.280 C 
ENDBRANCH   8  14
ENDBRANCH   4   7
ENDBRANCH   2   3
BRANCH   2  16
ATOM     16  C   UNL     1      -5.090   2.080   1.809  1.00  0.00     0.028 CG0
ATOM     17  G   UNL     1      -4.930   2.474   3.288  1.00  0.00     0.000 G0
ENDBRANCH   2  16
ENDBRANCH   1   2
BRANCH   1  18
ATOM     18  C   UNL     1      -2.182   2.218   2.525  1.00  0.00     0.111 C 
BRANCH  18  19
ATOM     19  N   UNL     1      -2.565   1.729   3.853  1.00  0.00    -0.304 NA
ATOM     20  C   UNL     1      -1.813   0.552   4.271  1.00  0.00     0.105 C 
BRANCH  19  21
ATOM     21  C   UNL     1      -3.998   1.587   4.125  1.00  0.00     0.084 C 
BRANCH  21  22
ATOM     22  C   UNL     1      -4.930   2.474   3.288  1.00  0.00     0.018 CG0
ATOM     23  G   UNL     1      -5.090   2.080   1.809  1.00  0.00     0.000 G0
ENDBRANCH  21  22
ENDBRANCH  19  21
ENDBRANCH  18  19
ENDBRANCH   1  18
BRANCH   1  24
ATOM     24  N   UNL     1      -1.802   0.273   0.992  1.00  0.00    -0.345 N 
ATOM     25  C   UNL     1      -0.553   0.347   0.413  1.00  0.00     0.272 C 
ATOM     26  H   UNL     1      -2.128  -0.656   1.251  1.00  0.00     0.164 HD
ATOM     27  O   UNL     1      -0.028   1.406   0.102  1.00  0.00    -0.267 OA
BRANCH  25  28
ATOM     28  C   UNL     1       0.084  -0.995   0.193  1.00  0.00     0.155 A 
ATOM     29  N   UNL     1      -0.634  -2.037   0.729  1.00  0.00    -0.239 NA
ATOM     30  C   UNL     1       1.285  -1.188  -0.485  1.00  0.00     0.104 A 
ATOM     31  C   UNL     1      -0.124  -3.271   0.576  1.00  0.00     0.093 A 
ATOM     32  N   UNL     1       1.796  -2.450  -0.617  1.00  0.00    -0.244 NA
ATOM     33  C   UNL     1      -0.810  -4.361   1.089  1.00  0.00     0.069 A 
ATOM     34  C   UNL     1       1.100  -3.480  -0.103  1.00  0.00     0.090 A 
ATOM     35  C   UNL     1      -0.307  -5.647   0.935  1.00  0.00     0.125 A 
ATOM     36  C   UNL     1       1.585  -4.775  -0.248  1.00  0.00     0.033 A 
ATOM     37  C   UNL     1       0.887  -5.867   0.268  1.00  0.00     0.041 A 
ATOM     38  F   UNL     1      -0.987  -6.687   1.434  1.00  0.00    -0.207 F 
BRANCH  30  39
ATOM     39  C   UNL     1       2.113  -0.169  -1.136  1.00  0.00     0.023 A 
ATOM     40  C   UNL     1       1.647   0.622  -2.181  1.00  0.00     0.121 A 
ATOM     41  C   UNL     1       3.465   0.002  -0.776  1.00  0.00     0.039 A 
ATOM     42  N   UNL     1       2.395   1.527  -2.847  1.00  0.00    -0.262 NA
ATOM     43  C   UNL     1       4.302   0.931  -1.413  1.00  0.00     0.056 A 
ATOM     44  C   UNL     1       3.684   1.656  -2.440  1.00  0.00     0.136 A 
BRANCH  43  45
ATOM     45  N   UNL     1       5.628   1.103  -1.053  1.00  0.00    -0.368 N 
ATOM     46  C   UNL     1       6.384   2.306  -1.440  1.00  0.00     0.132 C 
ATOM     47  C   UNL     1       6.352   0.108  -0.242  1.00  0.00     0.132 C 
ATOM     48  C   UNL     1       7.533   2.595  -0.443  1.00  0.00     0.105 C 
ATOM     49  C   UNL     1       7.871   0.178  -0.519  1.00  0.00     0.105 C 
ATOM     50  N   UNL     1       8.482   1.488  -0.210  1.00  0.00    -0.303 NA
ATOM     51  C   UNL     1       9.726   1.665  -0.955  1.00  0.00     0.105 C 
ENDBRANCH  43  45
ENDBRANCH  30  39
ENDBRANCH  25  28
ENDBRANCH   1  24
TORSDOF 7
