MODEL        5USER    Run = 5USERUSER    Estimated Free Energy of Binding    = -10.43 kcal/mol  [=(1)+(2)+(3)-(4)]USERUSER    (1) Final Intermolecular Energy     = -12.52 kcal/molUSER        vdW + Hbond + desolv Energy     = -12.48 kcal/molUSER        Electrostatic Energy            =  -0.04 kcal/molUSER        Moving Ligand-Fixed Receptor    = -12.52 kcal/molUSER        Moving Ligand-Moving Receptor   =  +0.00 kcal/molUSER    (2) Final Total Internal Energy     =  -2.78 kcal/molUSER    (3) Torsional Free Energy           =  +2.09 kcal/molUSER    (4) Unbound System's Energy         =  -2.78 kcal/molUSERUSERREMARK SMILES CN1CCN(c2cnncc2-c2nc3cc(F)ccc3nc2-c2ccc(CN3CCN(Cc4cccnc4)CC3)cc2)CC1REMARK SMILES IDX 23 1 24 2 25 3 26 4 41 5 42 6 22 7 12 8 13 9 14 10 21 11REMARK SMILES IDX 15 12 20 13 16 14 19 15 18 16 17 17 11 18 6 19 7 20 8 21REMARK SMILES IDX 10 22 9 23 5 24 2 25 3 26 44 27 4 28 43 29 1 30 27 31 28 32REMARK SMILES IDX 29 33 40 34 30 35 39 36 31 37 32 38 33 39 34 40 38 41 35 42REMARK SMILES IDX 37 43 36 44REMARK H PARENTUSER                              x       y       z     vdW  Elec       q    TypeUSER                           _______ _______ _______ _____ _____    ______ ____ROOTATOM      1  C   UNL     1      38.158  43.095  22.091 -0.33 +0.00    +0.002 A  ATOM      2  C   UNL     1      37.297  41.993  21.969 -0.48 +0.00    +0.011 A  ATOM      3  C   UNL     1      36.221  42.018  21.077 -0.52 +0.00    +0.006 A  ATOM      4  C   UNL     1      35.960  43.157  20.302 -0.42 +0.00    -0.034 A  ATOM      5  C   UNL     1      36.813  44.263  20.428 -0.37 -0.00    +0.006 A  ATOM      6  C   UNL     1      37.894  44.235  21.315 -0.37 +0.00    +0.011 A  ENDROOTBRANCH   1   7ATOM      7  C   UNL     1      39.308  43.058  22.999 -0.22 +0.01    +0.097 A  ATOM      8  C   UNL     1      39.196  42.982  24.393 -0.17 +0.01    +0.101 A  ATOM      9  N   UNL     1      40.298  42.867  25.188 -0.11 +0.00    -0.244 NA ATOM     10  C   UNL     1      41.496  42.869  24.580 -0.14 -0.00    +0.092 A  ATOM     11  N   UNL     1      40.522  43.042  22.383 -0.17 -0.01    -0.244 NA ATOM     12  C   UNL     1      42.645  42.792  25.350 -0.12 -0.00    +0.069 A  ATOM     13  C   UNL     1      41.609  42.961  23.169 -0.23 -0.00    +0.090 A  ATOM     14  C   UNL     1      43.895  42.805  24.749 -0.10 -0.00    +0.125 A  ATOM     15  C   UNL     1      42.872  42.967  22.590 -0.30 +0.00    +0.033 A  ATOM     16  C   UNL     1      44.023  42.891  23.373 -0.23 +0.00    +0.041 A  ATOM     17  F   UNL     1      44.994  42.739  25.511 +0.00 +0.01    -0.207 F  BRANCH   8  18ATOM     18  C   UNL     1      37.922  42.999  25.113 -0.27 +0.00    +0.048 A  ATOM     19  C   UNL     1      37.281  44.178  25.540 -0.28 -0.00    +0.068 A  ATOM     20  C   UNL     1      36.026  43.989  26.123 -0.24 -0.02    +0.162 A  ATOM     21  N   UNL     1      35.431  42.787  26.322 -0.33 +0.02    -0.157 NA ATOM     22  C   UNL     1      37.287  41.785  25.362 -0.22 -0.01    +0.148 A  ATOM     23  N   UNL     1      36.077  41.668  25.949 -0.36 +0.04    -0.158 NA BRANCH  19  24ATOM     24  N   UNL     1      37.879  45.447  25.395 -0.11 -0.01    -0.367 N  ATOM     25  N   UNL     1      40.582  46.066  24.377 -0.04 -0.02    -0.303 NA ATOM     26  C   UNL     1      39.387  46.706  23.808 -0.29 +0.01    +0.105 C  ATOM     27  C   UNL     1      40.368  45.660  25.782 -0.11 +0.00    +0.105 C  ATOM     28  C   UNL     1      38.131  45.822  23.973 -0.21 +0.02    +0.132 C  ATOM     29  C   UNL     1      38.937  45.866  26.338 -0.19 -0.00    +0.132 C  ATOM     30  C   UNL     1      41.775  46.890  24.211 -0.16 +0.01    +0.105 C  ENDBRANCH  19  24ENDBRANCH   8  18ENDBRANCH   1   7BRANCH   4  31ATOM     31  C   UNL     1      34.824  43.188  19.299 -0.38 -0.01    +0.120 C  BRANCH  31  32ATOM     32  N   UNL     1      35.239  42.947  17.908 -0.16 +0.08    -0.297 NA ATOM     33  C   UNL     1      34.089  42.793  16.986 -0.37 -0.04    +0.100 C  ATOM     34  C   UNL     1      36.142  44.032  17.462 -0.31 -0.03    +0.100 C  ATOM     35  C   UNL     1      33.741  44.068  16.187 -0.32 -0.05    +0.100 C  ATOM     36  C   UNL     1      36.171  44.219  15.930 -0.36 -0.04    +0.100 C  ATOM     37  N   UNL     1      34.857  44.523  15.347 -0.12 +0.16    -0.296 NA BRANCH  37  38ATOM     38  C   UNL     1      34.702  45.870  14.795 -0.32 -0.11    +0.121 C  BRANCH  38  39ATOM     39  C   UNL     1      35.967  46.621  14.456 -0.42 +0.01    -0.016 A  ATOM     40  C   UNL     1      36.780  47.190  15.440 -0.40 -0.01    +0.008 A  ATOM     41  C   UNL     1      36.385  46.758  13.134 -0.49 -0.06    +0.116 A  ATOM     42  C   UNL     1      37.937  47.874  15.075 -0.49 -0.01    +0.020 A  ATOM     43  N   UNL     1      37.503  47.417  12.747 -0.86 +0.06    -0.264 NA ATOM     44  C   UNL     1      38.252  47.961  13.729 -0.38 -0.03    +0.111 A  ENDBRANCH  38  39ENDBRANCH  37  38ENDBRANCH  31  32ENDBRANCH   4  31TORSDOF 7TERENDMDL