MODEL        5USER    Run = 5USERUSER    Estimated Free Energy of Binding    =  -7.65 kcal/mol  [=(1)+(2)+(3)-(4)]USERUSER    (1) Final Intermolecular Energy     = -11.53 kcal/molUSER        vdW + Hbond + desolv Energy     = -11.63 kcal/molUSER        Electrostatic Energy            =  -0.03 kcal/molUSER        Moving Ligand-Fixed Receptor    = -11.66 kcal/molUSER        Moving Ligand-Moving Receptor   =  +0.13 kcal/molUSER    (2) Final Total Internal Energy     =  -2.91 kcal/molUSER    (3) Torsional Free Energy           =  +3.88 kcal/molUSER    (4) Unbound System's Energy         =  -2.91 kcal/molUSERUSERREMARK SMILES COc1ncc(F)cc1C(=O)N[C@@H]1CCCN(C)C[C@H]1NC(=O)c1nc2cc(F)ccc2nc1-c1cncc(N2CCN(C)CC2)c1REMARK SMILES IDX 20 1 13 2 12 3 10 4 11 5 9 7 3 8 4 9 5 10 8 11 6 12 7 13REMARK SMILES IDX 2 14 1 15 14 16 19 18 17 19 18 20 16 21 15 22 21 24 22 25REMARK SMILES IDX 23 27 24 28 25 29 34 30 26 31 33 32 27 33 32 34 28 35 31 36REMARK SMILES IDX 30 37 29 38 35 39 36 40 47 41 37 42 39 43 38 44 40 45 41 46REMARK SMILES IDX 46 47 42 48 45 49 43 50 44 51REMARK H PARENT 12 6 21 26REMARK Flexibility Score:  161.900USER                              x       y       z     vdW  Elec       q    TypeUSER                           _______ _______ _______ _____ _____    ______ ____ROOTATOM      1  C   UNL     1      38.282  44.109  27.317 -0.26 -0.01    +0.118 C  ENDROOTBRANCH   1   2ATOM      2  C   UNL     1      36.789  44.363  26.997 -0.37 -0.02    +0.106 C  BRANCH   2   3ATOM      3  N   UNL     1      36.505  45.801  27.095 -0.05 +0.09    -0.347 N  ATOM      4  C   UNL     1      36.880  46.710  26.133 -0.13 -0.03    +0.257 C  ATOM      5  O   UNL     1      37.433  46.375  25.088 -0.82 -0.05    -0.269 OA ATOM      6  H   UNL     1      36.059  46.143  27.942 -0.12 -0.05    +0.164 HD BRANCH   4   7ATOM      7  C   UNL     1      36.604  48.151  26.389 -0.35 -0.01    +0.104 A  ATOM      8  C   UNL     1      36.299  48.704  27.637 -0.22 -0.02    +0.226 A  ATOM      9  N   UNL     1      36.062  50.029  27.833 -0.16 -0.01    -0.218 NA ATOM     10  C   UNL     1      36.136  50.833  26.747 -0.23 +0.02    +0.154 A  ATOM     11  C   UNL     1      36.680  49.024  25.293 -0.43 -0.00    +0.060 A  ATOM     12  C   UNL     1      36.440  50.376  25.479 -0.31 +0.00    +0.142 A  ATOM     13  F   UNL     1      36.504  51.224  24.445 -0.08 +0.01    -0.205 F  BRANCH   8  14ATOM     14  O   UNL     1      36.232  47.871  28.738 -0.14 +0.11    -0.480 OA ATOM     15  C   UNL     1      34.932  47.782  29.318 -0.30 -0.04    +0.280 C  ENDBRANCH   8  14ENDBRANCH   4   7ENDBRANCH   2   3BRANCH   2  16ATOM     16  C   UNL     1      35.817  43.564  27.874 -0.50 -0.01    +0.028 CG0ATOM     17  G   UNL     1      35.494  42.137  27.397 +0.00 +0.00    +0.000 G0 ENDBRANCH   2  16ENDBRANCH   1   2BRANCH   1  18ATOM     18  C   UNL     1      38.642  42.632  27.595 -0.31 -0.01    +0.111 C  BRANCH  18  19ATOM     19  N   UNL     1      37.919  41.574  26.883 -0.21 +0.04    -0.304 NA ATOM     20  C   UNL     1      37.810  41.817  25.450 -0.23 -0.00    +0.105 C  BRANCH  19  21ATOM     21  C   UNL     1      36.648  41.128  27.461 -0.55 -0.03    +0.084 C  BRANCH  21  22ATOM     22  C   UNL     1      35.494  42.138  27.399 -0.64 -0.01    +0.018 CG0ATOM     23  G   UNL     1      35.817  43.565  27.874 +0.00 +0.00    +0.000 G0 ENDBRANCH  21  22ENDBRANCH  19  21ENDBRANCH  18  19ENDBRANCH   1  18BRANCH   1  24ATOM     24  N   UNL     1      39.109  44.703  26.264 -0.04 +0.00    -0.345 N  ATOM     25  C   UNL     1      40.136  44.040  25.626 -0.07 +0.00    +0.272 C  ATOM     26  H   UNL     1      38.920  45.654  25.953 +0.07 +0.00    +0.164 HD ATOM     27  O   UNL     1      40.431  42.880  25.872 -0.12 +0.01    -0.267 OA BRANCH  25  28ATOM     28  C   UNL     1      40.857  44.886  24.616 -0.06 +0.01    +0.155 A  ATOM     29  N   UNL     1      42.076  45.344  25.055 -0.01 -0.01    -0.239 NA ATOM     30  C   UNL     1      40.357  45.191  23.352 -0.14 +0.01    +0.104 A  ATOM     31  C   UNL     1      42.779  46.114  24.206 -0.07 +0.01    +0.093 A  ATOM     32  N   UNL     1      41.081  45.988  22.509 -0.12 -0.02    -0.244 NA ATOM     33  C   UNL     1      44.020  46.597  24.593 -0.07 +0.01    +0.069 A  ATOM     34  C   UNL     1      42.279  46.437  22.923 -0.17 +0.01    +0.090 A  ATOM     35  C   UNL     1      44.770  47.386  23.729 -0.15 +0.03    +0.125 A  ATOM     36  C   UNL     1      43.046  47.227  22.073 -0.32 +0.01    +0.033 A  ATOM     37  C   UNL     1      44.295  47.706  22.468 -0.28 +0.01    +0.041 A  ATOM     38  F   UNL     1      45.968  47.839  24.120 -0.03 -0.05    -0.207 F  BRANCH  30  39ATOM     39  C   UNL     1      39.100  44.727  22.757 -0.27 +0.00    +0.023 A  ATOM     40  C   UNL     1      38.172  43.967  23.461 -0.24 +0.01    +0.121 A  ATOM     41  C   UNL     1      38.811  44.971  21.399 -0.33 +0.00    +0.039 A  ATOM     42  N   UNL     1      37.033  43.470  22.932 -0.22 -0.03    -0.262 NA ATOM     43  C   UNL     1      37.642  44.497  20.782 -0.31 +0.00    +0.056 A  ATOM     44  C   UNL     1      36.805  43.755  21.624 -0.29 +0.01    +0.136 A  BRANCH  43  45ATOM     45  N   UNL     1      37.356  44.744  19.450 -0.13 +0.04    -0.368 N  ATOM     46  C   UNL     1      38.358  45.320  18.538 -0.35 -0.02    +0.132 C  ATOM     47  C   UNL     1      36.043  44.422  18.862 -0.33 -0.03    +0.132 C  ATOM     48  C   UNL     1      38.086  44.909  17.070 -0.33 -0.03    +0.105 C  ATOM     49  C   UNL     1      35.751  45.331  17.646 -0.33 -0.05    +0.105 C  ATOM     50  N   UNL     1      36.737  45.212  16.551 -0.13 +0.13    -0.303 NA ATOM     51  C   UNL     1      36.726  46.410  15.716 -0.36 -0.07    +0.105 C  ENDBRANCH  43  45ENDBRANCH  30  39ENDBRANCH  25  28ENDBRANCH   1  24TORSDOF 7TERENDMDL