REMARK SMILES Oc1ccc(-c2nc3ccc(F)cc3nc2-c2ccc(CN3CCC(n4c(O)nc5ccccc54)CC3)cc2)cc1
REMARK SMILES IDX 17 1 18 2 19 3 20 4 38 5 39 6 16 7 6 8 7 9 8 10 15 11 9 12
REMARK SMILES IDX 14 13 10 14 13 15 11 16 12 17 5 18 2 19 3 20 41 21 4 22
REMARK SMILES IDX 40 23 1 24 21 26 22 27 23 28 37 29 24 30 36 31 25 32 26 33
REMARK SMILES IDX 27 34 35 35 29 36 34 37 30 38 33 39 31 40 32 41 28 42
REMARK H PARENT 1 25 28 43
ROOT
ATOM      1  C   UNL     1      -2.768   0.785   0.992  1.00  0.00     0.002 A 
ATOM      2  C   UNL     1      -1.639   1.622   1.016  1.00  0.00     0.011 A 
ATOM      3  C   UNL     1      -0.375   1.131   1.359  1.00  0.00     0.006 A 
ATOM      4  C   UNL     1      -0.207  -0.217   1.694  1.00  0.00    -0.034 A 
ATOM      5  C   UNL     1      -1.328  -1.057   1.694  1.00  0.00     0.006 A 
ATOM      6  C   UNL     1      -2.591  -0.561   1.355  1.00  0.00     0.011 A 
ENDROOT
BRANCH   1   7
ATOM      7  C   UNL     1      -4.086   1.328   0.616  1.00  0.00     0.097 A 
ATOM      8  C   UNL     1      -4.954   0.771  -0.337  1.00  0.00     0.097 A 
ATOM      9  N   UNL     1      -6.185   1.314  -0.568  1.00  0.00    -0.244 NA
ATOM     10  C   UNL     1      -6.519   2.421   0.116  1.00  0.00     0.090 A 
ATOM     11  N   UNL     1      -4.428   2.458   1.301  1.00  0.00    -0.244 NA
ATOM     12  C   UNL     1      -7.756   3.014  -0.106  1.00  0.00     0.033 A 
ATOM     13  C   UNL     1      -5.632   3.001   1.053  1.00  0.00     0.092 A 
ATOM     14  C   UNL     1      -8.133   4.171   0.575  1.00  0.00     0.041 A 
ATOM     15  C   UNL     1      -6.013   4.151   1.728  1.00  0.00     0.069 A 
ATOM     16  C   UNL     1      -7.252   4.730   1.488  1.00  0.00     0.125 A 
ATOM     17  F   UNL     1      -7.601   5.843   2.146  1.00  0.00    -0.207 F 
BRANCH   8  18
ATOM     18  C   UNL     1      -4.651  -0.390  -1.197  1.00  0.00     0.003 A 
ATOM     19  C   UNL     1      -4.127  -2.605  -2.852  1.00  0.00     0.115 A 
ATOM     20  C   UNL     1      -5.321  -2.547  -2.143  1.00  0.00     0.047 A 
ATOM     21  C   UNL     1      -3.196  -1.579  -2.759  1.00  0.00     0.047 A 
ATOM     22  C   UNL     1      -5.579  -1.442  -1.324  1.00  0.00     0.014 A 
ATOM     23  C   UNL     1      -3.460  -0.475  -1.943  1.00  0.00     0.014 A 
BRANCH  19  24
ATOM     24  O   UNL     1      -3.832  -3.659  -3.664  1.00  0.00    -0.508 OA
ATOM     25  H   UNL     1      -4.588  -4.265  -3.672  1.00  0.00     0.293 HD
ENDBRANCH  19  24
ENDBRANCH   8  18
ENDBRANCH   1   7
BRANCH   4  26
ATOM     26  C   UNL     1       1.158  -0.755   2.067  1.00  0.00     0.120 C 
BRANCH  26  27
ATOM     27  N   UNL     1       1.653  -1.813   1.170  1.00  0.00    -0.299 NA
ATOM     28  C   UNL     1       1.815  -1.386  -0.225  1.00  0.00     0.087 C 
ATOM     29  C   UNL     1       2.861  -2.454   1.715  1.00  0.00     0.087 C 
ATOM     30  C   UNL     1       3.005  -0.452  -0.449  1.00  0.00     0.041 C 
ATOM     31  C   UNL     1       4.097  -2.376   0.812  1.00  0.00     0.041 C 
ATOM     32  C   UNL     1       4.267  -0.950   0.277  1.00  0.00     0.095 C 
BRANCH  32  33
ATOM     33  N   UNL     1       5.478  -0.788  -0.515  1.00  0.00    -0.291 N 
ATOM     34  C   UNL     1       5.771  -1.427  -1.689  1.00  0.00     0.295 A 
ATOM     35  C   UNL     1       6.549   0.032  -0.226  1.00  0.00     0.072 A 
ATOM     36  N   UNL     1       6.935  -1.101  -2.179  1.00  0.00    -0.195 NA
ATOM     37  C   UNL     1       6.831   0.922   0.819  1.00  0.00     0.029 A 
ATOM     38  C   UNL     1       7.439  -0.191  -1.281  1.00  0.00     0.092 A 
ATOM     39  C   UNL     1       8.058   1.596   0.773  1.00  0.00     0.002 A 
ATOM     40  C   UNL     1       8.664   0.493  -1.306  1.00  0.00     0.031 A 
ATOM     41  C   UNL     1       8.962   1.387  -0.270  1.00  0.00     0.002 A 
BRANCH  34  42
ATOM     42  O   UNL     1       4.975  -2.283  -2.296  1.00  0.00    -0.480 OA
ATOM     43  H   UNL     1       5.504  -2.512  -3.083  1.00  0.00     0.296 HD
ENDBRANCH  34  42
ENDBRANCH  32  33
ENDBRANCH  26  27
ENDBRANCH   4  26
TORSDOF 7
