MODEL        6USER    Run = 6USERUSER    Estimated Free Energy of Binding    =  -7.55 kcal/mol  [=(1)+(2)+(3)-(4)]USERUSER    (1) Final Intermolecular Energy     = -12.32 kcal/molUSER        vdW + Hbond + desolv Energy     = -12.50 kcal/molUSER        Electrostatic Energy            =  -0.18 kcal/molUSER        Moving Ligand-Fixed Receptor    = -12.68 kcal/molUSER        Moving Ligand-Moving Receptor   =  +0.36 kcal/molUSER    (2) Final Total Internal Energy     =  -2.79 kcal/molUSER    (3) Torsional Free Energy           =  +4.77 kcal/molUSER    (4) Unbound System's Energy         =  -2.79 kcal/molUSERUSERREMARK SMILES COc1ccc(O)c(C(=O)c2ccc(C(=O)O[C@@H]3CCCNC[C@H]3NC(=O)c3ccc(N4CCOCC4)nc3)cc2)c1FREMARK SMILES IDX 17 1 15 2 16 3 14 4 11 5 12 6 41 7 13 8 40 9 9 10 10 11 8 12REMARK SMILES IDX 3 13 4 14 42 15 5 16 6 17 43 18 2 19 1 20 7 21 18 23 19 24REMARK SMILES IDX 24 26 23 27 22 28 21 30 20 31 25 33 26 34 27 36 28 37 29 38REMARK SMILES IDX 39 39 30 40 38 41 31 42 32 43 33 44 37 45 34 46 36 47 35 48REMARK H PARENT 7 22 22 29 25 35REMARK Flexibility Score:  213.900USER                              x       y       z     vdW  Elec       q    TypeUSER                           _______ _______ _______ _____ _____    ______ ____ROOTATOM      1  O   UNL     1      32.454  44.687  17.963 -0.11 +0.11    -0.457 OA ENDROOTBRANCH   1   2ATOM      2  C   UNL     1      32.511  45.414  16.826 -0.02 -0.19    +0.338 C  ATOM      3  O   UNL     1      31.559  45.877  16.219 -0.73 +0.11    -0.246 OA BRANCH   2   4ATOM      4  C   UNL     1      33.927  45.591  16.404 -0.19 -0.06    +0.060 A  ATOM      5  C   UNL     1      36.589  45.844  15.554 -0.35 -0.01    +0.023 A  ATOM      6  C   UNL     1      36.203  46.340  16.803 -0.35 -0.01    +0.013 A  ATOM      7  C   UNL     1      35.651  45.195  14.743 -0.33 -0.01    +0.013 A  ATOM      8  C   UNL     1      34.874  46.220  17.223 -0.35 -0.02    +0.016 A  ATOM      9  C   UNL     1      34.322  45.070  15.165 -0.19 -0.01    +0.016 A  BRANCH   5  10ATOM     10  C   UNL     1      37.998  45.909  15.090 -0.30 -0.07    +0.199 C  ATOM     11  O   UNL     1      38.353  45.205  14.143 -0.25 +0.08    -0.288 OA BRANCH  10  12ATOM     12  C   UNL     1      39.029  46.731  15.757 -0.37 -0.03    +0.104 A  ATOM     13  C   UNL     1      40.613  47.118  17.567 -0.40 -0.02    +0.155 A  ATOM     14  C   UNL     1      41.003  48.317  16.963 -0.45 -0.01    +0.053 A  ATOM     15  C   UNL     1      39.620  46.338  16.957 -0.33 -0.03    +0.179 A  ATOM     16  C   UNL     1      40.395  48.735  15.778 -0.55 -0.01    +0.051 A  ATOM     17  C   UNL     1      39.403  47.955  15.190 -0.43 -0.04    +0.130 A  ATOM     18  F   UNL     1      39.224  45.205  17.561 -0.09 +0.03    -0.202 F  BRANCH  13  19ATOM     19  O   UNL     1      41.122  46.616  18.734 -0.19 +0.01    -0.494 OA ATOM     20  C   UNL     1      42.436  47.020  19.102 -0.40 +0.03    +0.278 C  ENDBRANCH  13  19BRANCH  17  21ATOM     21  O   UNL     1      38.830  48.447  14.048 -0.22 +0.19    -0.507 OA ATOM     22  H   UNL     1      38.514  49.358  14.240 -0.26 -0.22    +0.293 HD ENDBRANCH  17  21ENDBRANCH  10  12ENDBRANCH   5  10ENDBRANCH   2   4ENDBRANCH   1   2BRANCH   1  23ATOM     23  C   UNL     1      32.078  43.299  17.826 -0.23 -0.04    +0.200 C  BRANCH  23  24ATOM     24  C   UNL     1      30.607  43.256  17.376 -0.28 -0.01    +0.049 CG0ATOM     25  G   UNL     1      30.133  41.980  16.682 +0.00 +0.00    +0.000 G0 ENDBRANCH  23  24BRANCH  23  26ATOM     26  C   UNL     1      32.407  42.486  19.110 -0.34 -0.01    +0.137 C  BRANCH  26  27ATOM     27  C   UNL     1      32.393  40.932  18.934 -0.35 +0.00    +0.109 C  BRANCH  27  28ATOM     28  N   UNL     1      31.183  40.358  18.339 -0.16 +0.02    -0.315 NA ATOM     29  H   UNL     1      31.231  39.340  18.402 +0.08 +0.01    +0.122 HD BRANCH  28  30ATOM     30  C   UNL     1      30.981  40.733  16.942 -0.26 -0.02    +0.081 C  BRANCH  30  31ATOM     31  C   UNL     1      30.136  41.980  16.681 -0.34 -0.01    +0.019 CG0ATOM     32  G   UNL     1      30.611  43.255  17.374 +0.00 +0.00    +0.000 G0 ENDBRANCH  30  31ENDBRANCH  28  30ENDBRANCH  27  28ENDBRANCH  26  27BRANCH  26  33ATOM     33  N   UNL     1      33.667  42.958  19.712 -0.17 -0.01    -0.344 N  ATOM     34  C   UNL     1      34.892  42.524  19.242 -0.30 -0.03    +0.253 C  ATOM     35  H   UNL     1      33.630  43.239  20.682 +0.10 +0.06    +0.164 HD ATOM     36  O   UNL     1      35.025  41.790  18.269 -0.45 +0.07    -0.269 OA BRANCH  34  37ATOM     37  C   UNL     1      36.083  42.991  19.988 -0.39 -0.00    +0.058 A  ATOM     38  C   UNL     1      36.534  42.389  21.159 -0.48 +0.00    +0.019 A  ATOM     39  C   UNL     1      36.774  44.101  19.535 -0.29 -0.01    +0.127 A  ATOM     40  C   UNL     1      37.652  42.919  21.808 -0.35 +0.00    +0.048 A  ATOM     41  N   UNL     1      37.866  44.620  20.153 -0.23 +0.01    -0.239 NA ATOM     42  C   UNL     1      38.299  44.047  21.298 -0.27 +0.00    +0.128 A  BRANCH  42  43ATOM     43  N   UNL     1      39.418  44.570  21.938 -0.09 -0.02    -0.352 N  ATOM     44  C   UNL     1      39.503  44.441  23.407 -0.18 +0.01    +0.146 C  ATOM     45  C   UNL     1      39.919  45.850  21.402 -0.21 +0.01    +0.146 C  ATOM     46  C   UNL     1      39.683  45.815  24.071 -0.17 +0.01    +0.181 C  ATOM     47  C   UNL     1      41.134  46.304  22.226 -0.19 +0.02    +0.181 C  ATOM     48  O   UNL     1      40.844  46.522  23.618 -0.07 -0.03    -0.378 OA ENDBRANCH  42  43ENDBRANCH  34  37ENDBRANCH  26  33ENDBRANCH  23  26ENDBRANCH   1  23TORSDOF 10TERENDMDL