REMARK SMILES COc1ccc(O)c(C(=O)c2ccc(C(=O)O[C@@H]3CCCNC[C@H]3NC(=O)c3ccc(N4CCN(CC(F)F)CC4)nc3)cc2)c1F
REMARK SMILES IDX 18 1 17 3 15 4 16 5 14 6 11 7 12 8 45 9 13 10 44 11 9 12
REMARK SMILES IDX 10 13 8 14 3 15 4 16 46 17 5 18 6 19 47 20 2 21 1 22 7 23
REMARK SMILES IDX 24 25 23 26 22 27 21 29 20 30 19 31 25 33 26 34 27 36 28 37
REMARK SMILES IDX 29 38 43 39 30 40 42 41 31 42 32 43 33 44 41 45 34 46 40 47
REMARK SMILES IDX 35 48 36 49 37 50 38 51 39 52
REMARK H PARENT 7 24 22 28 25 35
REMARK Flexibility Score:  169.900
ROOT
ATOM      1  C   UNL     1       0.713  -0.565   0.754  1.00  0.00     0.200 CG0
ATOM      2  G   UNL     1       0.089  -1.881   1.241  1.00  0.00     0.000 G0
ENDROOT
BRANCH   1   3
ATOM      3  O   UNL     1       2.110  -0.792   0.441  1.00  0.00    -0.457 OA
BRANCH   3   4
ATOM      4  C   UNL     1       3.000  -0.694   1.457  1.00  0.00     0.338 C 
ATOM      5  O   UNL     1       2.746  -0.439   2.622  1.00  0.00    -0.246 OA
BRANCH   4   6
ATOM      6  C   UNL     1       4.378  -0.930   0.947  1.00  0.00     0.060 A 
ATOM      7  C   UNL     1       7.011  -1.330   0.064  1.00  0.00     0.023 A 
ATOM      8  C   UNL     1       5.934  -1.696  -0.751  1.00  0.00     0.013 A 
ATOM      9  C   UNL     1       6.773  -0.796   1.336  1.00  0.00     0.013 A 
ATOM     10  C   UNL     1       4.622  -1.490  -0.315  1.00  0.00     0.016 A 
ATOM     11  C   UNL     1       5.460  -0.594   1.773  1.00  0.00     0.016 A 
BRANCH   7  12
ATOM     12  C   UNL     1       8.383  -1.588  -0.429  1.00  0.00     0.199 C 
ATOM     13  O   UNL     1       8.605  -2.635  -1.037  1.00  0.00    -0.288 OA
BRANCH  12  14
ATOM     14  C   UNL     1       9.517  -0.669  -0.188  1.00  0.00     0.104 A 
ATOM     15  C   UNL     1      10.423   1.569   0.157  1.00  0.00     0.155 A 
ATOM     16  C   UNL     1      11.703   1.027   0.289  1.00  0.00     0.053 A 
ATOM     17  C   UNL     1       9.340   0.712  -0.088  1.00  0.00     0.179 A 
ATOM     18  C   UNL     1      11.897  -0.351   0.156  1.00  0.00     0.051 A 
ATOM     19  C   UNL     1      10.814  -1.188  -0.094  1.00  0.00     0.130 A 
ATOM     20  F   UNL     1       8.121   1.249  -0.254  1.00  0.00    -0.202 F 
BRANCH  15  21
ATOM     21  O   UNL     1      10.113   2.899   0.247  1.00  0.00    -0.494 OA
ATOM     22  C   UNL     1      11.190   3.809   0.440  1.00  0.00     0.278 C 
ENDBRANCH  15  21
BRANCH  19  23
ATOM     23  O   UNL     1      11.097  -2.521  -0.239  1.00  0.00    -0.507 OA
ATOM     24  H   UNL     1      10.295  -2.963  -0.601  1.00  0.00     0.293 HD
ENDBRANCH  19  23
ENDBRANCH  12  14
ENDBRANCH   7  12
ENDBRANCH   4   6
ENDBRANCH   3   4
ENDBRANCH   1   3
BRANCH   1  25
ATOM     25  C   UNL     1       0.035   0.085  -0.476  1.00  0.00     0.137 C 
BRANCH  25  26
ATOM     26  C   UNL     1       0.440  -0.573  -1.815  1.00  0.00     0.109 C 
BRANCH  26  27
ATOM     27  N   UNL     1      -0.158  -1.895  -2.054  1.00  0.00    -0.315 NA
ATOM     28  H   UNL     1       0.087  -2.175  -3.006  1.00  0.00     0.122 HD
BRANCH  27  29
ATOM     29  C   UNL     1       0.341  -2.923  -1.139  1.00  0.00     0.081 C 
BRANCH  29  30
ATOM     30  C   UNL     1      -0.381  -2.903   0.203  1.00  0.00     0.019 C 
BRANCH  30  31
ATOM     31  C   UNL     1       0.089  -1.881   1.241  1.00  0.00     0.049 CG0
ATOM     32  G   UNL     1       0.713  -0.565   0.754  1.00  0.00     0.000 G0
ENDBRANCH  30  31
ENDBRANCH  29  30
ENDBRANCH  27  29
ENDBRANCH  26  27
ENDBRANCH  25  26
BRANCH  25  33
ATOM     33  N   UNL     1      -1.425   0.129  -0.386  1.00  0.00    -0.344 N 
ATOM     34  C   UNL     1      -2.088   0.931   0.512  1.00  0.00     0.253 C 
ATOM     35  H   UNL     1      -1.894  -0.653  -0.830  1.00  0.00     0.164 HD
ATOM     36  O   UNL     1      -1.516   1.711   1.264  1.00  0.00    -0.269 OA
BRANCH  34  37
ATOM     37  C   UNL     1      -3.559   0.779   0.573  1.00  0.00     0.058 A 
ATOM     38  C   UNL     1      -4.242   1.081   1.746  1.00  0.00     0.019 A 
ATOM     39  C   UNL     1      -4.311   0.355  -0.511  1.00  0.00     0.127 A 
ATOM     40  C   UNL     1      -5.628   0.920   1.790  1.00  0.00     0.048 A 
ATOM     41  N   UNL     1      -5.658   0.187  -0.484  1.00  0.00    -0.239 NA
ATOM     42  C   UNL     1      -6.318   0.468   0.661  1.00  0.00     0.128 A 
BRANCH  42  43
ATOM     43  N   UNL     1      -7.715   0.300   0.729  1.00  0.00    -0.354 N 
ATOM     44  C   UNL     1      -8.288  -0.485  -0.388  1.00  0.00     0.133 C 
ATOM     45  C   UNL     1      -8.397   1.596   0.968  1.00  0.00     0.133 C 
ATOM     46  C   UNL     1      -8.883   0.433  -1.478  1.00  0.00     0.106 C 
ATOM     47  C   UNL     1      -9.859   1.565   0.459  1.00  0.00     0.106 C 
ATOM     48  N   UNL     1      -9.977   1.317  -0.998  1.00  0.00    -0.294 NA
BRANCH  48  49
ATOM     49  C   UNL     1     -11.307   0.778  -1.364  1.00  0.00     0.158 C 
BRANCH  49  50
ATOM     50  C   UNL     1     -12.520   1.668  -1.051  1.00  0.00     0.356 C 
ATOM     51  F   UNL     1     -13.657   1.002  -1.388  1.00  0.00    -0.209 F 
ATOM     52  F   UNL     1     -12.494   2.792  -1.809  1.00  0.00    -0.209 F 
ENDBRANCH  49  50
ENDBRANCH  48  49
ENDBRANCH  42  43
ENDBRANCH  34  37
ENDBRANCH  25  33
ENDBRANCH   1  25
TORSDOF 12
