MODEL        2USER    Run = 2USERUSER    Estimated Free Energy of Binding    =  -6.89 kcal/mol  [=(1)+(2)+(3)-(4)]USERUSER    (1) Final Intermolecular Energy     = -11.37 kcal/molUSER        vdW + Hbond + desolv Energy     = -12.02 kcal/molUSER        Electrostatic Energy            =  -0.27 kcal/molUSER        Moving Ligand-Fixed Receptor    = -12.29 kcal/molUSER        Moving Ligand-Moving Receptor   =  +0.93 kcal/molUSER    (2) Final Total Internal Energy     =  -3.29 kcal/molUSER    (3) Torsional Free Energy           =  +4.47 kcal/molUSER    (4) Unbound System's Energy         =  -3.29 kcal/molUSERUSERREMARK SMILES COc1cc(F)c(O)c(C(=O)c2ccc(C(=O)O[C@@H]3CCCNC[C@H]3NC(=O)c3cncc(Cl)c3)cc2)c1REMARK SMILES IDX 18 1 16 2 17 3 15 4 12 5 13 6 37 7 14 8 36 9 10 10 11 11REMARK SMILES IDX 9 12 3 13 4 14 38 15 5 16 7 17 6 18 2 19 1 20 8 21 19 23REMARK SMILES IDX 25 25 24 26 23 27 22 29 21 30 20 31 26 33 27 34 28 36 29 37REMARK SMILES IDX 30 38 35 39 31 40 33 41 32 42 34 43REMARK H PARENT 8 22 23 28 26 35REMARK Flexibility Score:   99.900USER                              x       y       z     vdW  Elec       q    TypeUSER                           _______ _______ _______ _____ _____    ______ ____ROOTATOM      1  O   UNL     1      39.422  45.766  15.245 -0.10 +0.08    -0.457 OA ENDROOTBRANCH   1   2ATOM      2  C   UNL     1      39.929  47.003  15.473 -0.28 -0.06    +0.338 C  ATOM      3  O   UNL     1      39.799  47.967  14.734 -0.38 +0.06    -0.246 OA BRANCH   2   4ATOM      4  C   UNL     1      40.683  47.046  16.752 -0.44 -0.01    +0.060 A  ATOM      5  C   UNL     1      42.079  47.015  19.203 -0.49 +0.00    +0.023 A  ATOM      6  C   UNL     1      41.346  45.897  18.792 -0.47 +0.00    +0.013 A  ATOM      7  C   UNL     1      42.114  48.144  18.369 -0.30 -0.00    +0.013 A  ATOM      8  C   UNL     1      40.642  45.919  17.582 -0.47 -0.00    +0.016 A  ATOM      9  C   UNL     1      41.425  48.162  17.149 -0.47 -0.00    +0.016 A  BRANCH   5  10ATOM     10  C   UNL     1      42.868  47.054  20.471 -0.34 +0.05    +0.196 C  ATOM     11  O   UNL     1      44.091  47.183  20.439 -0.43 -0.19    -0.288 OA BRANCH  10  12ATOM     12  C   UNL     1      42.240  46.864  21.792 -0.25 +0.01    +0.071 A  ATOM     13  C   UNL     1      40.929  45.420  23.240 -0.13 +0.01    +0.122 A  ATOM     14  C   UNL     1      41.034  46.371  24.257 -0.12 +0.01    +0.089 A  ATOM     15  C   UNL     1      41.542  45.664  22.008 -0.23 +0.01    +0.062 A  ATOM     16  C   UNL     1      41.755  47.540  24.044 -0.17 +0.02    +0.169 A  ATOM     17  C   UNL     1      42.366  47.795  22.820 -0.21 +0.03    +0.162 A  ATOM     18  F   UNL     1      41.857  48.446  25.026 -0.08 -0.03    -0.203 F  BRANCH  13  19ATOM     19  O   UNL     1      40.203  44.309  23.569 +0.01 -0.02    -0.497 OA ATOM     20  C   UNL     1      40.731  43.047  23.170 -0.17 +0.01    +0.278 C  ENDBRANCH  13  19BRANCH  17  21ATOM     21  O   UNL     1      43.081  48.948  22.647 -0.64 -0.14    -0.504 OA ATOM     22  H   UNL     1      43.671  48.821  21.880 -0.44 -0.03    +0.293 HD ENDBRANCH  17  21ENDBRANCH  10  12ENDBRANCH   5  10ENDBRANCH   2   4ENDBRANCH   1   2BRANCH   1  23ATOM     23  C   UNL     1      38.011  45.695  14.888 -0.30 -0.07    +0.200 CG0ATOM     24  G   UNL     1      37.984  46.242  13.451 +0.00 +0.00    +0.000 G0 BRANCH  23  25ATOM     25  C   UNL     1      37.130  46.541  15.848 -0.35 -0.08    +0.137 C  BRANCH  25  26ATOM     26  C   UNL     1      35.802  47.024  15.199 -0.14 -0.12    +0.109 C  BRANCH  26  27ATOM     27  N   UNL     1      35.109  46.180  14.232 -0.21 +0.25    -0.315 NA ATOM     28  H   UNL     1      35.164  45.197  14.492 +0.08 -0.07    +0.122 HD BRANCH  27  29ATOM     29  C   UNL     1      35.497  46.390  12.850 -0.52 -0.05    +0.081 C  BRANCH  29  30ATOM     30  C   UNL     1      36.854  45.765  12.553 -0.63 -0.01    +0.019 C  BRANCH  30  31ATOM     31  C   UNL     1      37.987  46.248  13.447 -0.41 -0.01    +0.049 CG0ATOM     32  G   UNL     1      38.013  45.705  14.885 +0.00 +0.00    +0.000 G0 ENDBRANCH  30  31ENDBRANCH  29  30ENDBRANCH  27  29ENDBRANCH  26  27ENDBRANCH  25  26BRANCH  25  33ATOM     33  N   UNL     1      36.805  45.811  17.085 -0.13 +0.16    -0.344 N  ATOM     34  C   UNL     1      36.269  44.544  17.066 -0.21 -0.09    +0.253 C  ATOM     35  H   UNL     1      37.151  46.227  17.943 +0.09 -0.06    +0.164 HD ATOM     36  O   UNL     1      35.943  43.986  16.024 -0.24 +0.10    -0.269 OA BRANCH  34  37ATOM     37  C   UNL     1      36.079  43.839  18.361 -0.29 -0.01    +0.059 A  ATOM     38  C   UNL     1      35.204  42.772  18.541 -0.30 -0.03    +0.124 A  ATOM     39  C   UNL     1      36.807  44.276  19.474 -0.35 -0.00    +0.037 A  ATOM     40  N   UNL     1      35.030  42.126  19.724 -0.27 +0.01    -0.262 NA ATOM     41  C   UNL     1      36.644  43.636  20.696 -0.38 -0.00    +0.060 A  ATOM     42  C   UNL     1      35.756  42.577  20.775 -0.35 +0.00    +0.131 A  ATOM     43  Cl  UNL     1      37.518  44.150  22.079 -0.52 -0.01    -0.083 Cl ENDBRANCH  34  37ENDBRANCH  25  33ENDBRANCH  23  25ENDBRANCH   1  23TORSDOF 9TERENDMDL