MODEL        7USER    Run = 7USERUSER    Estimated Free Energy of Binding    = -13.07 kcal/mol  [=(1)+(2)+(3)-(4)]USERUSER    (1) Final Intermolecular Energy     = -15.16 kcal/molUSER        vdW + Hbond + desolv Energy     = -14.97 kcal/molUSER        Electrostatic Energy            =  -0.19 kcal/molUSER        Moving Ligand-Fixed Receptor    = -15.16 kcal/molUSER        Moving Ligand-Moving Receptor   =  +0.00 kcal/molUSER    (2) Final Total Internal Energy     =  -2.46 kcal/molUSER    (3) Torsional Free Energy           =  +2.09 kcal/molUSER    (4) Unbound System's Energy         =  -2.46 kcal/molUSERUSERREMARK SMILES Oc1ccc(-c2nc3ccc(F)cc3nc2-c2ccc(CN3CCC(n4c(O)nc5ccccc54)CC3)cc2)cc1REMARK SMILES IDX 17 1 18 2 19 3 20 4 38 5 39 6 16 7 6 8 7 9 8 10 15 11 9 12REMARK SMILES IDX 14 13 10 14 13 15 11 16 12 17 5 18 2 19 3 20 41 21 4 22REMARK SMILES IDX 40 23 1 24 21 26 22 27 23 28 37 29 24 30 36 31 25 32 26 33REMARK SMILES IDX 27 34 35 35 29 36 34 37 30 38 33 39 31 40 32 41 28 42REMARK H PARENT 1 25 28 43USER                              x       y       z     vdW  Elec       q    TypeUSER                           _______ _______ _______ _____ _____    ______ ____ROOTATOM      1  C   UNL     1      35.722  44.541  17.547 -0.31 -0.00    +0.002 A  ATOM      2  C   UNL     1      35.795  43.863  16.318 -0.37 -0.00    +0.011 A  ATOM      3  C   UNL     1      35.720  44.549  15.101 -0.29 -0.00    +0.006 A  ATOM      4  C   UNL     1      35.563  45.939  15.082 -0.35 +0.03    -0.034 A  ATOM      5  C   UNL     1      35.469  46.625  16.300 -0.23 -0.01    +0.006 A  ATOM      6  C   UNL     1      35.540  45.934  17.514 -0.37 -0.01    +0.011 A  ENDROOTBRANCH   1   7ATOM      7  C   UNL     1      35.816  43.793  18.814 -0.29 -0.02    +0.097 A  ATOM      8  C   UNL     1      34.931  42.785  19.231 -0.34 -0.01    +0.097 A  ATOM      9  N   UNL     1      35.141  42.105  20.395 -0.31 -0.01    -0.244 NA ATOM     10  C   UNL     1      36.196  42.460  21.146 -0.42 +0.00    +0.090 A  ATOM     11  N   UNL     1      36.881  44.155  19.586 -0.22 +0.02    -0.244 NA ATOM     12  C   UNL     1      36.432  41.803  22.348 -0.50 +0.00    +0.033 A  ATOM     13  C   UNL     1      37.070  43.497  20.742 -0.34 -0.00    +0.092 A  ATOM     14  C   UNL     1      37.509  42.152  23.161 -0.39 +0.00    +0.041 A  ATOM     15  C   UNL     1      38.140  43.839  21.554 -0.31 +0.00    +0.069 A  ATOM     16  C   UNL     1      38.355  43.173  22.754 -0.25 +0.01    +0.125 A  ATOM     17  F   UNL     1      39.392  43.520  23.527 -0.03 -0.01    -0.207 F  BRANCH   8  18ATOM     18  C   UNL     1      33.701  42.378  18.523 -0.39 -0.00    +0.003 A  ATOM     19  C   UNL     1      31.363  41.644  17.139 -0.22 -0.04    +0.115 A  ATOM     20  C   UNL     1      31.635  42.989  17.360 -0.27 -0.01    +0.047 A  ATOM     21  C   UNL     1      32.237  40.661  17.585 -0.31 -0.01    +0.047 A  ATOM     22  C   UNL     1      32.800  43.350  18.045 -0.32 -0.00    +0.014 A  ATOM     23  C   UNL     1      33.402  41.026  18.266 -0.18 -0.00    +0.014 A  BRANCH  19  24ATOM     24  O   UNL     1      30.243  41.244  16.474 -0.10 +0.15    -0.508 OA ATOM     25  H   UNL     1      30.505  40.874  15.618 -0.11 -0.13    +0.293 HD ENDBRANCH  19  24ENDBRANCH   8  18ENDBRANCH   1   7BRANCH   4  26ATOM     26  C   UNL     1      35.480  46.688  13.769 -0.44 -0.09    +0.120 C  BRANCH  26  27ATOM     27  N   UNL     1      36.790  47.033  13.189 -0.35 +0.13    -0.299 NA ATOM     28  C   UNL     1      37.279  48.364  13.569 -0.53 -0.04    +0.087 C  ATOM     29  C   UNL     1      37.778  45.970  13.432 -0.39 -0.03    +0.087 C  ATOM     30  C   UNL     1      37.746  48.456  15.023 -0.57 -0.03    +0.041 C  ATOM     31  C   UNL     1      39.026  46.413  14.204 -0.43 -0.01    +0.041 C  ATOM     32  C   UNL     1      38.621  47.254  15.419 -0.45 -0.04    +0.095 C  BRANCH  32  33ATOM     33  N   UNL     1      39.758  47.629  16.248 -0.28 +0.08    -0.291 N  ATOM     34  C   UNL     1      40.586  48.701  16.052 -0.33 -0.06    +0.295 A  ATOM     35  C   UNL     1      40.210  46.973  17.374 -0.45 -0.01    +0.072 A  ATOM     36  N   UNL     1      41.535  48.791  16.942 -0.89 -0.01    -0.195 NA ATOM     37  C   UNL     1      39.781  45.832  18.066 -0.43 -0.00    +0.029 A  ATOM     38  C   UNL     1      41.320  47.722  17.778 -0.44 -0.01    +0.092 A  ATOM     39  C   UNL     1      40.514  45.458  19.199 -0.45 +0.00    +0.002 A  ATOM     40  C   UNL     1      42.041  47.327  18.915 -0.48 +0.00    +0.031 A  ATOM     41  C   UNL     1      41.626  46.190  19.620 -0.44 +0.00    +0.002 A  BRANCH  34  42ATOM     42  O   UNL     1      40.460  49.578  15.078 -0.25 +0.19    -0.480 OA ATOM     43  H   UNL     1      39.670  50.073  15.367 -0.17 -0.22    +0.296 HD ENDBRANCH  34  42ENDBRANCH  32  33ENDBRANCH  26  27ENDBRANCH   4  26TORSDOF 7TERENDMDL