MODEL        3USER    Run = 3USERUSER    Estimated Free Energy of Binding    =  -8.45 kcal/mol  [=(1)+(2)+(3)-(4)]USERUSER    (1) Final Intermolecular Energy     = -12.63 kcal/molUSER        vdW + Hbond + desolv Energy     = -12.49 kcal/molUSER        Electrostatic Energy            =  -0.37 kcal/molUSER        Moving Ligand-Fixed Receptor    = -12.86 kcal/molUSER        Moving Ligand-Moving Receptor   =  +0.23 kcal/molUSER    (2) Final Total Internal Energy     =  -2.83 kcal/molUSER    (3) Torsional Free Energy           =  +4.18 kcal/molUSER    (4) Unbound System's Energy         =  -2.83 kcal/molUSERUSERREMARK SMILES COc1ccc(O)c(C(=O)c2ccc(C(=O)N[C@@H]3CCCNC[C@H]3NC(=O)c3cnc(F)c(Cl)c3)cc2)c1FREMARK SMILES IDX 15 1 16 2 17 3 14 5 11 6 12 7 37 8 13 9 36 10 9 11 10 12REMARK SMILES IDX 8 13 3 14 4 15 38 16 5 17 6 18 39 19 2 20 1 21 7 22 18 24REMARK SMILES IDX 19 25 24 27 23 28 22 29 21 31 20 32 25 34 26 35 27 37 28 38REMARK SMILES IDX 29 39 35 40 30 41 33 42 31 43 34 44 32 45REMARK H PARENT 17 4 7 23 22 30 25 36REMARK Flexibility Score:   88.900USER                              x       y       z     vdW  Elec       q    TypeUSER                           _______ _______ _______ _____ _____    ______ ____ROOTATOM      1  C   UNL     1      27.234  37.248  21.722 -0.22 -0.11    +0.251 C  ATOM      2  O   UNL     1      28.245  37.932  21.836 -0.05 +0.03    -0.269 OA ATOM      3  N   UNL     1      25.958  37.760  21.703 -0.14 +0.30    -0.347 N  ATOM      4  H   UNL     1      25.175  37.137  21.552 -0.19 -0.30    +0.164 HD ENDROOTBRANCH   1   5ATOM      5  C   UNL     1      27.349  35.785  21.527 -0.28 -0.02    +0.039 A  ATOM      6  C   UNL     1      27.633  33.024  21.182 -0.36 -0.01    +0.023 A  ATOM      7  C   UNL     1      27.166  33.816  20.126 -0.34 -0.01    +0.013 A  ATOM      8  C   UNL     1      28.003  33.629  22.394 -0.42 -0.00    +0.013 A  ATOM      9  C   UNL     1      27.013  35.195  20.302 -0.27 -0.01    +0.014 A  ATOM     10  C   UNL     1      27.865  35.008  22.566 -0.37 -0.00    +0.014 A  BRANCH   6  11ATOM     11  C   UNL     1      27.834  31.559  21.043 -0.17 -0.16    +0.199 C  ATOM     12  O   UNL     1      27.315  30.978  20.088 -0.27 +0.37    -0.288 OA BRANCH  11  13ATOM     13  C   UNL     1      28.581  30.734  22.019 -0.33 -0.05    +0.104 A  ATOM     14  C   UNL     1      30.659  30.015  23.078 -0.47 +0.00    +0.155 A  ATOM     15  C   UNL     1      29.933  29.171  23.922 -0.23 +0.00    +0.053 A  ATOM     16  C   UNL     1      29.973  30.780  22.121 -0.39 -0.03    +0.179 A  ATOM     17  C   UNL     1      28.544  29.084  23.799 -0.52 -0.01    +0.051 A  ATOM     18  C   UNL     1      27.877  29.850  22.847 -0.39 -0.05    +0.130 A  ATOM     19  F   UNL     1      30.685  31.555  21.287 -0.08 +0.03    -0.202 F  BRANCH  14  20ATOM     20  O   UNL     1      32.020  30.177  23.096 -0.28 -0.05    -0.494 OA ATOM     21  C   UNL     1      32.567  30.955  24.154 -0.16 +0.07    +0.278 C  ENDBRANCH  14  20BRANCH  18  22ATOM     22  O   UNL     1      26.519  29.681  22.777 -0.05 +0.35    -0.507 OA ATOM     23  H   UNL     1      26.223  29.972  21.883 -0.17 -0.58    +0.293 HD ENDBRANCH  18  22ENDBRANCH  11  13ENDBRANCH   6  11ENDBRANCH   1   5BRANCH   3  24ATOM     24  C   UNL     1      25.681  39.210  21.801 -0.35 -0.04    +0.106 C  BRANCH  24  25ATOM     25  C   UNL     1      24.177  39.371  22.084 -0.41 -0.01    +0.028 CG0ATOM     26  G   UNL     1      23.521  40.645  21.565 +0.00 +0.00    +0.000 G0 ENDBRANCH  24  25BRANCH  24  27ATOM     27  C   UNL     1      26.101  39.969  20.505 -0.28 -0.03    +0.118 C  BRANCH  27  28ATOM     28  C   UNL     1      25.873  41.499  20.579 -0.39 -0.02    +0.108 C  BRANCH  28  29ATOM     29  N   UNL     1      25.463  42.099  21.848 -0.42 +0.06    -0.315 NA ATOM     30  H   UNL     1      25.698  43.093  21.817 -0.51 -0.07    +0.122 HD BRANCH  29  31ATOM     31  C   UNL     1      24.050  41.947  22.158 -0.66 -0.02    +0.081 C  BRANCH  31  32ATOM     32  C   UNL     1      23.519  40.647  21.566 -0.38 -0.00    +0.017 CG0ATOM     33  G   UNL     1      24.176  39.372  22.083 +0.00 +0.00    +0.000 G0 ENDBRANCH  31  32ENDBRANCH  29  31ENDBRANCH  28  29ENDBRANCH  27  28BRANCH  27  34ATOM     34  N   UNL     1      27.515  39.726  20.169 -0.05 +0.03    -0.346 N  ATOM     35  C   UNL     1      27.937  39.393  18.907 -0.16 +0.03    +0.253 C  ATOM     36  H   UNL     1      28.166  39.918  20.924 +0.10 -0.00    +0.164 HD ATOM     37  O   UNL     1      27.162  39.255  17.967 -0.18 -0.08    -0.269 OA BRANCH  35  38ATOM     38  C   UNL     1      29.393  39.176  18.695 -0.29 +0.01    +0.059 A  ATOM     39  C   UNL     1      29.873  37.869  18.779 -0.30 +0.05    +0.128 A  ATOM     40  C   UNL     1      30.321  40.192  18.441 -0.25 +0.00    +0.040 A  ATOM     41  N   UNL     1      31.177  37.519  18.626 -0.69 -0.08    -0.226 NA ATOM     42  C   UNL     1      31.667  39.862  18.283 -0.37 -0.00    +0.096 A  ATOM     43  C   UNL     1      32.045  38.527  18.379 -0.30 +0.02    +0.231 A  ATOM     44  Cl  UNL     1      32.821  41.106  17.982 -0.59 +0.02    -0.079 Cl ATOM     45  F   UNL     1      33.335  38.188  18.223 +0.13 +0.03    -0.183 F  ENDBRANCH  35  38ENDBRANCH  27  34ENDBRANCH  24  27ENDBRANCH   3  24TORSDOF 8TERENDMDL