MODEL        1USER    Run = 1USERUSER    Estimated Free Energy of Binding    =  -6.97 kcal/mol  [=(1)+(2)+(3)-(4)]USERUSER    (1) Final Intermolecular Energy     = -12.34 kcal/molUSER        vdW + Hbond + desolv Energy     = -12.36 kcal/molUSER        Electrostatic Energy            =  -0.26 kcal/molUSER        Moving Ligand-Fixed Receptor    = -12.62 kcal/molUSER        Moving Ligand-Moving Receptor   =  +0.27 kcal/molUSER    (2) Final Total Internal Energy     =  -4.03 kcal/molUSER    (3) Torsional Free Energy           =  +5.37 kcal/molUSER    (4) Unbound System's Energy         =  -4.03 kcal/molUSERUSERREMARK SMILES COc1ccc(O)c(C(=O)c2ccc(C(=O)O[C@@H]3CCCNC[C@H]3NC(=O)c3ccc(N4CCN(CC(F)F)CC4)nc3)cc2)c1FREMARK SMILES IDX 18 1 17 3 15 4 16 5 14 6 11 7 12 8 45 9 13 10 44 11 9 12REMARK SMILES IDX 10 13 8 14 3 15 4 16 46 17 5 18 6 19 47 20 2 21 1 22 7 23REMARK SMILES IDX 24 25 23 26 22 27 21 29 20 30 19 31 25 33 26 34 27 36 28 37REMARK SMILES IDX 29 38 43 39 30 40 42 41 31 42 32 43 33 44 41 45 34 46 40 47REMARK SMILES IDX 35 48 36 49 37 50 38 51 39 52REMARK H PARENT 7 24 22 28 25 35REMARK Flexibility Score:  169.900USER                              x       y       z     vdW  Elec       q    TypeUSER                           _______ _______ _______ _____ _____    ______ ____ROOTATOM      1  C   UNL     1      37.095  42.734  26.407 -0.28 -0.02    +0.200 CG0ATOM      2  G   UNL     1      35.808  41.957  26.097 +0.00 +0.00    +0.000 G0 ENDROOTBRANCH   1   3ATOM      3  O   UNL     1      38.065  42.478  25.361 -0.08 +0.00    -0.457 OA BRANCH   3   4ATOM      4  C   UNL     1      37.618  42.482  24.083 -0.20 +0.02    +0.338 C  ATOM      5  O   UNL     1      36.598  41.957  23.670 -0.40 -0.01    -0.246 OA BRANCH   4   6ATOM      6  C   UNL     1      38.574  43.220  23.214 -0.26 +0.00    +0.060 A  ATOM      7  C   UNL     1      40.306  44.675  21.553 -0.28 +0.00    +0.023 A  ATOM      8  C   UNL     1      40.746  43.496  22.165 -0.29 +0.00    +0.013 A  ATOM      9  C   UNL     1      39.011  45.147  21.798 -0.33 +0.00    +0.013 A  ATOM     10  C   UNL     1      39.881  42.767  22.987 -0.24 +0.00    +0.016 A  ATOM     11  C   UNL     1      38.148  44.418  22.624 -0.33 +0.00    +0.016 A  BRANCH   7  12ATOM     12  C   UNL     1      41.263  45.427  20.710 -0.28 +0.02    +0.199 C  ATOM     13  O   UNL     1      42.404  45.611  21.132 -0.20 -0.07    -0.288 OA BRANCH  12  14ATOM     14  C   UNL     1      40.903  46.010  19.398 -0.37 +0.00    +0.104 A  ATOM     15  C   UNL     1      39.455  46.146  17.441 -0.34 -0.03    +0.155 A  ATOM     16  C   UNL     1      40.256  47.165  16.922 -0.47 -0.01    +0.053 A  ATOM     17  C   UNL     1      39.792  45.572  18.675 -0.32 -0.01    +0.179 A  ATOM     18  C   UNL     1      41.391  47.587  17.621 -0.46 -0.00    +0.051 A  ATOM     19  C   UNL     1      41.717  47.003  18.842 -0.42 +0.00    +0.130 A  ATOM     20  F   UNL     1      39.037  44.565  19.143 -0.10 +0.01    -0.202 F  BRANCH  15  21ATOM     21  O   UNL     1      38.335  45.637  16.841 -0.08 +0.14    -0.494 OA ATOM     22  C   UNL     1      37.455  46.560  16.209 -0.25 -0.14    +0.278 C  ENDBRANCH  15  21BRANCH  19  23ATOM     23  O   UNL     1      42.861  47.456  19.445 -0.27 -0.07    -0.507 OA ATOM     24  H   UNL     1      42.658  47.620  20.394 +0.07 +0.03    +0.293 HD ENDBRANCH  19  23ENDBRANCH  12  14ENDBRANCH   7  12ENDBRANCH   4   6ENDBRANCH   3   4ENDBRANCH   1   3BRANCH   1  25ATOM     25  C   UNL     1      36.935  44.265  26.563 -0.32 -0.02    +0.137 C  BRANCH  25  26ATOM     26  C   UNL     1      36.509  44.693  27.986 -0.42 -0.02    +0.109 C  BRANCH  26  27ATOM     27  N   UNL     1      35.344  43.970  28.520 -0.29 +0.11    -0.315 NA ATOM     28  H   UNL     1      34.887  44.584  29.198 -0.01 -0.03    +0.122 HD BRANCH  27  29ATOM     29  C   UNL     1      34.363  43.625  27.490 -0.52 -0.01    +0.081 C  BRANCH  29  30ATOM     30  C   UNL     1      34.563  42.214  26.950 -0.52 -0.00    +0.019 C  BRANCH  30  31ATOM     31  C   UNL     1      35.806  41.956  26.096 -0.49 -0.01    +0.049 CG0ATOM     32  G   UNL     1      37.093  42.735  26.406 +0.00 +0.00    +0.000 G0 ENDBRANCH  30  31ENDBRANCH  29  30ENDBRANCH  27  29ENDBRANCH  26  27ENDBRANCH  25  26BRANCH  25  33ATOM     33  N   UNL     1      38.124  45.022  26.171 -0.08 +0.01    -0.344 N  ATOM     34  C   UNL     1      38.054  46.275  25.611 -0.21 +0.01    +0.253 C  ATOM     35  H   UNL     1      38.967  44.463  26.091 +0.07 -0.00    +0.164 HD ATOM     36  O   UNL     1      37.000  46.879  25.449 -0.85 -0.03    -0.269 OA BRANCH  34  37ATOM     37  C   UNL     1      39.331  46.867  25.153 -0.21 +0.00    +0.058 A  ATOM     38  C   UNL     1      40.474  46.746  25.934 -0.14 +0.00    +0.019 A  ATOM     39  C   UNL     1      39.451  47.540  23.947 -0.27 +0.01    +0.127 A  ATOM     40  C   UNL     1      41.667  47.321  25.493 -0.13 +0.00    +0.048 A  ATOM     41  N   UNL     1      40.601  48.111  23.506 -0.13 -0.03    -0.239 NA ATOM     42  C   UNL     1      41.708  48.003  24.273 -0.24 +0.02    +0.128 A  BRANCH  42  43ATOM     43  N   UNL     1      42.918  48.587  23.851 -0.21 -0.09    -0.354 N  ATOM     44  C   UNL     1      43.332  48.207  22.481 -0.25 +0.02    +0.133 C  ATOM     45  C   UNL     1      43.980  48.412  24.872 -0.23 +0.02    +0.133 C  ATOM     46  C   UNL     1      44.383  47.075  22.501 -0.28 +0.05    +0.106 C  ATOM     47  C   UNL     1      45.390  48.477  24.236 -0.16 +0.02    +0.106 C  ATOM     48  N   UNL     1      45.635  47.421  23.223 -0.13 -0.12    -0.294 NA BRANCH  48  49ATOM     49  C   UNL     1      46.716  47.795  22.282 -0.12 +0.12    +0.158 C  BRANCH  49  50ATOM     50  C   UNL     1      47.983  46.926  22.311 -0.04 +0.28    +0.356 C  ATOM     51  F   UNL     1      48.551  46.930  21.075 +0.00 -0.25    -0.209 F  ATOM     52  F   UNL     1      47.670  45.636  22.586 -0.03 -0.17    -0.209 F  ENDBRANCH  49  50ENDBRANCH  48  49ENDBRANCH  42  43ENDBRANCH  34  37ENDBRANCH  25  33ENDBRANCH   1  25TORSDOF 12TERENDMDL