REMARK SMILES c1ccc(-c2cnc3[nH]occ(-c4ccc5[nH]ncc5c4)ncc3c2)cc1
REMARK SMILES IDX 5 1 6 2 7 3 8 4 9 5 10 6 11 7 12 8 22 9 23 10 24 11 25 12
REMARK SMILES IDX 4 14 1 15 2 16 27 17 3 18 26 19 13 20 14 21 21 22 15 23
REMARK SMILES IDX 20 24 16 25 19 26 17 27 18 28
REMARK H PARENT 9 13 17 29
ROOT
ATOM      1  C   UNL     1       3.107  -0.024   0.852  1.00  0.00     0.001 A 
ATOM      2  C   UNL     1       2.884  -0.720   2.036  1.00  0.00     0.122 A 
ATOM      3  N   UNL     1       1.889  -1.615   2.247  1.00  0.00    -0.235 NA
ATOM      4  C   UNL     1       1.031  -1.860   1.217  1.00  0.00     0.168 A 
ATOM      5  N   UNL     1      -0.021  -2.709   1.549  1.00  0.00    -0.204 N 
ATOM      6  O   UNL     1      -0.862  -3.286   0.619  1.00  0.00    -0.386 OA
ATOM      7  C   UNL     1      -1.871  -2.381   0.383  1.00  0.00     0.255 A 
ATOM      8  C   UNL     1      -1.839  -1.440  -0.585  1.00  0.00     0.108 A 
ATOM      9  N   UNL     1      -0.932  -1.083  -1.528  1.00  0.00    -0.252 NA
ATOM     10  C   UNL     1       0.327  -1.534  -1.345  1.00  0.00     0.124 A 
ATOM     11  C   UNL     1       1.188  -1.244  -0.031  1.00  0.00     0.039 A 
ATOM     12  C   UNL     1       2.226  -0.313  -0.192  1.00  0.00     0.024 A 
ATOM     13  H   UNL     1       0.112  -3.200   2.417  1.00  0.00     0.211 HD
ENDROOT
BRANCH   1  14
ATOM     14  C   UNL     1       4.208   0.940   0.706  1.00  0.00    -0.017 A 
ATOM     15  C   UNL     1       6.329   2.783   0.428  1.00  0.00     0.000 A 
ATOM     16  C   UNL     1       6.127   1.799  -0.537  1.00  0.00     0.001 A 
ATOM     17  C   UNL     1       5.479   2.856   1.528  1.00  0.00     0.001 A 
ATOM     18  C   UNL     1       5.075   0.888  -0.399  1.00  0.00     0.009 A 
ATOM     19  C   UNL     1       4.429   1.944   1.665  1.00  0.00     0.009 A 
ENDBRANCH   1  14
BRANCH   8  20
ATOM     20  C   UNL     1      -3.097  -0.657  -0.676  1.00  0.00     0.004 A 
ATOM     21  C   UNL     1      -3.272   0.476   0.131  1.00  0.00     0.013 A 
ATOM     22  C   UNL     1      -4.118  -1.063  -1.553  1.00  0.00     0.022 A 
ATOM     23  C   UNL     1      -4.452   1.228   0.096  1.00  0.00     0.029 A 
ATOM     24  C   UNL     1      -5.309  -0.320  -1.600  1.00  0.00     0.020 A 
ATOM     25  C   UNL     1      -5.449   0.796  -0.783  1.00  0.00     0.065 A 
ATOM     26  C   UNL     1      -6.525  -0.387  -2.316  1.00  0.00     0.143 A 
ATOM     27  N   UNL     1      -6.692   1.292  -1.066  1.00  0.00    -0.278 N 
ATOM     28  N   UNL     1      -7.379   0.589  -1.987  1.00  0.00    -0.183 NA
ATOM     29  H   UNL     1      -7.130   2.110  -0.661  1.00  0.00     0.190 HD
ENDBRANCH   8  20
TORSDOF 2
