MODEL        8USER    Run = 8USERUSER    Estimated Free Energy of Binding    =  -9.54 kcal/mol  [=(1)+(2)+(3)-(4)]USERUSER    (1) Final Intermolecular Energy     = -13.12 kcal/molUSER        vdW + Hbond + desolv Energy     = -12.73 kcal/molUSER        Electrostatic Energy            =  -0.39 kcal/molUSER        Moving Ligand-Fixed Receptor    = -13.12 kcal/molUSER        Moving Ligand-Moving Receptor   =  +0.00 kcal/molUSER    (2) Final Total Internal Energy     =  -1.87 kcal/molUSER    (3) Torsional Free Energy           =  +3.58 kcal/molUSER    (4) Unbound System's Energy         =  -1.87 kcal/molUSERUSERREMARK SMILES C=NC=CC(=CC(Cl)=Cc1cn(CCCN)[nH]1)c1ccc2[nH]ccc2c1REMARK SMILES IDX 7 1 8 2 6 3 5 4 4 5 3 6 2 7 1 8 18 9 19 10 26 11 20 12 25 13REMARK SMILES IDX 21 14 24 15 22 16 23 17 9 19 10 20 11 21 17 22 12 23 13 25REMARK SMILES IDX 14 26 15 27 16 28REMARK H PARENT 22 18 17 24 16 29 16 30USER                              x       y       z     vdW  Elec       q    TypeUSER                           _______ _______ _______ _____ _____    ______ ____ROOTATOM      1  C   UNL     1      36.734  45.269  17.281 -0.37 -0.02    +0.043 C  ATOM      2  Cl  UNL     1      37.231  44.468  18.734 -0.49 +0.01    -0.084 Cl ENDROOTBRANCH   1   3ATOM      3  C   UNL     1      37.778  45.389  16.275 -0.39 -0.01    +0.029 C  BRANCH   3   4ATOM      4  C   UNL     1      38.369  46.504  15.790 -0.45 +0.01    -0.015 C  BRANCH   4   5ATOM      5  C   UNL     1      37.907  47.208  14.596 -0.51 -0.01    +0.029 C  BRANCH   5   6ATOM      6  C   UNL     1      37.851  46.690  13.360 -0.44 -0.03    +0.111 C  BRANCH   6   7ATOM      7  N   UNL     1      37.385  47.431  12.306 -0.99 +0.05    -0.272 NA ATOM      8  C   UNL     1      36.137  47.755  12.351 -0.60 -0.07    +0.141 C  ENDBRANCH   6   7ENDBRANCH   5   6ENDBRANCH   4   5BRANCH   4   9ATOM      9  C   UNL     1      39.567  46.939  16.549 -0.46 +0.00    -0.018 A  ATOM     10  C   UNL     1      40.273  48.084  16.155 -0.55 -0.00    +0.011 A  ATOM     11  C   UNL     1      39.994  46.198  17.662 -0.46 -0.00    +0.019 A  ATOM     12  C   UNL     1      41.401  48.522  16.856 -0.43 -0.00    +0.027 A  ATOM     13  C   UNL     1      41.127  46.624  18.385 -0.52 +0.00    -0.000 A  ATOM     14  C   UNL     1      41.801  47.773  17.967 -0.47 -0.00    +0.045 A  ATOM     15  C   UNL     1      41.808  46.132  19.532 -0.42 +0.00    +0.028 A  ATOM     16  N   UNL     1      42.851  47.965  18.838 -0.30 -0.01    -0.361 N  ATOM     17  C   UNL     1      42.862  46.980  19.789 -0.42 +0.02    +0.083 A  ATOM     18  H   UNL     1      43.510  48.731  18.781 -0.46 -0.02    +0.166 HD ENDBRANCH   4   9ENDBRANCH   3   4ENDBRANCH   1   3BRANCH   1  19ATOM     19  C   UNL     1      35.518  45.818  17.140 -0.38 -0.03    +0.049 C  BRANCH  19  20ATOM     20  C   UNL     1      34.266  45.236  16.431 -0.27 -0.05    +0.073 A  ATOM     21  C   UNL     1      33.937  44.122  15.756 -0.18 -0.07    +0.132 A  ATOM     22  N   UNL     1      33.044  45.691  16.317 -0.05 +0.30    -0.297 N  ATOM     23  N   UNL     1      32.762  44.619  15.489 -0.16 +0.18    -0.293 N  ATOM     24  H   UNL     1      32.903  46.611  15.893 -0.35 -0.44    +0.188 HD BRANCH  23  25ATOM     25  C   UNL     1      31.494  43.896  15.592 -0.32 -0.07    +0.143 C  BRANCH  25  26ATOM     26  C   UNL     1      30.237  44.762  15.466 -0.39 -0.02    +0.039 C  BRANCH  26  27ATOM     27  C   UNL     1      30.400  45.912  14.475 -0.52 -0.05    +0.079 C  BRANCH  27  28ATOM     28  N   UNL     1      30.932  47.106  15.131 -0.64 +0.14    -0.330 NA ATOM     29  H   UNL     1      31.283  46.847  16.056 -0.27 -0.07    +0.118 HD ATOM     30  H   UNL     1      31.737  47.458  14.615 -0.47 -0.13    +0.118 HD ENDBRANCH  27  28ENDBRANCH  26  27ENDBRANCH  25  26ENDBRANCH  23  25ENDBRANCH  19  20ENDBRANCH   1  19TORSDOF 12TERENDMDL