REMARK SMILES COc1ccc(-c2ccc3c(c2)C(=O)N[C@H]3C(=O)N[C@@H](C)[C@H]2CC[C@@]2(C)CN)cc1
REMARK SMILES IDX 17 1 18 2 19 3 16 5 7 6 8 7 12 8 9 9 11 10 10 11 13 12 15 13
REMARK SMILES IDX 14 14 6 16 3 17 4 18 30 19 5 20 29 21 2 22 1 23 20 24 21 25
REMARK SMILES IDX 22 26 23 27 25 28 24 29 26 30 27 31 28 32
REMARK H PARENT 19 4 15 15 28 33 28 34
ROOT
ATOM      1  C   UNL     1      -1.230  -0.748   2.670  1.00  0.00     0.247 C 
ATOM      2  O   UNL     1      -1.478  -1.942   2.822  1.00  0.00    -0.272 OA
ATOM      3  N   UNL     1      -2.059   0.120   1.987  1.00  0.00    -0.351 N 
ATOM      4  H   UNL     1      -1.785   1.097   1.959  1.00  0.00     0.163 HD
ENDROOT
BRANCH   1   5
ATOM      5  C   UNL     1       0.104  -0.126   3.130  1.00  0.00     0.203 C 
ATOM      6  C   UNL     1       3.267  -0.168   0.234  1.00  0.00    -0.018 A 
ATOM      7  C   UNL     1       2.768  -1.417   0.686  1.00  0.00     0.009 A 
ATOM      8  C   UNL     1       2.706   1.009   0.756  1.00  0.00     0.023 A 
ATOM      9  C   UNL     1       1.738  -1.510   1.633  1.00  0.00     0.008 A 
ATOM     10  C   UNL     1       1.690   0.892   1.687  1.00  0.00     0.046 A 
ATOM     11  C   UNL     1       1.203  -0.337   2.129  1.00  0.00    -0.003 A 
ATOM     12  C   UNL     1       0.953   1.952   2.381  1.00  0.00     0.252 C 
ATOM     13  N   UNL     1       0.043   1.330   3.206  1.00  0.00    -0.336 N 
ATOM     14  O   UNL     1       1.116   3.147   2.254  1.00  0.00    -0.269 OA
ATOM     15  H   UNL     1      -0.514   1.852   3.869  1.00  0.00     0.165 HD
BRANCH   6  16
ATOM     16  C   UNL     1       4.350  -0.108  -0.763  1.00  0.00    -0.018 A 
ATOM     17  C   UNL     1       6.434   0.005  -2.677  1.00  0.00     0.118 A 
ATOM     18  C   UNL     1       6.583  -0.758  -1.521  1.00  0.00     0.047 A 
ATOM     19  C   UNL     1       5.247   0.710  -2.876  1.00  0.00     0.047 A 
ATOM     20  C   UNL     1       5.549  -0.813  -0.575  1.00  0.00     0.012 A 
ATOM     21  C   UNL     1       4.217   0.657  -1.931  1.00  0.00     0.012 A 
BRANCH  17  22
ATOM     22  O   UNL     1       7.358   0.144  -3.676  1.00  0.00    -0.497 OA
ATOM     23  C   UNL     1       8.589  -0.548  -3.513  1.00  0.00     0.278 C 
ENDBRANCH  17  22
ENDBRANCH   6  16
ENDBRANCH   1   5
BRANCH   3  24
ATOM     24  C   UNL     1      -3.363  -0.272   1.469  1.00  0.00     0.082 C 
ATOM     25  C   UNL     1      -4.425  -0.078   2.545  1.00  0.00     0.031 C 
BRANCH  24  26
ATOM     26  C   UNL     1      -3.626   0.639   0.270  1.00  0.00     0.018 C 
ATOM     27  C   UNL     1      -2.589   0.568  -0.887  1.00  0.00     0.007 C 
ATOM     28  C   UNL     1      -4.729   0.274  -0.811  1.00  0.00    -0.016 C 
ATOM     29  C   UNL     1      -3.739   0.871  -1.864  1.00  0.00     0.009 C 
ATOM     30  C   UNL     1      -6.006   1.110  -0.697  1.00  0.00     0.013 C 
BRANCH  28  31
ATOM     31  C   UNL     1      -5.017  -1.209  -1.115  1.00  0.00     0.084 C 
BRANCH  31  32
ATOM     32  N   UNL     1      -5.808  -1.843  -0.065  1.00  0.00    -0.330 NA
ATOM     33  H   UNL     1      -5.886  -2.841  -0.262  1.00  0.00     0.118 HD
ATOM     34  H   UNL     1      -6.761  -1.483  -0.089  1.00  0.00     0.118 HD
ENDBRANCH  31  32
ENDBRANCH  28  31
ENDBRANCH  24  26
ENDBRANCH   3  24
TORSDOF 7
