REMARK SMILES Cc1n[nH]c2ccc(-c3cncc(OC[C@@H](N)Cc4ccccc4)c3)cc12
REMARK SMILES IDX 14 1 13 2 9 3 10 4 25 5 11 6 12 7 8 8 2 9 3 10 27 11 4 12
REMARK SMILES IDX 26 13 5 14 6 15 7 16 1 17 15 19 16 20 17 21 18 24 19 25
REMARK SMILES IDX 20 26 24 27 21 28 23 29 22 30
REMARK H PARENT 4 18 17 22 17 23
ROOT
ATOM      1  O   UNL     1       1.323  -1.467  -0.219  1.00  0.00    -0.490 OA
ENDROOT
BRANCH   1   2
ATOM      2  C   UNL     1      -0.018  -1.663  -0.381  1.00  0.00     0.138 A 
ATOM      3  C   UNL     1      -2.388  -1.234  -0.063  1.00  0.00     0.004 A 
ATOM      4  C   UNL     1      -2.625  -2.320  -0.907  1.00  0.00     0.120 A 
ATOM      5  C   UNL     1      -1.043  -0.914   0.194  1.00  0.00     0.058 A 
ATOM      6  N   UNL     1      -1.659  -3.070  -1.485  1.00  0.00    -0.260 NA
ATOM      7  C   UNL     1      -0.383  -2.721  -1.206  1.00  0.00     0.157 A 
BRANCH   3   8
ATOM      8  C   UNL     1      -3.490  -0.461   0.529  1.00  0.00    -0.016 A 
ATOM      9  C   UNL     1      -6.671   1.559  -0.185  1.00  0.00     0.067 A 
ATOM     10  N   UNL     1      -7.374   2.102   0.818  1.00  0.00    -0.180 NA
ATOM     11  C   UNL     1      -5.532   0.852   0.287  1.00  0.00     0.023 A 
ATOM     12  N   UNL     1      -6.693   1.741   1.918  1.00  0.00    -0.278 N 
ATOM     13  C   UNL     1      -4.479   0.118  -0.292  1.00  0.00     0.021 A 
ATOM     14  C   UNL     1      -5.575   0.993   1.668  1.00  0.00     0.065 A 
ATOM     15  C   UNL     1      -4.618   0.438   2.520  1.00  0.00     0.029 A 
ATOM     16  C   UNL     1      -3.579  -0.289   1.921  1.00  0.00     0.011 A 
ATOM     17  C   UNL     1      -7.111   1.739  -1.590  1.00  0.00     0.069 C 
ATOM     18  H   UNL     1      -7.047   2.041   2.819  1.00  0.00     0.190 HD
ENDBRANCH   3   8
ENDBRANCH   1   2
BRANCH   1  19
ATOM     19  C   UNL     1       1.727  -0.364   0.600  1.00  0.00     0.248 C 
BRANCH  19  20
ATOM     20  C   UNL     1       3.272  -0.303   0.654  1.00  0.00     0.093 C 
BRANCH  20  21
ATOM     21  N   UNL     1       3.809  -1.527   1.288  1.00  0.00    -0.325 NA
ATOM     22  H   UNL     1       3.413  -1.629   2.222  1.00  0.00     0.119 HD
ATOM     23  H   UNL     1       3.470  -2.334   0.760  1.00  0.00     0.119 HD
ENDBRANCH  20  21
BRANCH  20  24
ATOM     24  C   UNL     1       3.860  -0.117  -0.765  1.00  0.00     0.057 C 
BRANCH  24  25
ATOM     25  C   UNL     1       5.228   0.528  -0.769  1.00  0.00    -0.046 A 
ATOM     26  C   UNL     1       5.377   1.877  -1.119  1.00  0.00     0.004 A 
ATOM     27  C   UNL     1       6.367  -0.209  -0.418  1.00  0.00     0.004 A 
ATOM     28  C   UNL     1       6.640   2.474  -1.121  1.00  0.00     0.000 A 
ATOM     29  C   UNL     1       7.628   0.389  -0.418  1.00  0.00     0.000 A 
ATOM     30  C   UNL     1       7.764   1.730  -0.770  1.00  0.00     0.000 A 
ENDBRANCH  24  25
ENDBRANCH  20  24
ENDBRANCH  19  20
ENDBRANCH   1  19
TORSDOF 7
