MODEL        10USER    Run = 10USERUSER    Estimated Free Energy of Binding    =  -9.68 kcal/mol  [=(1)+(2)+(3)-(4)]USERUSER    (1) Final Intermolecular Energy     = -11.77 kcal/molUSER        vdW + Hbond + desolv Energy     = -11.64 kcal/molUSER        Electrostatic Energy            =  -0.13 kcal/molUSER        Moving Ligand-Fixed Receptor    = -11.77 kcal/molUSER        Moving Ligand-Moving Receptor   =  +0.00 kcal/molUSER    (2) Final Total Internal Energy     =  -2.60 kcal/molUSER    (3) Torsional Free Energy           =  +2.09 kcal/molUSER    (4) Unbound System's Energy         =  -2.60 kcal/molUSERUSERREMARK SMILES Cc1n[nH]c2ccc(-c3cncc(OC[C@@H](N)Cc4ccccc4)c3)cc12REMARK SMILES IDX 14 1 13 2 9 3 10 4 25 5 11 6 12 7 8 8 2 9 3 10 27 11 4 12REMARK SMILES IDX 26 13 5 14 6 15 7 16 1 17 15 19 16 20 17 21 18 24 19 25REMARK SMILES IDX 20 26 24 27 21 28 23 29 22 30REMARK H PARENT 4 18 17 22 17 23USER                              x       y       z     vdW  Elec       q    TypeUSER                           _______ _______ _______ _____ _____    ______ ____ROOTATOM      1  O   UNL     1      38.640  48.098  13.652 -0.33 +0.13    -0.490 OA ENDROOTBRANCH   1   2ATOM      2  C   UNL     1      39.469  48.112  14.737 -0.42 -0.04    +0.138 A  ATOM      3  C   UNL     1      40.323  47.405  16.899 -0.52 -0.00    +0.004 A  ATOM      4  C   UNL     1      41.294  48.398  16.759 -0.37 -0.01    +0.120 A  ATOM      5  C   UNL     1      39.396  47.275  15.849 -0.44 -0.02    +0.058 A  ATOM      6  N   UNL     1      41.399  49.227  15.696 -0.88 +0.01    -0.260 NA ATOM      7  C   UNL     1      40.484  49.061  14.715 -0.42 -0.05    +0.157 A  BRANCH   3   8ATOM      8  C   UNL     1      40.271  46.537  18.084 -0.47 +0.00    -0.016 A  ATOM      9  C   UNL     1      38.032  44.351  20.302 -0.33 -0.00    +0.067 A  ATOM     10  N   UNL     1      38.539  43.712  21.364 -0.20 -0.00    -0.180 NA ATOM     11  C   UNL     1      39.021  45.104  19.613 -0.38 -0.00    +0.023 A  ATOM     12  N   UNL     1      39.839  44.051  21.351 -0.13 -0.01    -0.278 N  ATOM     13  C   UNL     1      39.057  45.938  18.479 -0.38 -0.00    +0.021 A  ATOM     14  C   UNL     1      40.192  44.887  20.327 -0.33 +0.00    +0.065 A  ATOM     15  C   UNL     1      41.416  45.459  19.974 -0.38 +0.00    +0.029 A  ATOM     16  C   UNL     1      41.428  46.286  18.841 -0.49 +0.00    +0.011 A  ATOM     17  C   UNL     1      36.591  44.227  19.972 -0.39 -0.01    +0.069 C  ATOM     18  H   UNL     1      40.438  43.674  22.076 +0.10 +0.01    +0.190 HD ENDBRANCH   3   8ENDBRANCH   1   2BRANCH   1  19ATOM     19  C   UNL     1      37.243  48.296  13.897 -0.42 -0.13    +0.248 C  BRANCH  19  20ATOM     20  C   UNL     1      36.433  47.796  12.677 -0.66 -0.04    +0.093 C  BRANCH  20  21ATOM     21  N   UNL     1      37.348  47.366  11.598 -0.88 +0.06    -0.325 NA ATOM     22  H   UNL     1      37.328  48.048  10.841 -0.37 -0.03    +0.119 HD ATOM     23  H   UNL     1      38.303  47.392  11.961 +0.07 +0.01    +0.119 HD ENDBRANCH  20  21BRANCH  20  24ATOM     24  C   UNL     1      35.487  46.642  13.087 -0.58 -0.04    +0.057 C  BRANCH  24  25ATOM     25  C   UNL     1      35.903  45.949  14.365 -0.38 +0.03    -0.046 A  ATOM     26  C   UNL     1      35.231  46.211  15.567 -0.29 -0.00    +0.004 A  ATOM     27  C   UNL     1      36.961  45.031  14.369 -0.40 -0.00    +0.004 A  ATOM     28  C   UNL     1      35.613  45.570  16.748 -0.34 -0.00    +0.000 A  ATOM     29  C   UNL     1      37.341  44.390  15.549 -0.29 -0.00    +0.000 A  ATOM     30  C   UNL     1      36.667  44.660  16.738 -0.34 -0.00    +0.000 A  ENDBRANCH  24  25ENDBRANCH  20  24ENDBRANCH  19  20ENDBRANCH   1  19TORSDOF 7TERENDMDL