MODEL        8USER    Run = 8USERUSER    Estimated Free Energy of Binding    =  -8.19 kcal/mol  [=(1)+(2)+(3)-(4)]USERUSER    (1) Final Intermolecular Energy     =  -9.38 kcal/molUSER        vdW + Hbond + desolv Energy     =  -9.25 kcal/molUSER        Electrostatic Energy            =  -0.13 kcal/molUSER        Moving Ligand-Fixed Receptor    =  -9.38 kcal/molUSER        Moving Ligand-Moving Receptor   =  +0.00 kcal/molUSER    (2) Final Total Internal Energy     =  -0.31 kcal/molUSER    (3) Torsional Free Energy           =  +1.19 kcal/molUSER    (4) Unbound System's Energy         =  -0.31 kcal/molUSERUSERREMARK SMILES Nc1ncc(I)c(N[C@H]2CCC[C@@H](O)C2)n1REMARK SMILES IDX 8 1 7 3 2 4 3 5 16 6 4 7 5 8 6 9 1 10 9 13 10 14 15 15 11 16REMARK SMILES IDX 13 17 12 18 14 19REMARK H PARENT 8 2 1 11 1 12 14 20USER                              x       y       z     vdW  Elec       q    TypeUSER                           _______ _______ _______ _____ _____    ______ ____ROOTATOM      1  N   UNL     1      38.516  46.586  16.041 -0.14 +0.13    -0.366 N  ATOM      2  H   UNL     1      38.587  45.696  16.532 +0.11 -0.04    +0.162 HD ENDROOTBRANCH   1   3ATOM      3  C   UNL     1      39.624  47.380  16.367 -0.38 -0.04    +0.145 A  ATOM      4  C   UNL     1      40.877  49.289  16.050 -0.40 -0.04    +0.221 A  ATOM      5  N   UNL     1      41.721  49.016  17.043 -0.80 -0.03    -0.221 NA ATOM      6  N   UNL     1      39.834  48.531  15.701 -0.38 +0.07    -0.195 NA ATOM      7  C   UNL     1      41.492  47.871  17.712 -0.37 -0.01    +0.133 A  ATOM      8  C   UNL     1      40.454  47.012  17.421 -0.45 -0.01    +0.074 A  ATOM      9  I   UNL     1      40.220  45.273  18.534 -1.11 +0.00    -0.039 I  BRANCH   4  10ATOM     10  N   UNL     1      41.067  50.469  15.361 -0.35 +0.13    -0.368 N  ATOM     11  H   UNL     1      41.563  51.125  15.948 -0.43 -0.06    +0.159 HD ATOM     12  H   UNL     1      40.189  50.775  14.967 -0.32 -0.13    +0.159 HD ENDBRANCH   4  10ENDBRANCH   1   3BRANCH   1  13ATOM     13  C   UNL     1      38.066  46.405  14.655 -0.42 -0.03    +0.083 C  ATOM     14  C   UNL     1      37.306  45.089  14.441 -0.43 -0.01    +0.025 C  ATOM     15  C   UNL     1      37.324  47.624  14.099 -0.55 -0.03    +0.056 C  ATOM     16  C   UNL     1      36.919  44.905  12.973 -0.55 -0.00    +0.005 C  ATOM     17  C   UNL     1      36.943  47.406  12.636 -0.62 -0.04    +0.116 C  ATOM     18  C   UNL     1      36.155  46.111  12.439 -0.66 -0.01    +0.032 C  BRANCH  17  19ATOM     19  O   UNL     1      36.170  48.509  12.170 -0.67 +0.18    -0.393 OA ATOM     20  H   UNL     1      36.326  48.600  11.213 -0.29 -0.14    +0.210 HD ENDBRANCH  17  19ENDBRANCH   1  13TORSDOF 4TERENDMDL