REMARK SMILES NCC[C@@H]1C(=O)Nc2ccc3ncnc(-c4cccc(Cl)c4Cl)c3c21
REMARK SMILES IDX 3 1 2 2 1 3 4 6 5 7 25 8 7 9 24 10 8 11 15 12 11 13 9 14
REMARK SMILES IDX 14 15 10 16 12 17 13 18 6 19 16 21 17 22 22 23 18 24 20 25
REMARK SMILES IDX 19 26 23 27 21 28
REMARK H PARENT 1 4 1 5 7 20
ROOT
ATOM      1  C   UNL     1       1.020  -1.021   1.360  1.00  0.00     0.033 C 
ENDROOT
BRANCH   1   2
ATOM      2  C   UNL     1       1.296  -2.450   0.875  1.00  0.00     0.079 C 
BRANCH   2   3
ATOM      3  N   UNL     1       2.549  -2.610   0.159  1.00  0.00    -0.330 NA
ATOM      4  H   UNL     1       2.826  -3.590   0.149  1.00  0.00     0.118 HD
ATOM      5  H   UNL     1       3.309  -2.099   0.622  1.00  0.00     0.118 HD
ENDBRANCH   2   3
ENDBRANCH   1   2
BRANCH   1   6
ATOM      6  C   UNL     1       1.382   0.078   0.348  1.00  0.00     0.113 C 
ATOM      7  C   UNL     1       2.816   0.563   0.689  1.00  0.00     0.232 C 
ATOM      8  C   UNL     1       0.570   1.353   0.532  1.00  0.00    -0.000 A 
ATOM      9  N   UNL     1       2.723   1.877   1.105  1.00  0.00    -0.325 N 
ATOM     10  C   UNL     1      -0.799   1.656   0.284  1.00  0.00     0.033 A 
ATOM     11  C   UNL     1       1.425   2.340   1.030  1.00  0.00     0.046 A 
ATOM     12  C   UNL     1      -1.808   0.867  -0.322  1.00  0.00     0.083 A 
ATOM     13  C   UNL     1      -1.248   2.941   0.665  1.00  0.00     0.075 A 
ATOM     14  C   UNL     1       0.999   3.597   1.373  1.00  0.00     0.029 A 
ATOM     15  N   UNL     1      -3.086   1.289  -0.477  1.00  0.00    -0.236 NA
ATOM     16  C   UNL     1      -0.355   3.870   1.200  1.00  0.00     0.031 A 
ATOM     17  N   UNL     1      -2.509   3.356   0.529  1.00  0.00    -0.236 NA
ATOM     18  C   UNL     1      -3.375   2.506  -0.023  1.00  0.00     0.223 A 
ATOM     19  O   UNL     1       3.851  -0.084   0.666  1.00  0.00    -0.274 OA
ATOM     20  H   UNL     1       3.527   2.407   1.408  1.00  0.00     0.169 HD
BRANCH  12  21
ATOM     21  C   UNL     1      -1.598  -0.438  -0.969  1.00  0.00     0.021 A 
ATOM     22  C   UNL     1      -0.924  -0.481  -2.207  1.00  0.00     0.012 A 
ATOM     23  C   UNL     1      -2.148  -1.637  -0.463  1.00  0.00     0.069 A 
ATOM     24  C   UNL     1      -0.772  -1.676  -2.909  1.00  0.00     0.002 A 
ATOM     25  C   UNL     1      -2.002  -2.836  -1.182  1.00  0.00     0.060 A 
ATOM     26  C   UNL     1      -1.313  -2.851  -2.398  1.00  0.00     0.022 A 
ATOM     27  Cl  UNL     1      -2.978  -1.636   1.068  1.00  0.00    -0.082 Cl
ATOM     28  Cl  UNL     1      -2.631  -4.345  -0.615  1.00  0.00    -0.083 Cl
ENDBRANCH  12  21
ENDBRANCH   1   6
TORSDOF 4
