REMARK SMILES Nc1ncc(I)c(N[C@H]2CCC[C@@H](O)C2)n1
REMARK SMILES IDX 8 1 7 3 2 4 3 5 16 6 4 7 5 8 6 9 1 10 9 13 10 14 15 15 11 16
REMARK SMILES IDX 13 17 12 18 14 19
REMARK H PARENT 8 2 1 11 1 12 14 20
ROOT
ATOM      1  N   UNL     1       0.176  -1.807  -0.211  1.00  0.00    -0.366 N 
ATOM      2  H   UNL     1       0.129  -2.437  -1.010  1.00  0.00     0.162 HD
ENDROOT
BRANCH   1   3
ATOM      3  C   UNL     1       1.482  -1.311  -0.094  1.00  0.00     0.145 A 
ATOM      4  C   UNL     1       2.927   0.420   0.389  1.00  0.00     0.221 A 
ATOM      5  N   UNL     1       4.021  -0.326   0.247  1.00  0.00    -0.221 NA
ATOM      6  N   UNL     1       1.674  -0.024   0.251  1.00  0.00    -0.195 NA
ATOM      7  C   UNL     1       3.816  -1.615  -0.082  1.00  0.00     0.133 A 
ATOM      8  C   UNL     1       2.566  -2.166  -0.263  1.00  0.00     0.074 A 
ATOM      9  I   UNL     1       2.396  -4.173  -0.775  1.00  0.00    -0.039 I 
BRANCH   4  10
ATOM     10  N   UNL     1       3.100   1.739   0.753  1.00  0.00    -0.368 N 
ATOM     11  H   UNL     1       3.994   1.847   1.211  1.00  0.00     0.159 HD
ATOM     12  H   UNL     1       2.284   2.061   1.253  1.00  0.00     0.159 HD
ENDBRANCH   4  10
ENDBRANCH   1   3
BRANCH   1  13
ATOM     13  C   UNL     1      -1.000  -0.932  -0.141  1.00  0.00     0.083 C 
ATOM     14  C   UNL     1      -1.215  -0.331   1.255  1.00  0.00     0.025 C 
ATOM     15  C   UNL     1      -1.040   0.115  -1.258  1.00  0.00     0.056 C 
ATOM     16  C   UNL     1      -2.488   0.514   1.305  1.00  0.00     0.005 C 
ATOM     17  C   UNL     1      -2.318   0.948  -1.176  1.00  0.00     0.116 C 
ATOM     18  C   UNL     1      -2.503   1.572   0.207  1.00  0.00     0.032 C 
BRANCH  17  19
ATOM     19  O   UNL     1      -2.287   1.976  -2.162  1.00  0.00    -0.393 OA
ATOM     20  H   UNL     1      -1.504   2.529  -1.993  1.00  0.00     0.210 HD
ENDBRANCH  17  19
ENDBRANCH   1  13
TORSDOF 4
