MODEL        7USER    Run = 7USERUSER    Estimated Free Energy of Binding    =  -8.53 kcal/mol  [=(1)+(2)+(3)-(4)]USERUSER    (1) Final Intermolecular Energy     = -12.41 kcal/molUSER        vdW + Hbond + desolv Energy     = -12.65 kcal/molUSER        Electrostatic Energy            =  -0.26 kcal/molUSER        Moving Ligand-Fixed Receptor    = -12.91 kcal/molUSER        Moving Ligand-Moving Receptor   =  +0.50 kcal/molUSER    (2) Final Total Internal Energy     =  -2.25 kcal/molUSER    (3) Torsional Free Energy           =  +3.88 kcal/molUSER    (4) Unbound System's Energy         =  -2.25 kcal/molUSERUSERREMARK SMILES Cc1cccc(C=C2C=C(N)C(C(=O)N3C=CC=C(c4cn(C)c5cccc(Cl)c45)C=C3)=NN2)c1OREMARK SMILES IDX 15 1 13 2 14 3 12 4 8 5 9 6 34 7 10 8 33 9 7 11 6 12 2 13REMARK SMILES IDX 3 14 35 15 4 16 5 17 1 18 36 19 11 21 16 24 17 25 18 26REMARK SMILES IDX 19 27 20 28 21 29 30 30 22 31 28 32 24 33 27 34 25 35 26 36REMARK SMILES IDX 23 37 29 38 31 39 32 41REMARK H PARENT 34 10 36 20 11 22 11 23REMARK Flexibility Score:  199.900USER                              x       y       z     vdW  Elec       q    TypeUSER                           _______ _______ _______ _____ _____    ______ ____ROOTATOM      1  N   UNL     1      40.679  45.888  21.372 -0.15 -0.02    -0.289 N  ENDROOTBRANCH   1   2ATOM      2  C   UNL     1      40.947  45.390  20.067 -0.26 +0.02    +0.284 C  ATOM      3  O   UNL     1      41.608  44.383  19.803 -0.24 -0.04    -0.266 OA BRANCH   2   4ATOM      4  C   UNL     1      40.306  46.087  18.887 -0.39 -0.01    +0.172 C  ATOM      5  C   UNL     1      39.193  47.321  16.708 -0.47 -0.02    +0.059 C  ATOM      6  C   UNL     1      40.603  47.539  17.007 -0.56 -0.01    +0.055 C  ATOM      7  N   UNL     1      38.514  46.489  17.576 -0.23 +0.08    -0.278 N  ATOM      8  C   UNL     1      41.208  46.979  18.066 -0.54 -0.00    +0.067 C  ATOM      9  N   UNL     1      39.041  45.866  18.666 -0.31 +0.02    -0.168 NA ATOM     10  H   UNL     1      37.499  46.443  17.460 +0.11 -0.08    +0.190 HD BRANCH   5  11ATOM     11  C   UNL     1      38.650  47.920  15.629 -0.53 -0.02    +0.039 C  BRANCH  11  12ATOM     12  C   UNL     1      37.582  47.369  14.776 -0.45 -0.01    +0.019 A  ATOM     13  C   UNL     1      35.418  46.302  14.367 -0.42 +0.01    -0.009 A  ATOM     14  C   UNL     1      35.691  46.301  12.993 -0.54 -0.00    +0.007 A  ATOM     15  C   UNL     1      36.370  46.836  15.250 -0.29 -0.10    +0.125 A  ATOM     16  C   UNL     1      36.888  46.821  12.510 -0.66 -0.00    +0.001 A  ATOM     17  C   UNL     1      37.828  47.346  13.396 -0.52 -0.00    +0.012 A  ATOM     18  C   UNL     1      34.116  45.745  14.872 -0.27 -0.05    +0.048 C  BRANCH  15  19ATOM     19  O   UNL     1      36.055  46.808  16.583 -0.10 +0.49    -0.507 OA ATOM     20  H   UNL     1      35.210  47.269  16.728 +0.03 -0.52    +0.293 HD ENDBRANCH  15  19ENDBRANCH  11  12ENDBRANCH   5  11BRANCH   8  21ATOM     21  N   UNL     1      42.536  47.162  18.408 -0.23 -0.01    -0.397 N  ATOM     22  H   UNL     1      43.155  47.263  17.593 -0.50 -0.05    +0.156 HD ATOM     23  H   UNL     1      42.894  46.477  19.067 +0.06 +0.04    +0.156 HD ENDBRANCH   8  21ENDBRANCH   2   4ENDBRANCH   1   2BRANCH   1  24ATOM     24  C   UNL     1      41.682  46.375  22.198 -0.25 +0.01    +0.094 C  BRANCH  24  25ATOM     25  C   UNL     1      41.648  46.897  23.427 -0.25 +0.00    +0.019 C  BRANCH  25  26ATOM     26  C   UNL     1      40.533  47.301  24.237 -0.28 +0.00    +0.010 C  BRANCH  26  27ATOM     27  C   UNL     1      39.227  47.086  24.012 -0.37 -0.00    -0.015 C  BRANCH  27  28ATOM     28  C   UNL     1      38.258  47.637  24.923 -0.37 +0.00    +0.009 A  ATOM     29  C   UNL     1      37.747  48.914  24.804 -0.36 +0.01    +0.095 A  ATOM     30  C   UNL     1      37.652  47.020  26.067 -0.32 -0.00    +0.026 A  ATOM     31  N   UNL     1      36.857  49.105  25.823 -0.23 -0.00    -0.350 N  ATOM     32  C   UNL     1      37.715  45.767  26.719 -0.28 -0.00    +0.051 A  ATOM     33  C   UNL     1      36.781  47.977  26.614 -0.35 -0.01    +0.050 A  ATOM     34  C   UNL     1      36.962  45.498  27.862 -0.34 -0.00    +0.021 A  ATOM     35  C   UNL     1      36.013  47.725  27.765 -0.25 -0.01    +0.027 A  ATOM     36  C   UNL     1      36.122  46.474  28.381 -0.33 -0.00    +0.004 A  ATOM     37  C   UNL     1      36.109  50.320  26.040 -0.38 +0.00    +0.149 C  ATOM     38  Cl  UNL     1      38.735  44.561  26.062 -0.27 +0.00    -0.084 Cl ENDBRANCH  27  28BRANCH  27  39ATOM     39  C   UNL     1      38.733  46.327  22.882 -0.31 +0.00    +0.027 CG0ATOM     40  G   UNL     1      39.365  45.821  21.817 +0.00 +0.00    +0.000 G0 ENDBRANCH  27  39ENDBRANCH  26  27ENDBRANCH  25  26ENDBRANCH  24  25ENDBRANCH   1  24BRANCH   1  41ATOM     41  C   UNL     1      39.363  45.820  21.812 -0.28 +0.01    +0.095 CG0ATOM     42  G   UNL     1      38.731  46.326  22.877 +0.00 +0.00    +0.000 G0 ENDBRANCH   1  41TORSDOF 7TERENDMDL