REMARK SMILES C=NC=CC(=CC(Cl)=Cc1cn(CCCN)[nH]1)c1ccc2[nH]ccc2c1
REMARK SMILES IDX 7 1 8 2 6 3 5 4 4 5 3 6 2 7 1 8 18 9 19 10 26 11 20 12 25 13
REMARK SMILES IDX 21 14 24 15 22 16 23 17 9 19 10 20 11 21 17 22 12 23 13 25
REMARK SMILES IDX 14 26 15 27 16 28
REMARK H PARENT 22 18 17 24 16 29 16 30
ROOT
ATOM      1  C   UNL     1       0.656  -0.153  -1.023  1.00  0.00     0.043 C 
ATOM      2  Cl  UNL     1       1.313  -0.211  -2.625  1.00  0.00    -0.084 Cl
ENDROOT
BRANCH   1   3
ATOM      3  C   UNL     1      -0.732   0.276  -0.959  1.00  0.00     0.029 C 
BRANCH   3   4
ATOM      4  C   UNL     1      -1.774  -0.302  -0.321  1.00  0.00    -0.015 C 
BRANCH   4   5
ATOM      5  C   UNL     1      -1.677  -1.570   0.398  1.00  0.00     0.029 C 
BRANCH   5   6
ATOM      6  C   UNL     1      -2.587  -2.049   1.259  1.00  0.00     0.111 C 
BRANCH   6   7
ATOM      7  N   UNL     1      -2.391  -3.243   1.900  1.00  0.00    -0.272 NA
ATOM      8  C   UNL     1      -3.143  -3.465   2.924  1.00  0.00     0.141 C 
ENDBRANCH   6   7
ENDBRANCH   5   6
ENDBRANCH   4   5
BRANCH   4   9
ATOM      9  C   UNL     1      -3.053   0.439  -0.446  1.00  0.00    -0.018 A 
ATOM     10  C   UNL     1      -3.318   1.532   0.391  1.00  0.00     0.011 A 
ATOM     11  C   UNL     1      -3.999   0.041  -1.404  1.00  0.00     0.019 A 
ATOM     12  C   UNL     1      -4.512   2.254   0.290  1.00  0.00     0.027 A 
ATOM     13  C   UNL     1      -5.207   0.757  -1.524  1.00  0.00    -0.000 A 
ATOM     14  C   UNL     1      -5.434   1.844  -0.678  1.00  0.00     0.045 A 
ATOM     15  C   UNL     1      -6.346   0.637  -2.367  1.00  0.00     0.028 A 
ATOM     16  N   UNL     1      -6.668   2.361  -1.005  1.00  0.00    -0.361 N 
ATOM     17  C   UNL     1      -7.226   1.640  -2.027  1.00  0.00     0.083 A 
ATOM     18  H   UNL     1      -7.092   3.163  -0.556  1.00  0.00     0.166 HD
ENDBRANCH   4   9
ENDBRANCH   3   4
ENDBRANCH   1   3
BRANCH   1  19
ATOM     19  C   UNL     1       1.398  -0.389   0.070  1.00  0.00     0.049 C 
BRANCH  19  20
ATOM     20  C   UNL     1       2.896  -0.784   0.160  1.00  0.00     0.073 A 
ATOM     21  C   UNL     1       3.921  -0.984  -0.685  1.00  0.00     0.132 A 
ATOM     22  N   UNL     1       3.672  -1.013   1.189  1.00  0.00    -0.297 N 
ATOM     23  N   UNL     1       4.674  -1.373   0.306  1.00  0.00    -0.293 N 
ATOM     24  H   UNL     1       3.401  -1.742   1.853  1.00  0.00     0.188 HD
BRANCH  23  25
ATOM     25  C   UNL     1       6.061  -0.961   0.526  1.00  0.00     0.143 C 
BRANCH  25  26
ATOM     26  C   UNL     1       6.255   0.520   0.865  1.00  0.00     0.039 C 
BRANCH  26  27
ATOM     27  C   UNL     1       6.197   1.427  -0.362  1.00  0.00     0.079 C 
BRANCH  27  28
ATOM     28  N   UNL     1       6.487   2.816  -0.008  1.00  0.00    -0.330 NA
ATOM     29  H   UNL     1       5.784   3.142   0.658  1.00  0.00     0.118 HD
ATOM     30  H   UNL     1       7.381   2.873   0.478  1.00  0.00     0.118 HD
ENDBRANCH  27  28
ENDBRANCH  26  27
ENDBRANCH  25  26
ENDBRANCH  23  25
ENDBRANCH  19  20
ENDBRANCH   1  19
TORSDOF 12
