MODEL        9USER    Run = 9USERUSER    Estimated Free Energy of Binding    =  -7.92 kcal/mol  [=(1)+(2)+(3)-(4)]USERUSER    (1) Final Intermolecular Energy     = -11.21 kcal/molUSER        vdW + Hbond + desolv Energy     = -11.36 kcal/molUSER        Electrostatic Energy            =  +0.05 kcal/molUSER        Moving Ligand-Fixed Receptor    = -11.31 kcal/molUSER        Moving Ligand-Moving Receptor   =  +0.10 kcal/molUSER    (2) Final Total Internal Energy     =  -1.51 kcal/molUSER    (3) Torsional Free Energy           =  +3.28 kcal/molUSER    (4) Unbound System's Energy         =  -1.51 kcal/molUSERUSERREMARK SMILES CCN1CC[C@@H](NC(=O)C2=CC(c3ccc(Cl)cc3Cl)=CC=CN=C2)C[C@@H]1CREMARK SMILES IDX 10 1 8 2 7 3 9 5 6 6 3 7 4 8 27 9 5 10 26 11 28 12 2 13 1 14REMARK SMILES IDX 11 15 12 16 13 17 14 18 19 19 15 20 18 21 16 22 20 23 17 24REMARK SMILES IDX 21 25 25 27 24 28 23 29 22 30REMARK H PARENT 7 4REMARK Flexibility Score:   44.900USER                              x       y       z     vdW  Elec       q    TypeUSER                           _______ _______ _______ _____ _____    ______ ____ROOTATOM      1  C   UNL     1      35.581  46.433  15.042 -0.36 -0.05    +0.058 C  ENDROOTBRANCH   1   2ATOM      2  C   UNL     1      34.953  45.496  16.018 -0.21 -0.20    +0.253 C  ATOM      3  N   UNL     1      35.817  44.557  16.540 -0.09 +0.15    -0.349 N  ATOM      4  H   UNL     1      36.718  44.425  16.096 +0.11 -0.06    +0.164 HD ATOM      5  O   UNL     1      33.763  45.555  16.310 -0.21 +0.26    -0.269 OA BRANCH   3   6ATOM      6  C   UNL     1      35.334  43.474  17.393 -0.34 -0.03    +0.085 C  ATOM      7  N   UNL     1      33.166  42.061  18.709 -0.18 +0.03    -0.301 NA ATOM      8  C   UNL     1      33.793  41.487  17.520 -0.32 -0.04    +0.087 C  ATOM      9  C   UNL     1      34.048  42.914  19.520 -0.43 -0.00    +0.055 C  ATOM     10  C   UNL     1      34.372  42.576  16.619 -0.45 -0.02    +0.040 C  ATOM     11  C   UNL     1      34.641  44.029  18.640 -0.38 -0.01    +0.043 C  ATOM     12  C   UNL     1      35.149  42.175  20.290 -0.43 +0.00    +0.024 C  BRANCH   7  13ATOM     13  C   UNL     1      32.335  41.122  19.470 -0.26 +0.01    +0.081 C  ATOM     14  C   UNL     1      31.724  39.947  18.711 -0.47 +0.00    +0.021 C  ENDBRANCH   7  13ENDBRANCH   3   6ENDBRANCH   1   2BRANCH   1  15ATOM     15  C   UNL     1      36.631  47.166  15.456 -0.44 -0.02    +0.024 C  BRANCH  15  16ATOM     16  C   UNL     1      38.045  46.885  15.228 -0.47 +0.01    -0.016 C  BRANCH  16  17ATOM     17  C   UNL     1      38.962  46.701  16.378 -0.43 -0.00    +0.000 A  ATOM     18  C   UNL     1      38.703  45.640  17.262 -0.39 -0.00    +0.012 A  ATOM     19  C   UNL     1      40.060  47.543  16.630 -0.47 -0.01    +0.050 A  ATOM     20  C   UNL     1      39.526  45.423  18.369 -0.42 -0.00    +0.021 A  ATOM     21  C   UNL     1      40.882  47.324  17.738 -0.49 -0.00    +0.041 A  ATOM     22  C   UNL     1      40.610  46.265  18.601 -0.45 -0.00    +0.042 A  ATOM     23  Cl  UNL     1      40.448  48.873  15.592 -0.85 +0.02    -0.084 Cl ATOM     24  Cl  UNL     1      41.622  45.995  19.966 -0.56 -0.01    -0.084 Cl ENDBRANCH  16  17BRANCH  16  25ATOM     25  C   UNL     1      38.608  46.853  14.003 -0.49 -0.00    +0.010 CG0ATOM     26  G   UNL     1      38.016  47.366  12.788 +0.00 +0.00    +0.000 G0 ENDBRANCH  16  25ENDBRANCH  15  16ENDBRANCH   1  15BRANCH   1  27ATOM     27  C   UNL     1      35.160  46.437  13.617 -0.41 -0.09    +0.124 C  BRANCH  27  28ATOM     28  N   UNL     1      35.615  47.092  12.597 -0.40 +0.17    -0.264 NA BRANCH  28  29ATOM     29  C   UNL     1      36.908  46.891  12.199 -0.66 -0.04    +0.111 C  BRANCH  29  30ATOM     30  C   UNL     1      38.016  47.365  12.788 -0.40 -0.00    +0.021 CG0ATOM     31  G   UNL     1      38.608  46.852  14.003 +0.00 +0.00    +0.000 G0 ENDBRANCH  29  30ENDBRANCH  28  29ENDBRANCH  27  28ENDBRANCH   1  27TORSDOF 4TERENDMDL