REMARK SMILES O=C(O)c1cccc(C(=O)c2ccc(C3=CCNCC3)cc2)c1
REMARK SMILES IDX 4 1 5 2 6 3 7 4 8 5 23 6 2 7 1 8 3 9 9 11 10 12 11 13 12 14
REMARK SMILES IDX 22 15 13 16 21 17 14 18 15 19 16 20 20 21 17 22 19 23 18 24
REMARK H PARENT 3 10 18 25
ROOT
ATOM      1  C   UNL     1       5.490   0.382   0.074  1.00  0.00     0.060 A 
ATOM      2  C   UNL     1       5.345   0.449  -1.318  1.00  0.00     0.016 A 
ATOM      3  C   UNL     1       4.156   0.039  -1.924  1.00  0.00     0.002 A 
ATOM      4  C   UNL     1       3.102  -0.432  -1.141  1.00  0.00     0.012 A 
ATOM      5  C   UNL     1       3.233  -0.483   0.252  1.00  0.00     0.023 A 
ATOM      6  C   UNL     1       4.433  -0.092   0.860  1.00  0.00     0.027 A 
ENDROOT
BRANCH   1   7
ATOM      7  C   UNL     1       6.777   0.819   0.667  1.00  0.00     0.335 C 
ATOM      8  O   UNL     1       7.746   1.215   0.047  1.00  0.00    -0.246 OA
BRANCH   7   9
ATOM      9  O   UNL     1       6.784   0.748   2.008  1.00  0.00    -0.478 OA
ATOM     10  H   UNL     1       7.680   1.053   2.262  1.00  0.00     0.297 HD
ENDBRANCH   7   9
ENDBRANCH   1   7
BRANCH   5  11
ATOM     11  C   UNL     1       2.140  -0.997   1.115  1.00  0.00     0.193 C 
ATOM     12  O   UNL     1       2.426  -1.668   2.102  1.00  0.00    -0.289 OA
BRANCH  11  13
ATOM     13  C   UNL     1       0.713  -0.721   0.810  1.00  0.00     0.023 A 
ATOM     14  C   UNL     1       0.300   0.488   0.242  1.00  0.00     0.013 A 
ATOM     15  C   UNL     1      -0.239  -1.688   1.144  1.00  0.00     0.013 A 
ATOM     16  C   UNL     1      -1.058   0.711  -0.017  1.00  0.00     0.009 A 
ATOM     17  C   UNL     1      -1.594  -1.459   0.883  1.00  0.00     0.009 A 
ATOM     18  C   UNL     1      -2.022  -0.256   0.301  1.00  0.00    -0.023 A 
BRANCH  18  19
ATOM     19  C   UNL     1      -3.451  -0.019   0.011  1.00  0.00    -0.042 C 
ATOM     20  C   UNL     1      -4.417  -0.334   0.897  1.00  0.00    -0.008 C 
ATOM     21  C   UNL     1      -3.823   0.592  -1.321  1.00  0.00     0.051 C 
ATOM     22  C   UNL     1      -5.879  -0.100   0.648  1.00  0.00     0.109 C 
ATOM     23  C   UNL     1      -5.320   0.431  -1.631  1.00  0.00     0.086 C 
ATOM     24  N   UNL     1      -6.154   0.793  -0.481  1.00  0.00    -0.313 NA
ATOM     25  H   UNL     1      -5.919   1.743  -0.192  1.00  0.00     0.123 HD
ENDBRANCH  18  19
ENDBRANCH  11  13
ENDBRANCH   5  11
TORSDOF 5
