MODEL        8USER    Run = 8USERUSER    Estimated Free Energy of Binding    =  -9.28 kcal/mol  [=(1)+(2)+(3)-(4)]USERUSER    (1) Final Intermolecular Energy     = -11.37 kcal/molUSER        vdW + Hbond + desolv Energy     = -11.13 kcal/molUSER        Electrostatic Energy            =  -0.23 kcal/molUSER        Moving Ligand-Fixed Receptor    = -11.37 kcal/molUSER        Moving Ligand-Moving Receptor   =  +0.00 kcal/molUSER    (2) Final Total Internal Energy     =  -2.86 kcal/molUSER    (3) Torsional Free Energy           =  +2.09 kcal/molUSER    (4) Unbound System's Energy         =  -2.86 kcal/molUSERUSERREMARK SMILES COc1ccc(-c2ccc3c(c2)C(=O)N[C@H]3C(=O)N[C@@H](C)[C@H]2CC[C@@]2(C)CN)cc1REMARK SMILES IDX 17 1 18 2 19 3 16 5 7 6 8 7 12 8 9 9 11 10 10 11 13 12 15 13REMARK SMILES IDX 14 14 6 16 3 17 4 18 30 19 5 20 29 21 2 22 1 23 20 24 21 25REMARK SMILES IDX 22 26 23 27 25 28 24 29 26 30 27 31 28 32REMARK H PARENT 19 4 15 15 28 33 28 34USER                              x       y       z     vdW  Elec       q    TypeUSER                           _______ _______ _______ _____ _____    ______ ____ROOTATOM      1  C   UNL     1      35.478  44.536  15.164 -0.13 -0.12    +0.247 C  ATOM      2  O   UNL     1      36.178  43.549  14.952 -0.29 +0.09    -0.272 OA ATOM      3  N   UNL     1      35.632  45.735  14.497 -0.15 +0.22    -0.351 N  ATOM      4  H   UNL     1      34.971  46.475  14.714 +0.09 -0.17    +0.163 HD ENDROOTBRANCH   1   5ATOM      5  C   UNL     1      34.429  44.566  16.294 -0.23 -0.11    +0.203 C  ATOM      6  C   UNL     1      35.835  43.360  20.163 -0.43 +0.00    -0.018 A  ATOM      7  C   UNL     1      35.862  42.398  19.120 -0.28 -0.00    +0.009 A  ATOM      8  C   UNL     1      35.351  44.647  19.877 -0.23 -0.00    +0.023 A  ATOM      9  C   UNL     1      35.421  42.693  17.822 -0.37 -0.00    +0.008 A  ATOM     10  C   UNL     1      34.924  44.915  18.589 -0.35 -0.02    +0.046 A  ATOM     11  C   UNL     1      34.951  43.967  17.568 -0.30 +0.00    -0.003 A  ATOM     12  C   UNL     1      34.375  46.159  18.043 -0.36 -0.19    +0.252 C  ATOM     13  N   UNL     1      34.101  45.924  16.714 -0.04 +0.37    -0.336 N  ATOM     14  O   UNL     1      34.194  47.195  18.647 -1.09 +0.20    -0.269 OA ATOM     15  H   UNL     1      33.615  46.605  16.145 -0.25 -0.40    +0.165 HD BRANCH   6  16ATOM     16  C   UNL     1      36.307  43.016  21.515 -0.35 -0.00    -0.018 A  ATOM     17  C   UNL     1      37.212  42.350  24.114 -0.32 +0.01    +0.118 A  ATOM     18  C   UNL     1      36.576  41.393  23.326 -0.35 +0.00    +0.047 A  ATOM     19  C   UNL     1      37.394  43.636  23.606 -0.32 +0.00    +0.047 A  ATOM     20  C   UNL     1      36.130  41.725  22.038 -0.50 +0.00    +0.012 A  ATOM     21  C   UNL     1      36.946  43.967  22.323 -0.34 +0.00    +0.012 A  BRANCH  17  22ATOM     22  O   UNL     1      37.695  42.160  25.380 -0.08 +0.01    -0.497 OA ATOM     23  C   UNL     1      36.748  41.822  26.385 -0.29 -0.05    +0.278 C  ENDBRANCH  17  22ENDBRANCH   6  16ENDBRANCH   1   5BRANCH   3  24ATOM     24  C   UNL     1      36.572  45.916  13.398 -0.50 -0.04    +0.082 C  ATOM     25  C   UNL     1      35.816  46.296  12.130 -0.66 -0.02    +0.031 C  BRANCH  24  26ATOM     26  C   UNL     1      37.510  47.041  13.833 -0.55 -0.01    +0.018 C  ATOM     27  C   UNL     1      36.833  48.306  14.434 -0.52 -0.01    +0.007 C  ATOM     28  C   UNL     1      38.334  46.945  15.186 -0.48 +0.01    -0.016 C  ATOM     29  C   UNL     1      38.075  48.480  15.327 -0.59 -0.01    +0.009 C  ATOM     30  C   UNL     1      39.820  46.638  14.984 -0.52 -0.00    +0.013 C  BRANCH  28  31ATOM     31  C   UNL     1      37.728  46.180  16.379 -0.38 -0.04    +0.084 C  BRANCH  31  32ATOM     32  N   UNL     1      38.046  44.756  16.338 -0.10 +0.09    -0.330 NA ATOM     33  H   UNL     1      38.120  44.457  15.365 +0.07 -0.03    +0.118 HD ATOM     34  H   UNL     1      37.273  44.221  16.731 +0.07 -0.03    +0.118 HD ENDBRANCH  31  32ENDBRANCH  28  31ENDBRANCH  24  26ENDBRANCH   3  24TORSDOF 7TERENDMDL