MODEL        9USER    Run = 9USERUSER    Estimated Free Energy of Binding    =  -8.49 kcal/mol  [=(1)+(2)+(3)-(4)]USERUSER    (1) Final Intermolecular Energy     = -10.58 kcal/molUSER        vdW + Hbond + desolv Energy     = -10.32 kcal/molUSER        Electrostatic Energy            =  -0.26 kcal/molUSER        Moving Ligand-Fixed Receptor    = -10.58 kcal/molUSER        Moving Ligand-Moving Receptor   =  +0.00 kcal/molUSER    (2) Final Total Internal Energy     =  -1.37 kcal/molUSER    (3) Torsional Free Energy           =  +2.09 kcal/molUSER    (4) Unbound System's Energy         =  -1.37 kcal/molUSERUSERREMARK SMILES COCc1sc(NC(=O)Nc2ccc(-c3cccnc3)cc2)nc1COREMARK SMILES IDX 4 1 5 2 6 3 23 4 24 5 3 6 2 7 1 8 25 9 26 10 7 12 8 13 10 14REMARK SMILES IDX 9 16 11 18 12 19 22 20 13 21 21 22 14 23 15 24 16 25 20 26REMARK SMILES IDX 17 27 19 28 18 29REMARK H PARENT 26 11 7 15 10 17USER                              x       y       z     vdW  Elec       q    TypeUSER                           _______ _______ _______ _____ _____    ______ ____ROOTATOM      1  C   UNL     1      28.300  29.916  22.871 -0.43 -0.02    +0.058 A  ATOM      2  S   UNL     1      27.466  31.132  21.989 -0.50 +0.07    -0.099 S  ATOM      3  C   UNL     1      28.856  32.118  22.054 -0.29 -0.03    +0.191 A  ATOM      4  N   UNL     1      29.888  31.625  22.684 -0.28 -0.01    -0.222 NA ATOM      5  C   UNL     1      29.582  30.356  23.162 -0.47 -0.00    +0.085 A  ENDROOTBRANCH   1   6ATOM      6  C   UNL     1      27.647  28.617  23.200 -0.40 -0.09    +0.208 C  BRANCH   6   7ATOM      7  O   UNL     1      27.638  28.511  24.622 -0.37 +0.00    -0.379 OA ATOM      8  C   UNL     1      26.434  29.027  25.175 -0.26 +0.05    +0.195 C  ENDBRANCH   6   7ENDBRANCH   1   6BRANCH   5   9ATOM      9  C   UNL     1      30.646  29.626  23.919 -0.29 +0.05    +0.213 C  BRANCH   9  10ATOM     10  O   UNL     1      31.420  30.522  24.719 -0.68 -0.20    -0.390 OA ATOM     11  H   UNL     1      31.356  31.384  24.254 +0.15 +0.09    +0.211 HD ENDBRANCH   9  10ENDBRANCH   5   9BRANCH   3  12ATOM     12  N   UNL     1      28.710  33.328  21.435 -0.16 +0.09    -0.283 N  ATOM     13  C   UNL     1      27.821  34.286  21.884 -0.23 -0.10    +0.325 C  ATOM     14  N   UNL     1      27.836  35.388  21.035 -0.16 +0.16    -0.308 N  ATOM     15  H   UNL     1      29.382  33.548  20.722 -0.38 -0.09    +0.174 HD ATOM     16  O   UNL     1      27.125  34.186  22.885 -0.70 -0.03    -0.248 OA ATOM     17  H   UNL     1      28.302  35.263  20.150 -0.40 -0.09    +0.171 HD BRANCH  14  18ATOM     18  C   UNL     1      27.148  36.609  21.199 -0.28 -0.03    +0.042 A  ATOM     19  C   UNL     1      26.478  37.121  20.082 -0.25 -0.02    +0.027 A  ATOM     20  C   UNL     1      27.114  37.336  22.388 -0.33 -0.01    +0.027 A  ATOM     21  C   UNL     1      25.782  38.334  20.158 -0.27 -0.01    +0.011 A  ATOM     22  C   UNL     1      26.418  38.551  22.461 -0.11 -0.00    +0.011 A  ATOM     23  C   UNL     1      25.739  39.073  21.349 -0.35 +0.01    -0.017 A  BRANCH  23  24ATOM     24  C   UNL     1      25.015  40.349  21.430 -0.43 +0.00    -0.000 A  ATOM     25  C   UNL     1      25.319  41.427  20.589 -0.43 -0.00    +0.012 A  ATOM     26  C   UNL     1      23.982  40.557  22.346 -0.38 -0.03    +0.119 A  ATOM     27  C   UNL     1      24.608  42.622  20.689 -0.41 -0.01    +0.021 A  ATOM     28  N   UNL     1      23.268  41.704  22.467 -0.88 +0.03    -0.264 NA ATOM     29  C   UNL     1      23.601  42.711  21.633 -0.35 -0.03    +0.111 A  ENDBRANCH  23  24ENDBRANCH  14  18ENDBRANCH   3  12TORSDOF 7TERENDMDL