REMARK SMILES CCN1CC[C@@H](NC(=O)C2=CC(c3ccc(Cl)cc3Cl)=CC=CN=C2)C[C@@H]1C
REMARK SMILES IDX 10 1 8 2 7 3 9 5 6 6 3 7 4 8 27 9 5 10 26 11 28 12 2 13 1 14
REMARK SMILES IDX 11 15 12 16 13 17 14 18 19 19 15 20 18 21 16 22 20 23 17 24
REMARK SMILES IDX 21 25 25 27 24 28 23 29 22 30
REMARK H PARENT 7 4
REMARK Flexibility Score:   44.900
ROOT
ATOM      1  C   UNL     1      -1.796  -0.080  -0.271  1.00  0.00     0.058 C 
ENDROOT
BRANCH   1   2
ATOM      2  C   UNL     1      -0.438   0.330   0.192  1.00  0.00     0.253 C 
ATOM      3  N   UNL     1       0.553   0.186  -0.755  1.00  0.00    -0.349 N 
ATOM      4  H   UNL     1       0.356  -0.360  -1.586  1.00  0.00     0.164 HD
ATOM      5  O   UNL     1      -0.231   0.742   1.329  1.00  0.00    -0.269 OA
BRANCH   3   6
ATOM      6  C   UNL     1       1.958   0.399  -0.421  1.00  0.00     0.085 C 
ATOM      7  N   UNL     1       4.760  -0.318  -0.681  1.00  0.00    -0.301 NA
ATOM      8  C   UNL     1       4.247   0.871  -1.359  1.00  0.00     0.087 C 
ATOM      9  C   UNL     1       4.052  -0.674   0.558  1.00  0.00     0.055 C 
ATOM     10  C   UNL     1       2.760   0.727  -1.678  1.00  0.00     0.040 C 
ATOM     11  C   UNL     1       2.549  -0.835   0.267  1.00  0.00     0.043 C 
ATOM     12  C   UNL     1       4.285   0.271   1.743  1.00  0.00     0.024 C 
BRANCH   7  13
ATOM     13  C   UNL     1       6.223  -0.389  -0.605  1.00  0.00     0.081 C 
ATOM     14  C   UNL     1       6.974   0.894  -0.259  1.00  0.00     0.021 C 
ENDBRANCH   7  13
ENDBRANCH   3   6
ENDBRANCH   1   2
BRANCH   1  15
ATOM     15  C   UNL     1      -2.731  -0.335   0.663  1.00  0.00     0.024 C 
BRANCH  15  16
ATOM     16  C   UNL     1      -4.132  -0.674   0.436  1.00  0.00    -0.016 C 
BRANCH  16  17
ATOM     17  C   UNL     1      -5.202   0.072   1.140  1.00  0.00     0.000 A 
ATOM     18  C   UNL     1      -5.747   1.198   0.501  1.00  0.00     0.012 A 
ATOM     19  C   UNL     1      -5.681  -0.286   2.413  1.00  0.00     0.050 A 
ATOM     20  C   UNL     1      -6.751   1.947   1.119  1.00  0.00     0.021 A 
ATOM     21  C   UNL     1      -6.685   0.465   3.030  1.00  0.00     0.041 A 
ATOM     22  C   UNL     1      -7.214   1.577   2.379  1.00  0.00     0.042 A 
ATOM     23  Cl  UNL     1      -5.063  -1.657   3.269  1.00  0.00    -0.084 Cl
ATOM     24  Cl  UNL     1      -8.451   2.501   3.137  1.00  0.00    -0.084 Cl
ENDBRANCH  16  17
BRANCH  16  25
ATOM     25  C   UNL     1      -4.531  -1.703  -0.340  1.00  0.00     0.010 CG0
ATOM     26  G   UNL     1      -3.660  -2.601  -1.065  1.00  0.00     0.000 G0
ENDBRANCH  16  25
ENDBRANCH  15  16
ENDBRANCH   1  15
BRANCH   1  27
ATOM     27  C   UNL     1      -2.145  -0.051  -1.714  1.00  0.00     0.124 C 
BRANCH  27  28
ATOM     28  N   UNL     1      -2.573  -0.982  -2.505  1.00  0.00    -0.264 NA
BRANCH  28  29
ATOM     29  C   UNL     1      -2.775  -2.240  -2.006  1.00  0.00     0.111 C 
BRANCH  29  30
ATOM     30  C   UNL     1      -3.660  -2.601  -1.065  1.00  0.00     0.021 CG0
ATOM     31  G   UNL     1      -4.531  -1.703  -0.340  1.00  0.00     0.000 G0
ENDBRANCH  29  30
ENDBRANCH  28  29
ENDBRANCH  27  28
ENDBRANCH   1  27
TORSDOF 4
