MODEL        6USER    Run = 6USERUSER    Estimated Free Energy of Binding    =  -9.25 kcal/mol  [=(1)+(2)+(3)-(4)]USERUSER    (1) Final Intermolecular Energy     = -10.74 kcal/molUSER        vdW + Hbond + desolv Energy     = -10.51 kcal/molUSER        Electrostatic Energy            =  -0.23 kcal/molUSER        Moving Ligand-Fixed Receptor    = -10.74 kcal/molUSER        Moving Ligand-Moving Receptor   =  +0.00 kcal/molUSER    (2) Final Total Internal Energy     =  -0.69 kcal/molUSER    (3) Torsional Free Energy           =  +1.49 kcal/molUSER    (4) Unbound System's Energy         =  -0.69 kcal/molUSERUSERREMARK SMILES O=C(O)c1cccc(C(=O)c2ccc(C3=CCNCC3)cc2)c1REMARK SMILES IDX 4 1 5 2 6 3 7 4 8 5 23 6 2 7 1 8 3 9 9 11 10 12 11 13 12 14REMARK SMILES IDX 22 15 13 16 21 17 14 18 15 19 16 20 20 21 17 22 19 23 18 24REMARK H PARENT 3 10 18 25USER                              x       y       z     vdW  Elec       q    TypeUSER                           _______ _______ _______ _____ _____    ______ ____ROOTATOM      1  C   UNL     1      40.754  48.974  15.011 -0.57 -0.01    +0.060 A  ATOM      2  C   UNL     1      40.969  48.442  16.289 -0.56 -0.00    +0.016 A  ATOM      3  C   UNL     1      40.121  47.454  16.794 -0.51 -0.00    +0.002 A  ATOM      4  C   UNL     1      39.058  46.988  16.020 -0.44 -0.00    +0.012 A  ATOM      5  C   UNL     1      38.850  47.501  14.734 -0.48 -0.01    +0.023 A  ATOM      6  C   UNL     1      39.687  48.507  14.235 -0.40 -0.01    +0.027 A  ENDROOTBRANCH   1   7ATOM      7  C   UNL     1      41.677  50.029  14.527 -0.44 -0.07    +0.335 C  ATOM      8  O   UNL     1      41.928  50.273  13.361 -0.56 +0.07    -0.246 OA BRANCH   7   9ATOM      9  O   UNL     1      42.234  50.734  15.525 -0.47 +0.03    -0.478 OA ATOM     10  H   UNL     1      41.483  51.215  15.930 -0.28 -0.13    +0.297 HD ENDBRANCH   7   9ENDBRANCH   1   7BRANCH   5  11ATOM     11  C   UNL     1      37.718  47.043  13.890 -0.40 -0.07    +0.193 C  ATOM     12  O   UNL     1      37.684  47.373  12.709 -0.95 +0.06    -0.289 OA BRANCH  11  13ATOM     13  C   UNL     1      36.628  46.199  14.443 -0.40 -0.01    +0.023 A  ATOM     14  C   UNL     1      35.287  46.591  14.382 -0.35 -0.01    +0.013 A  ATOM     15  C   UNL     1      36.969  45.001  15.077 -0.37 -0.01    +0.013 A  ATOM     16  C   UNL     1      34.293  45.770  14.927 -0.28 -0.01    +0.009 A  ATOM     17  C   UNL     1      35.971  44.185  15.620 -0.37 -0.00    +0.009 A  ATOM     18  C   UNL     1      34.620  44.559  15.554 -0.25 +0.01    -0.023 A  BRANCH  18  19ATOM     19  C   UNL     1      33.564  43.691  16.114 -0.36 +0.02    -0.042 C  ATOM     20  C   UNL     1      32.255  43.961  15.936 -0.39 +0.00    -0.008 C  ATOM     21  C   UNL     1      33.979  42.473  16.908 -0.42 -0.02    +0.051 C  ATOM     22  C   UNL     1      31.150  43.101  16.477 -0.30 -0.04    +0.109 C  ATOM     23  C   UNL     1      32.815  41.895  17.728 -0.37 -0.03    +0.086 C  ATOM     24  N   UNL     1      31.592  41.778  16.927 -0.11 +0.13    -0.313 NA ATOM     25  H   UNL     1      31.797  41.219  16.098 -0.46 -0.11    +0.123 HD ENDBRANCH  18  19ENDBRANCH  11  13ENDBRANCH   5  11TORSDOF 5TERENDMDL