MODEL        1USER    Run = 1USERUSER    Estimated Free Energy of Binding    =  -9.31 kcal/mol  [=(1)+(2)+(3)-(4)]USERUSER    (1) Final Intermolecular Energy     = -10.50 kcal/molUSER        vdW + Hbond + desolv Energy     = -10.38 kcal/molUSER        Electrostatic Energy            =  -0.12 kcal/molUSER        Moving Ligand-Fixed Receptor    = -10.50 kcal/molUSER        Moving Ligand-Moving Receptor   =  +0.00 kcal/molUSER    (2) Final Total Internal Energy     =  -1.95 kcal/molUSER    (3) Torsional Free Energy           =  +1.19 kcal/molUSER    (4) Unbound System's Energy         =  -1.95 kcal/molUSERUSERREMARK SMILES NCC[C@@H]1C(=O)Nc2ccc3ncnc(-c4cccc(Cl)c4Cl)c3c21REMARK SMILES IDX 3 1 2 2 1 3 4 6 5 7 25 8 7 9 24 10 8 11 15 12 11 13 9 14REMARK SMILES IDX 14 15 10 16 12 17 13 18 6 19 16 21 17 22 22 23 18 24 20 25REMARK SMILES IDX 19 26 23 27 21 28REMARK H PARENT 1 4 1 5 7 20USER                              x       y       z     vdW  Elec       q    TypeUSER                           _______ _______ _______ _____ _____    ______ ____ROOTATOM      1  C   UNL     1      36.553  46.281  14.165 -0.48 -0.02    +0.033 C  ENDROOTBRANCH   1   2ATOM      2  C   UNL     1      35.941  46.773  12.847 -0.62 -0.04    +0.079 C  BRANCH   2   3ATOM      3  N   UNL     1      36.897  47.355  11.921 -0.87 +0.11    -0.330 NA ATOM      4  H   UNL     1      37.774  47.554  12.399 +0.06 -0.01    +0.118 HD ATOM      5  H   UNL     1      36.558  48.251  11.553 -0.32 -0.05    +0.118 HD ENDBRANCH   2   3ENDBRANCH   1   2BRANCH   1   6ATOM      6  C   UNL     1      36.903  47.396  15.163 -0.41 -0.09    +0.113 C  ATOM      7  C   UNL     1      37.464  48.588  14.342 -0.41 -0.15    +0.232 C  ATOM      8  C   UNL     1      38.085  47.050  16.058 -0.42 +0.00    -0.000 A  ATOM      9  N   UNL     1      38.791  48.746  14.692 -0.23 +0.17    -0.325 N  ATOM     10  C   UNL     1      38.232  46.125  17.130 -0.37 -0.01    +0.033 A  ATOM     11  C   UNL     1      39.164  47.852  15.675 -0.47 -0.02    +0.046 A  ATOM     12  C   UNL     1      37.262  45.308  17.762 -0.30 -0.02    +0.083 A  ATOM     13  C   UNL     1      39.523  45.994  17.689 -0.39 -0.01    +0.075 A  ATOM     14  C   UNL     1      40.411  47.749  16.235 -0.52 -0.01    +0.029 A  ATOM     15  N   UNL     1      37.556  44.454  18.772 -0.21 +0.03    -0.236 NA ATOM     16  C   UNL     1      40.573  46.792  17.233 -0.48 -0.00    +0.031 A  ATOM     17  N   UNL     1      39.822  45.143  18.673 -0.27 +0.01    -0.236 NA ATOM     18  C   UNL     1      38.828  44.401  19.161 -0.21 -0.01    +0.223 A  ATOM     19  O   UNL     1      36.889  49.249  13.492 -0.45 +0.14    -0.274 OA ATOM     20  H   UNL     1      39.382  49.447  14.269 -0.21 -0.12    +0.169 HD BRANCH  12  21ATOM     21  C   UNL     1      35.812  45.355  17.513 -0.33 -0.01    +0.021 A  ATOM     22  C   UNL     1      35.047  46.356  18.146 -0.29 -0.01    +0.012 A  ATOM     23  C   UNL     1      35.135  44.367  16.763 -0.26 -0.03    +0.069 A  ATOM     24  C   UNL     1      33.659  46.399  18.018 -0.39 -0.00    +0.002 A  ATOM     25  C   UNL     1      33.735  44.408  16.648 -0.27 -0.03    +0.060 A  ATOM     26  C   UNL     1      33.004  45.424  17.272 -0.28 -0.01    +0.022 A  ATOM     27  Cl  UNL     1      36.038  43.118  15.953 -0.61 +0.03    -0.082 Cl ATOM     28  Cl  UNL     1      32.841  43.245  15.731 -0.39 +0.04    -0.083 Cl ENDBRANCH  12  21ENDBRANCH   1   6TORSDOF 4TERENDMDL