REMARK SMILES COCc1sc(NC(=O)Nc2ccc(-c3cccnc3)cc2)nc1CO
REMARK SMILES IDX 4 1 5 2 6 3 23 4 24 5 3 6 2 7 1 8 25 9 26 10 7 12 8 13 10 14
REMARK SMILES IDX 9 16 11 18 12 19 22 20 13 21 21 22 14 23 15 24 16 25 20 26
REMARK SMILES IDX 17 27 19 28 18 29
REMARK H PARENT 26 11 7 15 10 17
ROOT
ATOM      1  C   UNL     1      -5.147   0.789  -0.948  1.00  0.00     0.058 A 
ATOM      2  S   UNL     1      -3.902   1.971  -1.032  1.00  0.00    -0.099 S 
ATOM      3  C   UNL     1      -2.768   0.797  -0.537  1.00  0.00     0.191 A 
ATOM      4  N   UNL     1      -3.236  -0.399  -0.305  1.00  0.00    -0.222 NA
ATOM      5  C   UNL     1      -4.607  -0.419  -0.536  1.00  0.00     0.085 A 
ENDROOT
BRANCH   1   6
ATOM      6  C   UNL     1      -6.554   1.125  -1.305  1.00  0.00     0.208 C 
BRANCH   6   7
ATOM      7  O   UNL     1      -7.367   0.700  -0.213  1.00  0.00    -0.379 OA
ATOM      8  C   UNL     1      -8.745   0.941  -0.464  1.00  0.00     0.195 C 
ENDBRANCH   6   7
ENDBRANCH   1   6
BRANCH   5   9
ATOM      9  C   UNL     1      -5.327  -1.712  -0.319  1.00  0.00     0.213 C 
BRANCH   9  10
ATOM     10  O   UNL     1      -4.449  -2.827  -0.481  1.00  0.00    -0.390 OA
ATOM     11  H   UNL     1      -3.558  -2.470  -0.278  1.00  0.00     0.211 HD
ENDBRANCH   9  10
ENDBRANCH   5   9
BRANCH   3  12
ATOM     12  N   UNL     1      -1.489   1.267  -0.434  1.00  0.00    -0.283 N 
ATOM     13  C   UNL     1      -0.414   0.437  -0.178  1.00  0.00     0.325 C 
ATOM     14  N   UNL     1       0.753   1.186  -0.065  1.00  0.00    -0.308 N 
ATOM     15  H   UNL     1      -1.344   2.226  -0.695  1.00  0.00     0.174 HD
ATOM     16  O   UNL     1      -0.475  -0.780  -0.071  1.00  0.00    -0.248 OA
ATOM     17  H   UNL     1       0.636   2.183   0.022  1.00  0.00     0.171 HD
BRANCH  14  18
ATOM     18  C   UNL     1       2.070   0.706   0.096  1.00  0.00     0.042 A 
ATOM     19  C   UNL     1       3.076   1.656   0.308  1.00  0.00     0.027 A 
ATOM     20  C   UNL     1       2.427  -0.640   0.035  1.00  0.00     0.027 A 
ATOM     21  C   UNL     1       4.411   1.263   0.464  1.00  0.00     0.011 A 
ATOM     22  C   UNL     1       3.764  -1.031   0.190  1.00  0.00     0.011 A 
ATOM     23  C   UNL     1       4.781  -0.089   0.407  1.00  0.00    -0.017 A 
BRANCH  23  24
ATOM     24  C   UNL     1       6.182  -0.504   0.564  1.00  0.00    -0.000 A 
ATOM     25  C   UNL     1       6.806  -1.364  -0.349  1.00  0.00     0.012 A 
ATOM     26  C   UNL     1       6.970  -0.062   1.629  1.00  0.00     0.119 A 
ATOM     27  C   UNL     1       8.139  -1.733  -0.173  1.00  0.00     0.021 A 
ATOM     28  N   UNL     1       8.269  -0.398   1.827  1.00  0.00    -0.264 NA
ATOM     29  C   UNL     1       8.822  -1.228   0.919  1.00  0.00     0.111 A 
ENDBRANCH  23  24
ENDBRANCH  14  18
ENDBRANCH   3  12
TORSDOF 7
