MODEL        1USER    Run = 1USERUSER    Estimated Free Energy of Binding    =  -9.88 kcal/mol  [=(1)+(2)+(3)-(4)]USERUSER    (1) Final Intermolecular Energy     = -10.48 kcal/molUSER        vdW + Hbond + desolv Energy     = -10.34 kcal/molUSER        Electrostatic Energy            =  -0.14 kcal/molUSER        Moving Ligand-Fixed Receptor    = -10.48 kcal/molUSER        Moving Ligand-Moving Receptor   =  +0.00 kcal/molUSER    (2) Final Total Internal Energy     =  -0.55 kcal/molUSER    (3) Torsional Free Energy           =  +0.60 kcal/molUSER    (4) Unbound System's Energy         =  -0.55 kcal/molUSERUSERREMARK SMILES c1ccc(-c2cnc3[nH]occ(-c4ccc5[nH]ncc5c4)ncc3c2)cc1REMARK SMILES IDX 5 1 6 2 7 3 8 4 9 5 10 6 11 7 12 8 22 9 23 10 24 11 25 12REMARK SMILES IDX 4 14 1 15 2 16 27 17 3 18 26 19 13 20 14 21 21 22 15 23REMARK SMILES IDX 20 24 16 25 19 26 17 27 18 28REMARK H PARENT 9 13 17 29USER                              x       y       z     vdW  Elec       q    TypeUSER                           _______ _______ _______ _____ _____    ______ ____ROOTATOM      1  C   UNL     1      39.767  47.553  15.967 -0.52 -0.00    +0.001 A  ATOM      2  C   UNL     1      40.633  48.635  16.092 -0.49 -0.02    +0.122 A  ATOM      3  N   UNL     1      41.603  48.762  17.029 -0.81 -0.01    -0.235 NA ATOM      4  C   UNL     1      41.749  47.748  17.929 -0.36 -0.01    +0.168 A  ATOM      5  N   UNL     1      42.693  48.004  18.919 -0.41 -0.00    -0.204 N  ATOM      6  O   UNL     1      43.181  47.042  19.779 -0.31 -0.12    -0.386 OA ATOM      7  C   UNL     1      42.309  46.984  20.842 -0.13 +0.04    +0.255 A  ATOM      8  C   UNL     1      41.242  46.159  20.908 -0.23 +0.01    +0.108 A  ATOM      9  N   UNL     1      40.707  45.236  20.072 -0.23 -0.01    -0.252 NA ATOM     10  C   UNL     1      41.108  45.294  18.784 -0.36 +0.01    +0.124 A  ATOM     11  C   UNL     1      40.957  46.595  17.869 -0.48 -0.00    +0.039 A  ATOM     12  C   UNL     1      39.956  46.520  16.888 -0.46 -0.00    +0.024 A  ATOM     13  H   UNL     1      43.293  48.786  18.715 -0.41 -0.01    +0.211 HD ENDROOTBRANCH   1  14ATOM     14  C   UNL     1      38.732  47.495  14.924 -0.48 +0.01    -0.017 A  ATOM     15  C   UNL     1      36.738  47.383  12.928 -0.64 -0.00    +0.000 A  ATOM     16  C   UNL     1      36.924  48.550  13.666 -0.54 -0.00    +0.001 A  ATOM     17  C   UNL     1      37.542  46.274  13.176 -0.47 -0.00    +0.001 A  ATOM     18  C   UNL     1      37.913  48.604  14.653 -0.51 -0.01    +0.009 A  ATOM     19  C   UNL     1      38.529  46.330  14.163 -0.41 -0.00    +0.009 A  ENDBRANCH   1  14BRANCH   8  20ATOM     20  C   UNL     1      40.525  46.239  22.206 -0.21 +0.00    +0.004 A  ATOM     21  C   UNL     1      41.051  47.021  23.245 -0.23 +0.00    +0.013 A  ATOM     22  C   UNL     1      39.335  45.516  22.400 -0.30 +0.00    +0.022 A  ATOM     23  C   UNL     1      40.422  47.104  24.492 -0.21 +0.00    +0.029 A  ATOM     24  C   UNL     1      38.691  45.588  23.646 -0.29 +0.00    +0.020 A  ATOM     25  C   UNL     1      39.243  46.370  24.654 -0.21 +0.00    +0.065 A  ATOM     26  C   UNL     1      37.524  45.041  24.223 -0.17 +0.02    +0.143 A  ATOM     27  N   UNL     1      38.391  46.236  25.716 -0.12 -0.01    -0.278 N  ATOM     28  N   UNL     1      37.340  45.425  25.492 -0.43 -0.01    -0.183 NA ATOM     29  H   UNL     1      38.475  46.674  26.625 +0.08 -0.01    +0.190 HD ENDBRANCH   8  20TORSDOF 2TERENDMDL