REMARK SMILES Cc1cccc(C=C2C=C(N)C(C(=O)N3C=CC=C(c4cn(C)c5cccc(Cl)c45)C=C3)=NN2)c1O
REMARK SMILES IDX 15 1 13 2 14 3 12 4 8 5 9 6 34 7 10 8 33 9 7 11 6 12 2 13
REMARK SMILES IDX 3 14 35 15 4 16 5 17 1 18 36 19 11 21 16 24 17 25 18 26
REMARK SMILES IDX 19 27 20 28 21 29 30 30 22 31 28 32 24 33 27 34 25 35 26 36
REMARK SMILES IDX 23 37 29 38 31 39 32 41
REMARK H PARENT 34 10 36 20 11 22 11 23
REMARK Flexibility Score:  199.900
ROOT
ATOM      1  N   UNL     1      -0.585  -0.012  -1.495  1.00  0.00    -0.289 N 
ENDROOT
BRANCH   1   2
ATOM      2  C   UNL     1       0.403   0.630  -2.290  1.00  0.00     0.284 C 
ATOM      3  O   UNL     1       0.276   0.955  -3.473  1.00  0.00    -0.266 OA
BRANCH   2   4
ATOM      4  C   UNL     1       1.701   1.041  -1.629  1.00  0.00     0.172 C 
ATOM      5  C   UNL     1       4.014   1.811  -0.378  1.00  0.00     0.059 C 
ATOM      6  C   UNL     1       2.976   2.803  -0.630  1.00  0.00     0.055 C 
ATOM      7  N   UNL     1       3.739   0.528  -0.808  1.00  0.00    -0.278 N 
ATOM      8  C   UNL     1       1.826   2.499  -1.251  1.00  0.00     0.067 C 
ATOM      9  N   UNL     1       2.600   0.119  -1.433  1.00  0.00    -0.168 NA
ATOM     10  H   UNL     1       4.512  -0.140  -0.766  1.00  0.00     0.190 HD
BRANCH   5  11
ATOM     11  C   UNL     1       5.147   2.189   0.247  1.00  0.00     0.039 C 
BRANCH  11  12
ATOM     12  C   UNL     1       6.287   1.317   0.582  1.00  0.00     0.019 A 
ATOM     13  C   UNL     1       7.343  -0.617   1.646  1.00  0.00    -0.009 A 
ATOM     14  C   UNL     1       8.588  -0.182   1.175  1.00  0.00     0.007 A 
ATOM     15  C   UNL     1       6.199   0.140   1.347  1.00  0.00     0.125 A 
ATOM     16  C   UNL     1       8.691   0.984   0.421  1.00  0.00     0.001 A 
ATOM     17  C   UNL     1       7.549   1.730   0.132  1.00  0.00     0.012 A 
ATOM     18  C   UNL     1       7.248  -1.883   2.451  1.00  0.00     0.048 C 
BRANCH  15  19
ATOM     19  O   UNL     1       5.008  -0.328   1.836  1.00  0.00    -0.507 OA
ATOM     20  H   UNL     1       4.282   0.241   1.525  1.00  0.00     0.293 HD
ENDBRANCH  15  19
ENDBRANCH  11  12
ENDBRANCH   5  11
BRANCH   8  21
ATOM     21  N   UNL     1       0.814   3.400  -1.530  1.00  0.00    -0.397 N 
ATOM     22  H   UNL     1       0.325   3.202  -2.412  1.00  0.00     0.156 HD
ATOM     23  H   UNL     1       1.096   4.374  -1.469  1.00  0.00     0.156 HD
ENDBRANCH   8  21
ENDBRANCH   2   4
ENDBRANCH   1   2
BRANCH   1  24
ATOM     24  C   UNL     1      -0.357  -0.362  -0.172  1.00  0.00     0.094 C 
BRANCH  24  25
ATOM     25  C   UNL     1      -1.162  -0.865   0.768  1.00  0.00     0.019 C 
BRANCH  25  26
ATOM     26  C   UNL     1      -2.572  -1.137   0.738  1.00  0.00     0.010 C 
BRANCH  26  27
ATOM     27  C   UNL     1      -3.397  -1.107  -0.320  1.00  0.00    -0.015 C 
BRANCH  27  28
ATOM     28  C   UNL     1      -4.798  -1.377  -0.125  1.00  0.00     0.009 A 
ATOM     29  C   UNL     1      -5.312  -2.650   0.017  1.00  0.00     0.095 A 
ATOM     30  C   UNL     1      -5.885  -0.446  -0.036  1.00  0.00     0.026 A 
ATOM     31  N   UNL     1      -6.663  -2.539   0.188  1.00  0.00    -0.350 N 
ATOM     32  C   UNL     1      -6.050   0.958  -0.083  1.00  0.00     0.051 A 
ATOM     33  C   UNL     1      -7.046  -1.215   0.153  1.00  0.00     0.050 A 
ATOM     34  C   UNL     1      -7.306   1.552   0.035  1.00  0.00     0.021 A 
ATOM     35  C   UNL     1      -8.321  -0.634   0.275  1.00  0.00     0.027 A 
ATOM     36  C   UNL     1      -8.432   0.758   0.208  1.00  0.00     0.004 A 
ATOM     37  C   UNL     1      -7.559  -3.656   0.373  1.00  0.00     0.149 C 
ATOM     38  Cl  UNL     1      -4.656   1.932  -0.274  1.00  0.00    -0.084 Cl
ENDBRANCH  27  28
BRANCH  27  39
ATOM     39  C   UNL     1      -2.951  -0.804  -1.664  1.00  0.00     0.027 CG0
ATOM     40  G   UNL     1      -1.787  -0.325  -2.118  1.00  0.00     0.000 G0
ENDBRANCH  27  39
ENDBRANCH  26  27
ENDBRANCH  25  26
ENDBRANCH  24  25
ENDBRANCH   1  24
BRANCH   1  41
ATOM     41  C   UNL     1      -1.787  -0.325  -2.118  1.00  0.00     0.095 CG0
ATOM     42  G   UNL     1      -2.951  -0.804  -1.664  1.00  0.00     0.000 G0
ENDBRANCH   1  41
TORSDOF 7
