REMARK SMILES CN(C)c1nccc(-c2ccc(C(=O)CN3CCC(Nc4nc5ccccc5o4)CC3)cc2)n1
REMARK SMILES IDX 13 1 14 2 12 3 9 4 10 5 33 6 11 7 32 8 8 9 4 10 5 11 34 12
REMARK SMILES IDX 6 13 7 14 2 15 1 16 3 17 15 18 16 19 17 20 31 21 18 22 30 23
REMARK SMILES IDX 19 24 20 25 21 27 22 28 29 29 23 30 28 31 24 32 27 33 25 34
REMARK SMILES IDX 26 35
REMARK H PARENT 20 26
ROOT
ATOM      1  C   UNL     1      -0.666   1.479  -1.080  1.00  0.00     0.176 C 
ATOM      2  O   UNL     1      -0.712   2.207  -2.070  1.00  0.00    -0.293 OA
ENDROOT
BRANCH   1   3
ATOM      3  C   UNL     1      -1.946   0.882  -0.583  1.00  0.00     0.019 A 
ATOM      4  C   UNL     1      -4.435  -0.166   0.326  1.00  0.00     0.000 A 
ATOM      5  C   UNL     1      -4.375   0.869  -0.625  1.00  0.00     0.011 A 
ATOM      6  C   UNL     1      -3.209  -0.675   0.792  1.00  0.00     0.011 A 
ATOM      7  C   UNL     1      -3.154   1.386  -1.074  1.00  0.00     0.012 A 
ATOM      8  C   UNL     1      -1.980  -0.160   0.348  1.00  0.00     0.012 A 
BRANCH   4   9
ATOM      9  C   UNL     1      -5.740  -0.687   0.797  1.00  0.00     0.076 A 
ATOM     10  C   UNL     1      -7.987  -1.003   0.278  1.00  0.00     0.225 A 
ATOM     11  N   UNL     1      -8.222  -1.570   1.471  1.00  0.00    -0.221 NA
ATOM     12  N   UNL     1      -6.768  -0.557  -0.073  1.00  0.00    -0.213 NA
ATOM     13  C   UNL     1      -7.192  -1.683   2.325  1.00  0.00     0.117 A 
ATOM     14  C   UNL     1      -5.921  -1.254   2.040  1.00  0.00     0.049 A 
BRANCH  10  15
ATOM     15  N   UNL     1      -9.036  -0.893  -0.636  1.00  0.00    -0.347 N 
ATOM     16  C   UNL     1     -10.361  -0.958  -0.043  1.00  0.00     0.146 C 
ATOM     17  C   UNL     1      -8.829   0.101  -1.677  1.00  0.00     0.146 C 
ENDBRANCH  10  15
ENDBRANCH   4   9
ENDBRANCH   1   3
BRANCH   1  18
ATOM     18  C   UNL     1       0.622   1.138  -0.313  1.00  0.00     0.165 C 
BRANCH  18  19
ATOM     19  N   UNL     1       1.762   1.993  -0.705  1.00  0.00    -0.296 NA
ATOM     20  C   UNL     1       2.331   1.647  -2.016  1.00  0.00     0.087 C 
ATOM     21  C   UNL     1       2.806   2.034   0.325  1.00  0.00     0.087 C 
ATOM     22  C   UNL     1       3.173   0.370  -2.016  1.00  0.00     0.040 C 
ATOM     23  C   UNL     1       3.629   0.751   0.418  1.00  0.00     0.040 C 
ATOM     24  C   UNL     1       4.262   0.423  -0.938  1.00  0.00     0.086 C 
BRANCH  24  25
ATOM     25  N   UNL     1       4.949  -0.864  -0.879  1.00  0.00    -0.337 N 
ATOM     26  H   UNL     1       4.746  -1.510  -1.635  1.00  0.00     0.165 HD
BRANCH  25  27
ATOM     27  C   UNL     1       6.219  -0.947  -0.441  1.00  0.00     0.295 A 
ATOM     28  N   UNL     1       7.079  -1.906  -0.702  1.00  0.00    -0.194 NA
ATOM     29  O   UNL     1       6.697   0.053   0.360  1.00  0.00    -0.424 OA
ATOM     30  C   UNL     1       8.209  -1.522  -0.026  1.00  0.00     0.111 A 
ATOM     31  C   UNL     1       7.979  -0.324   0.628  1.00  0.00     0.156 A 
ATOM     32  C   UNL     1       9.470  -2.125   0.088  1.00  0.00     0.032 A 
ATOM     33  C   UNL     1       8.913   0.347   1.408  1.00  0.00     0.049 A 
ATOM     34  C   UNL     1      10.444  -1.479   0.867  1.00  0.00     0.003 A 
ATOM     35  C   UNL     1      10.168  -0.267   1.514  1.00  0.00     0.004 A 
ENDBRANCH  25  27
ENDBRANCH  24  25
ENDBRANCH  18  19
ENDBRANCH   1  18
TORSDOF 7
