MODEL        8USER    Run = 8USERUSER    Estimated Free Energy of Binding    = -10.28 kcal/mol  [=(1)+(2)+(3)-(4)]USERUSER    (1) Final Intermolecular Energy     = -12.37 kcal/molUSER        vdW + Hbond + desolv Energy     = -12.31 kcal/molUSER        Electrostatic Energy            =  -0.06 kcal/molUSER        Moving Ligand-Fixed Receptor    = -12.37 kcal/molUSER        Moving Ligand-Moving Receptor   =  +0.00 kcal/molUSER    (2) Final Total Internal Energy     =  -1.92 kcal/molUSER    (3) Torsional Free Energy           =  +2.09 kcal/molUSER    (4) Unbound System's Energy         =  -1.92 kcal/molUSERUSERREMARK SMILES Nc1nccc(-c2ccc(C(=O)CN3CCC(Nc4nc5ccccc5o4)CC3)cc2)n1REMARK SMILES IDX 11 1 12 2 10 3 7 4 8 5 31 6 9 7 30 8 6 9 2 10 3 11 32 12REMARK SMILES IDX 4 13 5 14 1 15 13 18 14 19 15 20 29 21 16 22 28 23 17 24REMARK SMILES IDX 18 25 19 27 20 28 27 29 21 30 26 31 22 32 25 33 23 34 24 35REMARK H PARENT 1 16 1 17 18 26USER                              x       y       z     vdW  Elec       q    TypeUSER                           _______ _______ _______ _____ _____    ______ ____ROOTATOM      1  C   UNL     1      36.124  46.508  12.660 -0.55 -0.09    +0.176 C  ATOM      2  O   UNL     1      35.860  45.938  11.601 -0.44 +0.14    -0.293 OA ENDROOTBRANCH   1   3ATOM      3  C   UNL     1      35.799  45.805  13.942 -0.41 -0.01    +0.019 A  ATOM      4  C   UNL     1      35.090  44.532  16.388 -0.32 -0.00    +0.000 A  ATOM      5  C   UNL     1      36.250  44.168  15.680 -0.38 -0.00    +0.011 A  ATOM      6  C   UNL     1      34.292  45.545  15.831 -0.28 -0.01    +0.011 A  ATOM      7  C   UNL     1      36.604  44.794  14.475 -0.39 -0.00    +0.012 A  ATOM      8  C   UNL     1      34.639  46.176  14.630 -0.29 -0.01    +0.012 A  BRANCH   4   9ATOM      9  C   UNL     1      34.704  43.879  17.657 -0.25 -0.03    +0.076 A  ATOM     10  C   UNL     1      33.414  43.991  19.556 -0.28 -0.03    +0.220 A  ATOM     11  N   UNL     1      33.874  42.835  20.036 -0.66 -0.03    -0.222 NA ATOM     12  N   UNL     1      33.806  44.553  18.411 -0.21 +0.07    -0.213 NA ATOM     13  C   UNL     1      34.773  42.191  19.276 -0.31 -0.01    +0.117 A  ATOM     14  C   UNL     1      35.226  42.667  18.069 -0.35 -0.01    +0.049 A  BRANCH  10  15ATOM     15  N   UNL     1      32.499  44.680  20.325 +0.12 +0.04    -0.368 N  ATOM     16  H   UNL     1      32.571  44.384  21.288 -0.17 +0.01    +0.159 HD ATOM     17  H   UNL     1      32.564  45.669  20.133 -0.41 -0.06    +0.159 HD ENDBRANCH  10  15ENDBRANCH   4   9ENDBRANCH   1   3BRANCH   1  18ATOM     18  C   UNL     1      36.761  47.901  12.748 -0.52 -0.06    +0.165 C  BRANCH  18  19ATOM     19  N   UNL     1      37.925  48.009  13.646 -0.53 +0.10    -0.296 NA ATOM     20  C   UNL     1      37.600  48.458  14.996 -0.53 -0.06    +0.087 C  ATOM     21  C   UNL     1      38.793  46.827  13.618 -0.17 -0.02    +0.087 C  ATOM     22  C   UNL     1      38.870  48.919  15.718 -0.46 -0.02    +0.040 C  ATOM     23  C   UNL     1      39.652  46.671  14.876 -0.49 -0.01    +0.040 C  ATOM     24  C   UNL     1      40.090  48.038  15.404 -0.55 -0.02    +0.086 C  BRANCH  24  25ATOM     25  N   UNL     1      40.912  47.847  16.594 -0.28 +0.05    -0.337 N  ATOM     26  H   UNL     1      41.915  47.873  16.451 -0.36 -0.01    +0.165 HD BRANCH  25  27ATOM     27  C   UNL     1      40.480  47.026  17.564 -0.28 -0.04    +0.295 A  ATOM     28  N   UNL     1      41.110  46.563  18.622 -0.36 +0.00    -0.194 NA ATOM     29  O   UNL     1      39.181  46.619  17.443 -0.21 +0.10    -0.424 OA ATOM     30  C   UNL     1      40.169  45.786  19.245 -0.36 -0.00    +0.111 A  ATOM     31  C   UNL     1      38.986  45.817  18.527 -0.30 -0.02    +0.156 A  ATOM     32  C   UNL     1      40.232  45.024  20.419 -0.35 +0.00    +0.032 A  ATOM     33  C   UNL     1      37.826  45.139  18.881 -0.30 -0.01    +0.049 A  ATOM     34  C   UNL     1      39.080  44.323  20.812 -0.32 +0.00    +0.003 A  ATOM     35  C   UNL     1      37.902  44.381  20.057 -0.37 -0.00    +0.004 A  ENDBRANCH  25  27ENDBRANCH  24  25ENDBRANCH  18  19ENDBRANCH   1  18TORSDOF 7TERENDMDL