MODEL        4USER    Run = 4USERUSER    Estimated Free Energy of Binding    = -10.52 kcal/mol  [=(1)+(2)+(3)-(4)]USERUSER    (1) Final Intermolecular Energy     = -12.90 kcal/molUSER        vdW + Hbond + desolv Energy     = -12.75 kcal/molUSER        Electrostatic Energy            =  -0.15 kcal/molUSER        Moving Ligand-Fixed Receptor    = -12.90 kcal/molUSER        Moving Ligand-Moving Receptor   =  +0.00 kcal/molUSER    (2) Final Total Internal Energy     =  -1.02 kcal/molUSER    (3) Torsional Free Energy           =  +2.39 kcal/molUSER    (4) Unbound System's Energy         =  -1.02 kcal/molUSERUSERREMARK SMILES Nc1ccc2nc(NC3CCN(CC(=O)c4ccc(-c5ccnc(N)n5)cc4)CC3)oc2c1REMARK SMILES IDX 13 1 12 2 9 3 10 4 30 5 11 6 29 7 8 8 7 10 2 11 3 12 33 13REMARK SMILES IDX 4 14 32 15 5 16 31 17 6 18 1 19 14 22 15 23 16 24 17 25REMARK SMILES IDX 28 26 18 27 27 28 19 29 20 30 21 31 26 32 22 33 24 34 23 35REMARK SMILES IDX 25 36REMARK H PARENT 8 9 1 20 1 21 25 37 25 38USER                              x       y       z     vdW  Elec       q    TypeUSER                           _______ _______ _______ _____ _____    ______ ____ROOTATOM      1  C   UNL     1      41.791  46.381  23.195 -0.16 +0.02    +0.165 C  ENDROOTBRANCH   1   2ATOM      2  N   UNL     1      40.446  45.992  23.659 -0.07 -0.02    -0.296 NA ATOM      3  C   UNL     1      39.213  46.596  26.303 -0.20 +0.00    +0.086 C  ATOM      4  C   UNL     1      38.533  46.928  24.972 -0.33 +0.00    +0.040 C  ATOM      5  C   UNL     1      40.398  45.635  26.148 -0.13 +0.00    +0.040 C  ATOM      6  C   UNL     1      39.603  47.167  23.911 -0.31 +0.01    +0.087 C  ATOM      7  C   UNL     1      40.453  45.011  24.752 -0.11 +0.00    +0.087 C  BRANCH   3   8ATOM      8  N   UNL     1      38.263  46.179  27.329 -0.11 +0.03    -0.337 N  ATOM      9  H   UNL     1      38.304  46.688  28.203 -0.14 -0.05    +0.165 HD BRANCH   8  10ATOM     10  C   UNL     1      37.794  44.925  27.409 -0.15 -0.03    +0.295 A  ATOM     11  C   UNL     1      35.053  41.395  27.278 -0.61 -0.01    +0.035 A  ATOM     12  C   UNL     1      36.249  40.760  27.657 -0.51 -0.01    +0.028 A  ATOM     13  C   UNL     1      35.045  42.771  27.005 -0.49 -0.01    +0.075 A  ATOM     14  C   UNL     1      37.436  41.480  27.876 -0.43 -0.01    +0.034 A  ATOM     15  C   UNL     1      36.237  43.450  27.230 -0.33 -0.03    +0.158 A  ATOM     16  C   UNL     1      37.414  42.861  27.659 -0.29 -0.02    +0.112 A  ATOM     17  O   UNL     1      36.477  44.783  27.067 -0.16 +0.09    -0.423 OA ATOM     18  N   UNL     1      38.391  43.814  27.780 -0.20 +0.02    -0.194 NA BRANCH  11  19ATOM     19  N   UNL     1      33.927  40.621  26.960 -0.21 +0.22    -0.399 N  ATOM     20  H   UNL     1      33.920  40.272  26.006 -0.39 -0.14    +0.156 HD ATOM     21  H   UNL     1      33.721  39.894  27.639 -0.34 -0.14    +0.156 HD ENDBRANCH  11  19ENDBRANCH   8  10ENDBRANCH   3   8ENDBRANCH   1   2BRANCH   1  22ATOM     22  C   UNL     1      42.253  45.583  21.968 -0.21 +0.03    +0.176 C  ATOM     23  O   UNL     1      42.900  44.536  22.028 -0.16 -0.07    -0.293 OA BRANCH  22  24ATOM     24  C   UNL     1      41.892  46.110  20.614 -0.35 +0.00    +0.019 A  ATOM     25  C   UNL     1      42.738  47.053  20.019 -0.45 +0.00    +0.012 A  ATOM     26  C   UNL     1      40.750  45.698  19.923 -0.40 +0.00    +0.012 A  ATOM     27  C   UNL     1      42.435  47.593  18.763 -0.52 +0.00    +0.011 A  ATOM     28  C   UNL     1      40.453  46.244  18.667 -0.46 -0.00    +0.011 A  ATOM     29  C   UNL     1      41.278  47.211  18.062 -0.53 -0.00    +0.000 A  BRANCH  29  30ATOM     30  C   UNL     1      40.928  47.786  16.744 -0.45 -0.01    +0.076 A  ATOM     31  C   UNL     1      40.246  47.075  15.773 -0.45 -0.01    +0.049 A  ATOM     32  N   UNL     1      41.342  49.056  16.529 -0.94 +0.00    -0.213 NA ATOM     33  C   UNL     1      40.009  47.736  14.593 -0.38 -0.02    +0.117 A  ATOM     34  C   UNL     1      41.037  49.615  15.356 -0.48 -0.05    +0.220 A  ATOM     35  N   UNL     1      40.397  49.001  14.360 -0.36 +0.07    -0.222 NA BRANCH  34  36ATOM     36  N   UNL     1      41.459  50.908  15.134 -0.22 +0.12    -0.368 N  ATOM     37  H   UNL     1      40.676  51.488  14.867 -0.31 -0.09    +0.159 HD ATOM     38  H   UNL     1      42.029  51.218  15.908 -0.40 -0.04    +0.159 HD ENDBRANCH  34  36ENDBRANCH  29  30ENDBRANCH  22  24ENDBRANCH   1  22TORSDOF 8TERENDMDL