MODEL        9USER    Run = 9USERUSER    Estimated Free Energy of Binding    = -10.47 kcal/mol  [=(1)+(2)+(3)-(4)]USERUSER    (1) Final Intermolecular Energy     = -12.55 kcal/molUSER        vdW + Hbond + desolv Energy     = -12.42 kcal/molUSER        Electrostatic Energy            =  -0.14 kcal/molUSER        Moving Ligand-Fixed Receptor    = -12.55 kcal/molUSER        Moving Ligand-Moving Receptor   =  +0.00 kcal/molUSER    (2) Final Total Internal Energy     =  -1.71 kcal/molUSER    (3) Torsional Free Energy           =  +2.09 kcal/molUSER    (4) Unbound System's Energy         =  -1.71 kcal/molUSERUSERREMARK SMILES CN(C)c1nccc(-c2ccc(C(=O)CN3CCC(Nc4nc5ccccc5o4)CC3)cc2)n1REMARK SMILES IDX 13 1 14 2 12 3 9 4 10 5 33 6 11 7 32 8 8 9 4 10 5 11 34 12REMARK SMILES IDX 6 13 7 14 2 15 1 16 3 17 15 18 16 19 17 20 31 21 18 22 30 23REMARK SMILES IDX 19 24 20 25 21 27 22 28 29 29 23 30 28 31 24 32 27 33 25 34REMARK SMILES IDX 26 35REMARK H PARENT 20 26USER                              x       y       z     vdW  Elec       q    TypeUSER                           _______ _______ _______ _____ _____    ______ ____ROOTATOM      1  C   UNL     1      36.235  44.880  15.508 -0.29 -0.08    +0.176 C  ATOM      2  O   UNL     1      36.376  44.019  14.642 -0.26 +0.11    -0.293 OA ENDROOTBRANCH   1   3ATOM      3  C   UNL     1      36.328  44.461  16.942 -0.31 -0.01    +0.019 A  ATOM      4  C   UNL     1      36.615  43.653  19.660 -0.38 -0.00    +0.000 A  ATOM      5  C   UNL     1      37.710  44.123  18.912 -0.29 -0.00    +0.011 A  ATOM      6  C   UNL     1      35.367  43.621  19.011 -0.37 -0.00    +0.011 A  ATOM      7  C   UNL     1      37.573  44.520  17.576 -0.34 -0.00    +0.012 A  ATOM      8  C   UNL     1      35.222  44.016  17.671 -0.30 -0.00    +0.012 A  BRANCH   4   9ATOM      9  C   UNL     1      36.787  43.224  21.068 -0.38 +0.00    +0.076 A  ATOM     10  C   UNL     1      37.511  43.839  23.193 -0.21 +0.02    +0.225 A  ATOM     11  N   UNL     1      37.197  42.634  23.690 -0.27 -0.02    -0.221 NA ATOM     12  N   UNL     1      37.320  44.150  21.898 -0.26 -0.01    -0.213 NA ATOM     13  C   UNL     1      36.678  41.725  22.850 -0.43 +0.01    +0.117 A  ATOM     14  C   UNL     1      36.451  41.966  21.519 -0.50 +0.00    +0.049 A  BRANCH  10  15ATOM     15  N   UNL     1      38.033  44.809  24.050 -0.12 -0.03    -0.347 N  ATOM     16  C   UNL     1      38.626  45.952  23.377 -0.28 +0.02    +0.146 C  ATOM     17  C   UNL     1      37.214  45.086  25.219 -0.29 +0.01    +0.146 C  ENDBRANCH  10  15ENDBRANCH   4   9ENDBRANCH   1   3BRANCH   1  18ATOM     18  C   UNL     1      35.967  46.366  15.218 -0.32 -0.13    +0.165 C  BRANCH  18  19ATOM     19  N   UNL     1      36.485  46.792  13.901 -0.24 +0.17    -0.296 NA ATOM     20  C   UNL     1      37.778  46.184  13.554 -0.43 -0.03    +0.087 C  ATOM     21  C   UNL     1      36.540  48.252  13.771 -0.46 -0.06    +0.087 C  ATOM     22  C   UNL     1      38.969  46.773  14.312 -0.47 -0.01    +0.040 C  ATOM     23  C   UNL     1      37.669  48.899  14.571 -0.49 -0.03    +0.040 C  ATOM     24  C   UNL     1      39.020  48.299  14.169 -0.47 -0.03    +0.086 C  BRANCH  24  25ATOM     25  N   UNL     1      40.083  48.830  15.017 -0.29 +0.12    -0.337 N  ATOM     26  H   UNL     1      40.150  49.842  15.061 -0.12 -0.09    +0.165 HD BRANCH  25  27ATOM     27  C   UNL     1      40.404  48.229  16.177 -0.31 -0.07    +0.295 A  ATOM     28  N   UNL     1      39.683  47.345  16.830 -0.34 +0.05    -0.194 NA ATOM     29  O   UNL     1      41.597  48.546  16.765 -0.74 -0.01    -0.424 OA ATOM     30  C   UNL     1      40.445  47.054  17.932 -0.40 -0.01    +0.111 A  ATOM     31  C   UNL     1      41.618  47.789  17.898 -0.37 -0.01    +0.156 A  ATOM     32  C   UNL     1      40.223  46.182  19.008 -0.40 -0.00    +0.032 A  ATOM     33  C   UNL     1      42.616  47.737  18.864 -0.48 +0.00    +0.049 A  ATOM     34  C   UNL     1      41.208  46.098  20.006 -0.39 +0.00    +0.003 A  ATOM     35  C   UNL     1      42.380  46.863  19.933 -0.43 +0.00    +0.004 A  ENDBRANCH  25  27ENDBRANCH  24  25ENDBRANCH  18  19ENDBRANCH   1  18TORSDOF 7TERENDMDL