REMARK SMILES CO[C@H]1CCCN(c2cc(Nc3cc(C)[nH]n3)nc(C)c2CCNC(=O)CF)C1
REMARK SMILES IDX 22 1 21 2 8 3 9 4 10 5 19 6 18 7 20 8 7 9 3 10 4 11 29 12
REMARK SMILES IDX 5 13 6 14 2 15 1 16 11 17 12 19 13 20 17 21 14 22 16 23
REMARK SMILES IDX 15 24 23 26 24 27 25 28 26 30 27 31 28 32
REMARK H PARENT 11 18 16 25 24 29
ROOT
ATOM      1  C   UNL     1      -1.483  -1.432  -1.314  1.00  0.00     0.061 C 
ENDROOT
BRANCH   1   2
ATOM      2  C   UNL     1      -0.225  -0.945  -0.630  1.00  0.00    -0.001 A 
ATOM      3  C   UNL     1      -0.261   0.181   0.209  1.00  0.00     0.046 A 
ATOM      4  C   UNL     1       0.921   0.590   0.836  1.00  0.00     0.073 A 
ATOM      5  C   UNL     1       2.103  -0.121   0.648  1.00  0.00     0.133 A 
ATOM      6  C   UNL     1       0.999  -1.610  -0.770  1.00  0.00     0.045 A 
ATOM      7  N   UNL     1       2.136  -1.201  -0.154  1.00  0.00    -0.236 NA
ATOM      8  C   UNL     1       1.156  -2.826  -1.637  1.00  0.00     0.067 C 
BRANCH   3   9
ATOM      9  N   UNL     1      -1.462   0.896   0.369  1.00  0.00    -0.369 N 
ATOM     10  C   UNL     1      -1.654   3.392   0.446  1.00  0.00     0.137 C 
ATOM     11  C   UNL     1      -2.914   3.287   1.321  1.00  0.00     0.036 C 
ATOM     12  C   UNL     1      -1.523   2.136  -0.436  1.00  0.00     0.148 C 
ATOM     13  C   UNL     1      -3.204   1.861   1.796  1.00  0.00     0.024 C 
ATOM     14  C   UNL     1      -1.959   0.979   1.752  1.00  0.00     0.117 C 
BRANCH  10  15
ATOM     15  O   UNL     1      -1.768   4.602  -0.314  1.00  0.00    -0.380 OA
ATOM     16  C   UNL     1      -0.548   5.015  -0.914  1.00  0.00     0.195 C 
ENDBRANCH  10  15
ENDBRANCH   3   9
BRANCH   5  17
ATOM     17  N   UNL     1       3.272   0.371   1.262  1.00  0.00    -0.323 N 
ATOM     18  H   UNL     1       3.084   0.778   2.168  1.00  0.00     0.170 HD
BRANCH  17  19
ATOM     19  C   UNL     1       4.562   0.017   1.094  1.00  0.00     0.153 A 
ATOM     20  C   UNL     1       5.111  -0.708   0.012  1.00  0.00     0.071 A 
ATOM     21  N   UNL     1       5.511   0.376   1.962  1.00  0.00    -0.158 NA
ATOM     22  C   UNL     1       6.459  -0.804   0.275  1.00  0.00     0.034 A 
ATOM     23  N   UNL     1       6.640  -0.140   1.453  1.00  0.00    -0.281 N 
ATOM     24  C   UNL     1       7.564  -1.444  -0.470  1.00  0.00     0.066 C 
ATOM     25  H   UNL     1       7.505   0.008   1.961  1.00  0.00     0.190 HD
ENDBRANCH  17  19
ENDBRANCH   5  17
ENDBRANCH   1   2
BRANCH   1  26
ATOM     26  C   UNL     1      -2.296  -2.365  -0.416  1.00  0.00     0.121 C 
BRANCH  26  27
ATOM     27  N   UNL     1      -3.479  -2.857  -1.099  1.00  0.00    -0.353 N 
ATOM     28  C   UNL     1      -4.759  -2.668  -0.622  1.00  0.00     0.251 C 
ATOM     29  H   UNL     1      -3.374  -3.447  -1.919  1.00  0.00     0.163 HD
ATOM     30  O   UNL     1      -5.032  -2.047   0.401  1.00  0.00    -0.272 OA
BRANCH  28  31
ATOM     31  C   UNL     1      -5.826  -3.306  -1.493  1.00  0.00     0.314 C 
ATOM     32  F   UNL     1      -5.287  -3.994  -2.546  1.00  0.00    -0.240 F 
ENDBRANCH  28  31
ENDBRANCH  26  27
ENDBRANCH   1  26
TORSDOF 8
