MODEL        7USER    Run = 7USERUSER    Estimated Free Energy of Binding    = -13.09 kcal/mol  [=(1)+(2)+(3)-(4)]USERUSER    (1) Final Intermolecular Energy     = -15.18 kcal/molUSER        vdW + Hbond + desolv Energy     = -15.10 kcal/molUSER        Electrostatic Energy            =  -0.09 kcal/molUSER        Moving Ligand-Fixed Receptor    = -15.18 kcal/molUSER        Moving Ligand-Moving Receptor   =  +0.00 kcal/molUSER    (2) Final Total Internal Energy     =  -2.57 kcal/molUSER    (3) Torsional Free Energy           =  +2.09 kcal/molUSER    (4) Unbound System's Energy         =  -2.57 kcal/molUSERUSERREMARK SMILES Oc1nc2ccccc2n1C1CCN(Cc2ccc(-c3nc4ccccc4nc3-c3ccc(N4CCOCC4)nc3)cc2)CC1REMARK SMILES IDX 15 1 14 2 11 3 12 4 45 5 13 6 44 7 10 8 2 9 3 10 4 11 9 12REMARK SMILES IDX 5 13 8 14 6 15 7 16 1 17 16 19 17 20 43 21 18 22 42 23 19 24REMARK SMILES IDX 20 25 21 26 29 27 22 28 28 29 23 30 27 31 24 32 26 33 25 34REMARK SMILES IDX 30 35 31 36 41 37 32 38 40 39 33 40 34 41 35 42 39 43 36 44REMARK SMILES IDX 38 45 37 46REMARK H PARENT 1 18USER                              x       y       z     vdW  Elec       q    TypeUSER                           _______ _______ _______ _____ _____    ______ ____ROOTATOM      1  C   UNL     1      42.215  46.313  19.896 -0.38 +0.02    +0.120 C  ENDROOTBRANCH   1   2ATOM      2  N   UNL     1      41.642  46.362  18.540 -0.28 -0.01    -0.299 NA ATOM      3  C   UNL     1      39.870  46.747  16.318 -0.47 -0.02    +0.095 C  ATOM      4  C   UNL     1      39.296  46.166  17.611 -0.47 -0.01    +0.041 C  ATOM      5  C   UNL     1      41.038  47.714  16.580 -0.50 -0.01    +0.041 C  ATOM      6  C   UNL     1      40.403  45.569  18.483 -0.46 -0.00    +0.087 C  ATOM      7  C   UNL     1      41.474  47.730  18.046 -0.50 -0.01    +0.087 C  BRANCH   3   8ATOM      8  N   UNL     1      38.828  47.324  15.475 -0.23 +0.11    -0.291 N  ATOM      9  C   UNL     1      38.535  48.658  15.385 -0.25 -0.18    +0.295 A  ATOM     10  N   UNL     1      37.563  48.920  14.555 -0.39 +0.14    -0.195 NA ATOM     11  C   UNL     1      37.196  47.693  14.061 -0.46 -0.05    +0.092 A  ATOM     12  C   UNL     1      37.973  46.670  14.611 -0.38 -0.03    +0.072 A  ATOM     13  C   UNL     1      36.198  47.378  13.125 -0.59 -0.02    +0.031 A  ATOM     14  C   UNL     1      37.793  45.324  14.256 -0.36 -0.01    +0.029 A  ATOM     15  C   UNL     1      36.006  46.039  12.762 -0.55 -0.00    +0.002 A  ATOM     16  C   UNL     1      36.793  45.031  13.318 -0.45 -0.00    +0.002 A  BRANCH   9  17ATOM     17  O   UNL     1      39.162  49.610  16.046 -0.08 +0.31    -0.480 OA ATOM     18  H   UNL     1      38.810  50.408  15.609 -0.28 -0.28    +0.296 HD ENDBRANCH   9  17ENDBRANCH   3   8ENDBRANCH   1   2BRANCH   1  19ATOM     19  C   UNL     1      41.370  45.558  20.901 -0.32 -0.00    -0.034 A  ATOM     20  C   UNL     1      41.445  44.164  20.998 -0.34 +0.00    +0.006 A  ATOM     21  C   UNL     1      40.490  46.244  21.746 -0.12 +0.00    +0.006 A  ATOM     22  C   UNL     1      40.639  43.470  21.907 -0.24 +0.00    +0.011 A  ATOM     23  C   UNL     1      39.689  45.548  22.657 -0.28 +0.00    +0.011 A  ATOM     24  C   UNL     1      39.728  44.145  22.739 -0.24 +0.00    +0.002 A  BRANCH  24  25ATOM     25  C   UNL     1      38.868  43.397  23.675 -0.20 +0.01    +0.097 A  ATOM     26  N   UNL     1      39.456  43.120  24.873 -0.10 -0.01    -0.244 NA ATOM     27  C   UNL     1      37.547  43.002  23.416 -0.31 +0.01    +0.099 A  ATOM     28  C   UNL     1      38.717  42.492  25.806 -0.21 -0.00    +0.089 A  ATOM     29  N   UNL     1      36.793  42.389  24.372 -0.27 -0.01    -0.244 NA ATOM     30  C   UNL     1      39.275  42.190  27.043 -0.27 -0.00    +0.030 A  ATOM     31  C   UNL     1      37.375  42.134  25.556 -0.31 -0.01    +0.089 A  ATOM     32  C   UNL     1      38.537  41.546  28.037 -0.40 -0.00    +0.002 A  ATOM     33  C   UNL     1      36.645  41.498  26.553 -0.41 -0.01    +0.030 A  ATOM     34  C   UNL     1      37.214  41.202  27.791 -0.49 -0.00    +0.002 A  BRANCH  27  35ATOM     35  C   UNL     1      36.848  43.153  22.134 -0.39 +0.00    +0.021 A  ATOM     36  C   UNL     1      36.170  42.088  21.538 -0.51 +0.00    +0.016 A  ATOM     37  C   UNL     1      36.849  44.341  21.415 -0.24 +0.01    +0.124 A  ATOM     38  C   UNL     1      35.542  42.255  20.302 -0.42 -0.00    +0.047 A  ATOM     39  N   UNL     1      36.246  44.523  20.212 -0.20 +0.02    -0.239 NA ATOM     40  C   UNL     1      35.613  43.479  19.636 -0.32 -0.01    +0.128 A  BRANCH  40  41ATOM     41  N   UNL     1      34.990  43.650  18.384 -0.08 +0.09    -0.352 N  ATOM     42  C   UNL     1      35.292  42.584  17.402 -0.36 -0.05    +0.146 C  ATOM     43  C   UNL     1      35.211  45.003  17.817 -0.30 -0.06    +0.146 C  ATOM     44  C   UNL     1      34.523  42.840  16.094 -0.30 -0.08    +0.181 C  ATOM     45  C   UNL     1      34.445  45.154  16.495 -0.25 -0.13    +0.181 C  ATOM     46  O   UNL     1      34.817  44.135  15.550 -0.13 +0.18    -0.378 OA ENDBRANCH  40  41ENDBRANCH  27  35ENDBRANCH  24  25ENDBRANCH   1  19TORSDOF 7TERENDMDL