MODEL        5USER    Run = 5USERUSER    Estimated Free Energy of Binding    = -10.89 kcal/mol  [=(1)+(2)+(3)-(4)]USERUSER    (1) Final Intermolecular Energy     = -13.87 kcal/molUSER        vdW + Hbond + desolv Energy     = -13.44 kcal/molUSER        Electrostatic Energy            =  -0.43 kcal/molUSER        Moving Ligand-Fixed Receptor    = -13.87 kcal/molUSER        Moving Ligand-Moving Receptor   =  +0.00 kcal/molUSER    (2) Final Total Internal Energy     =  -2.89 kcal/molUSER    (3) Torsional Free Energy           =  +2.98 kcal/molUSER    (4) Unbound System's Energy         =  -2.89 kcal/molUSERUSERREMARK SMILES C[C@@H](O)NC[C@H]1C(=O)N[C@H](c2c(F)cccc2Cl)N1C(=O)CN1CCC(c2ccc(O)c3c2CCC3)CC1REMARK SMILES IDX 6 1 7 2 8 3 9 4 10 5 19 6 5 8 4 9 2 11 1 12 3 13 20 15 21 16REMARK SMILES IDX 22 17 23 18 24 19 38 20 25 21 37 22 26 23 27 24 28 25 33 26REMARK SMILES IDX 29 27 32 28 34 29 30 30 36 31 35 32 31 33 11 35 12 36 17 37REMARK SMILES IDX 14 38 16 39 15 40 13 41 18 42REMARK H PARENT 9 7 4 10 3 14 31 34USER                              x       y       z     vdW  Elec       q    TypeUSER                           _______ _______ _______ _____ _____    ______ ____ROOTATOM      1  C   UNL     1      29.472  42.708  16.547 -0.20 -0.07    +0.190 C  ATOM      2  C   UNL     1      28.747  41.634  15.738 -0.22 -0.10    +0.246 C  ATOM      3  O   UNL     1      27.782  41.781  15.006 -0.15 +0.22    -0.273 OA ATOM      4  N   UNL     1      29.349  40.419  15.956 -0.25 +0.03    -0.330 N  ATOM      5  C   UNL     1      30.454  40.510  16.843 -0.27 -0.04    +0.218 C  ATOM      6  N   UNL     1      30.602  41.931  17.099 -0.12 +0.08    -0.304 N  ATOM      7  H   UNL     1      29.053  39.583  15.474 +0.05 +0.05    +0.166 HD ENDROOTBRANCH   1   8ATOM      8  C   UNL     1      29.864  43.880  15.627 -0.27 -0.07    +0.118 C  BRANCH   8   9ATOM      9  N   UNL     1      30.396  45.017  16.405 -0.49 +0.05    -0.290 NA ATOM     10  H   UNL     1      30.898  44.631  17.221 +0.08 -0.01    +0.125 HD BRANCH   9  11ATOM     11  C   UNL     1      31.300  45.880  15.674 -0.34 -0.09    +0.179 C  ATOM     12  C   UNL     1      31.543  45.480  14.226 -0.48 -0.04    +0.056 C  BRANCH  11  13ATOM     13  O   UNL     1      30.827  47.209  15.728 -0.78 +0.10    -0.379 OA ATOM     14  H   UNL     1      31.639  47.737  15.656 -0.38 -0.38    +0.212 HD ENDBRANCH  11  13ENDBRANCH   9  11ENDBRANCH   8   9ENDBRANCH   1   8BRANCH   6  15ATOM     15  C   UNL     1      31.613  42.519  17.841 -0.20 -0.05    +0.239 C  ATOM     16  O   UNL     1      31.357  43.404  18.655 -0.21 +0.02    -0.273 OA BRANCH  15  17ATOM     17  C   UNL     1      33.045  41.995  17.598 -0.31 -0.06    +0.185 C  BRANCH  17  18ATOM     18  N   UNL     1      34.032  42.984  17.137 -0.16 +0.11    -0.294 NA ATOM     19  C   UNL     1      35.394  42.455  17.048 -0.42 -0.03    +0.085 C  ATOM     20  C   UNL     1      33.990  44.247  17.877 -0.32 -0.03    +0.085 C  ATOM     21  C   UNL     1      36.267  43.428  16.253 -0.46 -0.01    +0.024 C  ATOM     22  C   UNL     1      34.809  45.315  17.149 -0.38 -0.02    +0.024 C  ATOM     23  C   UNL     1      36.243  44.832  16.871 -0.37 -0.01    +0.022 C  BRANCH  23  24ATOM     24  C   UNL     1      37.053  45.853  16.085 -0.34 +0.02    -0.041 A  ATOM     25  C   UNL     1      38.105  46.515  16.748 -0.38 -0.00    +0.008 A  ATOM     26  C   UNL     1      36.822  46.208  14.751 -0.37 +0.02    -0.038 A  ATOM     27  C   UNL     1      38.899  47.474  16.102 -0.42 -0.02    +0.047 A  ATOM     28  C   UNL     1      37.612  47.189  14.110 -0.49 +0.00    -0.003 A  ATOM     29  C   UNL     1      35.825  45.658  13.769 -0.43 -0.02    +0.036 C  ATOM     30  C   UNL     1      38.652  47.810  14.779 -0.42 -0.05    +0.119 A  ATOM     31  C   UNL     1      37.185  47.373  12.685 -0.66 -0.01    +0.040 C  ATOM     32  C   UNL     1      35.781  46.769  12.715 -0.69 -0.01    +0.010 C  BRANCH  30  33ATOM     33  O   UNL     1      39.455  48.743  14.203 -0.16 +0.20    -0.508 OA ATOM     34  H   UNL     1      38.986  49.593  14.189 -0.18 -0.25    +0.293 HD ENDBRANCH  30  33ENDBRANCH  23  24ENDBRANCH  17  18ENDBRANCH  15  17ENDBRANCH   6  15BRANCH   5  35ATOM     35  C   UNL     1      30.220  39.659  18.071 -0.33 +0.00    +0.049 A  ATOM     36  C   UNL     1      28.974  39.643  18.714 -0.18 +0.01    +0.131 A  ATOM     37  C   UNL     1      31.216  38.825  18.608 -0.41 +0.01    +0.051 A  ATOM     38  C   UNL     1      28.730  38.883  19.858 -0.24 +0.00    +0.040 A  ATOM     39  C   UNL     1      30.978  38.048  19.752 -0.45 +0.00    +0.021 A  ATOM     40  C   UNL     1      29.737  38.085  20.384 -0.34 +0.00    +0.005 A  ATOM     41  F   UNL     1      27.959  40.377  18.239 -0.02 -0.01    -0.206 F  ATOM     42  Cl  UNL     1      32.791  38.703  17.903 -0.31 +0.01    -0.084 Cl ENDBRANCH   5  35TORSDOF 10TERENDMDL