MODEL        6USER    Run = 6USERUSER    Estimated Free Energy of Binding    = -10.59 kcal/mol  [=(1)+(2)+(3)-(4)]USERUSER    (1) Final Intermolecular Energy     = -12.98 kcal/molUSER        vdW + Hbond + desolv Energy     = -12.79 kcal/molUSER        Electrostatic Energy            =  -0.19 kcal/molUSER        Moving Ligand-Fixed Receptor    = -12.98 kcal/molUSER        Moving Ligand-Moving Receptor   =  +0.00 kcal/molUSER    (2) Final Total Internal Energy     =  -1.32 kcal/molUSER    (3) Torsional Free Energy           =  +2.39 kcal/molUSER    (4) Unbound System's Energy         =  -1.32 kcal/molUSERUSERREMARK SMILES CO[C@H]1CCCN(c2cc(Nc3cc(C)[nH]n3)nc(C)c2CCNC(=O)CF)C1REMARK SMILES IDX 22 1 21 2 8 3 9 4 10 5 19 6 18 7 20 8 7 9 3 10 4 11 29 12REMARK SMILES IDX 5 13 6 14 2 15 1 16 11 17 12 19 13 20 17 21 14 22 16 23REMARK SMILES IDX 15 24 23 26 24 27 25 28 26 30 27 31 28 32REMARK H PARENT 11 18 16 25 24 29USER                              x       y       z     vdW  Elec       q    TypeUSER                           _______ _______ _______ _____ _____    ______ ____ROOTATOM      1  C   UNL     1      39.717  45.483  17.801 -0.44 -0.01    +0.061 C  ENDROOTBRANCH   1   2ATOM      2  C   UNL     1      40.218  46.772  17.189 -0.50 +0.00    -0.001 A  ATOM      3  C   UNL     1      39.552  47.347  16.094 -0.46 -0.01    +0.046 A  ATOM      4  C   UNL     1      40.038  48.549  15.567 -0.51 -0.02    +0.073 A  ATOM      5  C   UNL     1      41.147  49.171  16.133 -0.44 -0.01    +0.133 A  ATOM      6  C   UNL     1      41.325  47.456  17.706 -0.46 -0.00    +0.045 A  ATOM      7  N   UNL     1      41.783  48.621  17.184 -0.74 -0.02    -0.236 NA ATOM      8  C   UNL     1      42.113  46.939  18.875 -0.55 +0.00    +0.067 C  BRANCH   3   9ATOM      9  N   UNL     1      38.445  46.691  15.525 -0.13 +0.14    -0.369 N  ATOM     10  C   UNL     1      37.040  47.589  13.657 -0.52 -0.07    +0.137 C  ATOM     11  C   UNL     1      35.825  46.795  14.163 -0.48 -0.03    +0.036 C  ATOM     12  C   UNL     1      38.341  46.870  14.060 -0.41 -0.05    +0.148 C  ATOM     13  C   UNL     1      36.061  46.128  15.521 -0.42 -0.02    +0.024 C  ATOM     14  C   UNL     1      37.195  46.794  16.296 -0.35 -0.07    +0.117 C  BRANCH  10  15ATOM     15  O   UNL     1      36.892  47.727  12.238 -1.00 +0.11    -0.380 OA ATOM     16  C   UNL     1      36.551  46.515  11.580 -0.52 -0.08    +0.195 C  ENDBRANCH  10  15ENDBRANCH   3   9BRANCH   5  17ATOM     17  N   UNL     1      41.622  50.350  15.525 -0.40 +0.05    -0.323 N  ATOM     18  H   UNL     1      41.795  51.084  16.199 -0.44 -0.06    +0.170 HD BRANCH  17  19ATOM     19  C   UNL     1      42.281  50.528  14.363 -0.49 -0.03    +0.153 A  ATOM     20  C   UNL     1      43.273  51.497  14.087 -0.20 -0.02    +0.071 A  ATOM     21  N   UNL     1      42.082  49.733  13.309 -0.51 +0.03    -0.158 NA ATOM     22  C   UNL     1      43.660  51.273  12.785 -0.36 -0.02    +0.034 A  ATOM     23  N   UNL     1      42.914  50.209  12.370 -0.44 +0.11    -0.281 N  ATOM     24  C   UNL     1      44.649  51.952  11.921 -0.42 -0.03    +0.066 C  ATOM     25  H   UNL     1      42.927  49.750  11.466 -0.38 -0.10    +0.190 HD ENDBRANCH  17  19ENDBRANCH   5  17ENDBRANCH   1   2BRANCH   1  26ATOM     26  C   UNL     1      38.860  45.736  19.042 -0.32 -0.01    +0.121 C  BRANCH  26  27ATOM     27  N   UNL     1      37.779  44.773  19.142 -0.15 +0.04    -0.353 N  ATOM     28  C   UNL     1      37.281  44.320  20.346 -0.26 -0.01    +0.251 C  ATOM     29  H   UNL     1      37.421  44.333  18.300 +0.11 -0.03    +0.163 HD ATOM     30  O   UNL     1      37.674  44.701  21.445 -0.28 -0.01    -0.272 OA BRANCH  28  31ATOM     31  C   UNL     1      36.177  43.290  20.191 -0.26 -0.01    +0.314 C  ATOM     32  F   UNL     1      35.901  43.025  18.878 -0.04 +0.04    -0.240 F  ENDBRANCH  28  31ENDBRANCH  26  27ENDBRANCH   1  26TORSDOF 8TERENDMDL