MODEL        4USER    Run = 4USERUSER    Estimated Free Energy of Binding    = -12.10 kcal/mol  [=(1)+(2)+(3)-(4)]USERUSER    (1) Final Intermolecular Energy     = -14.19 kcal/molUSER        vdW + Hbond + desolv Energy     = -13.91 kcal/molUSER        Electrostatic Energy            =  -0.28 kcal/molUSER        Moving Ligand-Fixed Receptor    = -14.19 kcal/molUSER        Moving Ligand-Moving Receptor   =  +0.00 kcal/molUSER    (2) Final Total Internal Energy     =  -1.82 kcal/molUSER    (3) Torsional Free Energy           =  +2.09 kcal/molUSER    (4) Unbound System's Energy         =  -1.82 kcal/molUSERUSERREMARK SMILES Oc1nc2ccccc2n1C1CCN(Cc2ccc(-c3nc4ccccc4nc3-c3ccnc(N4CCOCC4)c3)cc2)CC1REMARK SMILES IDX 15 1 14 2 11 3 12 4 45 5 13 6 44 7 10 8 2 9 3 10 4 11 9 12REMARK SMILES IDX 5 13 8 14 6 15 7 16 1 17 16 19 17 20 43 21 18 22 42 23 19 24REMARK SMILES IDX 20 25 21 26 29 27 22 28 28 29 23 30 27 31 24 32 26 33 25 34REMARK SMILES IDX 30 35 31 36 41 37 32 38 34 39 33 40 35 41 36 42 40 43 37 44REMARK SMILES IDX 39 45 38 46REMARK H PARENT 1 18USER                              x       y       z     vdW  Elec       q    TypeUSER                           _______ _______ _______ _____ _____    ______ ____ROOTATOM      1  C   UNL     1      40.407  45.248  18.973 -0.42 -0.00    +0.120 C  ENDROOTBRANCH   1   2ATOM      2  N   UNL     1      39.492  46.315  18.544 -0.23 +0.04    -0.299 NA ATOM      3  C   UNL     1      39.093  45.999  15.608 -0.37 -0.02    +0.095 C  ATOM      4  C   UNL     1      40.359  46.614  16.222 -0.50 -0.01    +0.041 C  ATOM      5  C   UNL     1      38.270  45.202  16.638 -0.35 -0.01    +0.041 C  ATOM      6  C   UNL     1      40.101  47.242  17.588 -0.45 -0.02    +0.087 C  ATOM      7  C   UNL     1      38.206  45.828  18.035 -0.36 -0.02    +0.087 C  BRANCH   3   8ATOM      8  N   UNL     1      38.376  46.958  14.770 -0.21 +0.11    -0.291 N  ATOM      9  C   UNL     1      38.363  48.322  14.818 -0.29 -0.16    +0.295 A  ATOM     10  N   UNL     1      37.615  48.871  13.900 -0.51 +0.10    -0.195 NA ATOM     11  C   UNL     1      37.085  47.815  13.208 -0.51 -0.04    +0.092 A  ATOM     12  C   UNL     1      37.532  46.600  13.728 -0.42 -0.03    +0.072 A  ATOM     13  C   UNL     1      36.205  47.820  12.116 -0.47 -0.02    +0.031 A  ATOM     14  C   UNL     1      37.130  45.366  13.196 -0.46 -0.01    +0.029 A  ATOM     15  C   UNL     1      35.795  46.597  11.573 -0.41 -0.00    +0.002 A  ATOM     16  C   UNL     1      36.251  45.392  12.108 -0.46 -0.00    +0.002 A  BRANCH   9  17ATOM     17  O   UNL     1      39.007  49.066  15.689 -0.19 +0.29    -0.480 OA ATOM     18  H   UNL     1      38.800  49.963  15.368 -0.26 -0.27    +0.296 HD ENDBRANCH   9  17ENDBRANCH   3   8ENDBRANCH   1   2BRANCH   1  19ATOM     19  C   UNL     1      41.507  45.733  19.895 -0.38 -0.00    -0.034 A  ATOM     20  C   UNL     1      42.206  46.912  19.614 -0.46 +0.00    +0.006 A  ATOM     21  C   UNL     1      41.814  45.032  21.068 -0.31 +0.00    +0.006 A  ATOM     22  C   UNL     1      43.208  47.364  20.479 -0.31 +0.00    +0.011 A  ATOM     23  C   UNL     1      42.817  45.486  21.929 -0.24 +0.00    +0.011 A  ATOM     24  C   UNL     1      43.545  46.652  21.643 -0.32 +0.00    +0.002 A  BRANCH  24  25ATOM     25  C   UNL     1      44.617  47.139  22.531 -0.24 +0.05    +0.097 A  ATOM     26  N   UNL     1      45.871  46.818  22.105 -0.63 -0.30    -0.244 NA ATOM     27  C   UNL     1      44.419  47.887  23.703 -0.21 +0.02    +0.097 A  ATOM     28  C   UNL     1      46.911  47.272  22.826 -0.14 +0.06    +0.089 A  ATOM     29  N   UNL     1      45.478  48.354  24.424 -0.11 -0.05    -0.244 NA ATOM     30  C   UNL     1      48.207  46.978  22.421 -0.11 +0.02    +0.030 A  ATOM     31  C   UNL     1      46.713  48.048  23.989 -0.08 +0.02    +0.089 A  ATOM     32  C   UNL     1      49.314  47.437  23.138 -0.04 +0.00    +0.002 A  ATOM     33  C   UNL     1      47.821  48.498  24.697 -0.06 +0.00    +0.030 A  ATOM     34  C   UNL     1      49.120  48.200  24.282 -0.04 +0.00    +0.002 A  BRANCH  27  35ATOM     35  C   UNL     1      43.112  48.229  24.291 -0.29 +0.00    +0.008 A  ATOM     36  C   UNL     1      43.038  49.002  25.451 -0.29 +0.00    +0.030 A  ATOM     37  C   UNL     1      41.904  47.778  23.741 -0.27 +0.01    +0.057 A  ATOM     38  C   UNL     1      41.795  49.308  25.971 -0.19 +0.01    +0.114 A  ATOM     39  C   UNL     1      40.682  48.124  24.322 -0.25 +0.02    +0.129 A  ATOM     40  N   UNL     1      40.632  48.894  25.427 -0.20 -0.04    -0.239 NA BRANCH  39  41ATOM     41  N   UNL     1      39.489  47.648  23.736 -0.16 -0.04    -0.352 N  ATOM     42  C   UNL     1      39.499  46.167  23.654 -0.24 +0.01    +0.146 C  ATOM     43  C   UNL     1      38.257  48.192  24.351 -0.35 +0.02    +0.146 C  ATOM     44  C   UNL     1      38.064  45.620  23.605 -0.17 +0.03    +0.181 C  ATOM     45  C   UNL     1      37.668  47.202  25.367 -0.28 +0.02    +0.181 C  ATOM     46  O   UNL     1      37.294  45.943  24.773 -0.69 -0.09    -0.378 OA ENDBRANCH  39  41ENDBRANCH  27  35ENDBRANCH  24  25ENDBRANCH   1  19TORSDOF 7TERENDMDL