MODEL        7USER    Run = 7USERUSER    Estimated Free Energy of Binding    = -11.81 kcal/mol  [=(1)+(2)+(3)-(4)]USERUSER    (1) Final Intermolecular Energy     = -15.39 kcal/molUSER        vdW + Hbond + desolv Energy     = -15.35 kcal/molUSER        Electrostatic Energy            =  -0.04 kcal/molUSER        Moving Ligand-Fixed Receptor    = -15.39 kcal/molUSER        Moving Ligand-Moving Receptor   =  +0.00 kcal/molUSER    (2) Final Total Internal Energy     =  -1.84 kcal/molUSER    (3) Torsional Free Energy           =  +3.58 kcal/molUSER    (4) Unbound System's Energy         =  -1.84 kcal/molUSERUSERREMARK SMILES CC(C)c1cccc(C=c2cc3c(cn2)=C(NCC2CC2)NN=C3)c1CN1CCN(CCc2nnc(O)o2)CC1REMARK SMILES IDX 26 1 25 2 4 3 5 4 6 5 8 6 7 7 2 8 1 9 3 10 9 11 10 12 11 13REMARK SMILES IDX 15 14 12 15 14 16 13 17 24 18 16 19 23 20 22 21 17 23 18 25REMARK SMILES IDX 19 26 20 27 21 28 27 29 28 30 40 31 29 32 39 33 30 34 31 35REMARK SMILES IDX 32 36 33 37 34 38 38 39 35 40 36 41 37 42REMARK H PARENT 22 22 17 24 37 43USER                              x       y       z     vdW  Elec       q    TypeUSER                           _______ _______ _______ _____ _____    ______ ____ROOTATOM      1  C   UNL     1      35.075  43.495  16.156 -0.37 -0.05    +0.121 C  ENDROOTBRANCH   1   2ATOM      2  C   UNL     1      33.952  43.407  17.187 -0.32 +0.01    -0.023 A  ATOM      3  C   UNL     1      32.636  43.859  16.877 -0.29 +0.02    -0.040 A  ATOM      4  C   UNL     1      31.634  43.761  17.863 -0.28 -0.00    +0.004 A  ATOM      5  C   UNL     1      31.898  43.211  19.113 -0.34 -0.00    +0.001 A  ATOM      6  C   UNL     1      34.211  42.854  18.471 -0.36 +0.00    -0.019 A  ATOM      7  C   UNL     1      33.177  42.762  19.414 -0.38 +0.00    +0.008 A  BRANCH   3   8ATOM      8  C   UNL     1      32.273  44.474  15.524 -0.40 -0.01    +0.013 C  ATOM      9  C   UNL     1      31.324  43.585  14.708 -0.31 -0.01    +0.012 C  ATOM     10  C   UNL     1      31.681  45.876  15.698 -0.42 -0.01    +0.012 C  ENDBRANCH   3   8BRANCH   6  11ATOM     11  C   UNL     1      35.564  42.443  18.891 -0.40 -0.01    +0.036 C  BRANCH  11  12ATOM     12  C   UNL     1      36.092  42.563  20.125 -0.40 -0.00    +0.064 A  ATOM     13  C   UNL     1      36.896  43.741  20.441 -0.38 -0.00    +0.039 A  ATOM     14  N   UNL     1      35.907  41.598  21.093 -0.31 -0.00    -0.256 NA ATOM     15  C   UNL     1      37.443  43.908  21.650 -0.38 +0.00    +0.009 A  ATOM     16  C   UNL     1      36.437  41.764  22.268 -0.44 +0.01    +0.124 A  ATOM     17  C   UNL     1      37.249  42.931  22.690 -0.38 +0.00    +0.044 A  ATOM     18  C   UNL     1      38.248  45.097  21.996 -0.30 +0.01    +0.142 C  ATOM     19  C   UNL     1      37.799  43.133  23.912 -0.31 +0.01    +0.129 C  ATOM     20  N   UNL     1      38.778  45.292  23.164 -0.21 -0.01    -0.182 NA ATOM     21  N   UNL     1      38.561  44.294  24.079 -0.11 -0.01    -0.263 N  ATOM     22  H   UNL     1      38.839  44.485  25.034 +0.09 +0.00    +0.192 HD BRANCH  19  23ATOM     23  N   UNL     1      37.627  42.260  24.971 -0.13 +0.00    -0.370 N  ATOM     24  H   UNL     1      38.451  41.762  25.283 +0.08 +0.01    +0.162 HD BRANCH  23  25ATOM     25  C   UNL     1      36.391  41.746  25.524 -0.35 -0.02    +0.118 C  BRANCH  25  26ATOM     26  C   UNL     1      36.258  41.951  27.005 -0.58 -0.00    +0.008 C  ATOM     27  C   UNL     1      35.445  41.023  27.878 -0.68 -0.00    +0.006 C  ATOM     28  C   UNL     1      35.000  42.448  27.680 -0.67 -0.00    +0.006 C  ENDBRANCH  25  26ENDBRANCH  23  25ENDBRANCH  19  23ENDBRANCH  11  12ENDBRANCH   6  11ENDBRANCH   1   2BRANCH   1  29ATOM     29  N   UNL     1      35.611  44.851  15.984 -0.13 +0.15    -0.297 NA ATOM     30  C   UNL     1      35.503  45.303  14.585 -0.31 -0.06    +0.100 C  ATOM     31  C   UNL     1      36.975  45.026  16.482 -0.34 -0.04    +0.100 C  ATOM     32  C   UNL     1      36.447  46.476  14.203 -0.43 -0.06    +0.100 C  ATOM     33  C   UNL     1      37.442  46.507  16.408 -0.37 -0.05    +0.100 C  ATOM     34  N   UNL     1      36.800  47.316  15.353 -0.20 +0.24    -0.300 NA BRANCH  34  35ATOM     35  C   UNL     1      37.580  48.498  14.966 -0.53 -0.07    +0.094 C  BRANCH  35  36ATOM     36  C   UNL     1      38.978  48.193  14.410 -0.49 -0.04    +0.115 C  BRANCH  36  37ATOM     37  C   UNL     1      40.052  48.616  15.337 -0.39 -0.07    +0.221 A  ATOM     38  N   UNL     1      40.748  49.739  15.361 -0.61 +0.04    -0.110 NA ATOM     39  O   UNL     1      40.440  47.723  16.306 -0.26 +0.07    -0.394 OA ATOM     40  N   UNL     1      41.636  49.624  16.415 -1.12 -0.01    -0.072 NA ATOM     41  C   UNL     1      41.403  48.442  16.927 -0.09 -0.01    +0.412 A  BRANCH  41  42ATOM     42  O   UNL     1      42.022  47.887  17.941 -0.38 +0.02    -0.465 OA ATOM     43  H   UNL     1      42.734  47.398  17.493 -0.37 -0.09    +0.298 HD ENDBRANCH  41  42ENDBRANCH  36  37ENDBRANCH  35  36ENDBRANCH  34  35ENDBRANCH   1  29TORSDOF 12TERENDMDL