REMARK SMILES Cc1cc(CN2CCN(C)CC2)ccc1S(=O)(=O)Nc1ccc(N2CCCCC2)cc1
REMARK SMILES IDX 1 1 2 2 3 3 4 4 13 5 14 6 15 7 16 8 17 9 18 10 19 11 20 13
REMARK SMILES IDX 21 14 31 15 22 16 30 17 23 18 24 19 25 20 29 21 26 22 28 23
REMARK SMILES IDX 27 24 5 25 6 26 7 27 12 28 8 29 11 30 9 31 10 32
REMARK H PARENT 19 12
ROOT
ATOM      1  C   UNL     1       1.622  -4.648  -0.933  1.00  0.00     0.046 C 
ATOM      2  C   UNL     1       1.576  -3.287  -1.567  1.00  0.00    -0.030 A 
ATOM      3  C   UNL     1       2.523  -2.331  -1.158  1.00  0.00     0.010 A 
ATOM      4  C   UNL     1       2.554  -1.040  -1.712  1.00  0.00    -0.034 A 
ATOM      5  C   UNL     1       1.639  -0.708  -2.715  1.00  0.00     0.006 A 
ATOM      6  C   UNL     1       0.693  -1.639  -3.138  1.00  0.00     0.023 A 
ATOM      7  C   UNL     1       0.646  -2.916  -2.557  1.00  0.00     0.090 A 
ENDROOT
BRANCH   7   8
ATOM      8  S   UNL     1      -0.660  -4.013  -3.101  1.00  0.00     0.262 S 
ATOM      9  O   UNL     1      -0.118  -5.351  -3.203  1.00  0.00    -0.201 OA
ATOM     10  O   UNL     1      -1.327  -3.402  -4.233  1.00  0.00    -0.201 OA
BRANCH   8  11
ATOM     11  N   UNL     1      -1.730  -4.026  -1.791  1.00  0.00    -0.280 N 
ATOM     12  H   UNL     1      -1.560  -4.814  -1.170  1.00  0.00     0.180 HD
BRANCH  11  13
ATOM     13  C   UNL     1      -2.119  -2.791  -1.202  1.00  0.00     0.049 A 
ATOM     14  C   UNL     1      -2.821  -1.834  -1.922  1.00  0.00     0.029 A 
ATOM     15  C   UNL     1      -1.750  -2.523   0.111  1.00  0.00     0.029 A 
ATOM     16  C   UNL     1      -3.147  -0.610  -1.323  1.00  0.00     0.028 A 
ATOM     17  C   UNL     1      -2.080  -1.296   0.698  1.00  0.00     0.028 A 
ATOM     18  C   UNL     1      -2.793  -0.305   0.003  1.00  0.00     0.037 A 
BRANCH  18  19
ATOM     19  N   UNL     1      -3.123   0.915   0.583  1.00  0.00    -0.372 N 
ATOM     20  C   UNL     1      -4.303   1.654   0.114  1.00  0.00     0.116 C 
ATOM     21  C   UNL     1      -2.483   1.356   1.826  1.00  0.00     0.116 C 
ATOM     22  C   UNL     1      -4.984   2.384   1.268  1.00  0.00     0.021 C 
ATOM     23  C   UNL     1      -2.596   2.871   1.984  1.00  0.00     0.021 C 
ATOM     24  C   UNL     1      -4.043   3.358   1.966  1.00  0.00     0.004 C 
ENDBRANCH  18  19
ENDBRANCH  11  13
ENDBRANCH   8  11
ENDBRANCH   7   8
BRANCH   4  25
ATOM     25  C   UNL     1       3.549  -0.017  -1.204  1.00  0.00     0.120 C 
BRANCH  25  26
ATOM     26  N   UNL     1       3.308   0.364   0.197  1.00  0.00    -0.297 NA
ATOM     27  C   UNL     1       2.050   1.123   0.354  1.00  0.00     0.100 C 
ATOM     28  C   UNL     1       4.440   1.155   0.717  1.00  0.00     0.100 C 
ATOM     29  C   UNL     1       1.832   1.611   1.806  1.00  0.00     0.099 C 
ATOM     30  C   UNL     1       4.208   1.634   2.170  1.00  0.00     0.099 C 
ATOM     31  N   UNL     1       2.953   2.380   2.385  1.00  0.00    -0.304 NA
ATOM     32  C   UNL     1       3.023   3.729   1.831  1.00  0.00     0.105 C 
ENDBRANCH  25  26
ENDBRANCH   4  25
TORSDOF 6
