REMARK SMILES CC(C)c1cccc(C=c2cc3c(cn2)=C(NCC2CC2)NN=C3)c1CN1CCN(CCc2nnc(O)o2)CC1
REMARK SMILES IDX 26 1 25 2 4 3 5 4 6 5 8 6 7 7 2 8 1 9 3 10 9 11 10 12 11 13
REMARK SMILES IDX 15 14 12 15 14 16 13 17 24 18 16 19 23 20 22 21 17 23 18 25
REMARK SMILES IDX 19 26 20 27 21 28 27 29 28 30 40 31 29 32 39 33 30 34 31 35
REMARK SMILES IDX 32 36 33 37 34 38 38 39 35 40 36 41 37 42
REMARK H PARENT 22 22 17 24 37 43
ROOT
ATOM      1  C   UNL     1       1.348   1.040  -0.352  1.00  0.00     0.121 C 
ENDROOT
BRANCH   1   2
ATOM      2  C   UNL     1       0.844   0.760   1.062  1.00  0.00    -0.023 A 
ATOM      3  C   UNL     1       1.557   1.237   2.201  1.00  0.00    -0.040 A 
ATOM      4  C   UNL     1       1.054   0.950   3.486  1.00  0.00     0.004 A 
ATOM      5  C   UNL     1      -0.129   0.239   3.660  1.00  0.00     0.001 A 
ATOM      6  C   UNL     1      -0.360   0.028   1.254  1.00  0.00    -0.019 A 
ATOM      7  C   UNL     1      -0.829  -0.218   2.552  1.00  0.00     0.008 A 
BRANCH   3   8
ATOM      8  C   UNL     1       2.863   2.025   2.086  1.00  0.00     0.013 C 
ATOM      9  C   UNL     1       2.836   3.332   2.890  1.00  0.00     0.012 C 
ATOM     10  C   UNL     1       4.062   1.165   2.497  1.00  0.00     0.012 C 
ENDBRANCH   3   8
BRANCH   6  11
ATOM     11  C   UNL     1      -1.105  -0.567   0.128  1.00  0.00     0.036 C 
BRANCH  11  12
ATOM     12  C   UNL     1      -2.388  -0.324  -0.202  1.00  0.00     0.064 A 
ATOM     13  C   UNL     1      -2.959  -0.991  -1.369  1.00  0.00     0.039 A 
ATOM     14  N   UNL     1      -3.174   0.549   0.522  1.00  0.00    -0.256 NA
ATOM     15  C   UNL     1      -4.227  -0.784  -1.740  1.00  0.00     0.009 A 
ATOM     16  C   UNL     1      -4.406   0.746   0.161  1.00  0.00     0.124 A 
ATOM     17  C   UNL     1      -5.080   0.102  -0.992  1.00  0.00     0.044 A 
ATOM     18  C   UNL     1      -4.829  -1.458  -2.909  1.00  0.00     0.142 C 
ATOM     19  C   UNL     1      -6.367   0.280  -1.379  1.00  0.00     0.129 C 
ATOM     20  N   UNL     1      -6.059  -1.287  -3.283  1.00  0.00    -0.182 NA
ATOM     21  N   UNL     1      -6.784  -0.405  -2.525  1.00  0.00    -0.263 N 
ATOM     22  H   UNL     1      -7.780  -0.362  -2.705  1.00  0.00     0.192 HD
BRANCH  19  23
ATOM     23  N   UNL     1      -7.257   1.085  -0.691  1.00  0.00    -0.370 N 
ATOM     24  H   UNL     1      -6.972   1.385   0.233  1.00  0.00     0.162 HD
BRANCH  23  25
ATOM     25  C   UNL     1      -8.653   1.340  -0.982  1.00  0.00     0.118 C 
BRANCH  25  26
ATOM     26  C   UNL     1      -9.597   0.387  -0.308  1.00  0.00     0.008 C 
ATOM     27  C   UNL     1      -9.401  -0.067   1.120  1.00  0.00     0.006 C 
ATOM     28  C   UNL     1      -9.268  -1.057  -0.007  1.00  0.00     0.006 C 
ENDBRANCH  25  26
ENDBRANCH  23  25
ENDBRANCH  19  23
ENDBRANCH  11  12
ENDBRANCH   6  11
ENDBRANCH   1   2
BRANCH   1  29
ATOM     29  N   UNL     1       2.615   0.369  -0.668  1.00  0.00    -0.297 NA
ATOM     30  C   UNL     1       3.219   0.906  -1.901  1.00  0.00     0.100 C 
ATOM     31  C   UNL     1       2.525  -1.090  -0.727  1.00  0.00     0.100 C 
ATOM     32  C   UNL     1       4.265  -0.025  -2.575  1.00  0.00     0.100 C 
ATOM     33  C   UNL     1       3.915  -1.757  -0.923  1.00  0.00     0.100 C 
ATOM     34  N   UNL     1       4.918  -0.927  -1.620  1.00  0.00    -0.300 NA
BRANCH  34  35
ATOM     35  C   UNL     1       5.998  -1.708  -2.235  1.00  0.00     0.094 C 
BRANCH  35  36
ATOM     36  C   UNL     1       6.853  -2.515  -1.247  1.00  0.00     0.115 C 
BRANCH  36  37
ATOM     37  C   UNL     1       7.610  -1.643  -0.321  1.00  0.00     0.221 A 
ATOM     38  N   UNL     1       8.733  -0.977  -0.524  1.00  0.00    -0.110 NA
ATOM     39  O   UNL     1       7.130  -1.510   0.959  1.00  0.00    -0.394 OA
ATOM     40  N   UNL     1       9.022  -0.332   0.665  1.00  0.00    -0.072 NA
ATOM     41  C   UNL     1       8.055  -0.672   1.479  1.00  0.00     0.412 A 
BRANCH  41  42
ATOM     42  O   UNL     1       7.918  -0.312   2.733  1.00  0.00    -0.465 OA
ATOM     43  H   UNL     1       8.683   0.276   2.853  1.00  0.00     0.298 HD
ENDBRANCH  41  42
ENDBRANCH  36  37
ENDBRANCH  35  36
ENDBRANCH  34  35
ENDBRANCH   1  29
TORSDOF 12
