MODEL        10USER    Run = 10USERUSER    Estimated Free Energy of Binding    = -10.47 kcal/mol  [=(1)+(2)+(3)-(4)]USERUSER    (1) Final Intermolecular Energy     = -12.26 kcal/molUSER        vdW + Hbond + desolv Energy     = -12.23 kcal/molUSER        Electrostatic Energy            =  -0.03 kcal/molUSER        Moving Ligand-Fixed Receptor    = -12.26 kcal/molUSER        Moving Ligand-Moving Receptor   =  +0.00 kcal/molUSER    (2) Final Total Internal Energy     =  -2.28 kcal/molUSER    (3) Torsional Free Energy           =  +1.79 kcal/molUSER    (4) Unbound System's Energy         =  -2.28 kcal/molUSERUSERREMARK SMILES Cc1cc(CN2CCN(C)CC2)ccc1S(=O)(=O)Nc1ccc(N2CCCCC2)cc1REMARK SMILES IDX 1 1 2 2 3 3 4 4 13 5 14 6 15 7 16 8 17 9 18 10 19 11 20 13REMARK SMILES IDX 21 14 31 15 22 16 30 17 23 18 24 19 25 20 29 21 26 22 28 23REMARK SMILES IDX 27 24 5 25 6 26 7 27 12 28 8 29 11 30 9 31 10 32REMARK H PARENT 19 12USER                              x       y       z     vdW  Elec       q    TypeUSER                           _______ _______ _______ _____ _____    ______ ____ROOTATOM      1  C   UNL     1      36.935  49.473  14.882 -0.26 -0.05    +0.046 C  ATOM      2  C   UNL     1      37.996  48.411  14.930 -0.52 +0.02    -0.030 A  ATOM      3  C   UNL     1      39.031  48.548  15.872 -0.43 -0.01    +0.010 A  ATOM      4  C   UNL     1      40.054  47.591  15.988 -0.50 +0.01    -0.034 A  ATOM      5  C   UNL     1      40.024  46.461  15.165 -0.44 -0.00    +0.006 A  ATOM      6  C   UNL     1      39.007  46.303  14.226 -0.37 -0.01    +0.023 A  ATOM      7  C   UNL     1      38.007  47.279  14.093 -0.42 -0.03    +0.090 A  ENDROOTBRANCH   7   8ATOM      8  S   UNL     1      36.794  47.034  12.799 -0.65 -0.11    +0.262 S  ATOM      9  O   UNL     1      37.297  46.027  11.889 -0.49 +0.06    -0.201 OA ATOM     10  O   UNL     1      36.385  48.333  12.305 -0.99 +0.08    -0.201 OA BRANCH   8  11ATOM     11  N   UNL     1      35.488  46.335  13.616 -0.29 +0.19    -0.280 N  ATOM     12  H   UNL     1      34.831  45.896  12.975 +0.06 -0.12    +0.180 HD BRANCH  11  13ATOM     13  C   UNL     1      35.714  45.701  14.869 -0.34 -0.03    +0.049 A  ATOM     14  C   UNL     1      36.170  44.392  14.947 -0.33 -0.01    +0.029 A  ATOM     15  C   UNL     1      35.432  46.396  16.039 -0.25 -0.03    +0.029 A  ATOM     16  C   UNL     1      36.337  43.784  16.199 -0.37 -0.01    +0.028 A  ATOM     17  C   UNL     1      35.601  45.779  17.283 -0.34 -0.02    +0.028 A  ATOM     18  C   UNL     1      36.064  44.458  17.403 -0.29 -0.01    +0.037 A  BRANCH  18  19ATOM     19  N   UNL     1      36.233  43.841  18.637 -0.09 +0.07    -0.372 N  ATOM     20  C   UNL     1      37.305  44.286  19.538 -0.35 -0.01    +0.116 C  ATOM     21  C   UNL     1      35.210  42.941  19.177 -0.38 -0.02    +0.116 C  ATOM     22  C   UNL     1      36.867  44.192  20.997 -0.43 +0.00    +0.021 C  ATOM     23  C   UNL     1      35.808  42.013  20.233 -0.48 -0.00    +0.021 C  ATOM     24  C   UNL     1      36.461  42.775  21.383 -0.51 +0.00    +0.004 C  ENDBRANCH  18  19ENDBRANCH  11  13ENDBRANCH   8  11ENDBRANCH   7   8BRANCH   4  25ATOM     25  C   UNL     1      41.186  47.801  16.972 -0.41 -0.01    +0.120 C  BRANCH  25  26ATOM     26  N   UNL     1      41.406  46.635  17.842 -0.27 +0.02    -0.297 NA ATOM     27  C   UNL     1      40.161  45.874  18.072 -0.46 -0.01    +0.100 C  ATOM     28  C   UNL     1      41.981  47.059  19.134 -0.48 +0.01    +0.100 C  ATOM     29  C   UNL     1      40.360  44.700  19.061 -0.41 +0.00    +0.099 C  ATOM     30  C   UNL     1      42.175  45.875  20.111 -0.31 +0.02    +0.099 C  ATOM     31  N   UNL     1      40.964  45.068  20.358 -0.18 -0.02    -0.304 NA ATOM     32  C   UNL     1      40.012  45.768  21.216 -0.26 +0.01    +0.105 C  ENDBRANCH  25  26ENDBRANCH   4  25TORSDOF 6TERENDMDL