
     RDKit          3D

 44 47  0  0  0  0  0  0  0  0999 V2000
   -3.9075    0.2629    2.4301 O   0  0  0  0  0  0  0  0  0  0  0  0
   -2.6799   -0.1993    1.8617 C   0  0  0  0  0  0  0  0  0  0  0  0
   -2.1860    0.7430    0.7533 C   0  0  0  0  0  0  0  0  0  0  0  0
   -2.8959    0.5945   -0.5421 N   0  0  0  0  0  0  0  0  0  0  0  0
   -4.3227    0.9632   -0.5584 C   0  0  0  0  0  0  0  0  0  0  0  0
   -5.2163   -0.2679   -0.4571 C   0  0  0  0  0  0  0  0  0  0  0  0
   -4.9885   -1.1690   -1.5440 O   0  0  0  0  0  0  0  0  0  0  0  0
   -3.6521   -1.3854   -1.7830 C   0  0  0  0  0  0  0  0  0  0  0  0
   -3.3591   -2.4976   -2.5529 C   0  0  0  0  0  0  0  0  0  0  0  0
   -2.1052   -2.8399   -2.8887 N   0  0  0  0  0  0  0  0  0  0  0  0
   -1.0817   -2.0392   -2.4922 N   0  0  0  0  0  0  0  0  0  0  0  0
   -1.3182   -0.9166   -1.7543 C   0  0  0  0  0  0  0  0  0  0  0  0
   -0.1230   -0.0787   -1.5798 C   0  0  0  0  0  0  0  0  0  0  0  0
   -0.0520    1.1981   -2.0979 C   0  0  0  0  0  0  0  0  0  0  0  0
    1.1123    1.8759   -1.8520 C   0  0  0  0  0  0  0  0  0  0  0  0
    2.1386    1.3568   -1.1566 N   0  0  0  0  0  0  0  0  0  0  0  0
    2.0078    0.1035   -0.7007 C   0  0  0  0  0  0  0  0  0  0  0  0
    3.0153   -0.5352    0.0162 N   0  0  0  0  0  0  0  0  0  0  0  0
    4.3194   -0.1891    0.3832 C   0  0  0  0  0  0  0  0  0  0  0  0
    5.0839   -1.1289    1.0995 C   0  0  0  0  0  0  0  0  0  0  0  0
    6.3868   -0.8412    1.5162 C   0  0  0  0  0  0  0  0  0  0  0  0
    6.9368    0.3977    1.2244 C   0  0  0  0  0  0  0  0  0  0  0  0
    8.1841    0.6792    1.6225 F   0  0  0  0  0  0  0  0  0  0  0  0
    6.2068    1.3492    0.5279 C   0  0  0  0  0  0  0  0  0  0  0  0
    4.9028    1.0554    0.1136 C   0  0  0  0  0  0  0  0  0  0  0  0
    0.8998   -0.6295   -0.8808 N   0  0  0  0  0  0  0  0  0  0  0  0
   -2.6126   -0.5531   -1.3253 C   0  0  0  0  0  0  0  0  0  0  0  0
   -3.7013    1.0540    2.9582 H   0  0  0  0  0  0  0  0  0  0  0  0
   -1.9431   -0.2436    2.6708 H   0  0  0  0  0  0  0  0  0  0  0  0
   -2.8327   -1.2173    1.4918 H   0  0  0  0  0  0  0  0  0  0  0  0
   -1.1118    0.5958    0.6353 H   0  0  0  0  0  0  0  0  0  0  0  0
   -2.3114    1.7823    1.0819 H   0  0  0  0  0  0  0  0  0  0  0  0
   -4.5216    1.4783   -1.5072 H   0  0  0  0  0  0  0  0  0  0  0  0
   -4.5542    1.6764    0.2403 H   0  0  0  0  0  0  0  0  0  0  0  0
   -5.0828   -0.8179    0.4789 H   0  0  0  0  0  0  0  0  0  0  0  0
   -6.2666    0.0388   -0.5042 H   0  0  0  0  0  0  0  0  0  0  0  0
   -4.1379   -3.1563   -2.9187 H   0  0  0  0  0  0  0  0  0  0  0  0
   -0.8640    1.6419   -2.6584 H   0  0  0  0  0  0  0  0  0  0  0  0
    1.2626    2.8878   -2.2162 H   0  0  0  0  0  0  0  0  0  0  0  0
    2.7283   -1.4887    0.1864 H   0  0  0  0  0  0  0  0  0  0  0  0
    4.6664   -2.1041    1.3399 H   0  0  0  0  0  0  0  0  0  0  0  0
    6.9693   -1.5741    2.0643 H   0  0  0  0  0  0  0  0  0  0  0  0
    6.6496    2.3153    0.3091 H   0  0  0  0  0  0  0  0  0  0  0  0
    4.3574    1.8230   -0.4266 H   0  0  0  0  0  0  0  0  0  0  0  0
  1  2  1  0
  2  3  1  0
  3  4  1  0
  4  5  1  0
  5  6  1  0
  6  7  1  0
  7  8  1  0
  8  9  2  0
  9 10  1  0
 10 11  2  0
 11 12  1  0
 12 13  1  0
 13 14  2  0
 14 15  1  0
 15 16  2  0
 16 17  1  0
 17 18  1  0
 18 19  1  0
 19 20  2  0
 20 21  1  0
 21 22  2  0
 22 23  1  0
 22 24  1  0
 24 25  2  0
 17 26  2  0
 12 27  2  0
 27  4  1  0
 27  8  1  0
 26 13  1  0
 25 19  1  0
  1 28  1  0
  2 29  1  0
  2 30  1  0
  3 31  1  0
  3 32  1  0
  5 33  1  0
  5 34  1  0
  6 35  1  0
  6 36  1  0
  9 37  1  0
 14 38  1  0
 15 39  1  0
 18 40  1  0
 20 41  1  0
 21 42  1  0
 24 43  1  0
 25 44  1  0
M  END
$$$$
