
     RDKit          3D

 56 60  0  0  0  0  0  0  0  0999 V2000
   -4.7428    2.2634    0.1222 C   0  0  0  0  0  0  0  0  0  0  0  0
   -5.6840    1.3936   -0.6032 N   0  0  0  0  0  0  0  0  0  0  0  0
   -6.9630    2.0326   -0.9631 C   0  0  0  0  0  0  0  0  0  0  0  0
   -7.9209    2.0351    0.2227 C   0  0  0  0  0  0  0  0  0  0  0  0
   -8.2402    0.7061    0.6446 O   0  0  0  0  0  0  0  0  0  0  0  0
   -7.1491   -0.1287    0.6761 C   0  0  0  0  0  0  0  0  0  0  0  0
   -7.3294   -1.3335    1.3308 C   0  0  0  0  0  0  0  0  0  0  0  0
   -6.3556   -2.2518    1.4440 N   0  0  0  0  0  0  0  0  0  0  0  0
   -5.1440   -2.0027    0.8713 N   0  0  0  0  0  0  0  0  0  0  0  0
   -4.9168   -0.8423    0.1945 C   0  0  0  0  0  0  0  0  0  0  0  0
   -3.6021   -0.7794   -0.4653 C   0  0  0  0  0  0  0  0  0  0  0  0
   -3.4737   -0.5459   -1.8190 C   0  0  0  0  0  0  0  0  0  0  0  0
   -2.1916   -0.5043   -2.2997 C   0  0  0  0  0  0  0  0  0  0  0  0
   -1.1052   -0.6808   -1.5294 N   0  0  0  0  0  0  0  0  0  0  0  0
   -1.3039   -0.9188   -0.2255 C   0  0  0  0  0  0  0  0  0  0  0  0
   -0.2519   -1.1265    0.6609 N   0  0  0  0  0  0  0  0  0  0  0  0
    1.1370   -1.2119    0.5253 C   0  0  0  0  0  0  0  0  0  0  0  0
    1.8167   -1.0371   -0.6830 C   0  0  0  0  0  0  0  0  0  0  0  0
    3.2140   -1.1171   -0.7523 C   0  0  0  0  0  0  0  0  0  0  0  0
    3.9723   -1.3682    0.3956 C   0  0  0  0  0  0  0  0  0  0  0  0
    5.4812   -1.4631    0.3242 C   0  0  0  0  0  0  0  0  0  0  0  0
    6.1690   -0.4625    1.1558 N   0  0  0  0  0  0  0  0  0  0  0  0
    5.8860    0.9162    0.6926 C   0  0  0  0  0  0  0  0  0  0  0  0
    6.9895    1.8986    1.1121 C   0  0  0  0  0  0  0  0  0  0  0  0
    8.2580    1.5911    0.5155 O   0  0  0  0  0  0  0  0  0  0  0  0
    8.4313    0.1920    0.2547 C   0  0  0  0  0  0  0  0  0  0  0  0
    7.6263   -0.7051    1.2076 C   0  0  0  0  0  0  0  0  0  0  0  0
    3.3034   -1.5386    1.6119 C   0  0  0  0  0  0  0  0  0  0  0  0
    1.9081   -1.4572    1.6725 C   0  0  0  0  0  0  0  0  0  0  0  0
   -2.5223   -0.9657    0.3330 N   0  0  0  0  0  0  0  0  0  0  0  0
   -5.9053    0.1582    0.0847 C   0  0  0  0  0  0  0  0  0  0  0  0
   -3.7470    1.8197    0.2043 H   0  0  0  0  0  0  0  0  0  0  0  0
   -5.1034    2.4966    1.1305 H   0  0  0  0  0  0  0  0  0  0  0  0
   -4.6188    3.2074   -0.4201 H   0  0  0  0  0  0  0  0  0  0  0  0
   -6.7904    3.0551   -1.3174 H   0  0  0  0  0  0  0  0  0  0  0  0
   -7.4039    1.4736   -1.7987 H   0  0  0  0  0  0  0  0  0  0  0  0
   -8.8600    2.5197   -0.0644 H   0  0  0  0  0  0  0  0  0  0  0  0
   -7.5152    2.5885    1.0779 H   0  0  0  0  0  0  0  0  0  0  0  0
   -8.2732   -1.5933    1.7954 H   0  0  0  0  0  0  0  0  0  0  0  0
   -4.3284   -0.3975   -2.4653 H   0  0  0  0  0  0  0  0  0  0  0  0
   -1.9905   -0.3224   -3.3510 H   0  0  0  0  0  0  0  0  0  0  0  0
   -0.6368   -1.3412    1.5694 H   0  0  0  0  0  0  0  0  0  0  0  0
    1.2746   -0.8365   -1.6019 H   0  0  0  0  0  0  0  0  0  0  0  0
    3.6990   -0.9772   -1.7153 H   0  0  0  0  0  0  0  0  0  0  0  0
    5.7435   -2.4728    0.6681 H   0  0  0  0  0  0  0  0  0  0  0  0
    5.8199   -1.3980   -0.7184 H   0  0  0  0  0  0  0  0  0  0  0  0
    5.8102    0.9454   -0.4025 H   0  0  0  0  0  0  0  0  0  0  0  0
    4.9295    1.2505    1.1087 H   0  0  0  0  0  0  0  0  0  0  0  0
    6.7237    2.9158    0.8070 H   0  0  0  0  0  0  0  0  0  0  0  0
    7.1139    1.9081    2.2014 H   0  0  0  0  0  0  0  0  0  0  0  0
    8.1500    0.0018   -0.7876 H   0  0  0  0  0  0  0  0  0  0  0  0
    9.5001   -0.0266    0.3469 H   0  0  0  0  0  0  0  0  0  0  0  0
    7.9471   -0.4890    2.2346 H   0  0  0  0  0  0  0  0  0  0  0  0
    7.8698   -1.7589    1.0286 H   0  0  0  0  0  0  0  0  0  0  0  0
    3.8699   -1.7260    2.5217 H   0  0  0  0  0  0  0  0  0  0  0  0
    1.4252   -1.5883    2.6380 H   0  0  0  0  0  0  0  0  0  0  0  0
  1  2  1  0
  2  3  1  0
  3  4  1  0
  4  5  1  0
  5  6  1  0
  6  7  2  0
  7  8  1  0
  8  9  2  0
  9 10  1  0
 10 11  1  0
 11 12  2  0
 12 13  1  0
 13 14  2  0
 14 15  1  0
 15 16  1  0
 16 17  1  0
 17 18  2  0
 18 19  1  0
 19 20  2  0
 20 21  1  0
 21 22  1  0
 22 23  1  0
 23 24  1  0
 24 25  1  0
 25 26  1  0
 26 27  1  0
 20 28  1  0
 28 29  2  0
 15 30  2  0
 10 31  2  0
 31  2  1  0
 31  6  1  0
 30 11  1  0
 29 17  1  0
 27 22  1  0
  1 32  1  0
  1 33  1  0
  1 34  1  0
  3 35  1  0
  3 36  1  0
  4 37  1  0
  4 38  1  0
  7 39  1  0
 12 40  1  0
 13 41  1  0
 16 42  1  0
 18 43  1  0
 19 44  1  0
 21 45  1  0
 21 46  1  0
 23 47  1  0
 23 48  1  0
 24 49  1  0
 24 50  1  0
 26 51  1  0
 26 52  1  0
 27 53  1  0
 27 54  1  0
 28 55  1  0
 29 56  1  0
M  END
$$$$
