
     RDKit          3D

 50 53  0  0  0  0  0  0  0  0999 V2000
   -8.9767    0.8552   -0.9685 C   0  0  0  0  0  0  0  0  0  0  0  0
   -7.6595    0.8725   -0.2512 C   0  0  0  0  0  0  0  0  0  0  0  0
   -7.4045    1.8346    0.7312 C   0  0  0  0  0  0  0  0  0  0  0  0
   -6.1989    1.8242    1.4303 C   0  0  0  0  0  0  0  0  0  0  0  0
   -5.2350    0.8521    1.1540 C   0  0  0  0  0  0  0  0  0  0  0  0
   -5.4655   -0.1183    0.1699 C   0  0  0  0  0  0  0  0  0  0  0  0
   -4.4859   -1.1554   -0.1445 C   0  0  0  0  0  0  0  0  0  0  0  0
   -4.7577   -2.4240   -0.4472 N   0  0  0  0  0  0  0  0  0  0  0  0
   -3.5703   -3.1039   -0.6923 N   0  0  0  0  0  0  0  0  0  0  0  0
   -2.6287   -2.2186   -0.5516 C   0  0  0  0  0  0  0  0  0  0  0  0
   -0.9040   -2.2011   -0.7047 S   0  0  0  0  0  0  0  0  0  0  0  0
   -0.9427   -0.4748   -0.3323 C   0  0  0  0  0  0  0  0  0  0  0  0
    0.2834    0.3604   -0.2648 C   0  0  0  0  0  0  0  0  0  0  0  0
    0.2234    1.5316    0.0944 O   0  0  0  0  0  0  0  0  0  0  0  0
    1.4463   -0.2787   -0.6155 N   0  0  0  0  0  0  0  0  0  0  0  0
    2.7545    0.3543   -0.4860 C   0  0  0  0  0  0  0  0  0  0  0  0
    3.7670   -0.2760   -1.4547 C   0  0  0  0  0  0  0  0  0  0  0  0
    5.1960   -0.2903   -0.9010 C   0  0  0  0  0  0  0  0  0  0  0  0
    5.4390    0.9157   -0.1179 N   0  0  0  0  0  0  0  0  0  0  0  0
    6.8656    1.1887    0.1265 C   0  0  0  0  0  0  0  0  0  0  0  0
    7.6861    0.1148    0.8653 C   0  0  0  0  0  0  0  0  0  0  0  0
    7.9434   -1.0119    0.0311 O   0  0  0  0  0  0  0  0  0  0  0  0
    4.6163    0.9870    1.0931 C   0  0  0  0  0  0  0  0  0  0  0  0
    3.2631    0.2795    0.9531 C   0  0  0  0  0  0  0  0  0  0  0  0
   -2.1813    0.0021   -0.1118 C   0  0  0  0  0  0  0  0  0  0  0  0
   -3.1247   -0.9932   -0.2298 N   0  0  0  0  0  0  0  0  0  0  0  0
   -6.6925   -0.1088   -0.5114 C   0  0  0  0  0  0  0  0  0  0  0  0
   -9.7318    0.3611   -0.3500 H   0  0  0  0  0  0  0  0  0  0  0  0
   -9.3089    1.8748   -1.1891 H   0  0  0  0  0  0  0  0  0  0  0  0
   -8.9026    0.3223   -1.9214 H   0  0  0  0  0  0  0  0  0  0  0  0
   -8.1499    2.5923    0.9641 H   0  0  0  0  0  0  0  0  0  0  0  0
   -6.0156    2.5684    2.2026 H   0  0  0  0  0  0  0  0  0  0  0  0
   -4.3206    0.8531    1.7407 H   0  0  0  0  0  0  0  0  0  0  0  0
    1.4067   -1.2755   -0.7936 H   0  0  0  0  0  0  0  0  0  0  0  0
    2.6305    1.4132   -0.7505 H   0  0  0  0  0  0  0  0  0  0  0  0
    3.4873   -1.3060   -1.7066 H   0  0  0  0  0  0  0  0  0  0  0  0
    3.7385    0.2839   -2.3971 H   0  0  0  0  0  0  0  0  0  0  0  0
    5.8842   -0.3549   -1.7522 H   0  0  0  0  0  0  0  0  0  0  0  0
    5.3466   -1.1912   -0.2937 H   0  0  0  0  0  0  0  0  0  0  0  0
    6.9400    2.1283    0.6876 H   0  0  0  0  0  0  0  0  0  0  0  0
    7.3384    1.3809   -0.8444 H   0  0  0  0  0  0  0  0  0  0  0  0
    7.1864   -0.2270    1.7754 H   0  0  0  0  0  0  0  0  0  0  0  0
    8.6542    0.5385    1.1502 H   0  0  0  0  0  0  0  0  0  0  0  0
    8.4337   -1.6558    0.5697 H   0  0  0  0  0  0  0  0  0  0  0  0
    5.1241    0.5591    1.9641 H   0  0  0  0  0  0  0  0  0  0  0  0
    4.4409    2.0451    1.3199 H   0  0  0  0  0  0  0  0  0  0  0  0
    2.5426    0.7266    1.6488 H   0  0  0  0  0  0  0  0  0  0  0  0
    3.3642   -0.7734    1.2495 H   0  0  0  0  0  0  0  0  0  0  0  0
   -2.4503    1.0214    0.1200 H   0  0  0  0  0  0  0  0  0  0  0  0
   -6.8949   -0.8777   -1.2578 H   0  0  0  0  0  0  0  0  0  0  0  0
  1  2  1  0
  2  3  2  0
  3  4  1  0
  4  5  2  0
  5  6  1  0
  6  7  1  0
  7  8  2  0
  8  9  1  0
  9 10  2  0
 10 11  1  0
 11 12  1  0
 12 13  1  0
 13 14  2  0
 13 15  1  0
 15 16  1  0
 16 17  1  0
 17 18  1  0
 18 19  1  0
 19 20  1  0
 20 21  1  0
 21 22  1  0
 19 23  1  0
 23 24  1  0
 12 25  2  0
 25 26  1  0
  6 27  2  0
 27  2  1  0
 26  7  1  0
 26 10  1  0
 24 16  1  0
  1 28  1  0
  1 29  1  0
  1 30  1  0
  3 31  1  0
  4 32  1  0
  5 33  1  0
 15 34  1  0
 16 35  1  0
 17 36  1  0
 17 37  1  0
 18 38  1  0
 18 39  1  0
 20 40  1  0
 20 41  1  0
 21 42  1  0
 21 43  1  0
 22 44  1  0
 23 45  1  0
 23 46  1  0
 24 47  1  0
 24 48  1  0
 25 49  1  0
 27 50  1  0
M  END
$$$$
