REMARK SMILES CC[C@H]1NC=Nc2c(Nc3ccccc3F)nc(N3CC[C@H](CN4CCN(CC(=O)O)CC4)C3)nc21
REMARK SMILES IDX 23 1 22 2 19 3 20 4 34 5 21 6 18 7 3 8 4 9 36 10 5 11 35 12
REMARK SMILES IDX 7 13 6 14 8 15 17 16 2 18 1 19 9 20 10 22 11 23 15 24 12 25
REMARK SMILES IDX 14 26 13 27 16 28 24 29 25 30 33 31 26 32 32 33 27 34 28 35
REMARK SMILES IDX 29 36 30 37 31 38
REMARK H PARENT 4 17 9 21 31 39
ROOT
ATOM      1  C   UNL     1       2.841  -0.868  -0.491  1.00  0.00     0.090 C 
ENDROOT
BRANCH   1   2
ATOM      2  C   UNL     1       1.909  -1.288   0.668  1.00  0.00     0.024 C 
ATOM      3  N   UNL     1      -0.080  -0.145   0.188  1.00  0.00    -0.340 N 
ATOM      4  C   UNL     1       0.601   0.702   1.152  1.00  0.00     0.120 C 
ATOM      5  C   UNL     1       0.469  -1.488   0.159  1.00  0.00     0.124 C 
ATOM      6  C   UNL     1       1.686  -0.209   1.737  1.00  0.00     0.028 C 
BRANCH   3   7
ATOM      7  C   UNL     1      -1.399   0.069  -0.114  1.00  0.00     0.227 A 
ATOM      8  C   UNL     1      -4.148  -1.797  -1.704  1.00  0.00     0.131 C 
ATOM      9  N   UNL     1      -5.337  -1.287  -2.377  1.00  0.00    -0.368 N 
ATOM     10  C   UNL     1      -3.372  -0.671  -1.048  1.00  0.00     0.096 A 
ATOM     11  C   UNL     1      -5.904  -0.125  -1.949  1.00  0.00     0.193 C 
ATOM     12  N   UNL     1      -2.079  -0.913  -0.720  1.00  0.00    -0.213 NA
ATOM     13  C   UNL     1      -4.024   0.524  -0.791  1.00  0.00     0.131 A 
ATOM     14  N   UNL     1      -5.361   0.765  -1.194  1.00  0.00    -0.234 NA
ATOM     15  C   UNL     1      -3.243   1.466  -0.126  1.00  0.00     0.162 A 
ATOM     16  N   UNL     1      -1.944   1.257   0.187  1.00  0.00    -0.193 NA
ATOM     17  H   UNL     1      -5.936  -1.973  -2.820  1.00  0.00     0.162 HD
BRANCH   8  18
ATOM     18  C   UNL     1      -4.536  -2.848  -0.647  1.00  0.00     0.028 C 
ATOM     19  C   UNL     1      -5.119  -4.118  -1.253  1.00  0.00     0.006 C 
ENDBRANCH   8  18
BRANCH  15  20
ATOM     20  N   UNL     1      -3.735   2.742   0.237  1.00  0.00    -0.336 N 
ATOM     21  H   UNL     1      -2.955   3.181   0.721  1.00  0.00     0.168 HD
BRANCH  20  22
ATOM     22  C   UNL     1      -4.933   2.987   0.955  1.00  0.00     0.076 A 
ATOM     23  C   UNL     1      -5.537   4.245   0.816  1.00  0.00     0.029 A 
ATOM     24  C   UNL     1      -5.479   2.098   1.893  1.00  0.00     0.146 A 
ATOM     25  C   UNL     1      -6.684   4.577   1.544  1.00  0.00     0.002 A 
ATOM     26  C   UNL     1      -6.622   2.423   2.622  1.00  0.00     0.041 A 
ATOM     27  C   UNL     1      -7.230   3.663   2.443  1.00  0.00     0.003 A 
ATOM     28  F   UNL     1      -4.894   0.914   2.139  1.00  0.00    -0.205 F 
ENDBRANCH  20  22
ENDBRANCH  15  20
ENDBRANCH   3   7
ENDBRANCH   1   2
BRANCH   1  29
ATOM     29  N   UNL     1       4.272  -1.137  -0.252  1.00  0.00    -0.300 NA
ATOM     30  C   UNL     1       4.850  -0.306   0.822  1.00  0.00     0.100 C 
ATOM     31  C   UNL     1       5.063  -1.009  -1.497  1.00  0.00     0.100 C 
ATOM     32  C   UNL     1       6.392  -0.217   0.745  1.00  0.00     0.100 C 
ATOM     33  C   UNL     1       5.914   0.277  -1.592  1.00  0.00     0.100 C 
ATOM     34  N   UNL     1       6.874   0.459  -0.483  1.00  0.00    -0.291 NA
BRANCH  34  35
ATOM     35  C   UNL     1       8.226  -0.011  -0.864  1.00  0.00     0.207 C 
BRANCH  35  36
ATOM     36  C   UNL     1       9.302   0.341   0.160  1.00  0.00     0.317 C 
ATOM     37  O   UNL     1       9.193   0.919   1.228  1.00  0.00    -0.251 OA
BRANCH  36  38
ATOM     38  O   UNL     1      10.522  -0.086  -0.241  1.00  0.00    -0.480 OA
ATOM     39  H   UNL     1      11.112   0.205   0.485  1.00  0.00     0.296 HD
ENDBRANCH  36  38
ENDBRANCH  35  36
ENDBRANCH  34  35
ENDBRANCH   1  29
TORSDOF 9
