MODEL        10USER    Run = 10USERUSER    Estimated Free Energy of Binding    = -11.15 kcal/mol  [=(1)+(2)+(3)-(4)]USERUSER    (1) Final Intermolecular Energy     = -13.24 kcal/molUSER        vdW + Hbond + desolv Energy     = -13.14 kcal/molUSER        Electrostatic Energy            =  -0.09 kcal/molUSER        Moving Ligand-Fixed Receptor    = -13.24 kcal/molUSER        Moving Ligand-Moving Receptor   =  +0.00 kcal/molUSER    (2) Final Total Internal Energy     =  -2.18 kcal/molUSER    (3) Torsional Free Energy           =  +2.09 kcal/molUSER    (4) Unbound System's Energy         =  -2.18 kcal/molUSERUSERREMARK SMILES O=C(Nc1cccc(-c2cn3ccccc3n2)c1CCN1CCOCC1)c1ccc(N2CCOCC2)cc1REMARK SMILES IDX 4 1 5 2 6 3 7 4 8 5 18 6 3 7 2 8 1 9 27 11 28 12 38 13 29 14REMARK SMILES IDX 37 15 30 16 31 17 32 18 36 19 33 20 35 21 34 22 19 23 20 24REMARK SMILES IDX 21 25 22 26 26 27 23 28 25 29 24 30 9 31 10 32 17 33 11 34REMARK SMILES IDX 16 35 12 36 15 37 13 38 14 39REMARK H PARENT 3 10USER                              x       y       z     vdW  Elec       q    TypeUSER                           _______ _______ _______ _____ _____    ______ ____ROOTATOM      1  C   UNL     1      39.695  45.784  19.293 -0.38 -0.00    +0.045 A  ATOM      2  C   UNL     1      41.039  46.173  19.220 -0.44 +0.00    +0.026 A  ATOM      3  C   UNL     1      41.571  46.724  18.054 -0.45 -0.00    +0.003 A  ATOM      4  C   UNL     1      40.761  46.899  16.939 -0.45 -0.00    +0.011 A  ATOM      5  C   UNL     1      39.416  46.516  16.977 -0.45 -0.00    +0.007 A  ATOM      6  C   UNL     1      38.866  45.935  18.148 -0.39 +0.00    -0.014 A  ENDROOTBRANCH   1   7ATOM      7  N   UNL     1      39.143  45.236  20.478 -0.18 -0.00    -0.322 N  ATOM      8  C   UNL     1      39.654  44.232  21.279 -0.18 +0.01    +0.255 C  ATOM      9  O   UNL     1      40.723  43.649  21.154 -0.20 -0.01    -0.269 OA ATOM     10  H   UNL     1      38.310  45.685  20.828 +0.08 +0.01    +0.170 HD BRANCH   8  11ATOM     11  C   UNL     1      38.791  43.882  22.443 -0.27 +0.00    +0.040 A  ATOM     12  C   UNL     1      38.512  42.556  22.782 -0.31 +0.00    +0.016 A  ATOM     13  C   UNL     1      38.254  44.908  23.217 -0.31 +0.00    +0.016 A  ATOM     14  C   UNL     1      37.677  42.272  23.871 -0.32 +0.00    +0.027 A  ATOM     15  C   UNL     1      37.420  44.607  24.304 -0.30 +0.00    +0.027 A  ATOM     16  C   UNL     1      37.106  43.285  24.659 -0.34 +0.00    +0.037 A  BRANCH  16  17ATOM     17  N   UNL     1      36.277  42.996  25.728 -0.15 +0.02    -0.367 N  ATOM     18  C   UNL     1      35.963  41.616  26.130 -0.39 -0.04    +0.145 C  ATOM     19  C   UNL     1      35.729  44.052  26.599 -0.29 -0.03    +0.145 C  ATOM     20  C   UNL     1      34.641  41.578  26.917 -0.47 -0.06    +0.181 C  ATOM     21  C   UNL     1      35.530  43.508  28.025 -0.39 -0.06    +0.181 C  ATOM     22  O   UNL     1      34.638  42.388  28.102 -0.32 +0.13    -0.378 OA ENDBRANCH  16  17ENDBRANCH   8  11ENDBRANCH   1   7BRANCH   6  23ATOM     23  C   UNL     1      37.406  45.503  18.163 -0.34 -0.01    +0.054 C  BRANCH  23  24ATOM     24  C   UNL     1      37.217  44.115  17.521 -0.28 -0.02    +0.089 C  BRANCH  24  25ATOM     25  N   UNL     1      36.293  43.200  18.195 -0.05 +0.06    -0.298 NA ATOM     26  C   UNL     1      36.503  43.073  19.649 -0.32 -0.01    +0.113 C  ATOM     27  C   UNL     1      34.877  43.419  17.858 -0.31 -0.03    +0.113 C  ATOM     28  C   UNL     1      35.371  43.695  20.485 -0.23 -0.00    +0.175 C  ATOM     29  C   UNL     1      33.957  42.674  18.839 -0.33 -0.02    +0.175 C  ATOM     30  O   UNL     1      34.076  43.155  20.184 -0.66 -0.04    -0.379 OA ENDBRANCH  24  25ENDBRANCH  23  24ENDBRANCH   6  23BRANCH   5  31ATOM     31  C   UNL     1      38.629  46.723  15.780 -0.36 -0.03    +0.090 A  ATOM     32  C   UNL     1      38.076  47.925  15.396 -0.39 -0.07    +0.121 A  ATOM     33  N   UNL     1      38.317  45.719  14.898 -0.23 +0.07    -0.229 NA ATOM     34  N   UNL     1      37.406  47.652  14.230 -0.26 +0.16    -0.306 N  ATOM     35  C   UNL     1      37.581  46.296  13.972 -0.34 -0.05    +0.137 A  ATOM     36  C   UNL     1      36.660  48.502  13.415 -0.41 -0.05    +0.093 A  ATOM     37  C   UNL     1      36.957  45.772  12.806 -0.51 -0.02    +0.048 A  ATOM     38  C   UNL     1      36.065  48.000  12.320 -0.54 -0.01    +0.018 A  ATOM     39  C   UNL     1      36.228  46.586  12.015 -0.68 -0.00    +0.005 A  ENDBRANCH   5  31TORSDOF 7TERENDMDL