REMARK SMILES CC(=O)NC1CCN(C(=O)c2ccc(C(=O)Nc3cccc(N4CCOCC4)c3F)cc2F)CC1
REMARK SMILES IDX 11 1 12 2 13 3 14 4 31 5 32 6 33 7 9 8 5 9 6 10 35 11 7 12
REMARK SMILES IDX 34 13 8 14 10 15 4 16 2 17 1 18 3 19 15 21 17 22 16 23 18 25
REMARK SMILES IDX 19 26 29 27 20 28 22 29 21 30 30 31 23 32 24 33 28 34 25 35
REMARK SMILES IDX 27 36 26 37
REMARK H PARENT 4 20 17 24
ROOT
ATOM      1  C   UNL     1      -2.155   1.030  -0.358  1.00  0.00     0.075 A 
ATOM      2  C   UNL     1      -1.034   0.815  -1.165  1.00  0.00     0.018 A 
ATOM      3  C   UNL     1       0.075   0.141  -0.644  1.00  0.00     0.015 A 
ATOM      4  C   UNL     1       0.065  -0.297   0.690  1.00  0.00     0.043 A 
ATOM      5  C   UNL     1      -1.062  -0.073   1.492  1.00  0.00     0.054 A 
ATOM      6  C   UNL     1      -2.159   0.601   0.967  1.00  0.00     0.136 A 
ATOM      7  F   UNL     1      -3.221   0.820   1.754  1.00  0.00    -0.206 F 
ENDROOT
BRANCH   1   8
ATOM      8  C   UNL     1      -3.296   1.778  -0.909  1.00  0.00     0.256 C 
ATOM      9  C   UNL     1      -7.052  -0.122  -1.840  1.00  0.00     0.085 C 
ATOM     10  C   UNL     1      -5.781  -0.949  -1.630  1.00  0.00     0.046 C 
ATOM     11  C   UNL     1      -6.691   1.286  -2.315  1.00  0.00     0.046 C 
ATOM     12  C   UNL     1      -4.788  -0.251  -0.709  1.00  0.00     0.122 C 
ATOM     13  C   UNL     1      -5.672   1.965  -1.407  1.00  0.00     0.122 C 
ATOM     14  N   UNL     1      -4.511   1.123  -1.131  1.00  0.00    -0.338 N 
ATOM     15  O   UNL     1      -3.093   2.959  -1.183  1.00  0.00    -0.269 OA
BRANCH   9  16
ATOM     16  N   UNL     1      -7.889  -0.089  -0.645  1.00  0.00    -0.353 N 
ATOM     17  C   UNL     1      -8.683  -1.161  -0.293  1.00  0.00     0.217 C 
ATOM     18  C   UNL     1      -9.392  -0.982   1.022  1.00  0.00     0.114 C 
ATOM     19  O   UNL     1      -8.791  -2.180  -0.964  1.00  0.00    -0.275 OA
ATOM     20  H   UNL     1      -7.710   0.615   0.060  1.00  0.00     0.163 HD
ENDBRANCH   9  16
ENDBRANCH   1   8
BRANCH   4  21
ATOM     21  C   UNL     1       1.216  -1.033   1.284  1.00  0.00     0.255 C 
ATOM     22  N   UNL     1       2.460  -0.625   0.848  1.00  0.00    -0.319 N 
ATOM     23  O   UNL     1       0.975  -1.903   2.111  1.00  0.00    -0.269 OA
ATOM     24  H   UNL     1       2.518   0.191   0.248  1.00  0.00     0.170 HD
BRANCH  22  25
ATOM     25  C   UNL     1       3.718  -1.158   1.214  1.00  0.00     0.079 A 
ATOM     26  C   UNL     1       3.889  -2.257   2.047  1.00  0.00     0.029 A 
ATOM     27  C   UNL     1       4.857  -0.519   0.685  1.00  0.00     0.169 A 
ATOM     28  C   UNL     1       5.176  -2.701   2.345  1.00  0.00     0.005 A 
ATOM     29  C   UNL     1       6.177  -0.933   0.968  1.00  0.00     0.075 A 
ATOM     30  C   UNL     1       6.295  -2.049   1.814  1.00  0.00     0.029 A 
ATOM     31  F   UNL     1       4.640   0.550  -0.105  1.00  0.00    -0.202 F 
BRANCH  29  32
ATOM     32  N   UNL     1       7.306  -0.316   0.446  1.00  0.00    -0.364 N 
ATOM     33  C   UNL     1       7.231   0.612  -0.694  1.00  0.00     0.145 C 
ATOM     34  C   UNL     1       8.602  -0.360   1.146  1.00  0.00     0.145 C 
ATOM     35  C   UNL     1       8.617   0.748  -1.349  1.00  0.00     0.181 C 
ATOM     36  C   UNL     1       9.381   0.946   0.913  1.00  0.00     0.181 C 
ATOM     37  O   UNL     1       9.640   1.232  -0.468  1.00  0.00    -0.378 OA
ENDBRANCH  29  32
ENDBRANCH  22  25
ENDBRANCH   4  21
TORSDOF 5
