MODEL        3USER    Run = 3USERUSER    Estimated Free Energy of Binding    = -10.31 kcal/mol  [=(1)+(2)+(3)-(4)]USERUSER    (1) Final Intermolecular Energy     = -11.80 kcal/molUSER        vdW + Hbond + desolv Energy     = -11.39 kcal/molUSER        Electrostatic Energy            =  -0.42 kcal/molUSER        Moving Ligand-Fixed Receptor    = -11.80 kcal/molUSER        Moving Ligand-Moving Receptor   =  +0.00 kcal/molUSER    (2) Final Total Internal Energy     =  -1.20 kcal/molUSER    (3) Torsional Free Energy           =  +1.49 kcal/molUSER    (4) Unbound System's Energy         =  -1.20 kcal/molUSERUSERREMARK SMILES CC(=O)NC1CCN(C(=O)c2ccc(C(=O)Nc3cccc(N4CCOCC4)c3F)cc2F)CC1REMARK SMILES IDX 11 1 12 2 13 3 14 4 31 5 32 6 33 7 9 8 5 9 6 10 35 11 7 12REMARK SMILES IDX 34 13 8 14 10 15 4 16 2 17 1 18 3 19 15 21 17 22 16 23 18 25REMARK SMILES IDX 19 26 29 27 20 28 22 29 21 30 30 31 23 32 24 33 28 34 25 35REMARK SMILES IDX 27 36 26 37REMARK H PARENT 4 20 17 24USER                              x       y       z     vdW  Elec       q    TypeUSER                           _______ _______ _______ _____ _____    ______ ____ROOTATOM      1  C   UNL     1      28.082  34.409  22.403 -0.36 -0.00    +0.075 A  ATOM      2  C   UNL     1      27.189  34.455  21.329 -0.29 -0.01    +0.018 A  ATOM      3  C   UNL     1      27.250  35.518  20.423 -0.30 -0.01    +0.015 A  ATOM      4  C   UNL     1      28.192  36.542  20.608 -0.28 -0.01    +0.043 A  ATOM      5  C   UNL     1      29.081  36.489  21.690 -0.32 -0.00    +0.054 A  ATOM      6  C   UNL     1      29.011  35.430  22.589 -0.28 +0.01    +0.136 A  ATOM      7  F   UNL     1      29.858  35.404  23.626 -0.10 -0.09    -0.206 F  ENDROOTBRANCH   1   8ATOM      8  C   UNL     1      27.976  33.305  23.371 -0.27 +0.13    +0.256 C  ATOM      9  C   UNL     1      30.108  29.593  22.862 -0.51 -0.01    +0.085 C  ATOM     10  C   UNL     1      29.928  30.565  21.694 -0.49 -0.02    +0.046 C  ATOM     11  C   UNL     1      28.974  29.770  23.873 -0.62 +0.00    +0.046 C  ATOM     12  C   UNL     1      29.776  32.006  22.164 -0.22 -0.01    +0.122 C  ATOM     13  C   UNL     1      28.806  31.220  24.314 -0.43 +0.07    +0.122 C  ATOM     14  N   UNL     1      28.740  32.149  23.189 -0.19 -0.09    -0.338 N  ATOM     15  O   UNL     1      27.169  33.458  24.286 -0.73 -0.35    -0.269 OA BRANCH   9  16ATOM     16  N   UNL     1      31.417  29.728  23.492 -0.30 -0.05    -0.353 N  ATOM     17  C   UNL     1      32.543  30.032  22.755 -0.48 +0.01    +0.217 C  ATOM     18  C   UNL     1      33.777  30.232  23.591 -0.20 +0.01    +0.114 C  ATOM     19  O   UNL     1      32.547  30.155  21.536 -1.02 -0.02    -0.275 OA ATOM     20  H   UNL     1      31.468  29.842  24.497 +0.13 +0.08    +0.163 HD ENDBRANCH   9  16ENDBRANCH   1   8BRANCH   4  21ATOM     21  C   UNL     1      28.306  37.686  19.661 -0.20 +0.03    +0.255 C  ATOM     22  N   UNL     1      29.595  38.103  19.398 -0.18 -0.07    -0.319 N  ATOM     23  O   UNL     1      27.274  38.139  19.182 -0.15 -0.02    -0.269 OA ATOM     24  H   UNL     1      30.365  37.559  19.772 +0.11 +0.04    +0.170 HD BRANCH  22  25ATOM     25  C   UNL     1      30.000  39.175  18.569 -0.31 +0.01    +0.079 A  ATOM     26  C   UNL     1      29.434  39.465  17.333 -0.31 +0.01    +0.029 A  ATOM     27  C   UNL     1      31.045  39.989  19.049 -0.23 +0.01    +0.169 A  ATOM     28  C   UNL     1      29.911  40.547  16.595 -0.38 -0.00    +0.005 A  ATOM     29  C   UNL     1      31.561  41.089  18.329 -0.30 -0.01    +0.075 A  ATOM     30  C   UNL     1      30.954  41.341  17.087 -0.30 -0.01    +0.029 A  ATOM     31  F   UNL     1      31.571  39.659  20.244 -0.13 -0.05    -0.202 F  BRANCH  29  32ATOM     32  N   UNL     1      32.585  41.903  18.796 -0.14 +0.03    -0.364 N  ATOM     33  C   UNL     1      33.973  41.755  18.329 -0.36 -0.03    +0.145 C  ATOM     34  C   UNL     1      32.307  43.110  19.594 -0.33 +0.00    +0.145 C  ATOM     35  C   UNL     1      34.935  42.416  19.333 -0.35 -0.02    +0.181 C  ATOM     36  C   UNL     1      33.342  44.206  19.285 -0.37 -0.03    +0.181 C  ATOM     37  O   UNL     1      34.698  43.815  19.541 -0.21 +0.05    -0.378 OA ENDBRANCH  29  32ENDBRANCH  22  25ENDBRANCH   4  21TORSDOF 5TERENDMDL