REMARK SMILES O=C(Nc1cccc(-c2cn3ccccc3n2)c1CCN1CCOCC1)c1ccc(N2CCOCC2)cc1
REMARK SMILES IDX 4 1 5 2 6 3 7 4 8 5 18 6 3 7 2 8 1 9 27 11 28 12 38 13 29 14
REMARK SMILES IDX 37 15 30 16 31 17 32 18 36 19 33 20 35 21 34 22 19 23 20 24
REMARK SMILES IDX 21 25 22 26 26 27 23 28 25 29 24 30 9 31 10 32 17 33 11 34
REMARK SMILES IDX 16 35 12 36 15 37 13 38 14 39
REMARK H PARENT 3 10
ROOT
ATOM      1  C   UNL     1      -0.475   2.634  -1.252  1.00  0.00     0.045 A 
ATOM      2  C   UNL     1      -0.438   3.926  -1.793  1.00  0.00     0.026 A 
ATOM      3  C   UNL     1      -1.609   4.649  -2.021  1.00  0.00     0.003 A 
ATOM      4  C   UNL     1      -2.841   4.090  -1.705  1.00  0.00     0.011 A 
ATOM      5  C   UNL     1      -2.913   2.800  -1.167  1.00  0.00     0.007 A 
ATOM      6  C   UNL     1      -1.733   2.044  -0.950  1.00  0.00    -0.014 A 
ENDROOT
BRANCH   1   7
ATOM      7  N   UNL     1       0.710   1.898  -1.005  1.00  0.00    -0.322 N 
ATOM      8  C   UNL     1       2.022   2.311  -1.142  1.00  0.00     0.255 C 
ATOM      9  O   UNL     1       2.425   3.424  -1.453  1.00  0.00    -0.269 OA
ATOM     10  H   UNL     1       0.587   0.980  -0.605  1.00  0.00     0.170 HD
BRANCH   8  11
ATOM     11  C   UNL     1       3.030   1.260  -0.820  1.00  0.00     0.040 A 
ATOM     12  C   UNL     1       2.828  -0.081  -1.152  1.00  0.00     0.016 A 
ATOM     13  C   UNL     1       4.208   1.631  -0.175  1.00  0.00     0.016 A 
ATOM     14  C   UNL     1       3.792  -1.040  -0.810  1.00  0.00     0.027 A 
ATOM     15  C   UNL     1       5.162   0.659   0.160  1.00  0.00     0.027 A 
ATOM     16  C   UNL     1       4.981  -0.700  -0.143  1.00  0.00     0.037 A 
BRANCH  16  17
ATOM     17  N   UNL     1       5.923  -1.653   0.197  1.00  0.00    -0.367 N 
ATOM     18  C   UNL     1       5.611  -3.091   0.232  1.00  0.00     0.145 C 
ATOM     19  C   UNL     1       7.332  -1.302   0.453  1.00  0.00     0.145 C 
ATOM     20  C   UNL     1       6.600  -3.828   1.153  1.00  0.00     0.181 C 
ATOM     21  C   UNL     1       8.247  -2.475   0.059  1.00  0.00     0.181 C 
ATOM     22  O   UNL     1       7.976  -3.691   0.769  1.00  0.00    -0.378 OA
ENDBRANCH  16  17
ENDBRANCH   8  11
ENDBRANCH   1   7
BRANCH   6  23
ATOM     23  C   UNL     1      -1.832   0.634  -0.386  1.00  0.00     0.054 C 
BRANCH  23  24
ATOM     24  C   UNL     1      -1.593   0.613   1.137  1.00  0.00     0.089 C 
BRANCH  24  25
ATOM     25  N   UNL     1      -1.610  -0.701   1.786  1.00  0.00    -0.298 NA
ATOM     26  C   UNL     1      -2.888  -1.427   1.673  1.00  0.00     0.113 C 
ATOM     27  C   UNL     1      -0.458  -1.553   1.449  1.00  0.00     0.113 C 
ATOM     28  C   UNL     1      -2.806  -2.668   0.768  1.00  0.00     0.175 C 
ATOM     29  C   UNL     1      -0.707  -3.008   1.877  1.00  0.00     0.175 C 
ATOM     30  O   UNL     1      -1.806  -3.610   1.179  1.00  0.00    -0.379 OA
ENDBRANCH  24  25
ENDBRANCH  23  24
ENDBRANCH   6  23
BRANCH   5  31
ATOM     31  C   UNL     1      -4.227   2.276  -0.863  1.00  0.00     0.090 A 
ATOM     32  C   UNL     1      -4.890   2.450   0.332  1.00  0.00     0.121 A 
ATOM     33  N   UNL     1      -4.956   1.510  -1.737  1.00  0.00    -0.229 NA
ATOM     34  N   UNL     1      -6.074   1.772   0.185  1.00  0.00    -0.306 N 
ATOM     35  C   UNL     1      -6.064   1.216  -1.091  1.00  0.00     0.137 A 
ATOM     36  C   UNL     1      -7.122   1.609   1.089  1.00  0.00     0.093 A 
ATOM     37  C   UNL     1      -7.198   0.445  -1.471  1.00  0.00     0.048 A 
ATOM     38  C   UNL     1      -8.187   0.873   0.728  1.00  0.00     0.018 A 
ATOM     39  C   UNL     1      -8.214   0.277  -0.600  1.00  0.00     0.005 A 
ENDBRANCH   5  31
TORSDOF 7
