MODEL        4USER    Run = 4USERUSER    Estimated Free Energy of Binding    = -10.02 kcal/mol  [=(1)+(2)+(3)-(4)]USERUSER    (1) Final Intermolecular Energy     = -12.71 kcal/molUSER        vdW + Hbond + desolv Energy     = -12.28 kcal/molUSER        Electrostatic Energy            =  -0.43 kcal/molUSER        Moving Ligand-Fixed Receptor    = -12.71 kcal/molUSER        Moving Ligand-Moving Receptor   =  +0.00 kcal/molUSER    (2) Final Total Internal Energy     =  -1.85 kcal/molUSER    (3) Torsional Free Energy           =  +2.68 kcal/molUSER    (4) Unbound System's Energy         =  -1.85 kcal/molUSERUSERREMARK SMILES CC[C@H]1NC=Nc2c(Nc3ccccc3F)nc(N3CC[C@H](CN4CCN(CC(=O)O)CC4)C3)nc21REMARK SMILES IDX 23 1 22 2 19 3 20 4 34 5 21 6 18 7 3 8 4 9 36 10 5 11 35 12REMARK SMILES IDX 7 13 6 14 8 15 17 16 2 18 1 19 9 20 10 22 11 23 15 24 12 25REMARK SMILES IDX 14 26 13 27 16 28 24 29 25 30 33 31 26 32 32 33 27 34 28 35REMARK SMILES IDX 29 36 30 37 31 38REMARK H PARENT 4 17 9 21 31 39USER                              x       y       z     vdW  Elec       q    TypeUSER                           _______ _______ _______ _____ _____    ______ ____ROOTATOM      1  C   UNL     1      32.935  44.273  17.449 -0.31 -0.03    +0.090 C  ENDROOTBRANCH   1   2ATOM      2  C   UNL     1      33.978  43.137  17.550 -0.38 -0.01    +0.024 C  ATOM      3  N   UNL     1      35.992  44.294  17.861 -0.09 +0.10    -0.340 N  ATOM      4  C   UNL     1      35.950  44.017  16.435 -0.33 -0.05    +0.120 C  ATOM      5  C   UNL     1      35.049  43.478  18.603 -0.32 -0.03    +0.124 C  ATOM      6  C   UNL     1      34.853  42.955  16.302 -0.46 -0.01    +0.028 C  BRANCH   3   7ATOM      7  C   UNL     1      37.153  44.718  18.451 -0.20 -0.05    +0.227 A  ATOM      8  C   UNL     1      40.386  46.114  17.369 -0.43 -0.01    +0.131 C  ATOM      9  N   UNL     1      41.678  46.071  18.044 -0.20 +0.00    -0.368 N  ATOM     10  C   UNL     1      39.291  45.559  18.260 -0.36 -0.01    +0.096 A  ATOM     11  C   UNL     1      41.725  46.091  19.405 -0.37 +0.02    +0.193 C  ATOM     12  N   UNL     1      38.133  45.181  17.664 -0.24 +0.05    -0.213 NA ATOM     13  C   UNL     1      39.513  45.497  19.626 -0.32 -0.00    +0.131 A  ATOM     14  N   UNL     1      40.753  45.850  20.214 -0.24 -0.01    -0.234 NA ATOM     15  C   UNL     1      38.422  45.037  20.359 -0.21 -0.00    +0.162 A  ATOM     16  N   UNL     1      37.267  44.629  19.784 -0.24 +0.01    -0.193 NA ATOM     17  H   UNL     1      42.467  46.450  17.535 -0.38 -0.05    +0.162 HD BRANCH   8  18ATOM     18  C   UNL     1      40.041  47.557  16.956 -0.53 -0.01    +0.028 C  ATOM     19  C   UNL     1      40.444  47.881  15.523 -0.61 -0.00    +0.006 C  ENDBRANCH   8  18BRANCH  15  20ATOM     20  N   UNL     1      38.449  44.916  21.769 -0.17 -0.02    -0.336 N  ATOM     21  H   UNL     1      39.440  44.892  21.997 +0.09 +0.01    +0.168 HD BRANCH  20  22ATOM     22  C   UNL     1      37.767  43.927  22.522 -0.31 +0.01    +0.076 A  ATOM     23  C   UNL     1      37.568  44.163  23.890 -0.31 +0.00    +0.029 A  ATOM     24  C   UNL     1      37.396  42.673  22.013 -0.33 +0.01    +0.146 A  ATOM     25  C   UNL     1      36.961  43.203  24.705 -0.38 +0.00    +0.002 A  ATOM     26  C   UNL     1      36.791  41.711  22.820 -0.49 +0.00    +0.041 A  ATOM     27  C   UNL     1      36.567  41.978  24.168 -0.41 +0.00    +0.003 A  ATOM     28  F   UNL     1      37.644  42.351  20.732 +0.06 -0.00    -0.205 F  ENDBRANCH  20  22ENDBRANCH  15  20ENDBRANCH   3   7ENDBRANCH   1   2BRANCH   1  29ATOM     29  N   UNL     1      32.276  44.382  16.133 -0.16 +0.14    -0.300 NA ATOM     30  C   UNL     1      32.783  45.503  15.318 -0.32 -0.09    +0.100 C  ATOM     31  C   UNL     1      30.804  44.457  16.269 -0.30 -0.03    +0.100 C  ATOM     32  C   UNL     1      31.801  45.922  14.200 -0.48 -0.07    +0.100 C  ATOM     33  C   UNL     1      30.205  45.863  16.040 -0.27 -0.01    +0.100 C  ATOM     34  N   UNL     1      30.520  46.455  14.723 -0.48 +0.12    -0.291 NA BRANCH  34  35ATOM     35  C   UNL     1      29.413  46.241  13.762 -0.16 -0.15    +0.207 C  BRANCH  35  36ATOM     36  C   UNL     1      29.742  46.702  12.344 -0.38 -0.19    +0.317 C  ATOM     37  O   UNL     1      29.396  47.716  11.761 -0.87 +0.03    -0.251 OA BRANCH  36  38ATOM     38  O   UNL     1      30.539  45.812  11.710 -0.14 +0.36    -0.480 OA ATOM     39  H   UNL     1      30.158  44.946  11.965 -0.24 -0.47    +0.296 HD ENDBRANCH  36  38ENDBRANCH  35  36ENDBRANCH  34  35ENDBRANCH   1  29TORSDOF 9TERENDMDL