MODEL        7USER    Run = 7USERUSER    Estimated Free Energy of Binding    =  -7.73 kcal/mol  [=(1)+(2)+(3)-(4)]USERUSER    (1) Final Intermolecular Energy     =  -9.82 kcal/molUSER        vdW + Hbond + desolv Energy     =  -9.78 kcal/molUSER        Electrostatic Energy            =  -0.04 kcal/molUSER        Moving Ligand-Fixed Receptor    =  -9.82 kcal/molUSER        Moving Ligand-Moving Receptor   =  +0.00 kcal/molUSER    (2) Final Total Internal Energy     =  -3.39 kcal/molUSER    (3) Torsional Free Energy           =  +2.09 kcal/molUSER    (4) Unbound System's Energy         =  -3.39 kcal/molUSERUSERREMARK SMILES Nc1ncc(N2CC[C@H](CF)C2)c(-c2cc(F)ccc2C(=O)c2ccc(F)cc2O)n1REMARK SMILES IDX 14 1 15 2 16 3 17 4 18 5 19 6 20 7 13 8 2 9 3 10 31 11 4 12REMARK SMILES IDX 5 13 1 14 6 17 7 18 12 19 8 20 9 21 10 22 11 23 21 24 22 25REMARK SMILES IDX 23 26 24 27 29 28 25 29 28 30 26 31 27 32 30 33REMARK H PARENT 1 15 1 16 30 34USER                              x       y       z     vdW  Elec       q    TypeUSER                           _______ _______ _______ _____ _____    ______ ____ROOTATOM      1  C   UNL     1      37.575  44.026  23.321 -0.33 +0.00    +0.017 A  ATOM      2  C   UNL     1      37.309  43.781  21.962 -0.36 +0.00    +0.050 A  ATOM      3  C   UNL     1      36.808  42.550  21.549 -0.38 +0.01    +0.123 A  ATOM      4  F   UNL     1      36.571  42.338  20.248 -0.11 +0.01    -0.207 F  ATOM      5  C   UNL     1      36.552  41.533  22.462 -0.52 +0.00    +0.040 A  ATOM      6  C   UNL     1      36.797  41.751  23.815 -0.41 +0.00    +0.016 A  ATOM      7  C   UNL     1      37.290  42.995  24.237 -0.35 +0.00    +0.032 A  ENDROOTBRANCH   1   8ATOM      8  C   UNL     1      38.087  45.340  23.747 -0.23 +0.01    +0.100 A  ATOM      9  C   UNL     1      37.674  47.062  25.212 -0.16 +0.03    +0.220 A  ATOM     10  N   UNL     1      38.579  47.849  24.646 -0.30 -0.03    -0.220 NA ATOM     11  N   UNL     1      37.395  45.826  24.812 -0.69 -0.04    -0.211 NA ATOM     12  C   UNL     1      39.252  47.326  23.596 -0.23 +0.02    +0.143 A  ATOM     13  C   UNL     1      39.098  46.046  23.078 -0.27 +0.01    +0.082 A  BRANCH   9  14ATOM     14  N   UNL     1      37.007  47.543  26.318 -0.17 +0.03    -0.368 N  ATOM     15  H   UNL     1      37.656  47.628  27.089 +0.07 -0.02    +0.159 HD ATOM     16  H   UNL     1      36.173  46.998  26.481 -0.43 -0.05    +0.159 HD ENDBRANCH   9  14BRANCH  13  17ATOM     17  N   UNL     1      39.842  45.559  22.012 -0.11 -0.02    -0.368 N  ATOM     18  C   UNL     1      41.315  45.581  22.098 -0.23 +0.01    +0.117 C  ATOM     19  C   UNL     1      39.428  45.772  20.619 -0.22 +0.00    +0.123 C  ATOM     20  C   UNL     1      41.788  45.800  20.658 -0.39 +0.00    +0.029 C  ATOM     21  C   UNL     1      40.630  45.263  19.824 -0.44 +0.00    +0.041 C  BRANCH  21  22ATOM     22  C   UNL     1      40.636  45.742  18.388 -0.38 -0.01    +0.220 C  ATOM     23  F   UNL     1      41.516  46.767  18.249 -0.13 +0.01    -0.251 F  ENDBRANCH  21  22ENDBRANCH  13  17ENDBRANCH   1   8BRANCH   7  24ATOM     24  C   UNL     1      37.571  43.163  25.673 -0.23 -0.01    +0.197 C  ATOM     25  O   UNL     1      38.743  43.098  26.041 -0.11 +0.01    -0.288 OA BRANCH  24  26ATOM     26  C   UNL     1      36.478  43.366  26.665 -0.36 -0.01    +0.065 A  ATOM     27  C   UNL     1      35.411  42.460  26.777 -0.51 -0.00    +0.019 A  ATOM     28  C   UNL     1      36.505  44.491  27.507 -0.34 -0.03    +0.129 A  ATOM     29  C   UNL     1      34.396  42.682  27.713 -0.33 -0.01    +0.040 A  ATOM     30  C   UNL     1      35.495  44.709  28.442 -0.44 -0.02    +0.086 A  ATOM     31  C   UNL     1      34.450  43.801  28.535 -0.49 -0.03    +0.126 A  ATOM     32  F   UNL     1      33.472  44.008  29.428 -0.21 +0.03    -0.207 F  BRANCH  28  33ATOM     33  O   UNL     1      37.503  45.429  27.469 -0.11 +0.07    -0.507 OA ATOM     34  H   UNL     1      38.139  45.167  26.765 +0.14 -0.02    +0.293 HD ENDBRANCH  28  33ENDBRANCH  24  26ENDBRANCH   7  24TORSDOF 7TERENDMDL