REMARK SMILES Nc1ncc(N2CC[C@H](CF)C2)c(-c2cc(F)ccc2C(=O)c2ccc(F)cc2O)n1
REMARK SMILES IDX 14 1 15 2 16 3 17 4 18 5 19 6 20 7 13 8 2 9 3 10 31 11 4 12
REMARK SMILES IDX 5 13 1 14 6 17 7 18 12 19 8 20 9 21 10 22 11 23 21 24 22 25
REMARK SMILES IDX 23 26 24 27 29 28 25 29 28 30 26 31 27 32 30 33
REMARK H PARENT 1 15 1 16 30 34
ROOT
ATOM      1  C   UNL     1       0.545  -1.311   0.268  1.00  0.00     0.017 A 
ATOM      2  C   UNL     1       0.206  -2.672   0.370  1.00  0.00     0.050 A 
ATOM      3  C   UNL     1       0.796  -3.614  -0.468  1.00  0.00     0.123 A 
ATOM      4  F   UNL     1       0.450  -4.903  -0.357  1.00  0.00    -0.207 F 
ATOM      5  C   UNL     1       1.735  -3.241  -1.423  1.00  0.00     0.040 A 
ATOM      6  C   UNL     1       2.096  -1.902  -1.541  1.00  0.00     0.016 A 
ATOM      7  C   UNL     1       1.514  -0.951  -0.689  1.00  0.00     0.032 A 
ENDROOT
BRANCH   1   8
ATOM      8  C   UNL     1      -0.072  -0.327   1.174  1.00  0.00     0.100 A 
ATOM      9  C   UNL     1       0.377   0.987   3.005  1.00  0.00     0.220 A 
ATOM     10  N   UNL     1      -0.897   1.322   3.160  1.00  0.00    -0.220 NA
ATOM     11  N   UNL     1       0.834   0.184   2.050  1.00  0.00    -0.211 NA
ATOM     12  C   UNL     1      -1.765   0.801   2.263  1.00  0.00     0.143 A 
ATOM     13  C   UNL     1      -1.442  -0.026   1.194  1.00  0.00     0.082 A 
BRANCH   9  14
ATOM     14  N   UNL     1       1.296   1.542   3.869  1.00  0.00    -0.368 N 
ATOM     15  H   UNL     1       0.916   2.395   4.258  1.00  0.00     0.159 HD
ATOM     16  H   UNL     1       2.197   1.608   3.418  1.00  0.00     0.159 HD
ENDBRANCH   9  14
BRANCH  13  17
ATOM     17  N   UNL     1      -2.380  -0.507   0.291  1.00  0.00    -0.368 N 
ATOM     18  C   UNL     1      -2.080  -0.445  -1.153  1.00  0.00     0.117 C 
ATOM     19  C   UNL     1      -3.822  -0.324   0.501  1.00  0.00     0.123 C 
ATOM     20  C   UNL     1      -3.439  -0.233  -1.826  1.00  0.00     0.029 C 
ATOM     21  C   UNL     1      -4.424  -0.812  -0.816  1.00  0.00     0.041 C 
BRANCH  21  22
ATOM     22  C   UNL     1      -5.852  -0.352  -1.020  1.00  0.00     0.220 C 
ATOM     23  F   UNL     1      -5.914   1.003  -0.943  1.00  0.00    -0.251 F 
ENDBRANCH  21  22
ENDBRANCH  13  17
ENDBRANCH   1   8
BRANCH   7  24
ATOM     24  C   UNL     1       1.899   0.458  -0.879  1.00  0.00     0.197 C 
ATOM     25  O   UNL     1       1.242   1.131  -1.672  1.00  0.00    -0.288 OA
BRANCH  24  26
ATOM     26  C   UNL     1       3.068   1.051  -0.172  1.00  0.00     0.065 A 
ATOM     27  C   UNL     1       3.835   0.302   0.735  1.00  0.00     0.019 A 
ATOM     28  C   UNL     1       3.414   2.393  -0.408  1.00  0.00     0.129 A 
ATOM     29  C   UNL     1       4.923   0.890   1.388  1.00  0.00     0.040 A 
ATOM     30  C   UNL     1       4.500   2.977   0.241  1.00  0.00     0.086 A 
ATOM     31  C   UNL     1       5.244   2.218   1.134  1.00  0.00     0.126 A 
ATOM     32  F   UNL     1       6.286   2.774   1.766  1.00  0.00    -0.207 F 
BRANCH  28  33
ATOM     33  O   UNL     1       2.724   3.202  -1.272  1.00  0.00    -0.507 OA
ATOM     34  H   UNL     1       1.977   2.680  -1.645  1.00  0.00     0.293 HD
ENDBRANCH  28  33
ENDBRANCH  24  26
ENDBRANCH   7  24
TORSDOF 7
