MODEL        1USER    Run = 1USERUSER    Estimated Free Energy of Binding    = -10.62 kcal/mol  [=(1)+(2)+(3)-(4)]USERUSER    (1) Final Intermolecular Energy     = -13.01 kcal/molUSER        vdW + Hbond + desolv Energy     = -12.66 kcal/molUSER        Electrostatic Energy            =  -0.35 kcal/molUSER        Moving Ligand-Fixed Receptor    = -13.01 kcal/molUSER        Moving Ligand-Moving Receptor   =  +0.00 kcal/molUSER    (2) Final Total Internal Energy     =  -1.57 kcal/molUSER    (3) Torsional Free Energy           =  +2.39 kcal/molUSER    (4) Unbound System's Energy         =  -1.57 kcal/molUSERUSERREMARK SMILES CN(C)c1cc(CN[C@H]2C[C@H](O)CC[C@@H]2n2cnc3c(N)ncnc32)ccc1OREMARK SMILES IDX 8 1 7 3 6 4 4 5 5 6 28 7 27 8 26 9 2 10 1 11 3 12 29 13 9 15REMARK SMILES IDX 10 16 15 17 11 18 14 19 13 20 16 21 17 22 25 23 18 24 24 25REMARK SMILES IDX 19 26 23 27 20 28 22 29 21 30 12 33REMARK H PARENT 8 2 29 14 21 31 21 32 12 34USER                              x       y       z     vdW  Elec       q    TypeUSER                           _______ _______ _______ _____ _____    ______ ____ROOTATOM      1  N   UNL     1      37.248  45.410  15.453 -0.14 +0.12    -0.308 NA ATOM      2  H   UNL     1      36.873  44.884  14.660 +0.08 -0.05    +0.123 HD ENDROOTBRANCH   1   3ATOM      3  C   UNL     1      37.642  44.422  16.466 -0.29 -0.03    +0.117 C  BRANCH   3   4ATOM      4  C   UNL     1      36.535  44.235  17.475 -0.31 +0.01    -0.032 A  ATOM      5  C   UNL     1      35.816  43.660  19.749 -0.35 -0.01    +0.079 A  ATOM      6  C   UNL     1      36.827  43.849  18.793 -0.27 -0.01    +0.035 A  ATOM      7  C   UNL     1      34.489  43.865  19.339 -0.30 -0.02    +0.138 A  ATOM      8  C   UNL     1      34.177  44.242  18.035 -0.29 -0.02    +0.049 A  ATOM      9  C   UNL     1      35.198  44.424  17.104 -0.30 -0.00    +0.009 A  BRANCH   5  10ATOM     10  N   UNL     1      36.207  43.277  21.038 -0.19 -0.01    -0.375 N  ATOM     11  C   UNL     1      37.264  44.081  21.640 -0.35 +0.01    +0.143 C  ATOM     12  C   UNL     1      36.219  41.841  21.291 -0.50 +0.00    +0.143 C  ENDBRANCH   5  10BRANCH   7  13ATOM     13  O   UNL     1      33.434  43.707  20.195 -0.65 -0.02    -0.506 OA ATOM     14  H   UNL     1      33.265  44.589  20.561 -0.19 -0.06    +0.293 HD ENDBRANCH   7  13ENDBRANCH   3   4ENDBRANCH   1   3BRANCH   1  15ATOM     15  C   UNL     1      38.393  46.233  15.000 -0.41 -0.03    +0.079 C  ATOM     16  C   UNL     1      38.274  46.420  13.478 -0.32 -0.01    +0.052 C  ATOM     17  C   UNL     1      38.432  47.618  15.725 -0.45 -0.05    +0.107 C  ATOM     18  C   UNL     1      37.067  47.264  13.061 -0.58 -0.04    +0.116 C  ATOM     19  C   UNL     1      38.049  48.805  14.821 -0.51 -0.02    +0.030 C  ATOM     20  C   UNL     1      36.825  48.471  13.973 -0.54 -0.02    +0.034 C  BRANCH  17  21ATOM     21  N   UNL     1      39.693  47.855  16.418 -0.26 +0.10    -0.310 N  ATOM     22  C   UNL     1      40.591  48.848  16.116 -0.41 -0.05    +0.202 A  ATOM     23  C   UNL     1      40.207  47.148  17.470 -0.36 -0.03    +0.165 A  ATOM     24  N   UNL     1      41.640  48.825  16.911 -0.84 -0.02    -0.231 NA ATOM     25  N   UNL     1      39.670  46.085  18.090 -0.30 +0.03    -0.217 NA ATOM     26  C   UNL     1      41.408  47.768  17.767 -0.39 -0.01    +0.150 A  ATOM     27  C   UNL     1      40.472  45.648  19.081 -0.30 -0.00    +0.226 A  ATOM     28  C   UNL     1      42.150  47.230  18.832 -0.42 +0.01    +0.155 A  ATOM     29  N   UNL     1      41.664  46.145  19.476 -0.30 -0.02    -0.217 NA BRANCH  28  30ATOM     30  N   UNL     1      43.373  47.746  19.246 -0.23 -0.05    -0.382 N  ATOM     31  H   UNL     1      43.639  48.563  18.711 -0.44 -0.01    +0.158 HD ATOM     32  H   UNL     1      43.470  47.788  20.254 -0.39 +0.01    +0.158 HD ENDBRANCH  28  30ENDBRANCH  17  21BRANCH  18  33ATOM     33  O   UNL     1      37.295  47.713  11.726 -0.93 +0.05    -0.393 OA ATOM     34  H   UNL     1      36.574  48.323  11.495 -0.23 -0.09    +0.210 HD ENDBRANCH  18  33ENDBRANCH   1  15TORSDOF 8TERENDMDL