REMARK SMILES CN(C)c1cc(CN[C@H]2C[C@H](O)CC[C@@H]2n2cnc3c(N)ncnc32)ccc1O
REMARK SMILES IDX 8 1 7 3 6 4 4 5 5 6 28 7 27 8 26 9 2 10 1 11 3 12 29 13 9 15
REMARK SMILES IDX 10 16 15 17 11 18 14 19 13 20 16 21 17 22 25 23 18 24 24 25
REMARK SMILES IDX 19 26 23 27 20 28 22 29 21 30 12 33
REMARK H PARENT 8 2 29 14 21 31 21 32 12 34
ROOT
ATOM      1  N   UNL     1       0.214  -0.822  -0.233  1.00  0.00    -0.308 NA
ATOM      2  H   UNL     1       0.750  -0.975  -1.091  1.00  0.00     0.123 HD
ENDROOT
BRANCH   1   3
ATOM      3  C   UNL     1       0.687   0.444   0.341  1.00  0.00     0.117 C 
BRANCH   3   4
ATOM      4  C   UNL     1       2.171   0.377   0.609  1.00  0.00    -0.032 A 
ATOM      5  C   UNL     1       4.461   1.033   0.024  1.00  0.00     0.079 A 
ATOM      6  C   UNL     1       3.076   1.085  -0.198  1.00  0.00     0.035 A 
ATOM      7  C   UNL     1       4.919   0.238   1.087  1.00  0.00     0.138 A 
ATOM      8  C   UNL     1       4.039  -0.477   1.895  1.00  0.00     0.049 A 
ATOM      9  C   UNL     1       2.668  -0.410   1.656  1.00  0.00     0.009 A 
BRANCH   5  10
ATOM     10  N   UNL     1       5.282   1.776  -0.833  1.00  0.00    -0.375 N 
ATOM     11  C   UNL     1       6.074   0.998  -1.778  1.00  0.00     0.143 C 
ATOM     12  C   UNL     1       5.898   2.960  -0.244  1.00  0.00     0.143 C 
ENDBRANCH   5  10
BRANCH   7  13
ATOM     13  O   UNL     1       6.249   0.123   1.385  1.00  0.00    -0.506 OA
ATOM     14  H   UNL     1       6.707   0.679   0.737  1.00  0.00     0.293 HD
ENDBRANCH   7  13
ENDBRANCH   3   4
ENDBRANCH   1   3
BRANCH   1  15
ATOM     15  C   UNL     1      -1.231  -0.784  -0.556  1.00  0.00     0.079 C 
ATOM     16  C   UNL     1      -1.525  -1.909  -1.563  1.00  0.00     0.052 C 
ATOM     17  C   UNL     1      -2.114  -0.946   0.725  1.00  0.00     0.107 C 
ATOM     18  C   UNL     1      -1.348  -3.312  -0.977  1.00  0.00     0.116 C 
ATOM     19  C   UNL     1      -2.828  -2.307   0.822  1.00  0.00     0.030 C 
ATOM     20  C   UNL     1      -1.881  -3.446   0.453  1.00  0.00     0.034 C 
BRANCH  17  21
ATOM     21  N   UNL     1      -3.043   0.163   0.910  1.00  0.00    -0.310 N 
ATOM     22  C   UNL     1      -3.086   0.988   2.006  1.00  0.00     0.202 A 
ATOM     23  C   UNL     1      -4.022   0.578   0.049  1.00  0.00     0.165 A 
ATOM     24  N   UNL     1      -4.024   1.906   1.898  1.00  0.00    -0.231 NA
ATOM     25  N   UNL     1      -4.345   0.056  -1.145  1.00  0.00    -0.217 NA
ATOM     26  C   UNL     1      -4.613   1.663   0.674  1.00  0.00     0.150 A 
ATOM     27  C   UNL     1      -5.373   0.726  -1.702  1.00  0.00     0.226 A 
ATOM     28  C   UNL     1      -5.667   2.289  -0.013  1.00  0.00     0.155 A 
ATOM     29  N   UNL     1      -6.046   1.789  -1.210  1.00  0.00    -0.217 NA
BRANCH  28  30
ATOM     30  N   UNL     1      -6.355   3.388   0.488  1.00  0.00    -0.382 N 
ATOM     31  H   UNL     1      -7.277   3.475   0.081  1.00  0.00     0.158 HD
ATOM     32  H   UNL     1      -6.270   3.490   1.493  1.00  0.00     0.158 HD
ENDBRANCH  28  30
ENDBRANCH  17  21
BRANCH  18  33
ATOM     33  O   UNL     1      -2.036  -4.226  -1.830  1.00  0.00    -0.393 OA
ATOM     34  H   UNL     1      -1.840  -5.125  -1.515  1.00  0.00     0.210 HD
ENDBRANCH  18  33
ENDBRANCH   1  15
TORSDOF 8
