MODEL        7USER    Run = 7USERUSER    Estimated Free Energy of Binding    =  -7.74 kcal/mol  [=(1)+(2)+(3)-(4)]USERUSER    (1) Final Intermolecular Energy     = -11.92 kcal/molUSER        vdW + Hbond + desolv Energy     = -11.55 kcal/molUSER        Electrostatic Energy            =  -0.49 kcal/molUSER        Moving Ligand-Fixed Receptor    = -12.04 kcal/molUSER        Moving Ligand-Moving Receptor   =  +0.12 kcal/molUSER    (2) Final Total Internal Energy     =  -2.34 kcal/molUSER    (3) Torsional Free Energy           =  +4.18 kcal/molUSER    (4) Unbound System's Energy         =  -2.34 kcal/molUSERUSERREMARK SMILES COc1ccc(O)c(C(=O)c2ccc(C(=O)N[C@@H]3CCCNC[C@H]3NC(=O)c3ccncc3)cc2)c1REMARK SMILES IDX 15 1 16 2 17 3 14 5 11 6 12 7 35 8 13 9 34 10 9 11 10 12REMARK SMILES IDX 8 13 3 14 4 15 36 16 5 17 6 18 2 19 1 20 7 21 18 23 19 24REMARK SMILES IDX 24 26 23 27 22 28 21 30 20 31 25 33 26 34 27 36 28 37 29 38REMARK SMILES IDX 33 39 30 40 32 41 31 42REMARK H PARENT 17 4 7 22 22 29 25 35REMARK Flexibility Score:   88.900USER                              x       y       z     vdW  Elec       q    TypeUSER                           _______ _______ _______ _____ _____    ______ ____ROOTATOM      1  C   UNL     1      36.620  44.287  18.477 -0.23 -0.05    +0.251 C  ATOM      2  O   UNL     1      36.389  43.082  18.490 -0.12 +0.05    -0.269 OA ATOM      3  N   UNL     1      35.641  45.236  18.245 -0.13 +0.13    -0.347 N  ATOM      4  H   UNL     1      35.812  46.197  18.509 +0.09 -0.06    +0.164 HD ENDROOTBRANCH   1   5ATOM      5  C   UNL     1      38.004  44.783  18.718 -0.35 -0.01    +0.039 A  ATOM      6  C   UNL     1      40.558  45.874  19.185 -0.44 -0.00    +0.023 A  ATOM      7  C   UNL     1      39.705  46.456  18.241 -0.41 -0.00    +0.013 A  ATOM      8  C   UNL     1      40.129  44.738  19.885 -0.39 +0.00    +0.013 A  ATOM      9  C   UNL     1      38.439  45.910  18.008 -0.37 -0.00    +0.014 A  ATOM     10  C   UNL     1      38.857  44.201  19.662 -0.27 -0.00    +0.014 A  BRANCH   6  11ATOM     11  C   UNL     1      41.892  46.443  19.527 -0.38 +0.02    +0.196 C  ATOM     12  O   UNL     1      42.753  46.602  18.661 -0.35 -0.04    -0.288 OA BRANCH  11  13ATOM     13  C   UNL     1      42.247  46.757  20.923 -0.28 +0.01    +0.068 A  ATOM     14  C   UNL     1      41.548  46.888  23.228 -0.17 +0.01    +0.119 A  ATOM     15  C   UNL     1      42.830  47.342  23.566 -0.22 +0.01    +0.050 A  ATOM     16  C   UNL     1      41.260  46.578  21.902 -0.12 +0.01    +0.062 A  ATOM     17  C   UNL     1      43.820  47.498  22.591 -0.29 +0.01    +0.051 A  ATOM     18  C   UNL     1      43.524  47.204  21.265 -0.25 +0.04    +0.127 A  BRANCH  14  19ATOM     19  O   UNL     1      40.680  46.788  24.282 -0.01 -0.04    -0.497 OA ATOM     20  C   UNL     1      39.404  47.396  24.120 -0.24 +0.03    +0.278 C  ENDBRANCH  14  19BRANCH  18  21ATOM     21  O   UNL     1      44.481  47.365  20.301 -0.31 -0.43    -0.507 OA ATOM     22  H   UNL     1      44.134  47.971  19.618 -0.35 +0.04    +0.293 HD ENDBRANCH  18  21ENDBRANCH  11  13ENDBRANCH   6  11ENDBRANCH   1   5BRANCH   3  23ATOM     23  C   UNL     1      34.249  44.847  18.008 -0.34 -0.05    +0.106 C  BRANCH  23  24ATOM     24  C   UNL     1      33.780  43.947  19.162 -0.45 -0.01    +0.028 CG0ATOM     25  G   UNL     1      32.287  44.030  19.499 +0.00 +0.00    +0.000 G0 ENDBRANCH  23  24BRANCH  23  26ATOM     26  C   UNL     1      34.028  44.303  16.561 -0.29 -0.06    +0.118 C  BRANCH  26  27ATOM     27  C   UNL     1      32.533  43.980  16.254 -0.31 -0.05    +0.108 C  BRANCH  27  28ATOM     28  N   UNL     1      31.485  44.457  17.175 -0.33 +0.06    -0.315 NA ATOM     29  H   UNL     1      31.721  45.411  17.453 +0.10 +0.01    +0.122 HD BRANCH  28  30ATOM     30  C   UNL     1      31.329  43.634  18.366 -0.25 -0.01    +0.081 C  BRANCH  30  31ATOM     31  C   UNL     1      32.287  44.029  19.500 -0.41 -0.00    +0.017 CG0ATOM     32  G   UNL     1      33.780  43.948  19.162 +0.00 +0.00    +0.000 G0 ENDBRANCH  30  31ENDBRANCH  28  30ENDBRANCH  27  28ENDBRANCH  26  27BRANCH  26  33ATOM     33  N   UNL     1      34.667  45.189  15.569 -0.11 +0.25    -0.346 N  ATOM     34  C   UNL     1      35.918  44.929  15.048 -0.23 -0.12    +0.251 C  ATOM     35  H   UNL     1      34.399  46.163  15.617 +0.00 -0.22    +0.164 HD ATOM     36  O   UNL     1      36.529  43.884  15.230 -0.30 +0.09    -0.269 OA BRANCH  34  37ATOM     37  C   UNL     1      36.541  46.018  14.243 -0.39 -0.02    +0.042 A  ATOM     38  C   UNL     1      37.408  46.899  14.891 -0.40 -0.02    +0.034 A  ATOM     39  C   UNL     1      36.297  46.175  12.878 -0.55 -0.02    +0.034 A  ATOM     40  C   UNL     1      37.974  47.918  14.153 -0.44 -0.05    +0.112 A  ATOM     41  C   UNL     1      36.916  47.228  12.228 -0.57 -0.04    +0.112 A  ATOM     42  N   UNL     1      37.743  48.105  12.835 -0.69 +0.02    -0.265 NA ENDBRANCH  34  37ENDBRANCH  26  33ENDBRANCH  23  26ENDBRANCH   3  23TORSDOF 8TERENDMDL