MODEL        2USER    Run = 2USERUSER    Estimated Free Energy of Binding    =  -9.33 kcal/mol  [=(1)+(2)+(3)-(4)]USERUSER    (1) Final Intermolecular Energy     = -11.71 kcal/molUSER        vdW + Hbond + desolv Energy     = -11.51 kcal/molUSER        Electrostatic Energy            =  -0.20 kcal/molUSER        Moving Ligand-Fixed Receptor    = -11.71 kcal/molUSER        Moving Ligand-Moving Receptor   =  +0.00 kcal/molUSER    (2) Final Total Internal Energy     =  -2.24 kcal/molUSER    (3) Torsional Free Energy           =  +2.39 kcal/molUSER    (4) Unbound System's Energy         =  -2.24 kcal/molUSERUSERREMARK SMILES COc1cc(CN[C@H]2C[C@H](O)CC[C@@H]2n2cnc3c(N)ncnc32)ccc1OREMARK SMILES IDX 7 1 6 3 5 4 3 5 4 6 27 7 26 8 25 9 2 10 1 11 28 12 8 14 9 15REMARK SMILES IDX 14 16 10 17 13 18 12 19 15 20 16 21 24 22 17 23 23 24 18 25REMARK SMILES IDX 22 26 19 27 21 28 20 29 11 32REMARK H PARENT 7 2 28 13 20 30 20 31 11 33USER                              x       y       z     vdW  Elec       q    TypeUSER                           _______ _______ _______ _____ _____    ______ ____ROOTATOM      1  N   UNL     1      36.630  47.004  16.758 -0.08 +0.25    -0.308 NA ATOM      2  H   UNL     1      37.162  46.825  17.618 +0.06 -0.06    +0.123 HD ENDROOTBRANCH   1   3ATOM      3  C   UNL     1      35.397  46.211  16.889 -0.34 -0.10    +0.117 C  BRANCH   3   4ATOM      4  C   UNL     1      35.461  45.154  17.964 -0.33 +0.01    -0.030 A  ATOM      5  C   UNL     1      34.346  43.684  19.550 -0.29 -0.02    +0.160 A  ATOM      6  C   UNL     1      34.282  44.654  18.549 -0.34 -0.02    +0.055 A  ATOM      7  C   UNL     1      35.601  43.219  19.959 -0.32 -0.01    +0.157 A  ATOM      8  C   UNL     1      36.776  43.696  19.394 -0.32 -0.01    +0.050 A  ATOM      9  C   UNL     1      36.706  44.664  18.394 -0.34 -0.00    +0.009 A  BRANCH   5  10ATOM     10  O   UNL     1      33.279  43.119  20.201 -0.68 -0.10    -0.493 OA ATOM     11  C   UNL     1      31.988  43.602  19.847 -0.23 +0.01    +0.278 C  ENDBRANCH   5  10BRANCH   7  12ATOM     12  O   UNL     1      35.696  42.270  20.941 -0.18 -0.02    -0.504 OA ATOM     13  H   UNL     1      34.784  41.944  21.064 +0.20 +0.04    +0.293 HD ENDBRANCH   7  12ENDBRANCH   3   4ENDBRANCH   1   3BRANCH   1  14ATOM     14  C   UNL     1      37.453  46.613  15.587 -0.40 -0.04    +0.079 C  ATOM     15  C   UNL     1      36.567  45.939  14.521 -0.43 -0.03    +0.052 C  ATOM     16  C   UNL     1      38.194  47.863  15.005 -0.49 -0.06    +0.107 C  ATOM     17  C   UNL     1      35.956  46.950  13.555 -0.50 -0.07    +0.116 C  ATOM     18  C   UNL     1      38.383  47.757  13.485 -0.47 -0.01    +0.030 C  ATOM     19  C   UNL     1      37.037  47.689  12.760 -0.63 -0.01    +0.034 C  BRANCH  16  20ATOM     20  N   UNL     1      39.436  48.108  15.731 -0.27 +0.12    -0.310 N  ATOM     21  C   UNL     1      40.413  49.022  15.437 -0.43 -0.06    +0.202 A  ATOM     22  C   UNL     1      39.860  47.394  16.820 -0.37 -0.04    +0.165 A  ATOM     23  N   UNL     1      41.424  48.953  16.278 -0.95 -0.00    -0.231 NA ATOM     24  N   UNL     1      39.227  46.377  17.432 -0.29 +0.05    -0.217 NA ATOM     25  C   UNL     1      41.095  47.931  17.144 -0.39 -0.02    +0.150 A  ATOM     26  C   UNL     1      39.949  45.928  18.480 -0.30 -0.02    +0.226 A  ATOM     27  C   UNL     1      41.759  47.364  18.244 -0.40 -0.01    +0.155 A  ATOM     28  N   UNL     1      41.153  46.359  18.917 -0.33 -0.00    -0.217 NA BRANCH  27  29ATOM     29  N   UNL     1      43.005  47.793  18.685 -0.29 -0.02    -0.382 N  ATOM     30  H   UNL     1      42.963  48.711  19.107 -0.45 -0.02    +0.158 HD ATOM     31  H   UNL     1      43.750  47.613  18.022 -0.34 +0.01    +0.158 HD ENDBRANCH  27  29ENDBRANCH  16  20BRANCH  17  32ATOM     32  O   UNL     1      35.101  46.285  12.631 -0.27 +0.26    -0.393 OA ATOM     33  H   UNL     1      34.206  46.653  12.748 -0.33 -0.20    +0.210 HD ENDBRANCH  17  32ENDBRANCH   1  14TORSDOF 8TERENDMDL