REMARK SMILES COc1ccc(O)c(C(=O)c2ccc(C(=O)N[C@@H]3CCCNC[C@H]3NC(=O)c3cc(C#N)cnc3N3CCOCC3)cc2)c1F
REMARK SMILES IDX 18 1 17 3 15 4 16 5 14 7 11 8 12 9 43 10 13 11 42 12 9 13
REMARK SMILES IDX 10 14 8 15 3 16 4 17 44 18 5 19 6 20 45 21 2 22 1 23 7 24
REMARK SMILES IDX 24 26 23 27 22 28 21 30 20 31 19 32 25 34 26 35 27 37 28 38
REMARK SMILES IDX 29 39 35 40 30 41 34 42 33 43 36 44 37 45 41 46 38 47 40 48
REMARK SMILES IDX 39 49 31 50 32 51
REMARK H PARENT 17 6 7 25 22 29 25 36
REMARK Flexibility Score:  128.900
ROOT
ATOM      1  C   UNL     1      -0.970  -1.131   0.705  1.00  0.00     0.106 CG0
ATOM      2  G   UNL     1      -1.087  -2.396   1.572  1.00  0.00     0.000 G0
ENDROOT
BRANCH   1   3
ATOM      3  N   UNL     1       0.430  -0.883   0.351  1.00  0.00    -0.347 N 
ATOM      4  C   UNL     1       0.904   0.393   0.134  1.00  0.00     0.251 C 
ATOM      5  O   UNL     1       0.247   1.404   0.346  1.00  0.00    -0.269 OA
ATOM      6  H   UNL     1       1.029  -1.675   0.158  1.00  0.00     0.164 HD
BRANCH   4   7
ATOM      7  C   UNL     1       2.299   0.497  -0.367  1.00  0.00     0.039 A 
ATOM      8  C   UNL     1       4.929   0.767  -1.277  1.00  0.00     0.023 A 
ATOM      9  C   UNL     1       4.136  -0.292  -1.733  1.00  0.00     0.013 A 
ATOM     10  C   UNL     1       4.397   1.716  -0.398  1.00  0.00     0.013 A 
ATOM     11  C   UNL     1       2.823  -0.432  -1.275  1.00  0.00     0.014 A 
ATOM     12  C   UNL     1       3.082   1.580   0.054  1.00  0.00     0.014 A 
BRANCH   8  13
ATOM     13  C   UNL     1       6.303   0.896  -1.812  1.00  0.00     0.199 C 
ATOM     14  O   UNL     1       6.486   0.719  -3.018  1.00  0.00    -0.288 OA
BRANCH  13  15
ATOM     15  C   UNL     1       7.463   1.274  -0.974  1.00  0.00     0.104 A 
ATOM     16  C   UNL     1       8.638   1.308   1.164  1.00  0.00     0.155 A 
ATOM     17  C   UNL     1       9.690   2.008   0.570  1.00  0.00     0.053 A 
ATOM     18  C   UNL     1       7.533   0.943   0.381  1.00  0.00     0.179 A 
ATOM     19  C   UNL     1       9.644   2.320  -0.792  1.00  0.00     0.051 A 
ATOM     20  C   UNL     1       8.545   1.942  -1.558  1.00  0.00     0.130 A 
ATOM     21  F   UNL     1       6.544   0.238   0.956  1.00  0.00    -0.202 F 
BRANCH  16  22
ATOM     22  O   UNL     1       8.579   0.930   2.479  1.00  0.00    -0.494 OA
ATOM     23  C   UNL     1       9.698   1.243   3.298  1.00  0.00     0.278 C 
ENDBRANCH  16  22
BRANCH  20  24
ATOM     24  O   UNL     1       8.597   2.257  -2.890  1.00  0.00    -0.507 OA
ATOM     25  H   UNL     1       7.874   1.767  -3.346  1.00  0.00     0.293 HD
ENDBRANCH  20  24
ENDBRANCH  13  15
ENDBRANCH   8  13
ENDBRANCH   4   7
ENDBRANCH   1   3
BRANCH   1  26
ATOM     26  C   UNL     1      -1.910  -1.032  -0.527  1.00  0.00     0.118 C 
BRANCH  26  27
ATOM     27  C   UNL     1      -1.480  -1.941  -1.706  1.00  0.00     0.108 C 
BRANCH  27  28
ATOM     28  N   UNL     1      -1.668  -3.381  -1.532  1.00  0.00    -0.315 NA
ATOM     29  H   UNL     1      -2.659  -3.569  -1.393  1.00  0.00     0.122 HD
BRANCH  28  30
ATOM     30  C   UNL     1      -0.872  -3.978  -0.472  1.00  0.00     0.081 C 
BRANCH  30  31
ATOM     31  C   UNL     1      -1.448  -3.726   0.914  1.00  0.00     0.017 C 
BRANCH  31  32
ATOM     32  C   UNL     1      -1.087  -2.396   1.572  1.00  0.00     0.028 CG0
ATOM     33  G   UNL     1      -0.970  -1.131   0.705  1.00  0.00     0.000 G0
ENDBRANCH  31  32
ENDBRANCH  30  31
ENDBRANCH  28  30
ENDBRANCH  27  28
ENDBRANCH  26  27
BRANCH  26  34
ATOM     34  N   UNL     1      -3.320  -1.220  -0.161  1.00  0.00    -0.346 N 
ATOM     35  C   UNL     1      -4.338  -0.719  -0.948  1.00  0.00     0.255 C 
ATOM     36  H   UNL     1      -3.545  -1.601   0.749  1.00  0.00     0.164 HD
ATOM     37  O   UNL     1      -4.178  -0.199  -2.042  1.00  0.00    -0.269 OA
BRANCH  35  38
ATOM     38  C   UNL     1      -5.684  -0.884  -0.376  1.00  0.00     0.083 A 
ATOM     39  C   UNL     1      -6.190  -2.193  -0.324  1.00  0.00     0.038 A 
ATOM     40  C   UNL     1      -6.462   0.202   0.060  1.00  0.00     0.141 A 
ATOM     41  C   UNL     1      -7.472  -2.405   0.164  1.00  0.00     0.071 A 
ATOM     42  N   UNL     1      -7.712  -0.031   0.542  1.00  0.00    -0.237 NA
ATOM     43  C   UNL     1      -8.189  -1.300   0.581  1.00  0.00     0.133 A 
BRANCH  40  44
ATOM     44  N   UNL     1      -6.014   1.530   0.035  1.00  0.00    -0.351 N 
ATOM     45  C   UNL     1      -7.058   2.560   0.233  1.00  0.00     0.146 C 
ATOM     46  C   UNL     1      -4.784   1.782   0.826  1.00  0.00     0.146 C 
ATOM     47  C   UNL     1      -7.102   3.005   1.703  1.00  0.00     0.181 C 
ATOM     48  C   UNL     1      -4.738   3.228   1.350  1.00  0.00     0.181 C 
ATOM     49  O   UNL     1      -5.861   3.555   2.182  1.00  0.00    -0.378 OA
ENDBRANCH  40  44
BRANCH  41  50
ATOM     50  C   UNL     1      -8.039  -3.713   0.233  1.00  0.00     0.101 C 
ATOM     51  N   UNL     1      -8.490  -4.780   0.299  1.00  0.00    -0.192 NA
ENDBRANCH  41  50
ENDBRANCH  35  38
ENDBRANCH  26  34
ENDBRANCH   1  26
TORSDOF 10
