MODEL        7USER    Run = 7USERUSER    Estimated Free Energy of Binding    =  -8.74 kcal/mol  [=(1)+(2)+(3)-(4)]USERUSER    (1) Final Intermolecular Energy     = -13.52 kcal/molUSER        vdW + Hbond + desolv Energy     = -13.58 kcal/molUSER        Electrostatic Energy            =  -0.25 kcal/molUSER        Moving Ligand-Fixed Receptor    = -13.83 kcal/molUSER        Moving Ligand-Moving Receptor   =  +0.32 kcal/molUSER    (2) Final Total Internal Energy     =  -3.11 kcal/molUSER    (3) Torsional Free Energy           =  +4.77 kcal/molUSER    (4) Unbound System's Energy         =  -3.11 kcal/molUSERUSERREMARK SMILES COc1ccc(O)c(C(=O)c2ccc(C(=O)N[C@@H]3CCCNC[C@H]3NC(=O)c3cc(C#N)cnc3N3CCOCC3)cc2)c1FREMARK SMILES IDX 18 1 17 3 15 4 16 5 14 7 11 8 12 9 43 10 13 11 42 12 9 13REMARK SMILES IDX 10 14 8 15 3 16 4 17 44 18 5 19 6 20 45 21 2 22 1 23 7 24REMARK SMILES IDX 24 26 23 27 22 28 21 30 20 31 19 32 25 34 26 35 27 37 28 38REMARK SMILES IDX 29 39 35 40 30 41 34 42 33 43 36 44 37 45 41 46 38 47 40 48REMARK SMILES IDX 39 49 31 50 32 51REMARK H PARENT 17 6 7 25 22 29 25 36REMARK Flexibility Score:  128.900USER                              x       y       z     vdW  Elec       q    TypeUSER                           _______ _______ _______ _____ _____    ______ ____ROOTATOM      1  C   UNL     1      35.741  43.186  18.699 -0.34 -0.02    +0.106 CG0ATOM      2  G   UNL     1      34.803  42.145  19.334 +0.00 +0.00    +0.000 G0 ENDROOTBRANCH   1   3ATOM      3  N   UNL     1      36.998  43.263  19.448 -0.07 +0.03    -0.347 N  ATOM      4  C   UNL     1      37.083  43.935  20.648 -0.29 -0.00    +0.251 C  ATOM      5  O   UNL     1      36.112  44.394  21.237 -0.22 -0.01    -0.269 OA ATOM      6  H   UNL     1      37.841  42.906  19.018 +0.17 -0.01    +0.164 HD BRANCH   4   7ATOM      7  C   UNL     1      38.444  44.070  21.229 -0.31 +0.00    +0.039 A  ATOM      8  C   UNL     1      41.021  44.383  22.268 -0.23 +0.00    +0.023 A  ATOM      9  C   UNL     1      40.253  43.269  22.625 -0.27 +0.00    +0.013 A  ATOM     10  C   UNL     1      40.519  45.321  21.360 -0.30 +0.00    +0.013 A  ATOM     11  C   UNL     1      38.963  43.113  22.110 -0.20 +0.00    +0.014 A  ATOM     12  C   UNL     1      39.232  45.162  20.841 -0.35 +0.00    +0.014 A  BRANCH   8  13ATOM     13  C   UNL     1      42.393  44.493  22.811 -0.15 +0.02    +0.199 C  ATOM     14  O   UNL     1      42.951  43.471  23.217 -0.14 -0.01    -0.288 OA BRANCH  13  15ATOM     15  C   UNL     1      43.148  45.765  22.846 -0.14 +0.02    +0.104 A  ATOM     16  C   UNL     1      43.293  48.155  23.314 -0.27 +0.03    +0.155 A  ATOM     17  C   UNL     1      44.626  48.152  22.900 -0.22 +0.02    +0.053 A  ATOM     18  C   UNL     1      42.566  46.956  23.286 -0.14 +0.03    +0.179 A  ATOM     19  C   UNL     1      45.228  46.960  22.484 -0.22 +0.04    +0.051 A  ATOM     20  C   UNL     1      44.497  45.776  22.472 -0.15 +0.08    +0.130 A  ATOM     21  F   UNL     1      41.295  46.966  23.721 -0.04 -0.02    -0.202 F  BRANCH  16  22ATOM     22  O   UNL     1      42.603  49.252  23.759 -0.80 -0.18    -0.494 OA ATOM     23  C   UNL     1      42.183  49.249  25.117 -0.26 +0.05    +0.278 C  ENDBRANCH  16  22BRANCH  20  24ATOM     24  O   UNL     1      45.173  44.650  22.083 -0.08 -0.42    -0.507 OA ATOM     25  H   UNL     1      44.865  43.902  22.646 +0.10 +0.10    +0.293 HD ENDBRANCH  20  24ENDBRANCH  13  15ENDBRANCH   8  13ENDBRANCH   4   7ENDBRANCH   1   3BRANCH   1  26ATOM     26  C   UNL     1      35.978  43.080  17.169 -0.27 -0.04    +0.118 C  BRANCH  26  27ATOM     27  C   UNL     1      34.678  43.190  16.333 -0.38 -0.05    +0.108 C  BRANCH  27  28ATOM     28  N   UNL     1      33.562  42.333  16.733 -0.14 +0.16    -0.315 NA ATOM     29  H   UNL     1      32.968  42.167  15.922 -0.51 -0.09    +0.122 HD BRANCH  28  30ATOM     30  C   UNL     1      32.782  42.828  17.856 -0.33 -0.02    +0.081 C  BRANCH  30  31ATOM     31  C   UNL     1      33.291  42.323  19.198 -0.43 -0.00    +0.017 C  BRANCH  31  32ATOM     32  C   UNL     1      34.802  42.146  19.332 -0.43 -0.00    +0.028 CG0ATOM     33  G   UNL     1      35.744  43.183  18.698 +0.00 +0.00    +0.000 G0 ENDBRANCH  31  32ENDBRANCH  30  31ENDBRANCH  28  30ENDBRANCH  27  28ENDBRANCH  26  27BRANCH  26  34ATOM     34  N   UNL     1      37.020  44.007  16.707 -0.13 +0.10    -0.346 N  ATOM     35  C   UNL     1      37.013  45.337  17.079 -0.23 -0.09    +0.255 C  ATOM     36  H   UNL     1      37.672  43.699  15.997 +0.10 -0.04    +0.164 HD ATOM     37  O   UNL     1      36.243  45.826  17.892 -0.24 +0.12    -0.269 OA BRANCH  35  38ATOM     38  C   UNL     1      38.051  46.154  16.430 -0.33 -0.03    +0.083 A  ATOM     39  C   UNL     1      39.137  46.544  17.231 -0.41 -0.01    +0.038 A  ATOM     40  C   UNL     1      37.961  46.574  15.092 -0.31 -0.06    +0.141 A  ATOM     41  C   UNL     1      40.124  47.353  16.686 -0.46 -0.01    +0.071 A  ATOM     42  N   UNL     1      38.945  47.359  14.578 -0.29 +0.07    -0.237 NA ATOM     43  C   UNL     1      39.984  47.732  15.365 -0.43 -0.03    +0.133 A  BRANCH  40  44ATOM     44  N   UNL     1      36.905  46.217  14.242 -0.14 +0.17    -0.351 N  ATOM     45  C   UNL     1      36.053  47.335  13.779 -0.42 -0.10    +0.146 C  ATOM     46  C   UNL     1      37.275  45.274  13.159 -0.42 -0.05    +0.146 C  ATOM     47  C   UNL     1      36.503  47.813  12.390 -0.57 -0.07    +0.181 C  ATOM     48  C   UNL     1      36.384  45.462  11.919 -0.43 -0.07    +0.181 C  ATOM     49  O   UNL     1      36.456  46.790  11.378 -0.45 +0.17    -0.378 OA ENDBRANCH  40  44BRANCH  41  50ATOM     50  C   UNL     1      41.246  47.785  17.456 -0.49 -0.01    +0.101 C  ATOM     51  N   UNL     1      42.166  48.134  18.070 -0.54 -0.00    -0.192 NA ENDBRANCH  41  50ENDBRANCH  35  38ENDBRANCH  26  34ENDBRANCH   1  26TORSDOF 10TERENDMDL