REMARK SMILES COc1ccc(O)c(C(=O)c2ccc(C(=O)N[C@@H]3CCCNC[C@H]3NC(=O)c3cnn(C)c3)cc2)c1N1CCOCC1
REMARK SMILES IDX 15 1 16 2 17 3 14 5 11 6 12 7 35 8 13 9 34 10 9 11 10 12
REMARK SMILES IDX 8 13 3 14 4 15 36 16 5 17 6 18 2 19 1 20 37 21 38 22 42 23
REMARK SMILES IDX 39 24 41 25 40 26 7 27 18 29 19 30 24 32 23 33 22 34 21 36
REMARK SMILES IDX 20 37 25 39 26 40 27 42 28 43 29 44 33 45 30 46 31 47 32 48
REMARK H PARENT 17 4 7 28 22 35 25 41
REMARK Flexibility Score:  129.900
ROOT
ATOM      1  C   UNL     1       1.118  -1.083  -0.333  1.00  0.00     0.251 C 
ATOM      2  O   UNL     1       1.234  -1.103  -1.552  1.00  0.00    -0.269 OA
ATOM      3  N   UNL     1       2.175  -0.943   0.536  1.00  0.00    -0.347 N 
ATOM      4  H   UNL     1       1.992  -0.819   1.524  1.00  0.00     0.164 HD
ENDROOT
BRANCH   1   5
ATOM      5  C   UNL     1      -0.228  -1.235   0.281  1.00  0.00     0.039 A 
ATOM      6  C   UNL     1      -2.813  -1.528   1.316  1.00  0.00     0.023 A 
ATOM      7  C   UNL     1      -2.455  -2.189   0.136  1.00  0.00     0.013 A 
ATOM      8  C   UNL     1      -1.869  -0.745   1.993  1.00  0.00     0.013 A 
ATOM      9  C   UNL     1      -1.169  -2.030  -0.386  1.00  0.00     0.014 A 
ATOM     10  C   UNL     1      -0.581  -0.589   1.473  1.00  0.00     0.014 A 
BRANCH   6  11
ATOM     11  C   UNL     1      -4.170  -1.663   1.903  1.00  0.00     0.198 C 
ATOM     12  O   UNL     1      -4.296  -1.676   3.129  1.00  0.00    -0.288 OA
BRANCH  11  13
ATOM     13  C   UNL     1      -5.385  -1.863   1.073  1.00  0.00     0.091 A 
ATOM     14  C   UNL     1      -6.812  -1.398  -0.839  1.00  0.00     0.143 A 
ATOM     15  C   UNL     1      -7.669  -2.432  -0.427  1.00  0.00     0.052 A 
ATOM     16  C   UNL     1      -5.636  -1.099  -0.097  1.00  0.00     0.095 A 
ATOM     17  C   UNL     1      -7.414  -3.146   0.743  1.00  0.00     0.051 A 
ATOM     18  C   UNL     1      -6.292  -2.846   1.499  1.00  0.00     0.129 A 
BRANCH  14  19
ATOM     19  O   UNL     1      -7.061  -0.627  -1.949  1.00  0.00    -0.495 OA
ATOM     20  C   UNL     1      -8.359  -0.697  -2.528  1.00  0.00     0.278 C 
ENDBRANCH  14  19
BRANCH  16  21
ATOM     21  N   UNL     1      -4.767  -0.035  -0.421  1.00  0.00    -0.363 N 
ATOM     22  C   UNL     1      -4.336   0.142  -1.828  1.00  0.00     0.145 C 
ATOM     23  C   UNL     1      -5.142   1.228   0.252  1.00  0.00     0.145 C 
ATOM     24  C   UNL     1      -4.798   1.493  -2.400  1.00  0.00     0.181 C 
ATOM     25  C   UNL     1      -4.224   2.358  -0.236  1.00  0.00     0.181 C 
ATOM     26  O   UNL     1      -4.338   2.626  -1.642  1.00  0.00    -0.378 OA
ENDBRANCH  16  21
BRANCH  18  27
ATOM     27  O   UNL     1      -6.135  -3.553   2.663  1.00  0.00    -0.507 OA
ATOM     28  H   UNL     1      -5.488  -3.064   3.220  1.00  0.00     0.293 HD
ENDBRANCH  18  27
ENDBRANCH  11  13
ENDBRANCH   6  11
ENDBRANCH   1   5
BRANCH   3  29
ATOM     29  C   UNL     1       3.513  -0.566   0.083  1.00  0.00     0.106 C 
BRANCH  29  30
ATOM     30  C   UNL     1       4.587  -1.218   0.974  1.00  0.00     0.028 CG0
ATOM     31  G   UNL     1       4.546  -0.892   2.467  1.00  0.00     0.000 G0
ENDBRANCH  29  30
BRANCH  29  32
ATOM     32  C   UNL     1       3.668   0.975  -0.060  1.00  0.00     0.118 C 
BRANCH  32  33
ATOM     33  C   UNL     1       3.150   1.784   1.157  1.00  0.00     0.108 C 
BRANCH  33  34
ATOM     34  N   UNL     1       3.219   1.185   2.498  1.00  0.00    -0.315 NA
ATOM     35  H   UNL     1       3.000   1.916   3.178  1.00  0.00     0.122 HD
BRANCH  34  36
ATOM     36  C   UNL     1       4.504   0.588   2.835  1.00  0.00     0.081 C 
BRANCH  36  37
ATOM     37  C   UNL     1       4.546  -0.892   2.467  1.00  0.00     0.017 CG0
ATOM     38  G   UNL     1       4.587  -1.218   0.974  1.00  0.00     0.000 G0
ENDBRANCH  36  37
ENDBRANCH  34  36
ENDBRANCH  33  34
ENDBRANCH  32  33
BRANCH  32  39
ATOM     39  N   UNL     1       5.039   1.372  -0.404  1.00  0.00    -0.346 N 
ATOM     40  C   UNL     1       5.514   1.304  -1.695  1.00  0.00     0.254 C 
ATOM     41  H   UNL     1       5.700   1.513   0.343  1.00  0.00     0.164 HD
ATOM     42  O   UNL     1       4.806   1.020  -2.653  1.00  0.00    -0.269 OA
BRANCH  40  43
ATOM     43  C   UNL     1       6.929   1.596  -1.853  1.00  0.00     0.077 A 
ATOM     44  C   UNL     1       7.635   1.664  -3.079  1.00  0.00     0.149 A 
ATOM     45  C   UNL     1       7.898   1.866  -0.901  1.00  0.00     0.122 A 
ATOM     46  N   UNL     1       8.928   1.956  -2.919  1.00  0.00    -0.181 NA
ATOM     47  N   UNL     1       9.064   2.066  -1.587  1.00  0.00    -0.275 N 
ATOM     48  C   UNL     1      10.358   2.376  -1.027  1.00  0.00     0.173 C 
ENDBRANCH  40  43
ENDBRANCH  32  39
ENDBRANCH  29  32
ENDBRANCH   3  29
TORSDOF 9
