MODEL        4USER    Run = 4USERUSER    Estimated Free Energy of Binding    = -10.62 kcal/mol  [=(1)+(2)+(3)-(4)]USERUSER    (1) Final Intermolecular Energy     = -14.50 kcal/molUSER        vdW + Hbond + desolv Energy     = -14.13 kcal/molUSER        Electrostatic Energy            =  -0.36 kcal/molUSER        Moving Ligand-Fixed Receptor    = -14.50 kcal/molUSER        Moving Ligand-Moving Receptor   =  +0.00 kcal/molUSER    (2) Final Total Internal Energy     =  -4.64 kcal/molUSER    (3) Torsional Free Energy           =  +3.88 kcal/molUSER    (4) Unbound System's Energy         =  -4.64 kcal/molUSERUSERREMARK SMILES O=C(O)COCC(=O)N1CCN(Cc2ccc(-c3nc4ccccc4nc3-c3ccc(CN4CCC(n5c(O)nc6ccccc65)CC4)cc3)cc2)CC1REMARK SMILES IDX 14 1 15 2 16 3 17 4 51 5 52 6 13 7 12 8 7 9 9 10 10 11 54 12REMARK SMILES IDX 11 13 53 14 8 15 6 16 5 17 4 18 2 19 1 20 3 21 18 23 19 24REMARK SMILES IDX 27 25 20 26 26 27 21 28 25 29 22 30 24 31 23 32 28 33 29 34REMARK SMILES IDX 50 35 30 36 49 37 31 38 32 39 33 40 34 41 48 42 35 43 47 44REMARK SMILES IDX 36 45 37 46 38 47 46 48 40 49 45 50 41 51 44 52 42 53 43 54REMARK SMILES IDX 39 55REMARK H PARENT 3 22 39 56USER                              x       y       z     vdW  Elec       q    TypeUSER                           _______ _______ _______ _____ _____    ______ ____ROOTATOM      1  C   UNL     1      41.789  45.042  21.126 -0.30 -0.01    -0.034 A  ATOM      2  C   UNL     1      42.887  44.359  21.666 -0.17 +0.00    +0.006 A  ATOM      3  C   UNL     1      43.976  45.060  22.198 -0.15 +0.01    +0.011 A  ATOM      4  C   UNL     1      43.995  46.464  22.215 -0.26 +0.00    +0.002 A  ATOM      5  C   UNL     1      42.892  47.139  21.666 -0.34 +0.00    +0.011 A  ATOM      6  C   UNL     1      41.801  46.441  21.139 -0.30 +0.00    +0.006 A  ENDROOTBRANCH   1   7ATOM      7  C   UNL     1      40.616  44.280  20.549 -0.29 +0.01    +0.120 C  BRANCH   7   8ATOM      8  N   UNL     1      40.203  44.654  19.195 -0.22 -0.00    -0.296 NA ATOM      9  C   UNL     1      38.802  46.914  15.809 -0.32 -0.09    +0.248 C  ATOM     10  N   UNL     1      39.232  46.333  16.996 -0.20 +0.08    -0.338 N  ATOM     11  C   UNL     1      40.623  45.884  17.075 -0.38 -0.01    +0.135 C  ATOM     12  C   UNL     1      38.440  46.209  18.223 -0.18 -0.03    +0.135 C  ATOM     13  C   UNL     1      41.086  45.607  18.516 -0.46 +0.00    +0.106 C  ATOM     14  C   UNL     1      38.772  44.923  19.012 -0.38 -0.01    +0.106 C  ATOM     15  O   UNL     1      39.530  46.970  14.816 -0.31 +0.06    -0.272 OA BRANCH   9  16ATOM     16  C   UNL     1      37.359  47.459  15.779 -0.27 -0.19    +0.261 C  BRANCH  16  17ATOM     17  O   UNL     1      36.895  47.926  14.523 -0.27 +0.27    -0.360 OA BRANCH  17  18ATOM     18  C   UNL     1      36.207  46.932  13.774 -0.35 -0.18    +0.283 C  BRANCH  18  19ATOM     19  C   UNL     1      36.883  46.630  12.444 -0.43 -0.12    +0.329 C  ATOM     20  O   UNL     1      36.553  45.824  11.589 -0.51 +0.09    -0.250 OA BRANCH  19  21ATOM     21  O   UNL     1      37.987  47.393  12.258 -0.69 +0.02    -0.480 OA ATOM     22  H   UNL     1      38.256  47.607  13.179 +0.22 -0.05    +0.296 HD ENDBRANCH  19  21ENDBRANCH  18  19ENDBRANCH  17  18ENDBRANCH  16  17ENDBRANCH   9  16ENDBRANCH   7   8ENDBRANCH   1   7BRANCH   4  23ATOM     23  C   UNL     1      45.132  47.221  22.764 -0.21 +0.05    +0.097 A  ATOM     24  N   UNL     1      46.272  47.098  22.026 -0.51 -0.31    -0.244 NA ATOM     25  C   UNL     1      45.109  47.979  23.947 -0.17 +0.02    +0.097 A  ATOM     26  C   UNL     1      47.383  47.694  22.493 -0.13 +0.06    +0.089 A  ATOM     27  N   UNL     1      46.240  48.585  24.409 -0.06 -0.05    -0.244 NA ATOM     28  C   UNL     1      48.575  47.575  21.787 -0.12 +0.02    +0.030 A  ATOM     29  C   UNL     1      47.369  48.438  23.693 +0.04 +0.02    +0.089 A  ATOM     30  C   UNL     1      49.755  48.169  22.239 -0.05 +0.00    +0.002 A  ATOM     31  C   UNL     1      48.546  49.030  24.133 -0.05 +0.00    +0.030 A  ATOM     32  C   UNL     1      49.739  48.900  23.419 -0.04 +0.00    +0.002 A  BRANCH  25  33ATOM     33  C   UNL     1      43.921  48.198  24.800 -0.22 +0.00    +0.002 A  ATOM     34  C   UNL     1      42.902  49.104  24.455 -0.34 +0.00    +0.011 A  ATOM     35  C   UNL     1      43.784  47.498  26.011 -0.09 +0.00    +0.011 A  ATOM     36  C   UNL     1      41.765  49.258  25.257 -0.33 +0.00    +0.006 A  ATOM     37  C   UNL     1      42.657  47.660  26.823 -0.12 +0.00    +0.006 A  ATOM     38  C   UNL     1      41.626  48.530  26.444 -0.22 -0.00    -0.034 A  BRANCH  38  39ATOM     39  C   UNL     1      40.389  48.665  27.305 -0.24 +0.01    +0.120 C  BRANCH  39  40ATOM     40  N   UNL     1      39.335  47.698  26.967 -0.13 -0.01    -0.299 NA ATOM     41  C   UNL     1      39.878  46.438  26.439 -0.16 +0.00    +0.087 C  ATOM     42  C   UNL     1      38.259  48.287  26.164 -0.31 +0.00    +0.087 C  ATOM     43  C   UNL     1      39.461  46.102  25.012 -0.20 +0.00    +0.041 C  ATOM     44  C   UNL     1      37.264  47.222  25.706 -0.37 +0.00    +0.041 C  ATOM     45  C   UNL     1      37.946  46.190  24.793 -0.23 +0.01    +0.095 C  BRANCH  45  46ATOM     46  N   UNL     1      37.303  44.880  24.790 -0.19 -0.03    -0.291 N  ATOM     47  C   UNL     1      36.629  44.285  25.825 -0.16 -0.01    +0.295 A  ATOM     48  C   UNL     1      37.301  43.976  23.744 -0.30 +0.01    +0.072 A  ATOM     49  N   UNL     1      36.161  43.105  25.525 -0.27 +0.00    -0.195 NA ATOM     50  C   UNL     1      37.849  43.987  22.453 -0.34 +0.00    +0.029 A  ATOM     51  C   UNL     1      36.578  42.888  24.237 -0.27 +0.01    +0.092 A  ATOM     52  C   UNL     1      37.642  42.849  21.660 -0.37 +0.00    +0.002 A  ATOM     53  C   UNL     1      36.376  41.764  23.422 -0.38 +0.00    +0.031 A  ATOM     54  C   UNL     1      36.916  41.757  22.130 -0.55 +0.00    +0.002 A  BRANCH  47  55ATOM     55  O   UNL     1      36.442  44.815  27.019 -0.12 +0.10    -0.480 OA ATOM     56  H   UNL     1      35.742  45.466  26.832 -0.34 -0.15    +0.296 HD ENDBRANCH  47  55ENDBRANCH  45  46ENDBRANCH  39  40ENDBRANCH  38  39ENDBRANCH  25  33ENDBRANCH   4  23TORSDOF 13TERENDMDL