REMARK SMILES O=C(O)COCC(=O)N1CCN(Cc2ccc(-c3nc4ccccc4nc3-c3ccc(CN4CCC(n5c(O)nc6ccccc65)CC4)cc3)cc2)CC1
REMARK SMILES IDX 14 1 15 2 16 3 17 4 51 5 52 6 13 7 12 8 7 9 9 10 10 11 54 12
REMARK SMILES IDX 11 13 53 14 8 15 6 16 5 17 4 18 2 19 1 20 3 21 18 23 19 24
REMARK SMILES IDX 27 25 20 26 26 27 21 28 25 29 22 30 24 31 23 32 28 33 29 34
REMARK SMILES IDX 50 35 30 36 49 37 31 38 32 39 33 40 34 41 48 42 35 43 47 44
REMARK SMILES IDX 36 45 37 46 38 47 46 48 40 49 45 50 41 51 44 52 42 53 43 54
REMARK SMILES IDX 39 55
REMARK H PARENT 3 22 39 56
ROOT
ATOM      1  C   UNL     1       3.256  -1.016  -1.186  1.00  0.00    -0.034 A 
ATOM      2  C   UNL     1       2.626  -0.750   0.037  1.00  0.00     0.006 A 
ATOM      3  C   UNL     1       2.020   0.489   0.276  1.00  0.00     0.011 A 
ATOM      4  C   UNL     1       2.018   1.495  -0.703  1.00  0.00     0.002 A 
ATOM      5  C   UNL     1       2.658   1.221  -1.923  1.00  0.00     0.011 A 
ATOM      6  C   UNL     1       3.259  -0.018  -2.166  1.00  0.00     0.006 A 
ENDROOT
BRANCH   1   7
ATOM      7  C   UNL     1       3.913  -2.356  -1.439  1.00  0.00     0.120 C 
BRANCH   7   8
ATOM      8  N   UNL     1       5.319  -2.472  -1.049  1.00  0.00    -0.296 NA
ATOM      9  C   UNL     1       9.276  -1.537   0.367  1.00  0.00     0.248 C 
ATOM     10  N   UNL     1       7.960  -1.668  -0.060  1.00  0.00    -0.338 N 
ATOM     11  C   UNL     1       7.070  -2.533   0.716  1.00  0.00     0.135 C 
ATOM     12  C   UNL     1       7.348  -0.942  -1.176  1.00  0.00     0.135 C 
ATOM     13  C   UNL     1       5.583  -2.319   0.385  1.00  0.00     0.106 C 
ATOM     14  C   UNL     1       6.284  -1.784  -1.915  1.00  0.00     0.106 C 
ATOM     15  O   UNL     1       9.717  -2.194   1.312  1.00  0.00    -0.272 OA
BRANCH   9  16
ATOM     16  C   UNL     1      10.171  -0.553  -0.414  1.00  0.00     0.261 C 
BRANCH  16  17
ATOM     17  O   UNL     1      11.441  -0.279   0.154  1.00  0.00    -0.360 OA
BRANCH  17  18
ATOM     18  C   UNL     1      12.367  -1.347  -0.002  1.00  0.00     0.283 C 
BRANCH  18  19
ATOM     19  C   UNL     1      13.388  -1.405   1.126  1.00  0.00     0.329 C 
ATOM     20  O   UNL     1      13.473  -0.691   2.112  1.00  0.00    -0.250 OA
BRANCH  19  21
ATOM     21  O   UNL     1      14.286  -2.402   0.939  1.00  0.00    -0.480 OA
ATOM     22  H   UNL     1      14.836  -2.349   1.752  1.00  0.00     0.296 HD
ENDBRANCH  19  21
ENDBRANCH  18  19
ENDBRANCH  17  18
ENDBRANCH  16  17
ENDBRANCH   9  16
ENDBRANCH   7   8
ENDBRANCH   1   7
BRANCH   4  23
ATOM     23  C   UNL     1       1.392   2.807  -0.470  1.00  0.00     0.097 A 
ATOM     24  N   UNL     1       2.249   3.854  -0.639  1.00  0.00    -0.244 NA
ATOM     25  C   UNL     1       0.059   3.014  -0.075  1.00  0.00     0.097 A 
ATOM     26  C   UNL     1       1.785   5.088  -0.374  1.00  0.00     0.089 A 
ATOM     27  N   UNL     1      -0.404   4.270   0.186  1.00  0.00    -0.244 NA
ATOM     28  C   UNL     1       2.630   6.184  -0.507  1.00  0.00     0.030 A 
ATOM     29  C   UNL     1       0.453   5.297   0.045  1.00  0.00     0.089 A 
ATOM     30  C   UNL     1       2.194   7.481  -0.234  1.00  0.00     0.002 A 
ATOM     31  C   UNL     1       0.025   6.592   0.311  1.00  0.00     0.030 A 
ATOM     32  C   UNL     1       0.884   7.685   0.178  1.00  0.00     0.002 A 
BRANCH  25  33
ATOM     33  C   UNL     1      -0.954   1.952   0.106  1.00  0.00     0.002 A 
ATOM     34  C   UNL     1      -1.158   0.935  -0.844  1.00  0.00     0.011 A 
ATOM     35  C   UNL     1      -1.765   1.940   1.254  1.00  0.00     0.011 A 
ATOM     36  C   UNL     1      -2.092  -0.085  -0.626  1.00  0.00     0.006 A 
ATOM     37  C   UNL     1      -2.709   0.931   1.468  1.00  0.00     0.006 A 
ATOM     38  C   UNL     1      -2.869  -0.103   0.537  1.00  0.00    -0.034 A 
BRANCH  38  39
ATOM     39  C   UNL     1      -3.861  -1.216   0.799  1.00  0.00     0.120 C 
BRANCH  39  40
ATOM     40  N   UNL     1      -5.260  -0.768   0.771  1.00  0.00    -0.299 NA
ATOM     41  C   UNL     1      -6.160  -1.693   1.474  1.00  0.00     0.087 C 
ATOM     42  C   UNL     1      -5.706  -0.378  -0.570  1.00  0.00     0.087 C 
ATOM     43  C   UNL     1      -7.238  -2.331   0.606  1.00  0.00     0.041 C 
ATOM     44  C   UNL     1      -7.201  -0.065  -0.587  1.00  0.00     0.041 C 
ATOM     45  C   UNL     1      -8.027  -1.308  -0.220  1.00  0.00     0.095 C 
BRANCH  45  46
ATOM     46  N   UNL     1      -9.332  -1.007   0.359  1.00  0.00    -0.291 N 
ATOM     47  C   UNL     1      -9.592  -0.233   1.460  1.00  0.00     0.295 A 
ATOM     48  C   UNL     1     -10.550  -1.495  -0.079  1.00  0.00     0.072 A 
ATOM     49  N   UNL     1     -10.863  -0.146   1.742  1.00  0.00    -0.195 NA
ATOM     50  C   UNL     1     -10.932  -2.353  -1.120  1.00  0.00     0.029 A 
ATOM     51  C   UNL     1     -11.477  -0.934   0.802  1.00  0.00     0.092 A 
ATOM     52  C   UNL     1     -12.299  -2.634  -1.249  1.00  0.00     0.002 A 
ATOM     53  C   UNL     1     -12.841  -1.222   0.648  1.00  0.00     0.031 A 
ATOM     54  C   UNL     1     -13.241  -2.077  -0.386  1.00  0.00     0.002 A 
BRANCH  47  55
ATOM     55  O   UNL     1      -8.683   0.385   2.191  1.00  0.00    -0.480 OA
ATOM     56  H   UNL     1      -9.243   0.851   2.838  1.00  0.00     0.296 HD
ENDBRANCH  47  55
ENDBRANCH  45  46
ENDBRANCH  39  40
ENDBRANCH  38  39
ENDBRANCH  25  33
ENDBRANCH   4  23
TORSDOF 13
