MODEL        2USER    Run = 2USERUSER    Estimated Free Energy of Binding    =  -7.91 kcal/mol  [=(1)+(2)+(3)-(4)]USERUSER    (1) Final Intermolecular Energy     = -12.39 kcal/molUSER        vdW + Hbond + desolv Energy     = -12.88 kcal/molUSER        Electrostatic Energy            =  -0.26 kcal/molUSER        Moving Ligand-Fixed Receptor    = -13.15 kcal/molUSER        Moving Ligand-Moving Receptor   =  +0.76 kcal/molUSER    (2) Final Total Internal Energy     =  -3.10 kcal/molUSER    (3) Torsional Free Energy           =  +4.47 kcal/molUSER    (4) Unbound System's Energy         =  -3.10 kcal/molUSERUSERREMARK SMILES COc1ccc(O)c(C(=O)c2ccc(C(=O)N[C@@H]3CCCNC[C@H]3NC(=O)c3cnn(C)c3)cc2)c1N1CCOCC1REMARK SMILES IDX 15 1 16 2 17 3 14 5 11 6 12 7 35 8 13 9 34 10 9 11 10 12REMARK SMILES IDX 8 13 3 14 4 15 36 16 5 17 6 18 2 19 1 20 37 21 38 22 42 23REMARK SMILES IDX 39 24 41 25 40 26 7 27 18 29 19 30 24 32 23 33 22 34 21 36REMARK SMILES IDX 20 37 25 39 26 40 27 42 28 43 29 44 33 45 30 46 31 47 32 48REMARK H PARENT 17 4 7 28 22 35 25 41REMARK Flexibility Score:  129.900USER                              x       y       z     vdW  Elec       q    TypeUSER                           _______ _______ _______ _____ _____    ______ ____ROOTATOM      1  C   UNL     1      39.765  46.459  16.443 -0.33 -0.05    +0.251 C  ATOM      2  O   UNL     1      40.345  46.131  15.415 -0.34 +0.02    -0.269 OA ATOM      3  N   UNL     1      38.444  46.839  16.490 -0.17 +0.14    -0.347 N  ATOM      4  H   UNL     1      38.001  46.985  17.389 +0.09 -0.07    +0.164 HD ENDROOTBRANCH   1   5ATOM      5  C   UNL     1      40.505  46.477  17.732 -0.47 -0.00    +0.039 A  ATOM      6  C   UNL     1      41.788  46.478  20.221 -0.36 +0.00    +0.023 A  ATOM      7  C   UNL     1      40.767  45.557  19.963 -0.40 +0.00    +0.013 A  ATOM      8  C   UNL     1      42.186  47.378  19.224 -0.44 +0.00    +0.013 A  ATOM      9  C   UNL     1      40.119  45.567  18.725 -0.44 -0.00    +0.014 A  ATOM     10  C   UNL     1      41.541  47.387  17.985 -0.50 -0.00    +0.014 A  BRANCH   6  11ATOM     11  C   UNL     1      42.499  46.507  21.524 -0.26 +0.04    +0.198 C  ATOM     12  O   UNL     1      43.000  47.564  21.912 -0.27 -0.05    -0.288 OA BRANCH  11  13ATOM     13  C   UNL     1      42.704  45.291  22.352 -0.18 +0.02    +0.091 A  ATOM     14  C   UNL     1      41.927  43.419  23.693 -0.15 +0.00    +0.143 A  ATOM     15  C   UNL     1      43.253  42.967  23.796 -0.20 -0.00    +0.052 A  ATOM     16  C   UNL     1      41.622  44.594  22.952 -0.14 +0.01    +0.095 A  ATOM     17  C   UNL     1      44.299  43.688  23.223 -0.18 +0.01    +0.051 A  ATOM     18  C   UNL     1      44.026  44.854  22.526 -0.15 +0.05    +0.129 A  BRANCH  14  19ATOM     19  O   UNL     1      40.874  42.774  24.299 -0.05 +0.00    -0.495 OA ATOM     20  C   UNL     1      40.745  42.897  25.710 -0.10 -0.01    +0.278 C  ENDBRANCH  14  19BRANCH  16  21ATOM     21  N   UNL     1      40.322  45.135  22.860 -0.04 -0.02    -0.363 N  ATOM     22  C   UNL     1      39.189  44.240  22.524 -0.24 +0.01    +0.145 C  ATOM     23  C   UNL     1      40.027  46.088  23.953 -0.18 +0.01    +0.145 C  ATOM     24  C   UNL     1      38.149  44.188  23.656 -0.24 +0.01    +0.181 C  ATOM     25  C   UNL     1      38.564  46.544  23.851 -0.25 +0.03    +0.181 C  ATOM     26  O   UNL     1      37.616  45.478  24.007 -0.40 -0.08    -0.378 OA ENDBRANCH  16  21BRANCH  18  27ATOM     27  O   UNL     1      45.109  45.537  22.035 -0.31 -0.54    -0.507 OA ATOM     28  H   UNL     1      44.893  46.496  22.069 +0.10 +0.26    +0.293 HD ENDBRANCH  18  27ENDBRANCH  11  13ENDBRANCH   6  11ENDBRANCH   1   5BRANCH   3  29ATOM     29  C   UNL     1      37.539  46.661  15.355 -0.38 -0.05    +0.106 C  BRANCH  29  30ATOM     30  C   UNL     1      37.852  47.687  14.250 -0.56 -0.01    +0.028 CG0ATOM     31  G   UNL     1      37.566  47.268  12.808 +0.00 +0.00    +0.000 G0 ENDBRANCH  29  30BRANCH  29  32ATOM     32  C   UNL     1      36.047  46.648  15.795 -0.33 -0.11    +0.118 C  BRANCH  32  33ATOM     33  C   UNL     1      35.037  46.580  14.621 -0.18 -0.11    +0.108 C  BRANCH  33  34ATOM     34  N   UNL     1      35.481  46.052  13.322 -0.23 +0.19    -0.315 NA ATOM     35  H   UNL     1      36.147  45.297  13.503 +0.08 -0.05    +0.122 HD BRANCH  34  36ATOM     36  C   UNL     1      36.100  47.035  12.443 -0.68 -0.04    +0.081 C  BRANCH  36  37ATOM     37  C   UNL     1      37.563  47.268  12.808 -0.60 -0.00    +0.017 CG0ATOM     38  G   UNL     1      37.841  47.691  14.251 +0.00 +0.00    +0.000 G0 ENDBRANCH  36  37ENDBRANCH  34  36ENDBRANCH  33  34ENDBRANCH  32  33BRANCH  32  39ATOM     39  N   UNL     1      35.764  45.604  16.788 -0.12 +0.21    -0.346 N  ATOM     40  C   UNL     1      35.134  45.886  17.980 -0.28 -0.15    +0.254 C  ATOM     41  H   UNL     1      36.207  44.706  16.680 +0.12 -0.07    +0.164 HD ATOM     42  O   UNL     1      34.670  46.988  18.246 -0.75 +0.24    -0.269 OA BRANCH  40  43ATOM     43  C   UNL     1      35.050  44.777  18.916 -0.33 -0.02    +0.077 A  ATOM     44  C   UNL     1      33.862  44.147  19.358 -0.31 -0.03    +0.149 A  ATOM     45  C   UNL     1      36.053  44.091  19.581 -0.31 -0.02    +0.122 A  ATOM     46  N   UNL     1      34.090  43.151  20.217 -0.71 -0.02    -0.181 NA ATOM     47  N   UNL     1      35.428  43.142  20.342 -0.26 +0.00    -0.275 N  ATOM     48  C   UNL     1      36.055  42.180  21.216 -0.43 +0.01    +0.173 C  ENDBRANCH  40  43ENDBRANCH  32  39ENDBRANCH  29  32ENDBRANCH   3  29TORSDOF 9TERENDMDL