MODEL        9USER    Run = 9USERUSER    Estimated Free Energy of Binding    = -11.64 kcal/mol  [=(1)+(2)+(3)-(4)]USERUSER    (1) Final Intermolecular Energy     = -14.33 kcal/molUSER        vdW + Hbond + desolv Energy     = -14.25 kcal/molUSER        Electrostatic Energy            =  -0.08 kcal/molUSER        Moving Ligand-Fixed Receptor    = -14.33 kcal/molUSER        Moving Ligand-Moving Receptor   =  +0.00 kcal/molUSER    (2) Final Total Internal Energy     =  -2.42 kcal/molUSER    (3) Torsional Free Energy           =  +2.68 kcal/molUSER    (4) Unbound System's Energy         =  -2.42 kcal/molUSERUSERREMARK SMILES COc1cc(F)c(=O)[nH]c1C(=O)c1ccc(C(=O)N[C@@H]2CCN(C(C)C)C[C@H]2NC(=O)c2cc(F)nc(N3CCOCC3)c2)cc1FREMARK SMILES IDX 13 1 14 2 15 3 16 4 45 5 46 6 47 7 11 8 12 9 10 10 3 11 4 12REMARK SMILES IDX 5 13 9 14 7 15 6 16 8 18 2 19 1 20 17 21 19 22 18 23 20 25REMARK SMILES IDX 21 26 28 27 22 28 27 29 23 30 29 31 30 32 31 34 32 35 33 36REMARK SMILES IDX 44 37 34 38 37 39 36 40 35 41 38 42 39 43 43 44 40 45 42 46REMARK SMILES IDX 41 47 24 48 25 49 26 50REMARK H PARENT 9 17 19 24 29 33USER                              x       y       z     vdW  Elec       q    TypeUSER                           _______ _______ _______ _____ _____    ______ ____ROOTATOM      1  C   UNL     1      37.609  43.136  23.094 -0.33 +0.00    +0.060 A  ATOM      2  C   UNL     1      38.035  44.334  22.508 -0.34 +0.00    +0.016 A  ATOM      3  C   UNL     1      37.562  44.693  21.241 -0.29 +0.00    +0.015 A  ATOM      4  C   UNL     1      36.651  43.873  20.562 -0.39 -0.00    +0.042 A  ATOM      5  C   UNL     1      36.231  42.674  21.147 -0.42 +0.00    +0.053 A  ATOM      6  C   UNL     1      36.710  42.318  22.407 -0.38 +0.01    +0.135 A  ATOM      7  F   UNL     1      36.314  41.146  22.919 -0.20 -0.00    -0.206 F  ENDROOTBRANCH   1   8ATOM      8  C   UNL     1      38.069  42.733  24.443 -0.23 +0.01    +0.216 C  ATOM      9  O   UNL     1      39.226  42.380  24.642 -0.09 -0.03    -0.287 OA BRANCH   8  10ATOM     10  C   UNL     1      37.073  42.802  25.550 -0.28 -0.01    +0.133 A  ATOM     11  C   UNL     1      36.420  43.952  25.800 -0.26 -0.01    +0.149 A  ATOM     12  C   UNL     1      35.493  44.020  26.909 -0.30 -0.02    +0.094 A  ATOM     13  C   UNL     1      35.241  42.929  27.640 -0.40 -0.05    +0.191 A  ATOM     14  N   UNL     1      36.821  41.673  26.303 -0.21 +0.06    -0.314 N  ATOM     15  C   UNL     1      35.917  41.635  27.342 -0.34 -0.10    +0.284 A  ATOM     16  F   UNL     1      34.386  42.950  28.680 -0.14 +0.07    -0.201 F  ATOM     17  H   UNL     1      37.277  40.794  26.081 -0.31 -0.05    +0.170 HD ATOM     18  O   UNL     1      35.701  40.611  27.978 -0.51 +0.13    -0.266 OA BRANCH  11  19ATOM     19  O   UNL     1      36.676  45.139  25.156 -0.43 -0.04    -0.494 OA ATOM     20  C   UNL     1      37.302  46.080  26.031 -0.23 -0.01    +0.278 C  ENDBRANCH  11  19ENDBRANCH   8  10ENDBRANCH   1   8BRANCH   4  21ATOM     21  C   UNL     1      36.190  44.295  19.211 -0.26 -0.04    +0.251 C  ATOM     22  N   UNL     1      37.168  44.674  18.316 -0.13 +0.07    -0.347 N  ATOM     23  O   UNL     1      34.996  44.271  18.938 -0.23 +0.06    -0.269 OA ATOM     24  H   UNL     1      38.133  44.436  18.512 +0.10 -0.02    +0.164 HD BRANCH  22  25ATOM     25  C   UNL     1      36.843  45.037  16.934 -0.33 -0.04    +0.107 C  ATOM     26  C   UNL     1      38.088  45.052  16.045 -0.30 -0.01    +0.042 C  ATOM     27  C   UNL     1      36.062  46.376  16.878 -0.32 -0.09    +0.118 C  ATOM     28  C   UNL     1      38.906  46.337  16.182 -0.42 -0.02    +0.087 C  ATOM     29  C   UNL     1      36.702  47.369  15.875 -0.33 -0.10    +0.111 C  ATOM     30  N   UNL     1      38.121  47.584  16.186 -0.20 +0.17    -0.299 NA BRANCH  27  31ATOM     31  N   UNL     1      34.637  46.156  16.595 -0.05 +0.41    -0.346 N  ATOM     32  C   UNL     1      34.224  45.497  15.456 -0.20 -0.22    +0.251 C  ATOM     33  H   UNL     1      33.957  46.598  17.200 -0.32 -0.26    +0.164 HD ATOM     34  O   UNL     1      34.999  45.062  14.611 -0.18 +0.16    -0.269 OA BRANCH  32  35ATOM     35  C   UNL     1      32.762  45.328  15.263 -0.30 -0.04    +0.048 A  ATOM     36  C   UNL     1      32.018  46.157  14.438 -0.35 -0.06    +0.074 A  ATOM     37  C   UNL     1      32.117  44.317  15.981 -0.30 -0.03    +0.061 A  ATOM     38  C   UNL     1      30.666  45.912  14.358 -0.36 -0.13    +0.215 A  ATOM     39  C   UNL     1      30.742  44.142  15.848 -0.25 -0.06    +0.132 A  ATOM     40  N   UNL     1      30.025  44.932  15.026 -0.24 +0.14    -0.202 NA ATOM     41  F   UNL     1      29.925  46.701  13.567 -0.19 +0.09    -0.185 F  BRANCH  39  42ATOM     42  N   UNL     1      30.103  43.124  16.580 -0.08 +0.12    -0.352 N  ATOM     43  C   UNL     1      30.805  42.710  17.817 -0.21 -0.03    +0.146 C  ATOM     44  C   UNL     1      29.716  41.981  15.714 -0.28 -0.07    +0.146 C  ATOM     45  C   UNL     1      31.647  41.452  17.566 -0.27 -0.05    +0.181 C  ATOM     46  C   UNL     1      29.621  40.682  16.532 -0.33 -0.02    +0.181 C  ATOM     47  O   UNL     1      30.863  40.317  17.153 -0.20 +0.06    -0.378 OA ENDBRANCH  39  42ENDBRANCH  32  35ENDBRANCH  27  31BRANCH  30  48ATOM     48  C   UNL     1      38.774  48.669  15.418 -0.53 -0.03    +0.050 C  ATOM     49  C   UNL     1      40.289  48.777  15.656 -0.65 -0.01    +0.024 C  ATOM     50  C   UNL     1      38.557  48.463  13.908 -0.48 -0.01    +0.024 C  ENDBRANCH  30  48ENDBRANCH  22  25ENDBRANCH   4  21TORSDOF 9TERENDMDL