MODEL        8USER    Run = 8USERUSER    Estimated Free Energy of Binding    = -10.23 kcal/mol  [=(1)+(2)+(3)-(4)]USERUSER    (1) Final Intermolecular Energy     = -12.92 kcal/molUSER        vdW + Hbond + desolv Energy     = -12.82 kcal/molUSER        Electrostatic Energy            =  -0.10 kcal/molUSER        Moving Ligand-Fixed Receptor    = -12.92 kcal/molUSER        Moving Ligand-Moving Receptor   =  +0.00 kcal/molUSER    (2) Final Total Internal Energy     =  -2.09 kcal/molUSER    (3) Torsional Free Energy           =  +2.68 kcal/molUSER    (4) Unbound System's Energy         =  -2.09 kcal/molUSERUSERREMARK SMILES COc1cc(F)c(=O)[nH]c1C(=O)c1ccc(C(=O)N[C@@H]2CCN(C3CC3)C[C@H]2NC(=O)c2cc(N)nc(F)c2)cc1FREMARK SMILES IDX 17 1 18 2 19 3 16 5 13 6 14 7 41 8 15 9 40 10 42 11 11 12REMARK SMILES IDX 12 13 10 14 3 15 4 16 5 17 9 18 7 19 6 20 8 22 2 23 1 24REMARK SMILES IDX 20 25 21 26 28 27 22 28 27 29 23 30 29 31 30 32 31 34 32 35REMARK SMILES IDX 33 36 39 37 34 38 37 39 36 40 38 41 35 42 24 45 25 46 26 47REMARK H PARENT 19 4 9 21 29 33 35 43 35 44USER                              x       y       z     vdW  Elec       q    TypeUSER                           _______ _______ _______ _____ _____    ______ ____ROOTATOM      1  C   UNL     1      37.086  44.402  19.251 -0.25 -0.03    +0.251 C  ATOM      2  O   UNL     1      37.799  45.224  18.689 -0.26 +0.04    -0.269 OA ATOM      3  N   UNL     1      35.947  43.843  18.709 -0.11 +0.07    -0.347 N  ATOM      4  H   UNL     1      35.682  42.938  19.089 +0.12 -0.02    +0.164 HD ENDROOTBRANCH   1   5ATOM      5  C   UNL     1      37.450  43.923  20.607 -0.36 -0.00    +0.042 A  ATOM      6  C   UNL     1      38.098  43.122  23.219 -0.30 +0.00    +0.060 A  ATOM      7  C   UNL     1      37.237  42.342  22.429 -0.46 +0.00    +0.016 A  ATOM      8  C   UNL     1      38.648  44.285  22.671 -0.23 +0.01    +0.135 A  ATOM      9  C   UNL     1      36.912  42.740  21.128 -0.43 +0.00    +0.015 A  ATOM     10  C   UNL     1      38.317  44.698  21.381 -0.33 +0.00    +0.053 A  ATOM     11  F   UNL     1      39.515  45.040  23.359 -0.02 -0.01    -0.206 F  BRANCH   6  12ATOM     12  C   UNL     1      38.370  42.664  24.608 -0.18 +0.01    +0.216 C  ATOM     13  O   UNL     1      39.443  42.135  24.882 -0.01 -0.03    -0.287 OA BRANCH  12  14ATOM     14  C   UNL     1      37.287  42.757  25.624 -0.26 -0.01    +0.133 A  ATOM     15  C   UNL     1      36.676  43.935  25.858 -0.26 -0.01    +0.149 A  ATOM     16  C   UNL     1      35.586  43.995  26.810 -0.32 -0.02    +0.094 A  ATOM     17  C   UNL     1      35.227  42.899  27.492 -0.41 -0.05    +0.191 A  ATOM     18  N   UNL     1      36.941  41.628  26.347 -0.20 +0.06    -0.314 N  ATOM     19  C   UNL     1      35.945  41.606  27.297 -0.34 -0.09    +0.284 A  ATOM     20  F   UNL     1      34.221  42.915  28.387 -0.13 +0.05    -0.201 F  ATOM     21  H   UNL     1      37.434  40.754  26.207 -0.31 -0.04    +0.170 HD ATOM     22  O   UNL     1      35.681  40.592  27.932 -0.50 +0.13    -0.266 OA BRANCH  15  23ATOM     23  O   UNL     1      36.920  45.085  25.142 -0.40 -0.04    -0.494 OA ATOM     24  C   UNL     1      37.356  46.147  25.994 -0.23 -0.01    +0.278 C  ENDBRANCH  15  23ENDBRANCH  12  14ENDBRANCH   6  12ENDBRANCH   1   5BRANCH   3  25ATOM     25  C   UNL     1      35.552  44.124  17.322 -0.29 -0.04    +0.107 C  ATOM     26  C   UNL     1      36.657  43.691  16.341 -0.40 -0.01    +0.042 C  ATOM     27  C   UNL     1      35.182  45.623  17.128 -0.33 -0.08    +0.118 C  ATOM     28  C   UNL     1      36.486  44.344  14.970 -0.37 -0.03    +0.087 C  ATOM     29  C   UNL     1      36.287  46.366  16.357 -0.35 -0.08    +0.111 C  ATOM     30  N   UNL     1      36.484  45.816  14.999 -0.16 +0.16    -0.298 NA BRANCH  27  31ATOM     31  N   UNL     1      33.901  45.767  16.426 -0.04 +0.37    -0.346 N  ATOM     32  C   UNL     1      32.768  45.110  16.853 -0.20 -0.14    +0.251 C  ATOM     33  H   UNL     1      33.923  46.321  15.579 -0.16 -0.28    +0.164 HD ATOM     34  O   UNL     1      32.742  44.439  17.880 -0.21 +0.08    -0.269 OA BRANCH  32  35ATOM     35  C   UNL     1      31.543  45.248  16.022 -0.31 -0.02    +0.047 A  ATOM     36  C   UNL     1      31.668  45.856  14.768 -0.45 -0.04    +0.060 A  ATOM     37  C   UNL     1      30.291  44.826  16.452 -0.22 -0.01    +0.074 A  ATOM     38  C   UNL     1      30.540  45.996  13.974 -0.46 -0.08    +0.127 A  ATOM     39  C   UNL     1      29.228  45.021  15.593 -0.14 -0.10    +0.215 A  ATOM     40  N   UNL     1      29.328  45.587  14.376 -0.13 +0.18    -0.203 NA ATOM     41  F   UNL     1      28.010  44.624  15.994 -0.07 +0.06    -0.185 F  BRANCH  38  42ATOM     42  N   UNL     1      30.634  46.614  12.724 -0.35 +0.20    -0.384 N  ATOM     43  H   UNL     1      31.609  46.699  12.454 -0.31 -0.09    +0.158 HD ATOM     44  H   UNL     1      30.158  46.060  12.018 +0.03 -0.13    +0.158 HD ENDBRANCH  38  42ENDBRANCH  32  35ENDBRANCH  27  31BRANCH  30  45ATOM     45  C   UNL     1      37.557  46.538  14.285 -0.46 -0.02    +0.056 C  ATOM     46  C   UNL     1      37.763  48.024  14.358 -0.59 -0.01    +0.021 C  ATOM     47  C   UNL     1      37.275  47.394  13.081 -0.65 -0.01    +0.021 C  ENDBRANCH  30  45ENDBRANCH   3  25TORSDOF 9TERENDMDL