REMARK SMILES COc1cc(F)c(=O)[nH]c1C(=O)c1ccc(C(=O)N[C@@H]2CCN(C(C)C)C[C@H]2NC(=O)c2cc(N)nc(F)c2)cc1F
REMARK SMILES IDX 17 1 18 2 19 3 16 5 13 6 14 7 41 8 15 9 40 10 42 11 11 12
REMARK SMILES IDX 12 13 10 14 3 15 4 16 5 17 9 18 7 19 6 20 8 22 2 23 1 24
REMARK SMILES IDX 20 25 21 26 28 27 22 28 27 29 23 30 29 31 30 32 31 34 32 35
REMARK SMILES IDX 33 36 39 37 34 38 37 39 36 40 38 41 35 42 24 45 25 46 26 47
REMARK H PARENT 19 4 9 21 29 33 35 43 35 44
ROOT
ATOM      1  C   UNL     1       0.254   0.625   1.182  1.00  0.00     0.251 C 
ATOM      2  O   UNL     1      -0.040   1.444   2.045  1.00  0.00    -0.269 OA
ATOM      3  N   UNL     1      -0.682  -0.059   0.440  1.00  0.00    -0.347 N 
ATOM      4  H   UNL     1      -0.415  -0.906  -0.048  1.00  0.00     0.164 HD
ENDROOT
BRANCH   1   5
ATOM      5  C   UNL     1       1.687   0.330   0.895  1.00  0.00     0.042 A 
ATOM      6  C   UNL     1       4.425  -0.093   0.407  1.00  0.00     0.060 A 
ATOM      7  C   UNL     1       3.468  -0.472  -0.546  1.00  0.00     0.016 A 
ATOM      8  C   UNL     1       3.998   0.479   1.606  1.00  0.00     0.135 A 
ATOM      9  C   UNL     1       2.106  -0.252  -0.310  1.00  0.00     0.015 A 
ATOM     10  C   UNL     1       2.643   0.696   1.851  1.00  0.00     0.053 A 
ATOM     11  F   UNL     1       4.874   0.830   2.558  1.00  0.00    -0.206 F 
BRANCH   6  12
ATOM     12  C   UNL     1       5.854  -0.328   0.090  1.00  0.00     0.216 C 
ATOM     13  O   UNL     1       6.166  -1.189  -0.729  1.00  0.00    -0.287 OA
BRANCH  12  14
ATOM     14  C   UNL     1       6.880   0.566   0.698  1.00  0.00     0.133 A 
ATOM     15  C   UNL     1       7.877   0.048   1.440  1.00  0.00     0.149 A 
ATOM     16  C   UNL     1       8.854   0.932   2.044  1.00  0.00     0.094 A 
ATOM     17  C   UNL     1       8.810   2.246   1.804  1.00  0.00     0.191 A 
ATOM     18  N   UNL     1       6.824   1.924   0.450  1.00  0.00    -0.314 N 
ATOM     19  C   UNL     1       7.741   2.828   0.941  1.00  0.00     0.284 A 
ATOM     20  F   UNL     1       9.705   3.102   2.332  1.00  0.00    -0.201 F 
ATOM     21  H   UNL     1       6.100   2.310  -0.143  1.00  0.00     0.170 HD
ATOM     22  O   UNL     1       7.672   4.024   0.681  1.00  0.00    -0.266 OA
BRANCH  15  23
ATOM     23  O   UNL     1       7.984  -1.284   1.770  1.00  0.00    -0.494 OA
ATOM     24  C   UNL     1       8.932  -1.949   0.933  1.00  0.00     0.278 C 
ENDBRANCH  15  23
ENDBRANCH  12  14
ENDBRANCH   6  12
ENDBRANCH   1   5
BRANCH   3  25
ATOM     25  C   UNL     1      -2.121   0.108   0.659  1.00  0.00     0.107 C 
ATOM     26  C   UNL     1      -2.626  -0.845   1.744  1.00  0.00     0.042 C 
ATOM     27  C   UNL     1      -2.906  -0.088  -0.672  1.00  0.00     0.118 C 
ATOM     28  C   UNL     1      -2.523  -2.313   1.315  1.00  0.00     0.087 C 
ATOM     29  C   UNL     1      -3.525  -1.512  -0.752  1.00  0.00     0.111 C 
ATOM     30  N   UNL     1      -2.628  -2.505  -0.141  1.00  0.00    -0.299 NA
BRANCH  27  31
ATOM     31  N   UNL     1      -3.918   0.968  -0.849  1.00  0.00    -0.346 N 
ATOM     32  C   UNL     1      -4.577   1.118  -2.056  1.00  0.00     0.251 C 
ATOM     33  H   UNL     1      -3.772   1.818  -0.315  1.00  0.00     0.164 HD
ATOM     34  O   UNL     1      -4.488   0.325  -2.985  1.00  0.00    -0.269 OA
BRANCH  32  35
ATOM     35  C   UNL     1      -5.384   2.353  -2.218  1.00  0.00     0.047 A 
ATOM     36  C   UNL     1      -5.956   3.012  -1.129  1.00  0.00     0.060 A 
ATOM     37  C   UNL     1      -5.573   2.854  -3.502  1.00  0.00     0.074 A 
ATOM     38  C   UNL     1      -6.677   4.170  -1.369  1.00  0.00     0.127 A 
ATOM     39  C   UNL     1      -6.302   4.016  -3.629  1.00  0.00     0.215 A 
ATOM     40  N   UNL     1      -6.847   4.687  -2.594  1.00  0.00    -0.203 NA
ATOM     41  F   UNL     1      -6.481   4.527  -4.857  1.00  0.00    -0.185 F 
BRANCH  38  42
ATOM     42  N   UNL     1      -7.228   4.885  -0.309  1.00  0.00    -0.384 N 
ATOM     43  H   UNL     1      -7.839   4.314   0.267  1.00  0.00     0.158 HD
ATOM     44  H   UNL     1      -7.726   5.679  -0.708  1.00  0.00     0.158 HD
ENDBRANCH  38  42
ENDBRANCH  32  35
ENDBRANCH  27  31
BRANCH  30  45
ATOM     45  C   UNL     1      -2.909  -3.912  -0.498  1.00  0.00     0.050 C 
ATOM     46  C   UNL     1      -2.383  -4.207  -1.906  1.00  0.00     0.024 C 
ATOM     47  C   UNL     1      -4.381  -4.329  -0.383  1.00  0.00     0.024 C 
ENDBRANCH  30  45
ENDBRANCH   3  25
TORSDOF 9
