REMARK SMILES COc1cc(F)c(=O)[nH]c1C(=O)c1ccc(C(=O)N[C@@H]2CCN(C3CC3)C[C@H]2NC(=O)c2cc(F)nc(N3CCOCC3)c2)cc1F
REMARK SMILES IDX 13 1 14 2 15 3 16 4 45 5 46 6 47 7 11 8 12 9 10 10 3 11 4 12
REMARK SMILES IDX 5 13 9 14 7 15 6 16 8 18 2 19 1 20 17 21 19 22 18 23 20 25
REMARK SMILES IDX 21 26 28 27 22 28 27 29 23 30 29 31 30 32 31 34 32 35 33 36
REMARK SMILES IDX 44 37 34 38 37 39 36 40 35 41 38 42 39 43 43 44 40 45 42 46
REMARK SMILES IDX 41 47 24 48 25 49 26 50
REMARK H PARENT 9 17 19 24 29 33
ROOT
ATOM      1  C   UNL     1       4.529  -0.954  -1.240  1.00  0.00     0.060 A 
ATOM      2  C   UNL     1       3.914  -0.543  -2.432  1.00  0.00     0.016 A 
ATOM      3  C   UNL     1       2.791   0.290  -2.399  1.00  0.00     0.015 A 
ATOM      4  C   UNL     1       2.274   0.725  -1.173  1.00  0.00     0.042 A 
ATOM      5  C   UNL     1       2.858   0.288   0.018  1.00  0.00     0.053 A 
ATOM      6  C   UNL     1       3.976  -0.545  -0.024  1.00  0.00     0.135 A 
ATOM      7  F   UNL     1       4.486  -0.951   1.147  1.00  0.00    -0.206 F 
ENDROOT
BRANCH   1   8
ATOM      8  C   UNL     1       5.732  -1.823  -1.335  1.00  0.00     0.216 C 
ATOM      9  O   UNL     1       5.995  -2.401  -2.386  1.00  0.00    -0.287 OA
BRANCH   8  10
ATOM     10  C   UNL     1       6.654  -1.903  -0.169  1.00  0.00     0.133 A 
ATOM     11  C   UNL     1       6.863  -3.080   0.452  1.00  0.00     0.149 A 
ATOM     12  C   UNL     1       7.715  -3.128   1.622  1.00  0.00     0.094 A 
ATOM     13  C   UNL     1       8.332  -2.020   2.049  1.00  0.00     0.191 A 
ATOM     14  N   UNL     1       7.306  -0.761   0.253  1.00  0.00    -0.314 N 
ATOM     15  C   UNL     1       8.154  -0.723   1.337  1.00  0.00     0.284 A 
ATOM     16  F   UNL     1       9.128  -2.021   3.134  1.00  0.00    -0.201 F 
ATOM     17  H   UNL     1       7.188   0.112  -0.245  1.00  0.00     0.170 HD
ATOM     18  O   UNL     1       8.712   0.311   1.685  1.00  0.00    -0.266 OA
BRANCH  11  19
ATOM     19  O   UNL     1       6.201  -4.245   0.146  1.00  0.00    -0.494 OA
ATOM     20  C   UNL     1       7.008  -5.106  -0.662  1.00  0.00     0.278 C 
ENDBRANCH  11  19
ENDBRANCH   8  10
ENDBRANCH   1   8
BRANCH   4  21
ATOM     21  C   UNL     1       1.084   1.615  -1.180  1.00  0.00     0.251 C 
ATOM     22  N   UNL     1       1.006   2.546  -0.167  1.00  0.00    -0.347 N 
ATOM     23  O   UNL     1       0.234   1.496  -2.056  1.00  0.00    -0.269 OA
ATOM     24  H   UNL     1       1.724   2.577   0.543  1.00  0.00     0.164 HD
BRANCH  22  25
ATOM     25  C   UNL     1      -0.156   3.431  -0.007  1.00  0.00     0.107 C 
ATOM     26  C   UNL     1       0.246   4.711   0.742  1.00  0.00     0.042 C 
ATOM     27  C   UNL     1      -1.352   2.728   0.680  1.00  0.00     0.118 C 
ATOM     28  C   UNL     1      -0.860   5.249   1.651  1.00  0.00     0.087 C 
ATOM     29  C   UNL     1      -2.546   3.713   0.784  1.00  0.00     0.111 C 
ATOM     30  N   UNL     1      -2.197   5.116   1.078  1.00  0.00    -0.298 NA
BRANCH  27  31
ATOM     31  N   UNL     1      -1.739   1.501  -0.022  1.00  0.00    -0.346 N 
ATOM     32  C   UNL     1      -2.515   0.535   0.572  1.00  0.00     0.251 C 
ATOM     33  H   UNL     1      -1.494   1.451  -1.007  1.00  0.00     0.164 HD
ATOM     34  O   UNL     1      -2.894   0.613   1.736  1.00  0.00    -0.269 OA
BRANCH  32  35
ATOM     35  C   UNL     1      -2.906  -0.637  -0.256  1.00  0.00     0.048 A 
ATOM     36  C   UNL     1      -2.231  -1.006  -1.409  1.00  0.00     0.074 A 
ATOM     37  C   UNL     1      -3.996  -1.403   0.171  1.00  0.00     0.061 A 
ATOM     38  C   UNL     1      -2.702  -2.107  -2.086  1.00  0.00     0.215 A 
ATOM     39  C   UNL     1      -4.398  -2.518  -0.559  1.00  0.00     0.132 A 
ATOM     40  N   UNL     1      -3.756  -2.850  -1.697  1.00  0.00    -0.202 NA
ATOM     41  F   UNL     1      -2.067  -2.481  -3.207  1.00  0.00    -0.185 F 
BRANCH  39  42
ATOM     42  N   UNL     1      -5.492  -3.276  -0.161  1.00  0.00    -0.352 N 
ATOM     43  C   UNL     1      -5.918  -4.342  -1.085  1.00  0.00     0.146 C 
ATOM     44  C   UNL     1      -5.675  -3.580   1.271  1.00  0.00     0.146 C 
ATOM     45  C   UNL     1      -7.166  -5.036  -0.518  1.00  0.00     0.181 C 
ATOM     46  C   UNL     1      -5.858  -5.091   1.490  1.00  0.00     0.181 C 
ATOM     47  O   UNL     1      -6.962  -5.651   0.765  1.00  0.00    -0.378 OA
ENDBRANCH  39  42
ENDBRANCH  32  35
ENDBRANCH  27  31
BRANCH  30  48
ATOM     48  C   UNL     1      -2.448   6.029  -0.049  1.00  0.00     0.056 C 
ATOM     49  C   UNL     1      -2.787   7.467   0.235  1.00  0.00     0.021 C 
ATOM     50  C   UNL     1      -3.847   6.536  -0.273  1.00  0.00     0.021 C 
ENDBRANCH  30  48
ENDBRANCH  22  25
ENDBRANCH   4  21
TORSDOF 9
