MODEL        10USER    Run = 10USERUSER    Estimated Free Energy of Binding    = -11.31 kcal/mol  [=(1)+(2)+(3)-(4)]USERUSER    (1) Final Intermolecular Energy     = -14.00 kcal/molUSER        vdW + Hbond + desolv Energy     = -13.91 kcal/molUSER        Electrostatic Energy            =  -0.09 kcal/molUSER        Moving Ligand-Fixed Receptor    = -14.00 kcal/molUSER        Moving Ligand-Moving Receptor   =  +0.00 kcal/molUSER    (2) Final Total Internal Energy     =  -3.21 kcal/molUSER    (3) Torsional Free Energy           =  +2.68 kcal/molUSER    (4) Unbound System's Energy         =  -3.21 kcal/molUSERUSERREMARK SMILES COc1cc(F)c(=O)[nH]c1C(=O)c1ccc(C(=O)N[C@@H]2CCN(C3CC3)C[C@H]2NC(=O)c2cc(F)nc(N3CCN(C)CC3)c2)cc1FREMARK SMILES IDX 17 1 18 2 19 3 16 5 13 6 14 7 47 8 15 9 46 10 48 11 11 12REMARK SMILES IDX 12 13 10 14 3 15 4 16 5 17 9 18 7 19 6 20 8 22 2 23 1 24REMARK SMILES IDX 20 25 21 26 28 27 22 28 27 29 23 30 29 31 30 32 31 34 32 35REMARK SMILES IDX 33 36 45 37 34 38 37 39 36 40 35 41 38 42 39 43 44 44 40 45REMARK SMILES IDX 43 46 41 47 42 48 24 49 25 50 26 51REMARK H PARENT 19 4 9 21 29 33USER                              x       y       z     vdW  Elec       q    TypeUSER                           _______ _______ _______ _____ _____    ______ ____ROOTATOM      1  C   UNL     1      39.604  45.692  18.232 -0.33 -0.03    +0.251 C  ATOM      2  O   UNL     1      39.280  44.572  17.854 -0.22 +0.03    -0.269 OA ATOM      3  N   UNL     1      39.357  46.841  17.509 -0.21 +0.08    -0.347 N  ATOM      4  H   UNL     1      39.871  47.679  17.745 +0.09 -0.04    +0.164 HD ENDROOTBRANCH   1   5ATOM      5  C   UNL     1      40.317  45.857  19.528 -0.38 -0.00    +0.042 A  ATOM      6  C   UNL     1      41.770  46.162  21.916 -0.24 +0.01    +0.060 A  ATOM      7  C   UNL     1      40.459  45.663  21.941 -0.27 +0.00    +0.016 A  ATOM      8  C   UNL     1      42.337  46.514  20.691 -0.29 +0.03    +0.135 A  ATOM      9  C   UNL     1      39.737  45.502  20.752 -0.34 +0.00    +0.015 A  ATOM     10  C   UNL     1      41.624  46.357  19.504 -0.42 +0.00    +0.053 A  ATOM     11  F   UNL     1      43.573  47.026  20.616 -0.14 -0.09    -0.206 F  BRANCH   6  12ATOM     12  C   UNL     1      42.485  46.309  23.209 -0.12 +0.03    +0.216 C  ATOM     13  O   UNL     1      41.881  46.122  24.263 -0.05 -0.02    -0.287 OA BRANCH  12  14ATOM     14  C   UNL     1      43.945  46.596  23.197 -0.14 +0.04    +0.133 A  ATOM     15  C   UNL     1      44.400  47.824  23.512 -0.20 +0.04    +0.149 A  ATOM     16  C   UNL     1      45.821  48.099  23.445 -0.09 +0.03    +0.094 A  ATOM     17  C   UNL     1      46.681  47.122  23.140 -0.10 +0.10    +0.191 A  ATOM     18  N   UNL     1      44.828  45.580  22.892 -0.07 -0.16    -0.314 N  ATOM     19  C   UNL     1      46.197  45.743  22.849 -0.06 +0.22    +0.284 A  ATOM     20  F   UNL     1      48.008  47.335  23.070 -0.02 -0.08    -0.201 F  ATOM     21  H   UNL     1      44.493  44.644  22.700 +0.05 +0.07    +0.170 HD ATOM     22  O   UNL     1      46.950  44.814  22.588 -0.17 -0.22    -0.266 OA BRANCH  15  23ATOM     23  O   UNL     1      43.595  48.910  23.762 -0.63 -0.16    -0.494 OA ATOM     24  C   UNL     1      43.397  49.099  25.164 -0.24 +0.04    +0.278 C  ENDBRANCH  15  23ENDBRANCH  12  14ENDBRANCH   6  12ENDBRANCH   1   5BRANCH   3  25ATOM     25  C   UNL     1      38.795  46.780  16.153 -0.41 -0.04    +0.107 C  ATOM     26  C   UNL     1      39.215  48.002  15.327 -0.56 -0.02    +0.042 C  ATOM     27  C   UNL     1      37.262  46.644  16.194 -0.36 -0.07    +0.118 C  ATOM     28  C   UNL     1      38.176  48.410  14.275 -0.53 -0.04    +0.087 C  ATOM     29  C   UNL     1      36.721  46.502  14.752 -0.39 -0.07    +0.111 C  ATOM     30  N   UNL     1      37.489  47.244  13.734 -0.31 +0.12    -0.298 NA BRANCH  27  31ATOM     31  N   UNL     1      36.867  45.522  17.051 -0.12 +0.14    -0.346 N  ATOM     32  C   UNL     1      35.780  45.601  17.891 -0.23 -0.11    +0.251 C  ATOM     33  H   UNL     1      37.532  44.764  17.132 +0.11 -0.04    +0.164 HD ATOM     34  O   UNL     1      35.068  46.595  17.970 -0.41 +0.21    -0.269 OA BRANCH  32  35ATOM     35  C   UNL     1      35.508  44.420  18.751 -0.33 -0.01    +0.048 A  ATOM     36  C   UNL     1      34.359  43.656  18.625 -0.30 -0.02    +0.074 A  ATOM     37  C   UNL     1      36.445  44.093  19.735 -0.35 -0.01    +0.061 A  ATOM     38  C   UNL     1      34.227  42.581  19.474 -0.26 -0.01    +0.215 A  ATOM     39  C   UNL     1      36.227  42.997  20.566 -0.36 -0.00    +0.132 A  ATOM     40  N   UNL     1      35.126  42.235  20.415 -0.36 -0.01    -0.202 NA ATOM     41  F   UNL     1      33.129  41.817  19.362 -0.12 -0.01    -0.185 F  BRANCH  39  42ATOM     42  N   UNL     1      37.177  42.673  21.553 -0.18 -0.01    -0.354 N  ATOM     43  C   UNL     1      36.901  41.426  22.303 -0.52 +0.01    +0.133 C  ATOM     44  C   UNL     1      37.520  43.834  22.415 -0.34 +0.01    +0.133 C  ATOM     45  C   UNL     1      36.210  41.722  23.652 -0.29 +0.00    +0.105 C  ATOM     46  C   UNL     1      38.002  43.382  23.814 -0.30 +0.01    +0.105 C  ATOM     47  N   UNL     1      36.986  42.606  24.558 -0.20 -0.01    -0.303 NA ATOM     48  C   UNL     1      37.608  41.855  25.644 -0.31 -0.01    +0.105 C  ENDBRANCH  39  42ENDBRANCH  32  35ENDBRANCH  27  31BRANCH  30  49ATOM     49  C   UNL     1      36.739  47.402  12.476 -0.70 -0.02    +0.056 C  ATOM     50  C   UNL     1      37.135  46.643  11.237 -0.55 -0.01    +0.021 C  ATOM     51  C   UNL     1      35.818  46.363  11.898 -0.63 -0.01    +0.021 C  ENDBRANCH  30  49ENDBRANCH   3  25TORSDOF 9TERENDMDL