MODEL        8USER    Run = 8USERUSER    Estimated Free Energy of Binding    = -11.92 kcal/mol  [=(1)+(2)+(3)-(4)]USERUSER    (1) Final Intermolecular Energy     = -14.60 kcal/molUSER        vdW + Hbond + desolv Energy     = -14.34 kcal/molUSER        Electrostatic Energy            =  -0.26 kcal/molUSER        Moving Ligand-Fixed Receptor    = -14.60 kcal/molUSER        Moving Ligand-Moving Receptor   =  +0.00 kcal/molUSER    (2) Final Total Internal Energy     =  -2.61 kcal/molUSER    (3) Torsional Free Energy           =  +2.68 kcal/molUSER    (4) Unbound System's Energy         =  -2.61 kcal/molUSERUSERREMARK SMILES COc1cc(F)c(=O)[nH]c1C(=O)c1ccc(C(=O)N[C@@H]2CCN(C3CC3)C[C@H]2NC(=O)c2cc(F)nc(N3CCOCC3)c2)cc1FREMARK SMILES IDX 13 1 14 2 15 3 16 4 45 5 46 6 47 7 11 8 12 9 10 10 3 11 4 12REMARK SMILES IDX 5 13 9 14 7 15 6 16 8 18 2 19 1 20 17 21 19 22 18 23 20 25REMARK SMILES IDX 21 26 28 27 22 28 27 29 23 30 29 31 30 32 31 34 32 35 33 36REMARK SMILES IDX 44 37 34 38 37 39 36 40 35 41 38 42 39 43 43 44 40 45 42 46REMARK SMILES IDX 41 47 24 48 25 49 26 50REMARK H PARENT 9 17 19 24 29 33USER                              x       y       z     vdW  Elec       q    TypeUSER                           _______ _______ _______ _____ _____    ______ ____ROOTATOM      1  C   UNL     1      39.187  44.694  21.206 -0.30 +0.00    +0.060 A  ATOM      2  C   UNL     1      38.189  43.820  21.666 -0.34 +0.00    +0.016 A  ATOM      3  C   UNL     1      37.070  43.544  20.875 -0.39 +0.00    +0.015 A  ATOM      4  C   UNL     1      36.938  44.136  19.612 -0.35 -0.00    +0.042 A  ATOM      5  C   UNL     1      37.907  45.036  19.166 -0.29 -0.01    +0.053 A  ATOM      6  C   UNL     1      39.020  45.307  19.962 -0.28 -0.00    +0.135 A  ATOM      7  F   UNL     1      39.910  46.193  19.495 -0.12 +0.01    -0.206 F  ENDROOTBRANCH   1   8ATOM      8  C   UNL     1      40.365  44.935  22.080 -0.19 +0.01    +0.216 C  ATOM      9  O   UNL     1      41.332  44.179  22.037 -0.15 -0.02    -0.287 OA BRANCH   8  10ATOM     10  C   UNL     1      40.388  46.154  22.935 -0.18 +0.01    +0.133 A  ATOM     11  C   UNL     1      39.370  46.411  23.778 -0.21 +0.01    +0.149 A  ATOM     12  C   UNL     1      39.379  47.633  24.556 -0.28 +0.01    +0.094 A  ATOM     13  C   UNL     1      40.419  48.471  24.477 -0.23 +0.03    +0.191 A  ATOM     14  N   UNL     1      41.475  47.004  22.866 -0.10 -0.04    -0.314 N  ATOM     15  C   UNL     1      41.578  48.170  23.590 -0.18 +0.04    +0.284 A  ATOM     16  F   UNL     1      40.465  49.618  25.180 +0.12 -0.04    -0.201 F  ATOM     17  H   UNL     1      42.262  46.783  22.270 +0.08 +0.03    +0.170 HD ATOM     18  O   UNL     1      42.557  48.902  23.500 -0.92 -0.08    -0.266 OA BRANCH  11  19ATOM     19  O   UNL     1      38.220  45.662  23.855 -0.22 -0.07    -0.494 OA ATOM     20  C   UNL     1      37.776  45.528  25.208 -0.20 +0.02    +0.278 C  ENDBRANCH  11  19ENDBRANCH   8  10ENDBRANCH   1   8BRANCH   4  21ATOM     21  C   UNL     1      35.737  43.812  18.799 -0.24 -0.05    +0.251 C  ATOM     22  N   UNL     1      34.855  44.844  18.567 -0.14 +0.12    -0.347 N  ATOM     23  O   UNL     1      35.572  42.673  18.376 -0.25 +0.06    -0.269 OA ATOM     24  H   UNL     1      35.031  45.755  18.966 +0.06 -0.06    +0.164 HD BRANCH  22  25ATOM     25  C   UNL     1      33.588  44.643  17.850 -0.33 -0.04    +0.107 C  ATOM     26  C   UNL     1      32.682  43.674  18.626 -0.40 -0.01    +0.042 C  ATOM     27  C   UNL     1      33.796  44.173  16.390 -0.30 -0.06    +0.118 C  ATOM     28  C   UNL     1      31.833  42.785  17.716 -0.30 -0.02    +0.087 C  ATOM     29  C   UNL     1      32.420  44.014  15.692 -0.32 -0.06    +0.111 C  ATOM     30  N   UNL     1      31.332  43.478  16.532 -0.13 +0.11    -0.298 NA BRANCH  27  31ATOM     31  N   UNL     1      34.665  45.086  15.642 -0.11 +0.24    -0.346 N  ATOM     32  C   UNL     1      35.955  44.754  15.306 -0.24 -0.12    +0.251 C  ATOM     33  H   UNL     1      34.229  45.935  15.291 +0.04 -0.19    +0.164 HD ATOM     34  O   UNL     1      36.477  43.697  15.646 -0.30 +0.09    -0.269 OA BRANCH  32  35ATOM     35  C   UNL     1      36.724  45.728  14.486 -0.37 -0.02    +0.048 A  ATOM     36  C   UNL     1      36.353  46.093  13.201 -0.48 -0.03    +0.074 A  ATOM     37  C   UNL     1      37.862  46.307  15.057 -0.35 -0.02    +0.061 A  ATOM     38  C   UNL     1      37.157  46.998  12.549 -0.44 -0.07    +0.215 A  ATOM     39  C   UNL     1      38.612  47.234  14.340 -0.37 -0.04    +0.132 A  ATOM     40  N   UNL     1      38.262  47.558  13.079 -0.66 +0.03    -0.202 NA ATOM     41  F   UNL     1      36.820  47.364  11.304 -0.18 +0.08    -0.185 F  BRANCH  39  42ATOM     42  N   UNL     1      39.757  47.802  14.884 -0.23 +0.09    -0.352 N  ATOM     43  C   UNL     1      39.658  49.217  15.282 -0.33 -0.07    +0.146 C  ATOM     44  C   UNL     1      40.638  46.975  15.731 -0.40 -0.01    +0.146 C  ATOM     45  C   UNL     1      41.021  49.694  15.807 -0.56 -0.04    +0.181 C  ATOM     46  C   UNL     1      40.906  47.665  17.078 -0.44 -0.02    +0.181 C  ATOM     47  O   UNL     1      41.493  48.968  16.954 -0.87 -0.02    -0.378 OA ENDBRANCH  39  42ENDBRANCH  32  35ENDBRANCH  27  31BRANCH  30  48ATOM     48  C   UNL     1      30.282  44.465  16.828 -0.22 -0.01    +0.056 C  ATOM     49  C   UNL     1      28.979  44.396  16.079 -0.34 -0.01    +0.021 C  ATOM     50  C   UNL     1      29.949  45.503  15.790 -0.41 -0.01    +0.021 C  ENDBRANCH  30  48ENDBRANCH  22  25ENDBRANCH   4  21TORSDOF 9TERENDMDL