REMARK SMILES COc1cc(F)c(=O)[nH]c1C(=O)c1ccc(C(=O)N[C@@H]2CCN(C3CC3)C[C@H]2NC(=O)c2cc(F)nc(N3CCN(C)CC3)c2)cc1F
REMARK SMILES IDX 17 1 18 2 19 3 16 5 13 6 14 7 47 8 15 9 46 10 48 11 11 12
REMARK SMILES IDX 12 13 10 14 3 15 4 16 5 17 9 18 7 19 6 20 8 22 2 23 1 24
REMARK SMILES IDX 20 25 21 26 28 27 22 28 27 29 23 30 29 31 30 32 31 34 32 35
REMARK SMILES IDX 33 36 45 37 34 38 37 39 36 40 35 41 38 42 39 43 44 44 40 45
REMARK SMILES IDX 43 46 41 47 42 48 24 49 25 50 26 51
REMARK H PARENT 19 4 9 21 29 33
ROOT
ATOM      1  C   UNL     1      -2.336  -2.273  -0.110  1.00  0.00     0.251 C 
ATOM      2  O   UNL     1      -2.599  -3.224  -0.836  1.00  0.00    -0.269 OA
ATOM      3  N   UNL     1      -1.219  -2.218   0.698  1.00  0.00    -0.347 N 
ATOM      4  H   UNL     1      -1.200  -1.541   1.449  1.00  0.00     0.164 HD
ENDROOT
BRANCH   1   5
ATOM      5  C   UNL     1      -3.257  -1.104  -0.059  1.00  0.00     0.042 A 
ATOM      6  C   UNL     1      -5.067   1.048  -0.044  1.00  0.00     0.060 A 
ATOM      7  C   UNL     1      -3.728   1.242   0.331  1.00  0.00     0.016 A 
ATOM      8  C   UNL     1      -5.487  -0.230  -0.414  1.00  0.00     0.135 A 
ATOM      9  C   UNL     1      -2.824   0.174   0.316  1.00  0.00     0.015 A 
ATOM     10  C   UNL     1      -4.592  -1.298  -0.431  1.00  0.00     0.053 A 
ATOM     11  F   UNL     1      -6.761  -0.475  -0.748  1.00  0.00    -0.206 F 
BRANCH   6  12
ATOM     12  C   UNL     1      -5.978   2.220  -0.009  1.00  0.00     0.216 C 
ATOM     13  O   UNL     1      -5.686   3.197   0.676  1.00  0.00    -0.287 OA
BRANCH  12  14
ATOM     14  C   UNL     1      -7.187   2.219  -0.876  1.00  0.00     0.133 A 
ATOM     15  C   UNL     1      -8.414   2.344  -0.335  1.00  0.00     0.149 A 
ATOM     16  C   UNL     1      -9.582   2.290  -1.190  1.00  0.00     0.094 A 
ATOM     17  C   UNL     1      -9.440   2.185  -2.515  1.00  0.00     0.191 A 
ATOM     18  N   UNL     1      -7.033   2.121  -2.245  1.00  0.00    -0.314 N 
ATOM     19  C   UNL     1      -8.087   2.107  -3.134  1.00  0.00     0.284 A 
ATOM     20  F   UNL     1     -10.499   2.134  -3.344  1.00  0.00    -0.201 F 
ATOM     21  H   UNL     1      -6.111   2.073  -2.659  1.00  0.00     0.170 HD
ATOM     22  O   UNL     1      -7.911   2.033  -4.343  1.00  0.00    -0.266 OA
BRANCH  15  23
ATOM     23  O   UNL     1      -8.666   2.379   1.016  1.00  0.00    -0.494 OA
ATOM     24  C   UNL     1      -8.857   3.718   1.475  1.00  0.00     0.278 C 
ENDBRANCH  15  23
ENDBRANCH  12  14
ENDBRANCH   6  12
ENDBRANCH   1   5
BRANCH   3  25
ATOM     25  C   UNL     1      -0.324  -3.375   0.838  1.00  0.00     0.107 C 
ATOM     26  C   UNL     1      -0.856  -4.359   1.887  1.00  0.00     0.042 C 
ATOM     27  C   UNL     1       1.109  -2.929   1.179  1.00  0.00     0.118 C 
ATOM     28  C   UNL     1       0.253  -5.130   2.614  1.00  0.00     0.087 C 
ATOM     29  C   UNL     1       2.032  -4.169   1.237  1.00  0.00     0.111 C 
ATOM     30  N   UNL     1       1.376  -5.397   1.726  1.00  0.00    -0.298 NA
BRANCH  27  31
ATOM     31  N   UNL     1       1.580  -1.928   0.217  1.00  0.00    -0.346 N 
ATOM     32  C   UNL     1       2.707  -1.173   0.450  1.00  0.00     0.251 C 
ATOM     33  H   UNL     1       0.942  -1.690  -0.531  1.00  0.00     0.164 HD
ATOM     34  O   UNL     1       3.393  -1.294   1.458  1.00  0.00    -0.269 OA
BRANCH  32  35
ATOM     35  C   UNL     1       3.056  -0.153  -0.572  1.00  0.00     0.048 A 
ATOM     36  C   UNL     1       2.634  -0.244  -1.889  1.00  0.00     0.074 A 
ATOM     37  C   UNL     1       3.860   0.921  -0.182  1.00  0.00     0.061 A 
ATOM     38  C   UNL     1       3.015   0.769  -2.739  1.00  0.00     0.215 A 
ATOM     39  C   UNL     1       4.215   1.897  -1.110  1.00  0.00     0.132 A 
ATOM     40  N   UNL     1       3.771   1.824  -2.380  1.00  0.00    -0.202 NA
ATOM     41  F   UNL     1       2.607   0.711  -4.016  1.00  0.00    -0.185 F 
BRANCH  39  42
ATOM     42  N   UNL     1       5.023   2.977  -0.708  1.00  0.00    -0.354 N 
ATOM     43  C   UNL     1       5.170   4.057  -1.711  1.00  0.00     0.133 C 
ATOM     44  C   UNL     1       6.307   2.534  -0.105  1.00  0.00     0.133 C 
ATOM     45  C   UNL     1       6.483   3.909  -2.510  1.00  0.00     0.105 C 
ATOM     46  C   UNL     1       7.412   3.604  -0.266  1.00  0.00     0.105 C 
ATOM     47  N   UNL     1       7.712   3.924  -1.679  1.00  0.00    -0.303 NA
ATOM     48  C   UNL     1       8.416   5.199  -1.778  1.00  0.00     0.105 C 
ENDBRANCH  39  42
ENDBRANCH  32  35
ENDBRANCH  27  31
BRANCH  30  49
ATOM     49  C   UNL     1       2.351  -6.425   2.130  1.00  0.00     0.056 C 
ATOM     50  C   UNL     1       3.200  -6.247   3.362  1.00  0.00     0.021 C 
ATOM     51  C   UNL     1       2.180  -7.345   3.308  1.00  0.00     0.021 C 
ENDBRANCH  30  49
ENDBRANCH   3  25
TORSDOF 9
