MODEL        5USER    Run = 5USERUSER    Estimated Free Energy of Binding    = -10.48 kcal/mol  [=(1)+(2)+(3)-(4)]USERUSER    (1) Final Intermolecular Energy     = -13.17 kcal/molUSER        vdW + Hbond + desolv Energy     = -12.78 kcal/molUSER        Electrostatic Energy            =  -0.39 kcal/molUSER        Moving Ligand-Fixed Receptor    = -13.17 kcal/molUSER        Moving Ligand-Moving Receptor   =  +0.00 kcal/molUSER    (2) Final Total Internal Energy     =  -1.58 kcal/molUSER    (3) Torsional Free Energy           =  +2.68 kcal/molUSER    (4) Unbound System's Energy         =  -1.58 kcal/molUSERUSERREMARK SMILES COc1cc(F)c(=O)[nH]c1C(=O)c1ccc(C(=O)N[C@@H]2CCN(C(C)C)C[C@H]2NC(=O)c2cc(N)nc(F)c2)cc1FREMARK SMILES IDX 17 1 18 2 19 3 16 5 13 6 14 7 41 8 15 9 40 10 42 11 11 12REMARK SMILES IDX 12 13 10 14 3 15 4 16 5 17 9 18 7 19 6 20 8 22 2 23 1 24REMARK SMILES IDX 20 25 21 26 28 27 22 28 27 29 23 30 29 31 30 32 31 34 32 35REMARK SMILES IDX 33 36 39 37 34 38 37 39 36 40 38 41 35 42 24 45 25 46 26 47REMARK H PARENT 19 4 9 21 29 33 35 43 35 44USER                              x       y       z     vdW  Elec       q    TypeUSER                           _______ _______ _______ _____ _____    ______ ____ROOTATOM      1  C   UNL     1      35.399  45.114  17.821 -0.23 -0.11    +0.251 C  ATOM      2  O   UNL     1      36.048  45.136  18.860 -0.24 +0.07    -0.269 OA ATOM      3  N   UNL     1      35.819  45.714  16.656 -0.12 +0.22    -0.347 N  ATOM      4  H   UNL     1      35.148  45.911  15.922 +0.11 -0.15    +0.164 HD ENDROOTBRANCH   1   5ATOM      5  C   UNL     1      34.085  44.411  17.780 -0.29 -0.02    +0.042 A  ATOM      6  C   UNL     1      31.639  43.023  17.835 -0.26 -0.01    +0.060 A  ATOM      7  C   UNL     1      32.384  43.100  16.649 -0.31 -0.01    +0.016 A  ATOM      8  C   UNL     1      32.119  43.660  18.980 -0.28 -0.01    +0.135 A  ATOM      9  C   UNL     1      33.607  43.780  16.623 -0.32 -0.01    +0.015 A  ATOM     10  C   UNL     1      33.333  44.344  18.960 -0.38 -0.01    +0.053 A  ATOM     11  F   UNL     1      31.426  43.638  20.127 -0.02 -0.01    -0.206 F  BRANCH   6  12ATOM     12  C   UNL     1      30.363  42.267  17.807 -0.12 -0.04    +0.216 C  ATOM     13  O   UNL     1      29.374  42.755  17.266 -0.13 +0.06    -0.287 OA BRANCH  12  14ATOM     14  C   UNL     1      30.341  40.878  18.347 -0.06 -0.01    +0.133 A  ATOM     15  C   UNL     1      29.529  39.952  17.804 -0.23 +0.01    +0.149 A  ATOM     16  C   UNL     1      29.501  38.612  18.355 -0.28 +0.03    +0.094 A  ATOM     17  C   UNL     1      30.332  38.276  19.346 -0.29 +0.04    +0.191 A  ATOM     18  N   UNL     1      31.199  40.541  19.376 -0.06 -0.02    -0.314 N  ATOM     19  C   UNL     1      31.275  39.278  19.923 -0.22 +0.05    +0.284 A  ATOM     20  F   UNL     1      30.351  37.039  19.878 -0.07 -0.06    -0.201 F  ATOM     21  H   UNL     1      31.841  41.224  19.757 +0.09 +0.02    +0.170 HD ATOM     22  O   UNL     1      32.065  39.009  20.821 -1.23 -0.11    -0.266 OA BRANCH  15  23ATOM     23  O   UNL     1      28.616  40.213  16.808 -0.08 -0.06    -0.494 OA ATOM     24  C   UNL     1      29.258  40.333  15.537 -0.21 -0.03    +0.278 C  ENDBRANCH  15  23ENDBRANCH  12  14ENDBRANCH   6  12ENDBRANCH   1   5BRANCH   3  25ATOM     25  C   UNL     1      37.069  46.474  16.579 -0.35 -0.06    +0.107 C  ATOM     26  C   UNL     1      36.897  47.730  15.723 -0.40 -0.04    +0.042 C  ATOM     27  C   UNL     1      38.225  45.579  16.040 -0.33 -0.04    +0.118 C  ATOM     28  C   UNL     1      36.623  47.393  14.253 -0.48 -0.06    +0.087 C  ATOM     29  C   UNL     1      38.479  45.845  14.529 -0.38 -0.03    +0.111 C  ATOM     30  N   UNL     1      37.214  46.114  13.827 -0.21 +0.12    -0.299 NA BRANCH  27  31ATOM     31  N   UNL     1      39.445  45.749  16.846 -0.14 +0.06    -0.346 N  ATOM     32  C   UNL     1      39.470  45.372  18.177 -0.31 -0.03    +0.251 C  ATOM     33  H   UNL     1      40.037  46.535  16.598 +0.11 -0.03    +0.164 HD ATOM     34  O   UNL     1      38.567  44.753  18.727 -0.26 +0.03    -0.269 OA BRANCH  32  35ATOM     35  C   UNL     1      40.648  45.810  18.966 -0.43 -0.00    +0.047 A  ATOM     36  C   UNL     1      41.658  46.598  18.413 -0.47 -0.00    +0.060 A  ATOM     37  C   UNL     1      40.737  45.411  20.296 -0.34 +0.00    +0.074 A  ATOM     38  C   UNL     1      42.712  46.979  19.227 -0.42 +0.02    +0.127 A  ATOM     39  C   UNL     1      41.824  45.850  21.019 -0.21 +0.03    +0.215 A  ATOM     40  N   UNL     1      42.804  46.631  20.518 -0.29 -0.06    -0.203 NA ATOM     41  F   UNL     1      41.922  45.492  22.308 -0.04 -0.03    -0.185 F  BRANCH  38  42ATOM     42  N   UNL     1      43.719  47.802  18.730 -0.06 -0.06    -0.384 N  ATOM     43  H   UNL     1      43.589  48.774  18.991 -0.52 -0.03    +0.158 HD ATOM     44  H   UNL     1      43.732  47.685  17.718 -0.37 -0.02    +0.158 HD ENDBRANCH  38  42ENDBRANCH  32  35ENDBRANCH  27  31BRANCH  30  45ATOM     45  C   UNL     1      37.272  45.991  12.355 -0.50 -0.02    +0.050 C  ATOM     46  C   UNL     1      36.364  47.040  11.708 -0.61 -0.01    +0.024 C  ATOM     47  C   UNL     1      36.945  44.595  11.807 -0.56 -0.01    +0.024 C  ENDBRANCH  30  45ENDBRANCH   3  25TORSDOF 9TERENDMDL