REMARK SMILES COc1ccccc1-c1cc(NC(=O)[C@@H]2CCC[C@H](N)C2)ccc1OC
REMARK SMILES IDX 9 1 10 2 11 3 22 4 23 5 24 6 8 7 3 8 4 9 5 10 7 11 6 12 2 13
REMARK SMILES IDX 1 14 25 15 26 16 12 17 13 18 14 20 15 21 16 22 21 23 17 24
REMARK SMILES IDX 19 25 18 26 20 27
REMARK H PARENT 12 19 20 28 20 29
ROOT
ATOM      1  C   UNL     1      -2.647  -0.099  -0.578  1.00  0.00     0.030 A 
ATOM      2  C   UNL     1      -1.313   0.169  -0.208  1.00  0.00     0.038 A 
ATOM      3  C   UNL     1      -0.243  -0.584  -0.704  1.00  0.00     0.042 A 
ATOM      4  C   UNL     1      -0.512  -1.621  -1.591  1.00  0.00     0.030 A 
ATOM      5  C   UNL     1      -1.828  -1.907  -1.974  1.00  0.00     0.049 A 
ATOM      6  C   UNL     1      -2.900  -1.160  -1.474  1.00  0.00     0.126 A 
ENDROOT
BRANCH   1   7
ATOM      7  C   UNL     1      -3.731   0.744  -0.025  1.00  0.00     0.028 A 
ATOM      8  C   UNL     1      -4.061   0.741   1.350  1.00  0.00     0.126 A 
ATOM      9  C   UNL     1      -5.081   1.577   1.823  1.00  0.00     0.047 A 
ATOM     10  C   UNL     1      -5.785   2.405   0.947  1.00  0.00     0.004 A 
ATOM     11  C   UNL     1      -4.455   1.589  -0.888  1.00  0.00     0.013 A 
ATOM     12  C   UNL     1      -5.475   2.410  -0.408  1.00  0.00     0.001 A 
BRANCH   8  13
ATOM     13  O   UNL     1      -3.321  -0.090   2.156  1.00  0.00    -0.496 OA
ATOM     14  C   UNL     1      -3.853  -0.388   3.439  1.00  0.00     0.278 C 
ENDBRANCH   8  13
ENDBRANCH   1   7
BRANCH   6  15
ATOM     15  O   UNL     1      -4.214  -1.384  -1.801  1.00  0.00    -0.496 OA
ATOM     16  C   UNL     1      -4.511  -2.534  -2.581  1.00  0.00     0.278 C 
ENDBRANCH   6  15
BRANCH   3  17
ATOM     17  N   UNL     1       1.050  -0.232  -0.263  1.00  0.00    -0.326 N 
ATOM     18  C   UNL     1       2.254  -0.826  -0.606  1.00  0.00     0.227 C 
ATOM     19  H   UNL     1       1.091   0.538   0.393  1.00  0.00     0.169 HD
ATOM     20  O   UNL     1       2.401  -1.783  -1.359  1.00  0.00    -0.274 OA
BRANCH  18  21
ATOM     21  C   UNL     1       3.446  -0.149   0.078  1.00  0.00     0.080 C 
ATOM     22  C   UNL     1       3.598   1.305  -0.409  1.00  0.00     0.013 C 
ATOM     23  C   UNL     1       4.740  -0.940  -0.147  1.00  0.00     0.032 C 
ATOM     24  C   UNL     1       5.047   1.801  -0.424  1.00  0.00     0.002 C 
ATOM     25  C   UNL     1       5.913  -0.334   0.641  1.00  0.00     0.051 C 
ATOM     26  C   UNL     1       5.848   1.199   0.724  1.00  0.00     0.019 C 
BRANCH  25  27
ATOM     27  N   UNL     1       7.179  -0.762   0.044  1.00  0.00    -0.328 NA
ATOM     28  H   UNL     1       7.194  -1.780  -0.032  1.00  0.00     0.119 HD
ATOM     29  H   UNL     1       7.247  -0.414  -0.912  1.00  0.00     0.119 HD
ENDBRANCH  25  27
ENDBRANCH  18  21
ENDBRANCH   3  17
TORSDOF 6
