REMARK SMILES Cc1nc(-c2ccc(OCCN3CCOCC3)cc2)cc(N=CN)c1C(N)=O
REMARK SMILES IDX 5 1 6 2 7 3 8 4 18 5 19 6 4 7 2 8 3 9 25 10 21 11 20 12 1 13
REMARK SMILES IDX 26 14 27 15 28 16 22 19 23 20 24 21 9 24 10 25 11 26 12 27
REMARK SMILES IDX 13 28 17 29 14 30 16 31 15 32
REMARK H PARENT 27 17 27 18 24 22 24 23
ROOT
ATOM      1  C   UNL     1       1.297   0.987   0.178  1.00  0.00     0.000 A 
ATOM      2  C   UNL     1       0.296   0.023  -0.037  1.00  0.00     0.014 A 
ATOM      3  C   UNL     1      -1.068   0.351   0.033  1.00  0.00     0.047 A 
ATOM      4  C   UNL     1      -1.463   1.653   0.325  1.00  0.00     0.119 A 
ATOM      5  C   UNL     1      -0.485   2.625   0.529  1.00  0.00     0.047 A 
ATOM      6  C   UNL     1       0.873   2.296   0.466  1.00  0.00     0.014 A 
ENDROOT
BRANCH   1   7
ATOM      7  C   UNL     1       2.736   0.658   0.121  1.00  0.00     0.073 A 
ATOM      8  C   UNL     1       4.874   1.131   0.968  1.00  0.00     0.053 A 
ATOM      9  N   UNL     1       3.532   1.364   0.962  1.00  0.00    -0.252 NA
ATOM     10  C   UNL     1       5.468   0.174   0.142  1.00  0.00     0.086 A 
ATOM     11  C   UNL     1       4.636  -0.570  -0.707  1.00  0.00     0.081 A 
ATOM     12  C   UNL     1       3.264  -0.305  -0.727  1.00  0.00     0.058 A 
ATOM     13  C   UNL     1       5.657   1.984   1.922  1.00  0.00     0.068 C 
BRANCH  10  14
ATOM     14  C   UNL     1       6.934  -0.048   0.182  1.00  0.00     0.252 C 
ATOM     15  N   UNL     1       7.557  -0.297  -1.009  1.00  0.00    -0.365 N 
ATOM     16  O   UNL     1       7.569  -0.014   1.228  1.00  0.00    -0.269 OA
ATOM     17  H   UNL     1       7.001  -0.601  -1.804  1.00  0.00     0.159 HD
ATOM     18  H   UNL     1       8.527  -0.581  -0.974  1.00  0.00     0.159 HD
ENDBRANCH  10  14
BRANCH  11  19
ATOM     19  N   UNL     1       5.124  -1.573  -1.572  1.00  0.00    -0.239 NA
BRANCH  19  20
ATOM     20  C   UNL     1       5.191  -2.786  -1.129  1.00  0.00     0.190 C 
ATOM     21  N   UNL     1       4.877  -3.296   0.096  1.00  0.00    -0.390 N 
ATOM     22  H   UNL     1       5.379  -4.132   0.378  1.00  0.00     0.157 HD
ATOM     23  H   UNL     1       4.775  -2.628   0.853  1.00  0.00     0.157 HD
ENDBRANCH  19  20
ENDBRANCH  11  19
ENDBRANCH   1   7
BRANCH   4  24
ATOM     24  O   UNL     1      -2.746   2.109   0.419  1.00  0.00    -0.492 OA
BRANCH  24  25
ATOM     25  C   UNL     1      -3.803   1.153   0.550  1.00  0.00     0.245 C 
BRANCH  25  26
ATOM     26  C   UNL     1      -4.416   0.836  -0.826  1.00  0.00     0.126 C 
BRANCH  26  27
ATOM     27  N   UNL     1      -5.550  -0.094  -0.863  1.00  0.00    -0.295 NA
ATOM     28  C   UNL     1      -5.258  -1.448  -0.361  1.00  0.00     0.113 C 
ATOM     29  C   UNL     1      -6.785   0.455  -0.279  1.00  0.00     0.113 C 
ATOM     30  C   UNL     1      -5.968  -1.777   0.964  1.00  0.00     0.175 C 
ATOM     31  C   UNL     1      -7.825  -0.654  -0.053  1.00  0.00     0.175 C 
ATOM     32  O   UNL     1      -7.393  -1.640   0.897  1.00  0.00    -0.379 OA
ENDBRANCH  26  27
ENDBRANCH  25  26
ENDBRANCH  24  25
ENDBRANCH   4  24
TORSDOF 8
