MODEL        10USER    Run = 10USERUSER    Estimated Free Energy of Binding    =  -8.69 kcal/mol  [=(1)+(2)+(3)-(4)]USERUSER    (1) Final Intermolecular Energy     = -10.48 kcal/molUSER        vdW + Hbond + desolv Energy     = -10.31 kcal/molUSER        Electrostatic Energy            =  -0.17 kcal/molUSER        Moving Ligand-Fixed Receptor    = -10.48 kcal/molUSER        Moving Ligand-Moving Receptor   =  +0.00 kcal/molUSER    (2) Final Total Internal Energy     =  -0.97 kcal/molUSER    (3) Torsional Free Energy           =  +1.79 kcal/molUSER    (4) Unbound System's Energy         =  -0.97 kcal/molUSERUSERREMARK SMILES COc1ccccc1-c1cc(NC(=O)[C@@H]2CCC[C@H](N)C2)ccc1OCREMARK SMILES IDX 9 1 10 2 11 3 22 4 23 5 24 6 8 7 3 8 4 9 5 10 7 11 6 12 2 13REMARK SMILES IDX 1 14 25 15 26 16 12 17 13 18 14 20 15 21 16 22 21 23 17 24REMARK SMILES IDX 19 25 18 26 20 27REMARK H PARENT 12 19 20 28 20 29USER                              x       y       z     vdW  Elec       q    TypeUSER                           _______ _______ _______ _____ _____    ______ ____ROOTATOM      1  C   UNL     1      36.294  43.972  19.649 -0.38 -0.00    +0.030 A  ATOM      2  C   UNL     1      36.998  44.741  18.699 -0.33 -0.01    +0.038 A  ATOM      3  C   UNL     1      38.315  45.161  18.917 -0.35 -0.00    +0.042 A  ATOM      4  C   UNL     1      38.941  44.800  20.105 -0.35 -0.00    +0.030 A  ATOM      5  C   UNL     1      38.264  44.037  21.064 -0.32 +0.00    +0.049 A  ATOM      6  C   UNL     1      36.945  43.622  20.851 -0.32 +0.00    +0.126 A  ENDROOTBRANCH   1   7ATOM      7  C   UNL     1      34.907  43.551  19.349 -0.38 -0.00    +0.028 A  ATOM      8  C   UNL     1      33.880  44.483  19.072 -0.32 -0.03    +0.126 A  ATOM      9  C   UNL     1      32.589  44.028  18.771 -0.34 -0.01    +0.047 A  ATOM     10  C   UNL     1      32.303  42.662  18.756 -0.36 -0.00    +0.004 A  ATOM     11  C   UNL     1      34.593  42.179  19.327 -0.38 -0.00    +0.013 A  ATOM     12  C   UNL     1      33.302  41.737  19.036 -0.38 -0.00    +0.001 A  BRANCH   8  13ATOM     13  O   UNL     1      34.235  45.810  19.094 -0.23 +0.24    -0.496 OA ATOM     14  C   UNL     1      34.283  46.487  17.845 -0.25 -0.28    +0.278 C  ENDBRANCH   8  13ENDBRANCH   1   7BRANCH   6  15ATOM     15  O   UNL     1      36.218  42.876  21.745 -0.14 -0.04    -0.496 OA ATOM     16  C   UNL     1      36.818  41.695  22.258 -0.40 +0.01    +0.278 C  ENDBRANCH   6  15BRANCH   3  17ATOM     17  N   UNL     1      38.921  45.930  17.902 -0.21 +0.06    -0.326 N  ATOM     18  C   UNL     1      40.236  45.878  17.470 -0.35 -0.02    +0.227 C  ATOM     19  H   UNL     1      38.318  46.607  17.451 +0.09 -0.06    +0.169 HD ATOM     20  O   UNL     1      41.116  45.147  17.912 -0.31 -0.00    -0.274 OA BRANCH  18  21ATOM     21  C   UNL     1      40.510  46.871  16.335 -0.47 -0.01    +0.080 C  ATOM     22  C   UNL     1      41.216  48.130  16.873 -0.56 -0.00    +0.013 C  ATOM     23  C   UNL     1      39.219  47.240  15.596 -0.52 -0.01    +0.032 C  ATOM     24  C   UNL     1      40.874  49.406  16.098 -0.66 -0.00    +0.002 C  ATOM     25  C   UNL     1      39.505  48.136  14.379 -0.50 -0.01    +0.051 C  ATOM     26  C   UNL     1      40.667  49.113  14.617 -0.66 -0.01    +0.019 C  BRANCH  25  27ATOM     27  N   UNL     1      38.291  48.865  14.009 -0.22 +0.17    -0.328 NA ATOM     28  H   UNL     1      38.079  49.562  14.724 -0.46 -0.11    +0.119 HD ATOM     29  H   UNL     1      38.450  49.391  13.150 -0.26 -0.04    +0.119 HD ENDBRANCH  25  27ENDBRANCH  18  21ENDBRANCH   3  17TORSDOF 6TERENDMDL