MODEL        5USER    Run = 5USERUSER    Estimated Free Energy of Binding    =  -9.35 kcal/mol  [=(1)+(2)+(3)-(4)]USERUSER    (1) Final Intermolecular Energy     = -11.73 kcal/molUSER        vdW + Hbond + desolv Energy     = -11.43 kcal/molUSER        Electrostatic Energy            =  -0.30 kcal/molUSER        Moving Ligand-Fixed Receptor    = -11.73 kcal/molUSER        Moving Ligand-Moving Receptor   =  +0.00 kcal/molUSER    (2) Final Total Internal Energy     =  -1.55 kcal/molUSER    (3) Torsional Free Energy           =  +2.39 kcal/molUSER    (4) Unbound System's Energy         =  -1.55 kcal/molUSERUSERREMARK SMILES Cc1nc(-c2ccc(OCCN3CCOCC3)cc2)cc(N=CN)c1C(N)=OREMARK SMILES IDX 5 1 6 2 7 3 8 4 18 5 19 6 4 7 2 8 3 9 25 10 21 11 20 12 1 13REMARK SMILES IDX 26 14 27 15 28 16 22 19 23 20 24 21 9 24 10 25 11 26 12 27REMARK SMILES IDX 13 28 17 29 14 30 16 31 15 32REMARK H PARENT 27 17 27 18 24 22 24 23USER                              x       y       z     vdW  Elec       q    TypeUSER                           _______ _______ _______ _____ _____    ______ ____ROOTATOM      1  C   UNL     1      37.521  45.473  16.908 -0.36 -0.00    +0.000 A  ATOM      2  C   UNL     1      37.423  44.215  16.286 -0.30 -0.00    +0.014 A  ATOM      3  C   UNL     1      36.213  43.756  15.741 -0.38 -0.02    +0.047 A  ATOM      4  C   UNL     1      35.068  44.544  15.810 -0.25 -0.06    +0.119 A  ATOM      5  C   UNL     1      35.148  45.799  16.412 -0.31 -0.04    +0.047 A  ATOM      6  C   UNL     1      36.352  46.252  16.960 -0.35 -0.01    +0.014 A  ENDROOTBRANCH   1   7ATOM      7  C   UNL     1      38.782  45.967  17.497 -0.36 -0.02    +0.073 A  ATOM      8  C   UNL     1      40.342  45.725  19.234 -0.41 -0.00    +0.053 A  ATOM      9  N   UNL     1      39.194  45.327  18.619 -0.25 +0.02    -0.252 NA ATOM     10  C   UNL     1      41.128  46.769  18.741 -0.42 -0.00    +0.086 A  ATOM     11  C   UNL     1      40.709  47.410  17.566 -0.46 -0.01    +0.081 A  ATOM     12  C   UNL     1      39.515  47.014  16.958 -0.43 -0.01    +0.058 A  ATOM     13  C   UNL     1      40.689  44.960  20.477 -0.38 +0.00    +0.068 C  BRANCH  10  14ATOM     14  C   UNL     1      42.373  47.169  19.442 -0.35 +0.03    +0.252 C  ATOM     15  N   UNL     1      43.341  47.774  18.691 -0.24 -0.03    -0.365 N  ATOM     16  O   UNL     1      42.539  46.970  20.639 -0.31 -0.05    -0.269 OA ATOM     17  H   UNL     1      43.316  47.677  17.679 -0.45 -0.02    +0.159 HD ATOM     18  H   UNL     1      44.240  47.927  19.129 -0.33 +0.04    +0.159 HD ENDBRANCH  10  14BRANCH  11  19ATOM     19  N   UNL     1      41.432  48.466  16.970 -0.80 +0.01    -0.239 NA BRANCH  19  20ATOM     20  C   UNL     1      40.857  49.153  16.038 -0.51 -0.03    +0.190 C  ATOM     21  N   UNL     1      40.971  50.474  15.718 -0.33 +0.14    -0.390 N  ATOM     22  H   UNL     1      40.165  50.900  15.272 -0.38 -0.12    +0.157 HD ATOM     23  H   UNL     1      41.393  51.075  16.418 -0.48 -0.07    +0.157 HD ENDBRANCH  19  20ENDBRANCH  11  19ENDBRANCH   1   7BRANCH   4  24ATOM     24  O   UNL     1      33.834  44.226  15.321 +0.01 +0.27    -0.492 OA BRANCH  24  25ATOM     25  C   UNL     1      32.728  45.070  15.656 -0.24 -0.17    +0.245 C  BRANCH  25  26ATOM     26  C   UNL     1      31.607  44.251  16.320 -0.30 -0.05    +0.126 C  BRANCH  26  27ATOM     27  N   UNL     1      31.712  44.006  17.763 -0.14 +0.05    -0.295 NA ATOM     28  C   UNL     1      31.676  42.587  18.155 -0.29 -0.02    +0.113 C  ATOM     29  C   UNL     1      32.824  44.727  18.406 -0.32 -0.03    +0.113 C  ATOM     30  C   UNL     1      33.016  42.068  18.705 -0.33 -0.02    +0.175 C  ATOM     31  C   UNL     1      33.081  44.188  19.822 -0.35 -0.02    +0.175 C  ATOM     32  O   UNL     1      33.498  42.814  19.830 -0.66 -0.04    -0.379 OA ENDBRANCH  26  27ENDBRANCH  25  26ENDBRANCH  24  25ENDBRANCH   4  24TORSDOF 8TERENDMDL