REMARK SMILES Cc1ncc2n1[C@@]2(NS(=O)(=O)Cc1ccccn1)c1ccccc1N1CCOCC1
REMARK SMILES IDX 8 1 7 3 2 4 3 5 6 6 4 7 5 8 1 9 19 10 20 11 24 12 21 13
REMARK SMILES IDX 23 14 22 15 25 16 26 17 30 18 27 19 29 20 28 21 9 22 10 23
REMARK SMILES IDX 11 24 12 25 13 26 14 27 18 28 15 29 17 30 16 31
REMARK H PARENT 8 2
ROOT
ATOM      1  N   UNL     1       0.697   0.080   0.558  1.00  0.00    -0.180 NA
ATOM      2  H   UNL     1       0.111  -0.751   0.698  1.00  0.00     0.144 HD
ENDROOT
BRANCH   1   3
ATOM      3  C   UNL     1      -0.200   1.231   0.286  1.00  0.00     0.180 C 
ATOM      4  C   UNL     1      -0.910   2.760   2.432  1.00  0.00     0.108 A 
ATOM      5  N   UNL     1      -0.239   3.874   2.365  1.00  0.00    -0.241 NA
ATOM      6  N   UNL     1      -0.681   1.880   1.442  1.00  0.00    -0.299 N 
ATOM      7  C   UNL     1       0.495   3.733   1.246  1.00  0.00     0.139 A 
ATOM      8  C   UNL     1       0.311   2.557   0.597  1.00  0.00     0.087 A 
ATOM      9  C   UNL     1      -1.883   2.421   3.503  1.00  0.00     0.088 C 
BRANCH   3  10
ATOM     10  C   UNL     1      -1.251   1.054  -0.806  1.00  0.00     0.023 A 
ATOM     11  C   UNL     1      -1.280   1.900  -1.935  1.00  0.00     0.010 A 
ATOM     12  C   UNL     1      -2.225   0.020  -0.731  1.00  0.00     0.044 A 
ATOM     13  C   UNL     1      -2.252   1.774  -2.928  1.00  0.00     0.001 A 
ATOM     14  C   UNL     1      -3.211  -0.081  -1.731  1.00  0.00     0.026 A 
ATOM     15  C   UNL     1      -3.225   0.790  -2.819  1.00  0.00     0.002 A 
BRANCH  12  16
ATOM     16  N   UNL     1      -2.180  -0.886   0.362  1.00  0.00    -0.367 N 
ATOM     17  C   UNL     1      -3.267  -0.648   1.351  1.00  0.00     0.145 C 
ATOM     18  C   UNL     1      -2.074  -2.311  -0.059  1.00  0.00     0.145 C 
ATOM     19  C   UNL     1      -4.269  -1.813   1.393  1.00  0.00     0.181 C 
ATOM     20  C   UNL     1      -2.336  -3.219   1.152  1.00  0.00     0.181 C 
ATOM     21  O   UNL     1      -3.658  -3.076   1.698  1.00  0.00    -0.378 OA
ENDBRANCH  12  16
ENDBRANCH   3  10
ENDBRANCH   1   3
BRANCH   1  22
ATOM     22  S   UNL     1       1.838  -0.259  -0.651  1.00  0.00     0.219 S 
ATOM     23  O   UNL     1       1.530  -1.616  -1.060  1.00  0.00    -0.212 OA
ATOM     24  O   UNL     1       1.873   0.829  -1.603  1.00  0.00    -0.212 OA
BRANCH  22  25
ATOM     25  C   UNL     1       3.329  -0.274   0.334  1.00  0.00     0.210 C 
BRANCH  25  26
ATOM     26  C   UNL     1       4.503  -0.539  -0.562  1.00  0.00     0.057 A 
ATOM     27  C   UNL     1       4.704  -1.785  -1.156  1.00  0.00     0.025 A 
ATOM     28  N   UNL     1       5.392   0.477  -0.709  1.00  0.00    -0.260 NA
ATOM     29  C   UNL     1       5.827  -1.979  -1.956  1.00  0.00     0.003 A 
ATOM     30  C   UNL     1       6.469   0.263  -1.497  1.00  0.00     0.111 A 
ATOM     31  C   UNL     1       6.726  -0.936  -2.136  1.00  0.00     0.020 A 
ENDBRANCH  25  26
ENDBRANCH  22  25
ENDBRANCH   1  22
TORSDOF 6
