MODEL        6USER    Run = 6USERUSER    Estimated Free Energy of Binding    =  -9.22 kcal/mol  [=(1)+(2)+(3)-(4)]USERUSER    (1) Final Intermolecular Energy     = -11.01 kcal/molUSER        vdW + Hbond + desolv Energy     = -10.66 kcal/molUSER        Electrostatic Energy            =  -0.35 kcal/molUSER        Moving Ligand-Fixed Receptor    = -11.01 kcal/molUSER        Moving Ligand-Moving Receptor   =  +0.00 kcal/molUSER    (2) Final Total Internal Energy     =  -1.38 kcal/molUSER    (3) Torsional Free Energy           =  +1.79 kcal/molUSER    (4) Unbound System's Energy         =  -1.38 kcal/molUSERUSERREMARK SMILES Cc1cc(CS(=O)(=O)N[C@]2(c3ccc(O)cc3)c3cnc(C)n32)ccn1REMARK SMILES IDX 9 1 6 3 7 4 8 5 5 6 4 7 2 8 3 9 26 10 25 11 24 12 1 13 10 14REMARK SMILES IDX 18 15 23 16 19 17 21 18 20 19 22 20 11 21 12 22 17 23 13 24REMARK SMILES IDX 16 25 14 26 15 27REMARK H PARENT 9 2 15 28USER                              x       y       z     vdW  Elec       q    TypeUSER                           _______ _______ _______ _____ _____    ______ ____ROOTATOM      1  N   UNL     1      35.744  46.601  16.402 -0.27 +0.18    -0.180 NA ATOM      2  H   UNL     1      35.181  47.433  16.594 -0.07 -0.29    +0.144 HD ENDROOTBRANCH   1   3ATOM      3  S   UNL     1      34.725  45.452  15.672 -0.34 -0.18    +0.218 S  ATOM      4  O   UNL     1      34.329  46.073  14.425 -0.36 +0.20    -0.212 OA ATOM      5  O   UNL     1      35.346  44.147  15.717 -0.27 +0.10    -0.212 OA BRANCH   3   6ATOM      6  C   UNL     1      33.340  45.489  16.816 -0.23 -0.15    +0.189 C  BRANCH   6   7ATOM      7  C   UNL     1      33.634  44.580  17.978 -0.33 +0.01    -0.028 A  ATOM      8  C   UNL     1      35.066  43.844  19.773 -0.39 -0.00    +0.038 A  ATOM      9  C   UNL     1      34.832  44.694  18.694 -0.36 -0.01    +0.028 A  ATOM     10  N   UNL     1      34.180  42.898  20.160 -0.60 -0.03    -0.262 NA ATOM     11  C   UNL     1      33.025  42.808  19.467 -0.31 +0.00    +0.111 A  ATOM     12  C   UNL     1      32.710  43.614  18.385 -0.33 -0.00    +0.025 A  ATOM     13  C   UNL     1      36.339  43.956  20.556 -0.43 -0.00    +0.067 C  ENDBRANCH   6   7ENDBRANCH   3   6ENDBRANCH   1   3BRANCH   1  14ATOM     14  C   UNL     1      36.987  46.930  15.663 -0.34 -0.12    +0.178 C  ATOM     15  C   UNL     1      36.920  47.974  14.656 -0.42 -0.07    +0.087 A  ATOM     16  N   UNL     1      36.986  46.553  14.302 -0.19 +0.15    -0.299 N  ATOM     17  C   UNL     1      36.860  48.578  13.444 -0.37 -0.07    +0.139 A  ATOM     18  C   UNL     1      36.946  46.556  12.959 -0.50 -0.04    +0.108 A  ATOM     19  N   UNL     1      36.859  47.729  12.401 -1.01 +0.08    -0.241 NA ATOM     20  C   UNL     1      37.014  45.270  12.218 -0.49 -0.03    +0.088 C  BRANCH  14  21ATOM     21  C   UNL     1      38.301  46.700  16.395 -0.40 -0.00    +0.000 A  ATOM     22  C   UNL     1      39.443  47.483  16.139 -0.48 -0.00    +0.012 A  ATOM     23  C   UNL     1      38.420  45.703  17.386 -0.39 -0.00    +0.012 A  ATOM     24  C   UNL     1      40.644  47.274  16.824 -0.48 -0.01    +0.046 A  ATOM     25  C   UNL     1      39.620  45.487  18.075 -0.40 -0.00    +0.046 A  ATOM     26  C   UNL     1      40.723  46.276  17.784 -0.41 -0.01    +0.115 A  BRANCH  26  27ATOM     27  O   UNL     1      41.914  46.102  18.424 -0.16 -0.02    -0.508 OA ATOM     28  H   UNL     1      42.601  46.594  17.948 -0.33 -0.03    +0.293 HD ENDBRANCH  26  27ENDBRANCH  14  21ENDBRANCH   1  14TORSDOF 6TERENDMDL