MODEL        2USER    Run = 2USERUSER    Estimated Free Energy of Binding    =  -8.95 kcal/mol  [=(1)+(2)+(3)-(4)]USERUSER    (1) Final Intermolecular Energy     = -10.74 kcal/molUSER        vdW + Hbond + desolv Energy     = -10.78 kcal/molUSER        Electrostatic Energy            =  +0.04 kcal/molUSER        Moving Ligand-Fixed Receptor    = -10.74 kcal/molUSER        Moving Ligand-Moving Receptor   =  +0.00 kcal/molUSER    (2) Final Total Internal Energy     =  -2.53 kcal/molUSER    (3) Torsional Free Energy           =  +1.79 kcal/molUSER    (4) Unbound System's Energy         =  -2.53 kcal/molUSERUSERREMARK SMILES Cc1ncc2n1[C@@]2(NS(=O)(=O)Cc1ccccn1)c1ccccc1N1CCOCC1REMARK SMILES IDX 8 1 7 3 2 4 3 5 6 6 4 7 5 8 1 9 19 10 20 11 24 12 21 13REMARK SMILES IDX 23 14 22 15 25 16 26 17 30 18 27 19 29 20 28 21 9 22 10 23REMARK SMILES IDX 11 24 12 25 13 26 14 27 18 28 15 29 17 30 16 31REMARK H PARENT 8 2USER                              x       y       z     vdW  Elec       q    TypeUSER                           _______ _______ _______ _____ _____    ______ ____ROOTATOM      1  N   UNL     1      35.360  46.025  17.397 -0.27 +0.13    -0.180 NA ATOM      2  H   UNL     1      34.860  46.006  16.501 +0.06 -0.15    +0.144 HD ENDROOTBRANCH   1   3ATOM      3  C   UNL     1      36.361  44.929  17.385 -0.26 -0.07    +0.180 C  ATOM      4  C   UNL     1      35.667  42.627  18.676 -0.25 -0.02    +0.108 A  ATOM      5  N   UNL     1      35.379  41.736  17.771 -0.35 +0.09    -0.241 NA ATOM      6  N   UNL     1      36.035  43.834  18.211 -0.12 +0.07    -0.299 N  ATOM      7  C   UNL     1      35.568  42.392  16.612 -0.28 -0.06    +0.139 A  ATOM      8  C   UNL     1      35.968  43.680  16.752 -0.31 -0.03    +0.087 A  ATOM      9  C   UNL     1      35.617  42.391  20.143 -0.46 -0.00    +0.088 C  BRANCH   3  10ATOM     10  C   UNL     1      37.833  45.328  17.440 -0.35 -0.01    +0.023 A  ATOM     11  C   UNL     1      38.731  44.686  18.320 -0.38 -0.00    +0.010 A  ATOM     12  C   UNL     1      38.353  46.346  16.594 -0.37 -0.02    +0.044 A  ATOM     13  C   UNL     1      40.073  45.058  18.407 -0.44 -0.00    +0.001 A  ATOM     14  C   UNL     1      39.705  46.723  16.709 -0.45 -0.01    +0.026 A  ATOM     15  C   UNL     1      40.557  46.085  17.609 -0.48 -0.00    +0.002 A  BRANCH  12  16ATOM     16  N   UNL     1      37.487  46.964  15.653 -0.14 +0.21    -0.367 N  ATOM     17  C   UNL     1      37.911  48.349  15.305 -0.46 -0.10    +0.145 C  ATOM     18  C   UNL     1      37.216  46.118  14.458 -0.37 -0.06    +0.145 C  ATOM     19  C   UNL     1      38.361  48.459  13.840 -0.35 -0.07    +0.181 C  ATOM     20  C   UNL     1      36.534  46.969  13.377 -0.49 -0.09    +0.181 C  ATOM     21  O   UNL     1      37.351  48.053  12.904 -0.87 +0.08    -0.378 OA ENDBRANCH  12  16ENDBRANCH   3  10ENDBRANCH   1   3BRANCH   1  22ATOM     22  S   UNL     1      34.223  45.962  18.654 -0.51 -0.12    +0.219 S  ATOM     23  O   UNL     1      34.970  45.447  19.785 +0.09 +0.07    -0.212 OA ATOM     24  O   UNL     1      33.511  47.219  18.727 -1.00 +0.17    -0.212 OA BRANCH  22  25ATOM     25  C   UNL     1      33.152  44.674  18.031 -0.26 -0.07    +0.210 C  BRANCH  25  26ATOM     26  C   UNL     1      32.579  45.111  16.714 -0.27 -0.03    +0.057 A  ATOM     27  C   UNL     1      31.209  45.053  16.457 -0.18 -0.01    +0.025 A  ATOM     28  N   UNL     1      33.471  45.501  15.767 -0.16 +0.25    -0.260 NA ATOM     29  C   UNL     1      30.740  45.446  15.206 -0.45 -0.00    +0.003 A  ATOM     30  C   UNL     1      32.986  45.885  14.565 -0.13 -0.11    +0.111 A  ATOM     31  C   UNL     1      31.642  45.875  14.242 -0.51 -0.01    +0.020 A  ENDBRANCH  25  26ENDBRANCH  22  25ENDBRANCH   1  22TORSDOF 6TERENDMDL