REMARK SMILES Cc1ncc2n1[C@@]2(NS(=O)(=O)Cc1ccccn1)c1ccc(O)cc1
REMARK SMILES IDX 1 1 2 2 3 3 4 4 5 5 6 6 7 7 8 8 9 10 10 11 11 12 12 13 13 14
REMARK SMILES IDX 14 15 18 16 15 17 17 18 16 19 19 20 20 21 25 22 21 23 24 24
REMARK SMILES IDX 22 25 23 26
REMARK H PARENT 8 9 23 27
ROOT
ATOM      1  C   UNL     1      -3.203   2.697   3.131  1.00  0.00     0.088 C 
ATOM      2  C   UNL     1      -2.353   2.735   1.913  1.00  0.00     0.108 A 
ATOM      3  N   UNL     1      -2.017   3.821   1.278  1.00  0.00    -0.241 NA
ATOM      4  C   UNL     1      -1.277   3.369   0.250  1.00  0.00     0.139 A 
ATOM      5  C   UNL     1      -1.116   2.023   0.223  1.00  0.00     0.087 A 
ATOM      6  N   UNL     1      -1.879   1.587   1.397  1.00  0.00    -0.299 N 
ATOM      7  C   UNL     1      -1.218   0.624   0.603  1.00  0.00     0.178 C 
ENDROOT
BRANCH   7   8
ATOM      8  N   UNL     1      -0.032  -0.000   1.242  1.00  0.00    -0.180 NA
ATOM      9  H   UNL     1      -0.295  -0.825   1.786  1.00  0.00     0.144 HD
BRANCH   8  10
ATOM     10  S   UNL     1       1.201  -0.486   0.168  1.00  0.00     0.219 S 
ATOM     11  O   UNL     1       1.100  -1.929   0.145  1.00  0.00    -0.212 OA
ATOM     12  O   UNL     1       1.117   0.307  -1.039  1.00  0.00    -0.212 OA
BRANCH  10  13
ATOM     13  C   UNL     1       2.635   0.024   1.106  1.00  0.00     0.210 C 
BRANCH  13  14
ATOM     14  C   UNL     1       3.868  -0.463   0.405  1.00  0.00     0.057 A 
ATOM     15  C   UNL     1       4.291   0.093  -0.801  1.00  0.00     0.025 A 
ATOM     16  N   UNL     1       4.578  -1.431   1.040  1.00  0.00    -0.260 NA
ATOM     17  C   UNL     1       5.458  -0.384  -1.393  1.00  0.00     0.003 A 
ATOM     18  C   UNL     1       5.705  -1.877   0.440  1.00  0.00     0.111 A 
ATOM     19  C   UNL     1       6.180  -1.390  -0.764  1.00  0.00     0.020 A 
ENDBRANCH  13  14
ENDBRANCH  10  13
ENDBRANCH   8  10
ENDBRANCH   7   8
BRANCH   7  20
ATOM     20  C   UNL     1      -2.134  -0.285  -0.202  1.00  0.00     0.000 A 
ATOM     21  C   UNL     1      -3.044  -1.156   0.435  1.00  0.00     0.012 A 
ATOM     22  C   UNL     1      -2.097  -0.320  -1.609  1.00  0.00     0.012 A 
ATOM     23  C   UNL     1      -3.884  -2.005  -0.294  1.00  0.00     0.046 A 
ATOM     24  C   UNL     1      -2.933  -1.165  -2.344  1.00  0.00     0.046 A 
ATOM     25  C   UNL     1      -3.821  -2.000  -1.681  1.00  0.00     0.115 A 
BRANCH  25  26
ATOM     26  O   UNL     1      -4.619  -2.807  -2.435  1.00  0.00    -0.508 OA
ATOM     27  H   UNL     1      -5.156  -3.358  -1.843  1.00  0.00     0.293 HD
ENDBRANCH  25  26
ENDBRANCH   7  20
TORSDOF 6
