MODEL        9USER    Run = 9USERUSER    Estimated Free Energy of Binding    =  -8.49 kcal/mol  [=(1)+(2)+(3)-(4)]USERUSER    (1) Final Intermolecular Energy     = -10.28 kcal/molUSER        vdW + Hbond + desolv Energy     =  -9.97 kcal/molUSER        Electrostatic Energy            =  -0.31 kcal/molUSER        Moving Ligand-Fixed Receptor    = -10.28 kcal/molUSER        Moving Ligand-Moving Receptor   =  +0.00 kcal/molUSER    (2) Final Total Internal Energy     =  -1.32 kcal/molUSER    (3) Torsional Free Energy           =  +1.79 kcal/molUSER    (4) Unbound System's Energy         =  -1.32 kcal/molUSERUSERREMARK SMILES Cc1ncc2n1[C@@]2(NS(=O)(=O)Cc1ccccn1)c1ccc(O)cc1REMARK SMILES IDX 1 1 2 2 3 3 4 4 5 5 6 6 7 7 8 8 9 10 10 11 11 12 12 13 13 14REMARK SMILES IDX 14 15 18 16 15 17 17 18 16 19 19 20 20 21 25 22 21 23 24 24REMARK SMILES IDX 22 25 23 26REMARK H PARENT 8 9 23 27USER                              x       y       z     vdW  Elec       q    TypeUSER                           _______ _______ _______ _____ _____    ______ ____ROOTATOM      1  C   UNL     1      36.978  45.263  12.362 -0.52 -0.03    +0.088 C  ATOM      2  C   UNL     1      36.938  46.576  13.057 -0.49 -0.04    +0.108 A  ATOM      3  N   UNL     1      36.830  47.727  12.458 -0.98 +0.08    -0.241 NA ATOM      4  C   UNL     1      36.857  48.612  13.471 -0.35 -0.07    +0.139 A  ATOM      5  C   UNL     1      36.961  48.054  14.702 -0.42 -0.07    +0.087 A  ATOM      6  N   UNL     1      37.020  46.620  14.398 -0.19 +0.16    -0.299 N  ATOM      7  C   UNL     1      37.068  47.047  15.744 -0.34 -0.12    +0.178 C  ENDROOTBRANCH   7   8ATOM      8  N   UNL     1      35.848  46.748  16.535 -0.27 +0.18    -0.180 NA ATOM      9  H   UNL     1      35.076  47.364  16.272 -0.05 -0.31    +0.144 HD BRANCH   8  10ATOM     10  S   UNL     1      35.272  45.147  16.406 -0.33 -0.13    +0.219 S  ATOM     11  O   UNL     1      34.376  45.185  15.271 -0.27 +0.15    -0.212 OA ATOM     12  O   UNL     1      36.393  44.235  16.467 -0.25 +0.08    -0.212 OA BRANCH  10  13ATOM     13  C   UNL     1      34.343  45.039  17.930 -0.28 -0.10    +0.210 C  BRANCH  13  14ATOM     14  C   UNL     1      35.115  44.204  18.907 -0.33 -0.01    +0.057 A  ATOM     15  C   UNL     1      34.687  42.931  19.280 -0.39 -0.00    +0.025 A  ATOM     16  N   UNL     1      36.282  44.732  19.359 -0.19 +0.04    -0.260 NA ATOM     17  C   UNL     1      35.459  42.192  20.173 -0.44 -0.00    +0.003 A  ATOM     18  C   UNL     1      37.009  43.993  20.227 -0.32 -0.00    +0.111 A  ATOM     19  C   UNL     1      36.643  42.732  20.660 -0.43 -0.00    +0.020 A  ENDBRANCH  13  14ENDBRANCH  10  13ENDBRANCH   8  10ENDBRANCH   7   8BRANCH   7  20ATOM     20  C   UNL     1      38.410  46.850  16.433 -0.41 -0.00    +0.000 A  ATOM     21  C   UNL     1      38.582  45.869  17.433 -0.40 -0.00    +0.012 A  ATOM     22  C   UNL     1      39.527  47.651  16.127 -0.49 -0.00    +0.012 A  ATOM     23  C   UNL     1      39.808  45.686  18.082 -0.42 -0.00    +0.046 A  ATOM     24  C   UNL     1      40.755  47.475  16.771 -0.47 -0.01    +0.046 A  ATOM     25  C   UNL     1      40.886  46.493  17.743 -0.42 -0.01    +0.115 A  BRANCH  25  26ATOM     26  O   UNL     1      42.100  46.352  18.345 -0.17 -0.01    -0.508 OA ATOM     27  H   UNL     1      42.780  46.748  17.776 -0.35 -0.07    +0.293 HD ENDBRANCH  25  26ENDBRANCH   7  20TORSDOF 6TERENDMDL