MODEL        4USER    Run = 4USERUSER    Estimated Free Energy of Binding    = -10.97 kcal/mol  [=(1)+(2)+(3)-(4)]USERUSER    (1) Final Intermolecular Energy     = -13.66 kcal/molUSER        vdW + Hbond + desolv Energy     = -13.42 kcal/molUSER        Electrostatic Energy            =  -0.24 kcal/molUSER        Moving Ligand-Fixed Receptor    = -13.66 kcal/molUSER        Moving Ligand-Moving Receptor   =  +0.00 kcal/molUSER    (2) Final Total Internal Energy     =  -2.50 kcal/molUSER    (3) Torsional Free Energy           =  +2.68 kcal/molUSER    (4) Unbound System's Energy         =  -2.50 kcal/molUSERUSERREMARK SMILES COc1cc(C(=O)N[C@@H]2CN(C3CC3)CC[C@H]2NC(=O)c2ccc(C(=O)c3[nH]c(=O)ccc3OC)cc2)cc(F)n1REMARK SMILES IDX 18 1 19 2 20 3 17 5 9 6 10 7 11 8 16 9 15 10 8 11 6 12 7 13REMARK SMILES IDX 5 15 3 16 4 17 41 18 39 19 38 20 40 21 2 22 1 23 12 24 13 25REMARK SMILES IDX 14 26 21 27 22 28 37 29 23 30 36 31 24 32 25 33 26 34 27 35REMARK SMILES IDX 28 36 33 37 29 38 32 39 31 40 30 42 34 43 35 44REMARK H PARENT 18 4 8 14 28 41USER                              x       y       z     vdW  Elec       q    TypeUSER                           _______ _______ _______ _____ _____    ______ ____ROOTATOM      1  N   UNL     1      32.219  42.161  16.766 -0.05 +0.17    -0.347 N  ATOM      2  C   UNL     1      31.195  42.376  17.671 -0.18 -0.06    +0.251 C  ATOM      3  O   UNL     1      31.329  43.052  18.684 -0.20 +0.02    -0.269 OA ATOM      4  H   UNL     1      32.122  41.394  16.112 -0.45 -0.16    +0.164 HD ENDROOTBRANCH   1   5ATOM      5  C   UNL     1      33.577  42.596  17.088 -0.35 -0.04    +0.107 C  ATOM      6  C   UNL     1      33.671  44.150  17.216 -0.28 -0.05    +0.118 C  ATOM      7  C   UNL     1      33.949  44.548  18.687 -0.38 -0.03    +0.111 C  ATOM      8  N   UNL     1      35.107  43.894  19.320 -0.18 +0.05    -0.298 NA ATOM      9  C   UNL     1      34.101  41.858  18.323 -0.43 -0.01    +0.042 C  ATOM     10  C   UNL     1      35.368  42.536  18.834 -0.40 -0.01    +0.087 C  BRANCH   6  11ATOM     11  N   UNL     1      34.653  44.697  16.269 -0.09 +0.20    -0.346 N  ATOM     12  C   UNL     1      35.141  45.978  16.420 -0.20 -0.23    +0.251 C  ATOM     13  O   UNL     1      34.844  46.717  17.352 -0.31 +0.33    -0.269 OA ATOM     14  H   UNL     1      34.540  44.398  15.306 +0.11 -0.09    +0.164 HD BRANCH  12  15ATOM     15  C   UNL     1      36.043  46.469  15.348 -0.33 -0.04    +0.049 A  ATOM     16  C   UNL     1      38.121  47.306  14.551 -0.31 -0.09    +0.216 A  ATOM     17  C   UNL     1      37.361  46.840  15.608 -0.35 -0.05    +0.082 A  ATOM     18  N   UNL     1      37.664  47.424  13.290 -0.64 +0.06    -0.184 NA ATOM     19  C   UNL     1      36.381  47.070  13.079 -0.43 -0.11    +0.216 A  ATOM     20  C   UNL     1      35.535  46.595  14.057 -0.39 -0.06    +0.074 A  ATOM     21  F   UNL     1      35.908  47.189  11.829 -0.26 +0.11    -0.185 F  BRANCH  16  22ATOM     22  O   UNL     1      39.418  47.665  14.854 -0.15 +0.14    -0.481 OA ATOM     23  C   UNL     1      39.505  48.857  15.629 -0.37 -0.13    +0.280 C  ENDBRANCH  16  22ENDBRANCH  12  15ENDBRANCH   6  11BRANCH   8  24ATOM     24  C   UNL     1      36.314  44.734  19.322 -0.31 -0.01    +0.056 C  ATOM     25  C   UNL     1      37.597  44.166  19.863 -0.41 -0.00    +0.021 C  ATOM     26  C   UNL     1      37.444  44.394  18.389 -0.39 -0.00    +0.021 C  ENDBRANCH   8  24ENDBRANCH   1   5BRANCH   2  27ATOM     27  C   UNL     1      29.914  41.667  17.395 -0.23 -0.01    +0.039 A  ATOM     28  C   UNL     1      28.785  42.436  17.076 -0.22 -0.00    +0.014 A  ATOM     29  C   UNL     1      29.812  40.270  17.453 -0.33 +0.00    +0.014 A  ATOM     30  C   UNL     1      27.550  41.820  16.865 -0.21 -0.00    +0.013 A  ATOM     31  C   UNL     1      28.576  39.654  17.243 -0.23 +0.00    +0.013 A  ATOM     32  C   UNL     1      27.441  40.431  16.985 -0.25 +0.00    +0.024 A  BRANCH  32  33ATOM     33  C   UNL     1      26.151  39.744  16.775 -0.24 +0.05    +0.213 C  ATOM     34  O   UNL     1      25.873  39.331  15.649 -0.82 -0.10    -0.287 OA BRANCH  33  35ATOM     35  C   UNL     1      25.174  39.583  17.902 -0.25 -0.01    +0.132 A  ATOM     36  N   UNL     1      24.115  38.734  17.633 -0.22 +0.12    -0.316 N  ATOM     37  C   UNL     1      25.291  40.133  19.128 -0.20 -0.03    +0.146 A  ATOM     38  C   UNL     1      23.146  38.385  18.532 -0.20 -0.18    +0.248 A  ATOM     39  C   UNL     1      24.310  39.799  20.149 -0.31 -0.02    +0.054 A  ATOM     40  C   UNL     1      23.282  38.980  19.882 -0.28 -0.05    +0.075 A  ATOM     41  H   UNL     1      24.083  38.289  16.719 -0.37 -0.11    +0.170 HD ATOM     42  O   UNL     1      22.226  37.622  18.264 -1.04 +0.20    -0.270 OA BRANCH  37  43ATOM     43  O   UNL     1      26.377  40.887  19.518 -0.02 +0.06    -0.494 OA ATOM     44  C   UNL     1      26.045  42.132  20.137 -0.26 -0.06    +0.278 C  ENDBRANCH  37  43ENDBRANCH  33  35ENDBRANCH  32  33ENDBRANCH   2  27TORSDOF 9TERENDMDL