MODEL        5USER    Run = 5USERUSER    Estimated Free Energy of Binding    = -11.50 kcal/mol  [=(1)+(2)+(3)-(4)]USERUSER    (1) Final Intermolecular Energy     = -14.19 kcal/molUSER        vdW + Hbond + desolv Energy     = -14.24 kcal/molUSER        Electrostatic Energy            =  +0.05 kcal/molUSER        Moving Ligand-Fixed Receptor    = -14.19 kcal/molUSER        Moving Ligand-Moving Receptor   =  +0.00 kcal/molUSER    (2) Final Total Internal Energy     =  -2.44 kcal/molUSER    (3) Torsional Free Energy           =  +2.68 kcal/molUSER    (4) Unbound System's Energy         =  -2.44 kcal/molUSERUSERREMARK SMILES COc1ccc(=O)[nH]c1C(=O)c1ccc(C(=O)N[C@@H]2CCN(C3CC3)C[C@H]2NC(=O)c2cc(F)nc(N3CCN(C)CC3)c2)cc1REMARK SMILES IDX 16 1 17 2 18 3 15 5 12 6 13 7 46 8 14 9 45 10 10 11 11 12REMARK SMILES IDX 9 13 3 14 4 15 5 16 8 17 6 18 7 20 2 21 1 22 19 23 20 24REMARK SMILES IDX 27 25 21 26 26 27 22 28 28 29 29 30 30 32 31 33 32 34 44 35REMARK SMILES IDX 33 36 36 37 35 38 34 39 37 40 38 41 43 42 39 43 42 44 40 45REMARK SMILES IDX 41 46 23 47 24 48 25 49REMARK H PARENT 18 4 8 19 28 31USER                              x       y       z     vdW  Elec       q    TypeUSER                           _______ _______ _______ _____ _____    ______ ____ROOTATOM      1  C   UNL     1      41.534  49.189  15.097 -0.36 -0.02    +0.251 C  ATOM      2  O   UNL     1      41.448  49.510  16.277 -1.09 +0.00    -0.269 OA ATOM      3  N   UNL     1      40.973  48.044  14.564 -0.21 +0.03    -0.347 N  ATOM      4  H   UNL     1      40.778  48.064  13.571 +0.25 -0.01    +0.164 HD ENDROOTBRANCH   1   5ATOM      5  C   UNL     1      42.250  50.075  14.142 -0.64 -0.01    +0.039 A  ATOM      6  C   UNL     1      43.726  51.720  12.406 -0.37 -0.01    +0.024 A  ATOM      7  C   UNL     1      43.777  51.929  13.791 +0.09 -0.00    +0.013 A  ATOM      8  C   UNL     1      42.919  50.688  11.899 -0.40 -0.01    +0.013 A  ATOM      9  C   UNL     1      43.051  51.101  14.655 -0.15 -0.00    +0.014 A  ATOM     10  C   UNL     1      42.184  49.868  12.761 -0.26 -0.00    +0.014 A  BRANCH   6  11ATOM     11  C   UNL     1      44.503  52.544  11.431 -0.31 -0.11    +0.213 C  ATOM     12  O   UNL     1      43.952  53.424  10.778 -0.24 +0.22    -0.287 OA BRANCH  11  13ATOM     13  C   UNL     1      45.944  52.236  11.227 -0.29 -0.05    +0.132 A  ATOM     14  C   UNL     1      46.813  52.345  12.248 -0.24 -0.04    +0.146 A  ATOM     15  C   UNL     1      48.199  51.980  12.043 -0.23 -0.01    +0.054 A  ATOM     16  C   UNL     1      48.636  51.592  10.836 -0.29 -0.01    +0.075 A  ATOM     17  N   UNL     1      46.384  51.854   9.976 -0.18 +0.09    -0.316 N  ATOM     18  C   UNL     1      47.686  51.530   9.694 -0.22 -0.05    +0.248 A  ATOM     19  H   UNL     1      45.735  51.817   9.198 +0.06 -0.03    +0.170 HD ATOM     20  O   UNL     1      48.056  51.188   8.578 -0.28 +0.03    -0.270 OA BRANCH  14  21ATOM     21  O   UNL     1      46.457  52.650  13.541 -0.11 +0.15    -0.494 OA ATOM     22  C   UNL     1      47.548  53.246  14.247 -0.15 -0.05    +0.278 C  ENDBRANCH  14  21ENDBRANCH  11  13ENDBRANCH   6  11ENDBRANCH   1   5BRANCH   3  23ATOM     23  C   UNL     1      40.180  47.135  15.402 -0.47 -0.02    +0.107 C  ATOM     24  C   UNL     1      39.582  45.986  14.574 -0.38 -0.01    +0.042 C  ATOM     25  C   UNL     1      39.043  47.874  16.155 -0.43 -0.05    +0.118 C  ATOM     26  C   UNL     1      38.437  46.458  13.679 -0.32 -0.02    +0.087 C  ATOM     27  C   UNL     1      37.929  48.301  15.175 -0.50 -0.07    +0.111 C  ATOM     28  N   UNL     1      37.383  47.146  14.445 -0.21 +0.15    -0.298 NA BRANCH  25  29ATOM     29  N   UNL     1      38.472  47.026  17.208 -0.16 +0.14    -0.346 N  ATOM     30  C   UNL     1      39.258  46.313  18.082 -0.29 -0.04    +0.251 C  ATOM     31  H   UNL     1      37.468  46.902  17.173 +0.09 -0.09    +0.164 HD ATOM     32  O   UNL     1      40.473  46.447  18.155 -0.34 +0.02    -0.269 OA BRANCH  30  33ATOM     33  C   UNL     1      38.561  45.348  18.968 -0.34 -0.00    +0.048 A  ATOM     34  C   UNL     1      38.925  45.176  20.295 -0.31 -0.00    +0.074 A  ATOM     35  C   UNL     1      37.485  44.624  18.448 -0.32 -0.01    +0.061 A  ATOM     36  C   UNL     1      38.204  44.260  21.024 -0.23 +0.00    +0.215 A  ATOM     37  C   UNL     1      36.794  43.727  19.259 -0.24 -0.02    +0.132 A  ATOM     38  N   UNL     1      37.174  43.538  20.540 -0.25 +0.00    -0.202 NA ATOM     39  F   UNL     1      38.541  44.068  22.309 -0.07 -0.01    -0.185 F  BRANCH  37  40ATOM     40  N   UNL     1      35.727  42.974  18.735 -0.12 +0.06    -0.354 N  ATOM     41  C   UNL     1      35.508  43.150  17.283 -0.34 -0.04    +0.133 C  ATOM     42  C   UNL     1      34.482  43.102  19.529 -0.38 -0.01    +0.133 C  ATOM     43  C   UNL     1      34.356  42.243  16.779 -0.38 -0.05    +0.105 C  ATOM     44  C   UNL     1      33.374  42.180  18.972 -0.39 -0.01    +0.105 C  ATOM     45  N   UNL     1      33.085  42.340  17.529 -0.15 +0.10    -0.303 NA ATOM     46  C   UNL     1      32.393  43.597  17.253 -0.29 -0.03    +0.105 C  ENDBRANCH  37  40ENDBRANCH  30  33ENDBRANCH  25  29BRANCH  28  47ATOM     47  C   UNL     1      36.191  47.399  13.608 -0.56 -0.04    +0.056 C  ATOM     48  C   UNL     1      35.398  46.265  13.014 -0.52 -0.01    +0.021 C  ATOM     49  C   UNL     1      36.139  47.210  12.117 -0.72 -0.01    +0.021 C  ENDBRANCH  28  47ENDBRANCH   3  23TORSDOF 9TERENDMDL