REMARK SMILES COc1ccc(=O)[nH]c1C(=O)c1ccc(C(=O)N[C@@H]2CCN(C3CC3)C[C@H]2NC(=O)c2cc(F)nc(N3CCN(C)CC3)c2)cc1
REMARK SMILES IDX 16 1 17 2 18 3 15 5 12 6 13 7 46 8 14 9 45 10 10 11 11 12
REMARK SMILES IDX 9 13 3 14 4 15 5 16 8 17 6 18 7 20 2 21 1 22 19 23 20 24
REMARK SMILES IDX 27 25 21 26 26 27 22 28 28 29 29 30 30 32 31 33 32 34 44 35
REMARK SMILES IDX 33 36 36 37 35 38 34 39 37 40 38 41 43 42 39 43 42 44 40 45
REMARK SMILES IDX 41 46 23 47 24 48 25 49
REMARK H PARENT 18 4 8 19 28 31
ROOT
ATOM      1  C   UNL     1      -2.309  -0.350  -1.207  1.00  0.00     0.251 C 
ATOM      2  O   UNL     1      -1.979   0.152  -2.276  1.00  0.00    -0.269 OA
ATOM      3  N   UNL     1      -1.445  -1.038  -0.376  1.00  0.00    -0.347 N 
ATOM      4  H   UNL     1      -1.701  -1.074   0.602  1.00  0.00     0.164 HD
ENDROOT
BRANCH   1   5
ATOM      5  C   UNL     1      -3.707  -0.205  -0.724  1.00  0.00     0.039 A 
ATOM      6  C   UNL     1      -6.392   0.090   0.053  1.00  0.00     0.024 A 
ATOM      7  C   UNL     1      -5.756   1.096  -0.688  1.00  0.00     0.013 A 
ATOM      8  C   UNL     1      -5.667  -1.058   0.411  1.00  0.00     0.013 A 
ATOM      9  C   UNL     1      -4.423   0.942  -1.084  1.00  0.00     0.014 A 
ATOM     10  C   UNL     1      -4.331  -1.208   0.025  1.00  0.00     0.014 A 
BRANCH   6  11
ATOM     11  C   UNL     1      -7.822   0.176   0.478  1.00  0.00     0.213 C 
ATOM     12  O   UNL     1      -8.316  -0.694   1.188  1.00  0.00    -0.287 OA
BRANCH  11  13
ATOM     13  C   UNL     1      -8.648   1.306  -0.026  1.00  0.00     0.132 A 
ATOM     14  C   UNL     1      -9.092   2.253   0.820  1.00  0.00     0.146 A 
ATOM     15  C   UNL     1      -9.841   3.377   0.298  1.00  0.00     0.054 A 
ATOM     16  C   UNL     1     -10.146   3.453  -1.006  1.00  0.00     0.075 A 
ATOM     17  N   UNL     1      -8.969   1.364  -1.367  1.00  0.00    -0.316 N 
ATOM     18  C   UNL     1      -9.706   2.374  -1.929  1.00  0.00     0.248 A 
ATOM     19  H   UNL     1      -8.672   0.625  -1.994  1.00  0.00     0.170 HD
ATOM     20  O   UNL     1      -9.977   2.411  -3.123  1.00  0.00    -0.270 OA
BRANCH  14  21
ATOM     21  O   UNL     1      -8.766   2.316   2.154  1.00  0.00    -0.494 OA
ATOM     22  C   UNL     1      -9.811   1.773   2.964  1.00  0.00     0.278 C 
ENDBRANCH  14  21
ENDBRANCH  11  13
ENDBRANCH   6  11
ENDBRANCH   1   5
BRANCH   3  23
ATOM     23  C   UNL     1      -0.023  -1.177  -0.720  1.00  0.00     0.107 C 
ATOM     24  C   UNL     1       0.177  -2.142  -1.900  1.00  0.00     0.042 C 
ATOM     25  C   UNL     1       0.827  -1.655   0.486  1.00  0.00     0.118 C 
ATOM     26  C   UNL     1      -0.060  -3.598  -1.500  1.00  0.00     0.087 C 
ATOM     27  C   UNL     1       0.531  -3.135   0.809  1.00  0.00     0.111 C 
ATOM     28  N   UNL     1       0.777  -4.000  -0.356  1.00  0.00    -0.298 NA
BRANCH  25  29
ATOM     29  N   UNL     1       2.261  -1.489   0.217  1.00  0.00    -0.346 N 
ATOM     30  C   UNL     1       2.894  -0.275   0.341  1.00  0.00     0.251 C 
ATOM     31  H   UNL     1       2.727  -2.294  -0.183  1.00  0.00     0.164 HD
ATOM     32  O   UNL     1       2.361   0.714   0.829  1.00  0.00    -0.269 OA
BRANCH  30  33
ATOM     33  C   UNL     1       4.294  -0.202  -0.146  1.00  0.00     0.048 A 
ATOM     34  C   UNL     1       4.748  -0.989  -1.193  1.00  0.00     0.074 A 
ATOM     35  C   UNL     1       5.160   0.717   0.453  1.00  0.00     0.061 A 
ATOM     36  C   UNL     1       6.062  -0.831  -1.565  1.00  0.00     0.215 A 
ATOM     37  C   UNL     1       6.474   0.828   0.005  1.00  0.00     0.132 A 
ATOM     38  N   UNL     1       6.920   0.035  -0.992  1.00  0.00    -0.202 NA
ATOM     39  F   UNL     1       6.530  -1.587  -2.571  1.00  0.00    -0.185 F 
BRANCH  37  40
ATOM     40  N   UNL     1       7.360   1.731   0.621  1.00  0.00    -0.354 N 
ATOM     41  C   UNL     1       6.874   3.127   0.672  1.00  0.00     0.133 C 
ATOM     42  C   UNL     1       8.748   1.618   0.114  1.00  0.00     0.133 C 
ATOM     43  C   UNL     1       7.881   4.041   1.416  1.00  0.00     0.105 C 
ATOM     44  C   UNL     1       9.698   2.558   0.891  1.00  0.00     0.105 C 
ATOM     45  N   UNL     1       9.280   3.977   0.942  1.00  0.00    -0.303 NA
ATOM     46  C   UNL     1       9.439   4.634  -0.353  1.00  0.00     0.105 C 
ENDBRANCH  37  40
ENDBRANCH  30  33
ENDBRANCH  25  29
BRANCH  28  47
ATOM     47  C   UNL     1       0.700  -5.458  -0.123  1.00  0.00     0.056 C 
ATOM     48  C   UNL     1      -0.571  -6.107   0.357  1.00  0.00     0.021 C 
ATOM     49  C   UNL     1       0.645  -6.104   1.234  1.00  0.00     0.021 C 
ENDBRANCH  28  47
ENDBRANCH   3  23
TORSDOF 9
