MODEL        6USER    Run = 6USERUSER    Estimated Free Energy of Binding    = -13.39 kcal/mol  [=(1)+(2)+(3)-(4)]USERUSER    (1) Final Intermolecular Energy     = -16.07 kcal/molUSER        vdW + Hbond + desolv Energy     = -15.64 kcal/molUSER        Electrostatic Energy            =  -0.43 kcal/molUSER        Moving Ligand-Fixed Receptor    = -16.07 kcal/molUSER        Moving Ligand-Moving Receptor   =  +0.00 kcal/molUSER    (2) Final Total Internal Energy     =  -0.57 kcal/molUSER    (3) Torsional Free Energy           =  +2.68 kcal/molUSER    (4) Unbound System's Energy         =  -0.57 kcal/molUSERUSERREMARK SMILES COc1cc(F)c(=O)[nH]c1C(=O)c1ccc(C(=O)N[C@@H]2CCN(C(C)C)C[C@H]2NC(=O)c2cc(F)nc(N3CCOCC3)c2)cc1REMARK SMILES IDX 13 1 14 2 15 3 16 4 45 5 46 6 11 7 12 8 10 9 3 10 4 11 5 12REMARK SMILES IDX 9 13 7 14 6 15 8 17 2 18 1 19 17 20 19 21 18 22 20 24 21 25REMARK SMILES IDX 28 26 22 27 27 28 23 29 29 30 30 31 31 33 32 34 33 35 44 36REMARK SMILES IDX 34 37 37 38 36 39 35 40 38 41 39 42 43 43 40 44 42 45 41 46REMARK SMILES IDX 24 47 25 48 26 49REMARK H PARENT 9 16 19 23 29 32USER                              x       y       z     vdW  Elec       q    TypeUSER                           _______ _______ _______ _____ _____    ______ ____ROOTATOM      1  C   UNL     1      29.158  39.316  19.015 -0.26 +0.00    +0.024 A  ATOM      2  C   UNL     1      29.135  40.242  17.965 -0.26 +0.00    +0.013 A  ATOM      3  C   UNL     1      30.251  41.051  17.719 -0.27 -0.00    +0.014 A  ATOM      4  C   UNL     1      31.402  40.944  18.513 -0.30 -0.00    +0.039 A  ATOM      5  C   UNL     1      31.438  39.998  19.543 -0.34 +0.00    +0.014 A  ATOM      6  C   UNL     1      30.320  39.192  19.793 -0.31 +0.00    +0.013 A  ENDROOTBRANCH   1   7ATOM      7  C   UNL     1      28.003  38.426  19.336 -0.20 +0.02    +0.213 C  ATOM      8  O   UNL     1      28.150  37.207  19.389 -0.17 -0.05    -0.287 OA BRANCH   7   9ATOM      9  C   UNL     1      26.687  39.051  19.647 -0.19 -0.02    +0.132 A  ATOM     10  C   UNL     1      25.739  39.144  18.694 -0.22 -0.02    +0.149 A  ATOM     11  C   UNL     1      24.482  39.796  18.999 -0.21 -0.03    +0.094 A  ATOM     12  C   UNL     1      24.243  40.251  20.236 -0.24 -0.06    +0.191 A  ATOM     13  N   UNL     1      26.441  39.506  20.928 -0.14 +0.08    -0.314 N  ATOM     14  C   UNL     1      25.262  40.105  21.314 -0.21 -0.08    +0.284 A  ATOM     15  F   UNL     1      23.091  40.868  20.558 -0.11 +0.04    -0.201 F  ATOM     16  H   UNL     1      27.140  39.393  21.655 +0.09 -0.02    +0.170 HD ATOM     17  O   UNL     1      25.080  40.496  22.460 -0.91 +0.01    -0.266 OA BRANCH  10  18ATOM     18  O   UNL     1      25.925  38.783  17.380 -0.42 -0.23    -0.494 OA ATOM     19  C   UNL     1      25.654  39.875  16.499 -0.25 +0.03    +0.278 C  ENDBRANCH  10  18ENDBRANCH   7   9ENDBRANCH   1   7BRANCH   4  20ATOM     20  C   UNL     1      32.554  41.836  18.200 -0.26 -0.05    +0.251 C  ATOM     21  N   UNL     1      32.740  42.159  16.870 -0.08 +0.17    -0.347 N  ATOM     22  O   UNL     1      33.283  42.220  19.104 -0.35 +0.01    -0.269 OA ATOM     23  H   UNL     1      32.181  41.688  16.176 -0.46 -0.13    +0.164 HD BRANCH  21  24ATOM     24  C   UNL     1      33.932  42.883  16.410 -0.36 -0.05    +0.107 C  ATOM     25  C   UNL     1      35.202  42.131  16.817 -0.39 -0.02    +0.042 C  ATOM     26  C   UNL     1      33.970  44.331  16.952 -0.28 -0.06    +0.118 C  ATOM     27  C   UNL     1      35.518  42.256  18.309 -0.27 -0.02    +0.087 C  ATOM     28  C   UNL     1      34.283  44.328  18.465 -0.34 -0.03    +0.111 C  ATOM     29  N   UNL     1      35.574  43.658  18.772 -0.13 +0.06    -0.299 NA BRANCH  26  30ATOM     30  N   UNL     1      34.987  45.136  16.265 -0.09 +0.22    -0.346 N  ATOM     31  C   UNL     1      34.725  45.795  15.087 -0.21 -0.23    +0.251 C  ATOM     32  H   UNL     1      35.940  44.985  16.577 +0.12 -0.08    +0.164 HD ATOM     33  O   UNL     1      33.616  45.835  14.567 -0.29 +0.26    -0.269 OA BRANCH  31  34ATOM     34  C   UNL     1      35.872  46.471  14.430 -0.39 -0.04    +0.048 A  ATOM     35  C   UNL     1      35.971  46.597  13.051 -0.52 -0.04    +0.074 A  ATOM     36  C   UNL     1      36.894  46.973  15.241 -0.37 -0.04    +0.061 A  ATOM     37  C   UNL     1      37.078  47.251  12.563 -0.44 -0.07    +0.215 A  ATOM     38  C   UNL     1      37.993  47.603  14.664 -0.39 -0.06    +0.132 A  ATOM     39  N   UNL     1      38.067  47.758  13.325 -0.71 +0.05    -0.202 NA ATOM     40  F   UNL     1      37.189  47.400  11.235 -0.22 +0.05    -0.185 F  BRANCH  38  41ATOM     41  N   UNL     1      39.006  48.132  15.485 -0.23 +0.16    -0.352 N  ATOM     42  C   UNL     1      40.024  48.906  14.735 -0.46 -0.05    +0.146 C  ATOM     43  C   UNL     1      39.632  47.130  16.377 -0.44 -0.04    +0.146 C  ATOM     44  C   UNL     1      41.034  49.525  15.715 -0.58 -0.03    +0.181 C  ATOM     45  C   UNL     1      40.669  47.813  17.288 -0.42 -0.03    +0.181 C  ATOM     46  O   UNL     1      41.660  48.520  16.529 -0.74 -0.02    -0.378 OA ENDBRANCH  38  41ENDBRANCH  31  34ENDBRANCH  26  30BRANCH  29  47ATOM     47  C   UNL     1      35.901  43.756  20.224 -0.45 -0.00    +0.050 C  ATOM     48  C   UNL     1      37.318  44.311  20.457 -0.42 -0.00    +0.024 C  ATOM     49  C   UNL     1      35.821  42.399  20.947 -0.52 +0.00    +0.024 C  ENDBRANCH  29  47ENDBRANCH  21  24ENDBRANCH   4  20TORSDOF 9TERENDMDL