REMARK SMILES COc1cc(C(=O)N[C@@H]2CN(C3CC3)CC[C@H]2NC(=O)c2ccc(C(=O)c3[nH]c(=O)ccc3OC)cc2)cc(F)n1
REMARK SMILES IDX 18 1 19 2 20 3 17 5 9 6 10 7 11 8 16 9 15 10 8 11 6 12 7 13
REMARK SMILES IDX 5 15 3 16 4 17 41 18 39 19 38 20 40 21 2 22 1 23 12 24 13 25
REMARK SMILES IDX 14 26 21 27 22 28 37 29 23 30 36 31 24 32 25 33 26 34 27 35
REMARK SMILES IDX 28 36 33 37 29 38 32 39 31 40 30 42 34 43 35 44
REMARK H PARENT 18 4 8 14 28 41
ROOT
ATOM      1  N   UNL     1      -0.388   1.757   1.327  1.00  0.00    -0.347 N 
ATOM      2  C   UNL     1      -0.749   0.500   1.778  1.00  0.00     0.251 C 
ATOM      3  O   UNL     1       0.068  -0.369   2.059  1.00  0.00    -0.269 OA
ATOM      4  H   UNL     1      -1.094   2.318   0.868  1.00  0.00     0.164 HD
ENDROOT
BRANCH   1   5
ATOM      5  C   UNL     1       1.008   2.037   0.994  1.00  0.00     0.107 C 
ATOM      6  C   UNL     1       1.442   1.322  -0.325  1.00  0.00     0.118 C 
ATOM      7  C   UNL     1       1.701   2.367  -1.438  1.00  0.00     0.111 C 
ATOM      8  N   UNL     1       2.634   3.453  -1.092  1.00  0.00    -0.298 NA
ATOM      9  C   UNL     1       1.265   3.546   0.973  1.00  0.00     0.042 C 
ATOM     10  C   UNL     1       2.614   3.833   0.323  1.00  0.00     0.087 C 
BRANCH   6  11
ATOM     11  N   UNL     1       2.585   0.429  -0.087  1.00  0.00    -0.346 N 
ATOM     12  C   UNL     1       3.002  -0.457  -1.059  1.00  0.00     0.251 C 
ATOM     13  O   UNL     1       2.504  -0.531  -2.176  1.00  0.00    -0.269 OA
ATOM     14  H   UNL     1       2.679   0.089   0.864  1.00  0.00     0.164 HD
BRANCH  12  15
ATOM     15  C   UNL     1       4.094  -1.387  -0.675  1.00  0.00     0.049 A 
ATOM     16  C   UNL     1       5.995  -1.998   0.617  1.00  0.00     0.216 A 
ATOM     17  C   UNL     1       4.996  -1.081   0.343  1.00  0.00     0.082 A 
ATOM     18  N   UNL     1       6.148  -3.163  -0.040  1.00  0.00    -0.184 NA
ATOM     19  C   UNL     1       5.267  -3.418  -1.027  1.00  0.00     0.216 A 
ATOM     20  C   UNL     1       4.236  -2.576  -1.385  1.00  0.00     0.074 A 
ATOM     21  F   UNL     1       5.410  -4.571  -1.697  1.00  0.00    -0.185 F 
BRANCH  16  22
ATOM     22  O   UNL     1       6.867  -1.654   1.629  1.00  0.00    -0.481 OA
ATOM     23  C   UNL     1       7.888  -2.624   1.846  1.00  0.00     0.280 C 
ENDBRANCH  16  22
ENDBRANCH  12  15
ENDBRANCH   6  11
BRANCH   8  24
ATOM     24  C   UNL     1       3.997   3.224  -1.595  1.00  0.00     0.056 C 
ATOM     25  C   UNL     1       4.300   3.514  -3.039  1.00  0.00     0.021 C 
ATOM     26  C   UNL     1       4.849   4.407  -1.967  1.00  0.00     0.021 C 
ENDBRANCH   8  24
ENDBRANCH   1   5
BRANCH   2  27
ATOM     27  C   UNL     1      -2.210   0.215   1.830  1.00  0.00     0.039 A 
ATOM     28  C   UNL     1      -2.633  -1.113   1.673  1.00  0.00     0.014 A 
ATOM     29  C   UNL     1      -3.158   1.230   2.022  1.00  0.00     0.014 A 
ATOM     30  C   UNL     1      -3.995  -1.422   1.657  1.00  0.00     0.013 A 
ATOM     31  C   UNL     1      -4.520   0.921   2.005  1.00  0.00     0.013 A 
ATOM     32  C   UNL     1      -4.937  -0.397   1.788  1.00  0.00     0.024 A 
BRANCH  32  33
ATOM     33  C   UNL     1      -6.385  -0.683   1.770  1.00  0.00     0.213 C 
ATOM     34  O   UNL     1      -7.086  -0.261   2.690  1.00  0.00    -0.287 OA
BRANCH  33  35
ATOM     35  C   UNL     1      -6.993  -1.506   0.673  1.00  0.00     0.132 A 
ATOM     36  N   UNL     1      -8.149  -2.178   1.027  1.00  0.00    -0.316 N 
ATOM     37  C   UNL     1      -6.544  -1.577  -0.597  1.00  0.00     0.146 A 
ATOM     38  C   UNL     1      -8.909  -2.929   0.173  1.00  0.00     0.248 A 
ATOM     39  C   UNL     1      -7.304  -2.341  -1.573  1.00  0.00     0.054 A 
ATOM     40  C   UNL     1      -8.422  -2.996  -1.225  1.00  0.00     0.075 A 
ATOM     41  H   UNL     1      -8.496  -2.061   1.976  1.00  0.00     0.170 HD
ATOM     42  O   UNL     1      -9.934  -3.504   0.516  1.00  0.00    -0.270 OA
BRANCH  37  43
ATOM     43  O   UNL     1      -5.475  -0.842  -1.063  1.00  0.00    -0.494 OA
ATOM     44  C   UNL     1      -4.488  -1.605  -1.760  1.00  0.00     0.278 C 
ENDBRANCH  37  43
ENDBRANCH  33  35
ENDBRANCH  32  33
ENDBRANCH   2  27
TORSDOF 9
