MODEL        4USER    Run = 4USERUSER    Estimated Free Energy of Binding    = -13.42 kcal/mol  [=(1)+(2)+(3)-(4)]USERUSER    (1) Final Intermolecular Energy     = -15.51 kcal/molUSER        vdW + Hbond + desolv Energy     = -15.40 kcal/molUSER        Electrostatic Energy            =  -0.11 kcal/molUSER        Moving Ligand-Fixed Receptor    = -15.51 kcal/molUSER        Moving Ligand-Moving Receptor   =  +0.00 kcal/molUSER    (2) Final Total Internal Energy     =  -2.99 kcal/molUSER    (3) Torsional Free Energy           =  +2.09 kcal/molUSER    (4) Unbound System's Energy         =  -2.99 kcal/molUSERUSERREMARK SMILES CN1CCN(c2ccc(-c3nc4ccc(F)cc4nc3-c3ccc(CN4CCC(n5c(O)nc6ccccc65)CC4)cc3)cc2)CC1REMARK SMILES IDX 21 1 22 2 23 3 24 4 42 5 43 6 20 7 10 8 11 9 12 10 19 11REMARK SMILES IDX 13 12 18 13 14 14 17 15 15 16 16 17 9 18 6 19 7 20 45 21REMARK SMILES IDX 8 22 44 23 5 24 2 25 3 26 47 27 4 28 46 29 1 30 25 31 26 32REMARK SMILES IDX 27 33 41 34 28 35 40 36 29 37 30 38 31 39 39 40 33 41 38 42REMARK SMILES IDX 34 43 37 44 35 45 36 46 32 47REMARK H PARENT 32 48USER                              x       y       z     vdW  Elec       q    TypeUSER                           _______ _______ _______ _____ _____    ______ ____ROOTATOM      1  C   UNL     1      34.595  43.287  16.546 -0.39 -0.00    +0.002 A  ATOM      2  C   UNL     1      35.947  42.992  16.306 -0.43 -0.00    +0.011 A  ATOM      3  C   UNL     1      36.724  43.784  15.455 -0.31 -0.00    +0.006 A  ATOM      4  C   UNL     1      36.161  44.891  14.808 -0.34 +0.02    -0.034 A  ATOM      5  C   UNL     1      34.808  45.181  15.021 -0.27 -0.00    +0.006 A  ATOM      6  C   UNL     1      34.036  44.388  15.875 -0.30 -0.01    +0.011 A  ENDROOTBRANCH   1   7ATOM      7  C   UNL     1      33.799  42.446  17.457 -0.32 -0.03    +0.097 A  ATOM      8  C   UNL     1      34.061  42.263  18.825 -0.34 -0.01    +0.097 A  ATOM      9  N   UNL     1      33.225  41.520  19.606 -0.24 -0.03    -0.244 NA ATOM     10  C   UNL     1      32.165  40.946  19.014 -0.31 +0.00    +0.090 A  ATOM     11  N   UNL     1      32.729  41.847  16.859 +0.03 +0.13    -0.244 NA ATOM     12  C   UNL     1      31.294  40.173  19.774 -0.21 +0.00    +0.033 A  ATOM     13  C   UNL     1      31.917  41.105  17.631 -0.29 -0.03    +0.092 A  ATOM     14  C   UNL     1      30.188  39.553  19.195 -0.24 +0.00    +0.041 A  ATOM     15  C   UNL     1      30.816  40.487  17.061 -0.27 -0.01    +0.069 A  ATOM     16  C   UNL     1      29.961  39.717  17.839 -0.27 +0.01    +0.125 A  ATOM     17  F   UNL     1      28.902  39.127  17.270 -0.08 -0.10    -0.207 F  BRANCH   8  18ATOM     18  C   UNL     1      35.233  42.796  19.544 -0.43 -0.00    +0.003 A  ATOM     19  C   UNL     1      37.517  43.866  20.925 -0.36 +0.00    +0.037 A  ATOM     20  C   UNL     1      36.858  44.583  19.917 -0.23 -0.00    +0.026 A  ATOM     21  C   UNL     1      36.987  42.606  21.232 -0.42 +0.00    +0.026 A  ATOM     22  C   UNL     1      35.741  44.066  19.242 -0.37 -0.00    +0.012 A  ATOM     23  C   UNL     1      35.869  42.082  20.566 -0.47 -0.00    +0.012 A  BRANCH  19  24ATOM     24  N   UNL     1      38.621  44.374  21.588 -0.12 -0.01    -0.369 N  ATOM     25  N   UNL     1      40.978  45.470  23.091 -0.05 -0.02    -0.303 NA ATOM     26  C   UNL     1      40.966  44.175  22.375 -0.24 +0.01    +0.105 C  ATOM     27  C   UNL     1      39.689  46.176  22.942 -0.27 +0.01    +0.105 C  ATOM     28  C   UNL     1      39.574  43.504  22.297 -0.23 +0.01    +0.132 C  ATOM     29  C   UNL     1      38.867  45.823  21.680 -0.20 +0.01    +0.132 C  ATOM     30  C   UNL     1      42.102  46.289  22.648 -0.21 +0.02    +0.105 C  ENDBRANCH  19  24ENDBRANCH   8  18ENDBRANCH   1   7BRANCH   4  31ATOM     31  C   UNL     1      36.993  45.761  13.890 -0.41 -0.05    +0.120 C  BRANCH  31  32ATOM     32  N   UNL     1      36.823  47.200  14.143 -0.23 +0.18    -0.299 NA ATOM     33  C   UNL     1      36.558  47.485  15.559 -0.34 -0.09    +0.087 C  ATOM     34  C   UNL     1      37.929  48.027  13.639 -0.49 -0.03    +0.087 C  ATOM     35  C   UNL     1      37.783  47.318  16.460 -0.32 -0.02    +0.041 C  ATOM     36  C   UNL     1      39.221  47.892  14.445 -0.53 -0.01    +0.041 C  ATOM     37  C   UNL     1      38.958  48.150  15.934 -0.46 -0.05    +0.095 C  BRANCH  37  38ATOM     38  N   UNL     1      40.154  48.005  16.753 -0.30 +0.07    -0.291 N  ATOM     39  C   UNL     1      41.187  48.902  16.792 -0.09 -0.02    +0.295 A  ATOM     40  C   UNL     1      40.476  46.990  17.631 -0.45 -0.01    +0.072 A  ATOM     41  N   UNL     1      42.139  48.562  17.614 -0.49 -0.02    -0.195 NA ATOM     42  C   UNL     1      39.837  45.805  18.028 -0.43 -0.00    +0.029 A  ATOM     43  C   UNL     1      41.717  47.371  18.149 -0.44 -0.00    +0.092 A  ATOM     44  C   UNL     1      40.491  45.005  18.972 -0.44 +0.00    +0.002 A  ATOM     45  C   UNL     1      42.354  46.554  19.096 -0.45 +0.00    +0.031 A  ATOM     46  C   UNL     1      41.729  45.370  19.500 -0.32 +0.00    +0.002 A  BRANCH  39  47ATOM     47  O   UNL     1      41.242  50.013  16.086 -0.73 +0.08    -0.480 OA ATOM     48  H   UNL     1      41.418  50.672  16.784 -0.28 -0.07    +0.296 HD ENDBRANCH  39  47ENDBRANCH  37  38ENDBRANCH  31  32ENDBRANCH   4  31TORSDOF 7TERENDMDL