MODEL        8USER    Run = 8USERUSER    Estimated Free Energy of Binding    =  -9.85 kcal/mol  [=(1)+(2)+(3)-(4)]USERUSER    (1) Final Intermolecular Energy     = -11.93 kcal/molUSER        vdW + Hbond + desolv Energy     = -11.90 kcal/molUSER        Electrostatic Energy            =  -0.03 kcal/molUSER        Moving Ligand-Fixed Receptor    = -11.93 kcal/molUSER        Moving Ligand-Moving Receptor   =  +0.00 kcal/molUSER    (2) Final Total Internal Energy     =  -3.23 kcal/molUSER    (3) Torsional Free Energy           =  +2.09 kcal/molUSER    (4) Unbound System's Energy         =  -3.23 kcal/molUSERUSERREMARK SMILES Oc1nc2ccccc2n1C1CCN(Cc2ccc(-c3nc4cc(F)ccc4nc3-c3ccc(N4CCOCC4)cc3)cc2)CC1REMARK SMILES IDX 15 1 14 2 11 3 12 4 46 5 13 6 45 7 10 8 2 9 3 10 4 11 9 12REMARK SMILES IDX 5 13 8 14 6 15 7 16 1 17 16 19 17 20 44 21 18 22 43 23 19 24REMARK SMILES IDX 20 25 21 26 30 27 22 28 29 29 23 30 28 31 24 32 27 33 26 34REMARK SMILES IDX 25 35 31 36 32 37 42 38 33 39 41 40 34 41 35 42 36 43 40 44REMARK SMILES IDX 37 45 39 46 38 47REMARK H PARENT 1 18USER                              x       y       z     vdW  Elec       q    TypeUSER                           _______ _______ _______ _____ _____    ______ ____ROOTATOM      1  C   UNL     1      43.503  45.815  23.031 -0.15 +0.03    +0.120 C  ENDROOTBRANCH   1   2ATOM      2  N   UNL     1      43.652  45.279  24.396 -0.00 -0.04    -0.299 NA ATOM      3  C   UNL     1      41.727  46.552  26.219 -0.09 +0.01    +0.095 C  ATOM      4  C   UNL     1      41.283  45.492  25.202 -0.10 +0.00    +0.041 C  ATOM      5  C   UNL     1      42.996  47.282  25.764 -0.11 +0.00    +0.041 C  ATOM      6  C   UNL     1      42.448  44.569  24.844 -0.06 +0.00    +0.087 C  ATOM      7  C   UNL     1      44.084  46.278  25.383 -0.04 +0.01    +0.087 C  BRANCH   3   8ATOM      8  N   UNL     1      40.659  47.468  26.598 -0.08 -0.02    -0.291 N  ATOM      9  C   UNL     1      40.449  47.974  27.862 -0.02 +0.02    +0.295 A  ATOM     10  N   UNL     1      39.351  48.679  27.937 -0.15 +0.00    -0.195 NA ATOM     11  C   UNL     1      38.843  48.688  26.667 -0.22 +0.01    +0.092 A  ATOM     12  C   UNL     1      39.642  47.947  25.795 -0.22 +0.01    +0.072 A  ATOM     13  C   UNL     1      37.687  49.320  26.184 -0.28 +0.00    +0.031 A  ATOM     14  C   UNL     1      39.328  47.814  24.434 -0.34 +0.00    +0.029 A  ATOM     15  C   UNL     1      37.360  49.194  24.830 -0.43 +0.00    +0.002 A  ATOM     16  C   UNL     1      38.172  48.454  23.971 -0.19 +0.00    +0.002 A  BRANCH   9  17ATOM     17  O   UNL     1      41.234  47.787  28.909 -0.42 -0.06    -0.480 OA ATOM     18  H   UNL     1      40.679  47.769  29.701 -0.30 -0.02    +0.296 HD ENDBRANCH   9  17ENDBRANCH   3   8ENDBRANCH   1   2BRANCH   1  19ATOM     19  C   UNL     1      42.205  45.411  22.361 -0.20 -0.01    -0.034 A  ATOM     20  C   UNL     1      42.033  44.116  21.858 -0.30 +0.00    +0.006 A  ATOM     21  C   UNL     1      41.163  46.334  22.209 -0.23 +0.00    +0.006 A  ATOM     22  C   UNL     1      40.834  43.748  21.242 -0.23 +0.00    +0.011 A  ATOM     23  C   UNL     1      39.963  45.962  21.594 -0.16 +0.00    +0.011 A  ATOM     24  C   UNL     1      39.768  44.656  21.115 -0.32 +0.00    +0.002 A  BRANCH  24  25ATOM     25  C   UNL     1      38.504  44.239  20.484 -0.27 -0.00    +0.097 A  ATOM     26  N   UNL     1      38.510  44.329  19.123 -0.21 +0.02    -0.244 NA ATOM     27  C   UNL     1      37.363  43.798  21.176 -0.33 +0.00    +0.097 A  ATOM     28  C   UNL     1      37.377  44.015  18.472 -0.20 -0.01    +0.092 A  ATOM     29  N   UNL     1      36.214  43.492  20.511 -0.26 +0.00    -0.244 NA ATOM     30  C   UNL     1      37.338  44.105  17.090 -0.25 -0.02    +0.069 A  ATOM     31  C   UNL     1      36.221  43.598  19.172 -0.30 -0.01    +0.090 A  ATOM     32  C   UNL     1      36.178  43.790  16.396 -0.30 -0.04    +0.125 A  ATOM     33  C   UNL     1      35.069  43.285  18.457 -0.33 -0.01    +0.033 A  ATOM     34  C   UNL     1      35.038  43.378  17.067 -0.34 -0.01    +0.041 A  ATOM     35  F   UNL     1      36.159  43.883  15.061 -0.11 +0.08    -0.207 F  BRANCH  27  36ATOM     36  C   UNL     1      37.278  43.599  22.633 -0.38 +0.00    +0.003 A  ATOM     37  C   UNL     1      37.522  44.662  23.512 -0.29 +0.00    +0.012 A  ATOM     38  C   UNL     1      36.938  42.366  23.201 -0.45 +0.00    +0.012 A  ATOM     39  C   UNL     1      37.451  44.492  24.904 -0.30 +0.00    +0.026 A  ATOM     40  C   UNL     1      36.868  42.206  24.592 -0.40 -0.00    +0.026 A  ATOM     41  C   UNL     1      37.107  43.265  25.483 -0.32 -0.00    +0.037 A  BRANCH  41  42ATOM     42  N   UNL     1      37.037  43.050  26.859 -0.10 +0.05    -0.367 N  ATOM     43  C   UNL     1      35.964  42.144  27.339 -0.49 -0.04    +0.145 C  ATOM     44  C   UNL     1      37.269  44.157  27.812 -0.34 -0.03    +0.145 C  ATOM     45  C   UNL     1      34.694  42.949  27.667 -0.51 -0.04    +0.181 C  ATOM     46  C   UNL     1      35.957  44.885  28.150 -0.38 -0.05    +0.181 C  ATOM     47  O   UNL     1      34.960  43.973  28.642 -0.39 +0.12    -0.378 OA ENDBRANCH  41  42ENDBRANCH  27  36ENDBRANCH  24  25ENDBRANCH   1  19TORSDOF 7TERENDMDL