MODEL        10USER    Run = 10USERUSER    Estimated Free Energy of Binding    =  -9.82 kcal/mol  [=(1)+(2)+(3)-(4)]USERUSER    (1) Final Intermolecular Energy     = -11.61 kcal/molUSER        vdW + Hbond + desolv Energy     = -11.65 kcal/molUSER        Electrostatic Energy            =  +0.04 kcal/molUSER        Moving Ligand-Fixed Receptor    = -11.61 kcal/molUSER        Moving Ligand-Moving Receptor   =  +0.00 kcal/molUSER    (2) Final Total Internal Energy     =  -1.85 kcal/molUSER    (3) Torsional Free Energy           =  +1.79 kcal/molUSER    (4) Unbound System's Energy         =  -1.85 kcal/molUSERUSERREMARK SMILES CC[C@@H]1NC=Nc2c(Nc3ccccc3F)nc(N3CC[C@@H](CN4CCOCC4)C3)nc21REMARK SMILES IDX 3 1 4 2 5 3 6 4 7 5 8 6 17 7 18 8 31 9 32 10 2 12 1 13 19 14REMARK SMILES IDX 20 15 30 16 21 17 22 18 23 19 24 20 25 21 29 22 26 23 28 24REMARK SMILES IDX 27 25 9 26 10 28 11 29 15 30 12 31 14 32 13 33 16 34REMARK H PARENT 4 11 9 27USER                              x       y       z     vdW  Elec       q    TypeUSER                           _______ _______ _______ _____ _____    ______ ____ROOTATOM      1  C   UNL     1      37.761  47.757  14.688 -0.47 -0.07    +0.131 C  ATOM      2  N   UNL     1      38.683  48.853  14.409 -0.14 +0.20    -0.368 N  ATOM      3  C   UNL     1      39.971  48.789  14.845 -0.45 -0.07    +0.193 C  ATOM      4  N   UNL     1      40.444  47.991  15.740 -0.35 +0.05    -0.234 NA ATOM      5  C   UNL     1      39.510  47.113  16.344 -0.38 -0.04    +0.131 A  ATOM      6  C   UNL     1      39.849  46.343  17.455 -0.35 -0.02    +0.162 A  ATOM      7  N   UNL     1      38.953  45.544  18.068 -0.29 +0.03    -0.193 NA ATOM      8  C   UNL     1      37.699  45.488  17.593 -0.22 -0.06    +0.227 A  ATOM      9  N   UNL     1      37.293  46.175  16.514 -0.23 +0.10    -0.213 NA ATOM     10  C   UNL     1      38.201  46.978  15.911 -0.35 -0.04    +0.096 A  ATOM     11  H   UNL     1      38.485  49.409  13.587 -0.35 -0.09    +0.162 HD ENDROOTBRANCH   1  12ATOM     12  C   UNL     1      37.659  46.820  13.472 -0.55 -0.01    +0.028 C  ATOM     13  C   UNL     1      36.614  47.269  12.460 -0.76 -0.00    +0.006 C  ENDBRANCH   1  12BRANCH   8  14ATOM     14  N   UNL     1      36.802  44.667  18.227 -0.12 +0.08    -0.340 N  ATOM     15  C   UNL     1      35.449  45.124  18.486 -0.33 -0.04    +0.120 C  ATOM     16  C   UNL     1      37.276  43.755  19.260 -0.24 -0.01    +0.124 C  ATOM     17  C   UNL     1      34.893  44.015  19.378 -0.44 -0.00    +0.028 C  ATOM     18  C   UNL     1      36.099  43.667  20.250 -0.47 -0.00    +0.024 C  BRANCH  18  19ATOM     19  C   UNL     1      36.058  42.316  20.970 -0.49 +0.00    +0.090 C  BRANCH  19  20ATOM     20  N   UNL     1      37.051  42.240  22.051 -0.27 -0.02    -0.298 NA ATOM     21  C   UNL     1      37.776  43.512  22.272 -0.35 +0.01    +0.113 C  ATOM     22  C   UNL     1      36.438  41.770  23.311 -0.42 +0.00    +0.113 C  ATOM     23  C   UNL     1      37.319  44.277  23.527 -0.28 +0.02    +0.175 C  ATOM     24  C   UNL     1      37.317  42.106  24.525 -0.31 +0.00    +0.175 C  ATOM     25  O   UNL     1      37.452  43.518  24.735 -0.14 -0.01    -0.379 OA ENDBRANCH  19  20ENDBRANCH  18  19ENDBRANCH   8  14BRANCH   6  26ATOM     26  N   UNL     1      41.197  46.401  17.893 -0.26 +0.02    -0.336 N  ATOM     27  H   UNL     1      41.745  46.972  17.249 -0.35 -0.03    +0.168 HD BRANCH  26  28ATOM     28  C   UNL     1      41.775  46.255  19.164 -0.42 +0.01    +0.076 A  ATOM     29  C   UNL     1      41.423  45.246  20.065 -0.36 +0.00    +0.029 A  ATOM     30  C   UNL     1      42.816  47.121  19.540 -0.39 +0.03    +0.146 A  ATOM     31  C   UNL     1      42.065  45.133  21.305 -0.29 +0.00    +0.002 A  ATOM     32  C   UNL     1      43.461  47.018  20.771 -0.35 +0.02    +0.041 A  ATOM     33  C   UNL     1      43.081  46.021  21.658 -0.28 +0.00    +0.003 A  ATOM     34  F   UNL     1      43.208  48.086  18.693 -0.20 -0.01    -0.205 F  ENDBRANCH  26  28ENDBRANCH   6  26TORSDOF 6TERENDMDL