REMARK SMILES CC[C@@H]1NC=Nc2c(Nc3ccccc3F)nc(N3CC[C@@H](CN4CCOCC4)C3)nc21
REMARK SMILES IDX 3 1 4 2 5 3 6 4 7 5 8 6 17 7 18 8 31 9 32 10 2 12 1 13 19 14
REMARK SMILES IDX 20 15 30 16 21 17 22 18 23 19 24 20 25 21 29 22 26 23 28 24
REMARK SMILES IDX 27 25 9 26 10 28 11 29 15 30 12 31 14 32 13 33 16 34
REMARK H PARENT 4 11 9 27
ROOT
ATOM      1  C   UNL     1      -3.196  -3.598   0.959  1.00  0.00     0.131 C 
ATOM      2  N   UNL     1      -4.470  -3.503   1.665  1.00  0.00    -0.368 N 
ATOM      3  C   UNL     1      -5.267  -2.413   1.491  1.00  0.00     0.193 C 
ATOM      4  N   UNL     1      -4.924  -1.279   0.983  1.00  0.00    -0.234 NA
ATOM      5  C   UNL     1      -3.567  -1.160   0.593  1.00  0.00     0.131 A 
ATOM      6  C   UNL     1      -3.024   0.067   0.215  1.00  0.00     0.162 A 
ATOM      7  N   UNL     1      -1.722   0.201  -0.108  1.00  0.00    -0.193 NA
ATOM      8  C   UNL     1      -0.927  -0.879  -0.065  1.00  0.00     0.227 A 
ATOM      9  N   UNL     1      -1.370  -2.102   0.263  1.00  0.00    -0.213 NA
ATOM     10  C   UNL     1      -2.678  -2.222   0.591  1.00  0.00     0.096 A 
ATOM     11  H   UNL     1      -4.908  -4.378   1.922  1.00  0.00     0.162 HD
ENDROOT
BRANCH   1  12
ATOM     12  C   UNL     1      -3.348  -4.462  -0.305  1.00  0.00     0.028 C 
ATOM     13  C   UNL     1      -3.640  -5.924   0.005  1.00  0.00     0.006 C 
ENDBRANCH   1  12
BRANCH   8  14
ATOM     14  N   UNL     1       0.394  -0.725  -0.400  1.00  0.00    -0.340 N 
ATOM     15  C   UNL     1       1.338  -1.802  -0.167  1.00  0.00     0.120 C 
ATOM     16  C   UNL     1       1.017   0.585  -0.261  1.00  0.00     0.124 C 
ATOM     17  C   UNL     1       2.679  -1.134  -0.466  1.00  0.00     0.028 C 
ATOM     18  C   UNL     1       2.478   0.267   0.111  1.00  0.00     0.024 C 
BRANCH  18  19
ATOM     19  C   UNL     1       3.441   1.354  -0.374  1.00  0.00     0.090 C 
BRANCH  19  20
ATOM     20  N   UNL     1       4.828   1.076   0.024  1.00  0.00    -0.298 NA
ATOM     21  C   UNL     1       5.601   0.350  -1.009  1.00  0.00     0.113 C 
ATOM     22  C   UNL     1       5.532   2.315   0.418  1.00  0.00     0.113 C 
ATOM     23  C   UNL     1       6.604   1.235  -1.770  1.00  0.00     0.175 C 
ATOM     24  C   UNL     1       7.056   2.128   0.399  1.00  0.00     0.175 C 
ATOM     25  O   UNL     1       7.564   1.869  -0.916  1.00  0.00    -0.379 OA
ENDBRANCH  19  20
ENDBRANCH  18  19
ENDBRANCH   8  14
BRANCH   6  26
ATOM     26  N   UNL     1      -3.913   1.170   0.140  1.00  0.00    -0.336 N 
ATOM     27  H   UNL     1      -4.707   1.017   0.763  1.00  0.00     0.168 HD
BRANCH  26  28
ATOM     28  C   UNL     1      -3.709   2.514  -0.208  1.00  0.00     0.076 A 
ATOM     29  C   UNL     1      -2.636   2.960  -0.986  1.00  0.00     0.029 A 
ATOM     30  C   UNL     1      -4.664   3.469   0.180  1.00  0.00     0.146 A 
ATOM     31  C   UNL     1      -2.510   4.312  -1.330  1.00  0.00     0.002 A 
ATOM     32  C   UNL     1      -4.548   4.817  -0.156  1.00  0.00     0.041 A 
ATOM     33  C   UNL     1      -3.464   5.239  -0.912  1.00  0.00     0.003 A 
ATOM     34  F   UNL     1      -5.727   3.081   0.902  1.00  0.00    -0.205 F 
ENDBRANCH  26  28
ENDBRANCH   6  26
TORSDOF 6
