REMARK SMILES Oc1nc2ccccc2n1C1CCN(Cc2ccc(-c3nc4ccncc4nc3-c3ccncc3)cc2F)CC1
REMARK SMILES IDX 11 1 12 2 13 3 14 4 39 5 40 6 10 7 2 8 3 9 4 10 9 11 5 12
REMARK SMILES IDX 8 13 6 14 7 15 1 16 15 18 16 19 17 20 37 21 18 22 36 23
REMARK SMILES IDX 19 24 38 25 20 26 21 27 29 28 22 29 28 30 23 31 27 32 24 33
REMARK SMILES IDX 26 34 25 35 30 36 31 37 35 38 32 39 34 40 33 41
REMARK H PARENT 1 17
ROOT
ATOM      1  C   UNL     1       4.327  -0.299   0.214  1.00  0.00     0.095 C 
ATOM      2  C   UNL     1       3.162   0.650   0.527  1.00  0.00     0.041 C 
ATOM      3  C   UNL     1       1.868   0.076  -0.048  1.00  0.00     0.087 C 
ATOM      4  N   UNL     1       1.512  -1.234   0.513  1.00  0.00    -0.299 NA
ATOM      5  C   UNL     1       2.632  -1.944   1.141  1.00  0.00     0.087 C 
ATOM      6  C   UNL     1       3.952  -1.782   0.392  1.00  0.00     0.041 C 
ENDROOT
BRANCH   1   7
ATOM      7  N   UNL     1       5.547   0.081   0.913  1.00  0.00    -0.291 N 
ATOM      8  C   UNL     1       5.772   0.009   2.260  1.00  0.00     0.295 A 
ATOM      9  N   UNL     1       6.957   0.429   2.611  1.00  0.00    -0.195 NA
ATOM     10  C   UNL     1       7.551   0.795   1.428  1.00  0.00     0.092 A 
ATOM     11  C   UNL     1       6.696   0.591   0.342  1.00  0.00     0.072 A 
ATOM     12  C   UNL     1       8.837   1.315   1.207  1.00  0.00     0.031 A 
ATOM     13  C   UNL     1       7.072   0.890  -0.975  1.00  0.00     0.029 A 
ATOM     14  C   UNL     1       9.230   1.615  -0.103  1.00  0.00     0.002 A 
ATOM     15  C   UNL     1       8.359   1.407  -1.173  1.00  0.00     0.002 A 
BRANCH   8  16
ATOM     16  O   UNL     1       4.908  -0.442   3.144  1.00  0.00    -0.480 OA
ATOM     17  H   UNL     1       5.405  -0.322   3.975  1.00  0.00     0.296 HD
ENDBRANCH   8  16
ENDBRANCH   1   7
BRANCH   4  18
ATOM     18  C   UNL     1       0.764  -2.076  -0.435  1.00  0.00     0.123 C 
BRANCH  18  19
ATOM     19  C   UNL     1      -0.647  -1.589  -0.661  1.00  0.00     0.002 A 
ATOM     20  C   UNL     1      -0.957  -0.699  -1.696  1.00  0.00     0.009 A 
ATOM     21  C   UNL     1      -1.680  -2.008   0.179  1.00  0.00     0.128 A 
ATOM     22  C   UNL     1      -2.265  -0.229  -1.857  1.00  0.00     0.011 A 
ATOM     23  C   UNL     1      -2.987  -1.550   0.015  1.00  0.00     0.050 A 
ATOM     24  C   UNL     1      -3.303  -0.628  -0.994  1.00  0.00     0.005 A 
ATOM     25  F   UNL     1      -1.432  -2.884   1.164  1.00  0.00    -0.207 F 
BRANCH  24  26
ATOM     26  C   UNL     1      -4.671  -0.105  -1.180  1.00  0.00     0.097 A 
ATOM     27  N   UNL     1      -5.104  -0.148  -2.474  1.00  0.00    -0.244 NA
ATOM     28  C   UNL     1      -5.501   0.387  -0.158  1.00  0.00     0.097 A 
ATOM     29  C   UNL     1      -6.359   0.261  -2.734  1.00  0.00     0.093 A 
ATOM     30  N   UNL     1      -6.778   0.783  -0.422  1.00  0.00    -0.242 NA
ATOM     31  C   UNL     1      -6.829   0.224  -4.036  1.00  0.00     0.051 A 
ATOM     32  C   UNL     1      -7.198   0.721  -1.705  1.00  0.00     0.108 A 
ATOM     33  C   UNL     1      -8.120   0.638  -4.302  1.00  0.00     0.113 A 
ATOM     34  C   UNL     1      -8.472   1.110  -2.084  1.00  0.00     0.141 A 
ATOM     35  N   UNL     1      -8.960   1.083  -3.351  1.00  0.00    -0.262 NA
BRANCH  28  36
ATOM     36  C   UNL     1      -5.112   0.560   1.251  1.00  0.00     0.005 A 
ATOM     37  C   UNL     1      -3.964   1.272   1.624  1.00  0.00     0.030 A 
ATOM     38  C   UNL     1      -5.908   0.030   2.276  1.00  0.00     0.030 A 
ATOM     39  C   UNL     1      -3.653   1.391   2.970  1.00  0.00     0.111 A 
ATOM     40  C   UNL     1      -5.517   0.204   3.594  1.00  0.00     0.111 A 
ATOM     41  N   UNL     1      -4.403   0.868   3.962  1.00  0.00    -0.265 NA
ENDBRANCH  28  36
ENDBRANCH  24  26
ENDBRANCH  18  19
ENDBRANCH   4  18
TORSDOF 6
