MODEL        4USER    Run = 4USERUSER    Estimated Free Energy of Binding    = -10.67 kcal/mol  [=(1)+(2)+(3)-(4)]USERUSER    (1) Final Intermolecular Energy     = -12.76 kcal/molUSER        vdW + Hbond + desolv Energy     = -12.54 kcal/molUSER        Electrostatic Energy            =  -0.22 kcal/molUSER        Moving Ligand-Fixed Receptor    = -12.76 kcal/molUSER        Moving Ligand-Moving Receptor   =  +0.00 kcal/molUSER    (2) Final Total Internal Energy     =  -1.81 kcal/molUSER    (3) Torsional Free Energy           =  +2.09 kcal/molUSER    (4) Unbound System's Energy         =  -1.81 kcal/molUSERUSERREMARK SMILES COc1ccc(O)c(C(=O)c2ccc(Nc3nc4c(s3)CCC[C@H]4C(=O)N3CCOCC3)cc2F)c1FREMARK SMILES IDX 11 1 12 2 13 3 14 4 33 5 34 6 35 7 9 8 10 9 8 10 3 11 4 12REMARK SMILES IDX 36 13 5 14 6 15 37 16 2 17 1 18 7 19 15 21 16 23 17 24 20 25REMARK SMILES IDX 18 26 19 27 24 28 21 29 23 30 22 31 25 32 27 33 28 34 32 35REMARK SMILES IDX 29 36 31 37 30 38 26 39REMARK H PARENT 7 20 15 22USER                              x       y       z     vdW  Elec       q    TypeUSER                           _______ _______ _______ _____ _____    ______ ____ROOTATOM      1  C   UNL     1      37.525  44.453  23.625 -0.28 +0.01    +0.059 A  ATOM      2  C   UNL     1      38.338  45.496  23.185 -0.30 +0.00    +0.017 A  ATOM      3  C   UNL     1      38.828  45.494  21.872 -0.32 +0.00    +0.027 A  ATOM      4  C   UNL     1      38.516  44.463  20.977 -0.33 +0.00    +0.043 A  ATOM      5  C   UNL     1      37.655  43.447  21.429 -0.33 +0.00    +0.066 A  ATOM      6  C   UNL     1      37.170  43.445  22.736 -0.29 +0.01    +0.136 A  ATOM      7  F   UNL     1      36.336  42.463  23.110 -0.12 -0.02    -0.206 F  ENDROOTBRANCH   1   8ATOM      8  C   UNL     1      37.013  44.475  25.007 -0.25 +0.01    +0.202 C  ATOM      9  O   UNL     1      36.597  45.540  25.465 -0.69 -0.00    -0.288 OA BRANCH   8  10ATOM     10  C   UNL     1      36.955  43.271  25.864 -0.28 -0.01    +0.104 A  ATOM     11  C   UNL     1      37.992  41.286  26.832 -0.30 -0.02    +0.155 A  ATOM     12  C   UNL     1      36.803  40.997  27.505 -0.49 -0.02    +0.053 A  ATOM     13  C   UNL     1      38.055  42.422  26.013 -0.19 -0.01    +0.179 A  ATOM     14  C   UNL     1      35.706  41.856  27.389 -0.54 -0.02    +0.051 A  ATOM     15  C   UNL     1      35.789  42.991  26.587 -0.37 -0.02    +0.130 A  ATOM     16  F   UNL     1      39.214  42.705  25.392 -0.04 -0.00    -0.202 F  BRANCH  11  17ATOM     17  O   UNL     1      39.143  40.550  26.907 -0.14 +0.01    -0.494 OA ATOM     18  C   UNL     1      40.158  41.013  27.789 -0.19 -0.02    +0.278 C  ENDBRANCH  11  17BRANCH  15  19ATOM     19  O   UNL     1      34.683  43.799  26.558 -0.09 +0.07    -0.507 OA ATOM     20  H   UNL     1      34.987  44.722  26.389 -0.19 -0.13    +0.293 HD ENDBRANCH  15  19ENDBRANCH   8  10ENDBRANCH   1   8BRANCH   4  21ATOM     21  N   UNL     1      38.950  44.422  19.638 -0.16 +0.01    -0.331 N  ATOM     22  H   UNL     1      39.956  44.388  19.533 +0.10 +0.00    +0.169 HD BRANCH  21  23ATOM     23  C   UNL     1      38.251  44.692  18.509 -0.25 -0.03    +0.187 A  ATOM     24  N   UNL     1      38.721  45.128  17.360 -0.22 +0.04    -0.224 NA ATOM     25  S   UNL     1      36.531  44.464  18.525 -0.44 +0.02    -0.102 S  ATOM     26  C   UNL     1      37.704  45.292  16.437 -0.31 -0.02    +0.069 A  ATOM     27  C   UNL     1      36.456  44.923  16.891 -0.31 -0.01    +0.031 A  ATOM     28  C   UNL     1      37.973  45.757  15.032 -0.35 -0.04    +0.129 C  ATOM     29  C   UNL     1      35.209  44.870  16.078 -0.35 -0.03    +0.049 C  ATOM     30  C   UNL     1      36.774  45.379  14.116 -0.47 -0.01    +0.020 C  ATOM     31  C   UNL     1      35.395  45.634  14.759 -0.43 -0.00    +0.007 C  BRANCH  28  32ATOM     32  C   UNL     1      38.224  47.274  14.997 -0.35 -0.10    +0.231 C  ATOM     33  N   UNL     1      39.446  47.772  15.426 -0.23 +0.11    -0.337 N  ATOM     34  C   UNL     1      40.557  47.003  16.001 -0.41 -0.02    +0.148 C  ATOM     35  C   UNL     1      39.620  49.228  15.473 -0.39 -0.07    +0.148 C  ATOM     36  C   UNL     1      41.143  47.745  17.208 -0.42 -0.02    +0.181 C  ATOM     37  C   UNL     1      41.080  49.624  15.701 -0.58 -0.03    +0.181 C  ATOM     38  O   UNL     1      41.645  49.054  16.890 -0.88 -0.04    -0.378 OA ATOM     39  O   UNL     1      37.353  48.048  14.581 -0.36 +0.18    -0.274 OA ENDBRANCH  28  32ENDBRANCH  21  23ENDBRANCH   4  21TORSDOF 7TERENDMDL