MODEL        8USER    Run = 8USERUSER    Estimated Free Energy of Binding    = -11.93 kcal/mol  [=(1)+(2)+(3)-(4)]USERUSER    (1) Final Intermolecular Energy     = -14.02 kcal/molUSER        vdW + Hbond + desolv Energy     = -14.04 kcal/molUSER        Electrostatic Energy            =  +0.02 kcal/molUSER        Moving Ligand-Fixed Receptor    = -14.02 kcal/molUSER        Moving Ligand-Moving Receptor   =  +0.00 kcal/molUSER    (2) Final Total Internal Energy     =  -2.23 kcal/molUSER    (3) Torsional Free Energy           =  +2.09 kcal/molUSER    (4) Unbound System's Energy         =  -2.23 kcal/molUSERUSERREMARK SMILES Oc1nc2ccccc2n1C1CCN(Cc2ccc(-c3nc4ccccc4nc3-c3ccnc(N4CCOCC4)c3)cc2F)CC1REMARK SMILES IDX 15 1 14 2 11 3 12 4 46 5 13 6 45 7 10 8 2 9 3 10 4 11 9 12REMARK SMILES IDX 5 13 8 14 6 15 7 16 1 17 16 19 17 20 43 21 18 22 42 23 19 24REMARK SMILES IDX 44 25 20 26 21 27 29 28 22 29 28 30 23 31 27 32 24 33 26 34REMARK SMILES IDX 25 35 30 36 31 37 41 38 32 39 34 40 33 41 35 42 36 43 40 44REMARK SMILES IDX 37 45 39 46 38 47REMARK H PARENT 1 18USER                              x       y       z     vdW  Elec       q    TypeUSER                           _______ _______ _______ _____ _____    ______ ____ROOTATOM      1  C   UNL     1      34.749  43.522  17.543 -0.30 -0.04    +0.123 C  ENDROOTBRANCH   1   2ATOM      2  N   UNL     1      34.198  44.685  16.822 -0.10 +0.16    -0.299 NA ATOM      3  C   UNL     1      36.537  46.133  15.946 -0.36 -0.06    +0.095 C  ATOM      4  C   UNL     1      35.422  46.903  16.658 -0.03 -0.05    +0.041 C  ATOM      5  C   UNL     1      35.987  44.987  15.081 -0.39 -0.02    +0.041 C  ATOM      6  C   UNL     1      34.562  45.946  17.492 -0.40 -0.07    +0.087 C  ATOM      7  C   UNL     1      34.517  44.695  15.390 -0.24 -0.05    +0.087 C  BRANCH   3   8ATOM      8  N   UNL     1      37.448  47.007  15.218 -0.19 +0.16    -0.291 N  ATOM      9  C   UNL     1      37.235  47.479  13.953 -0.28 -0.15    +0.295 A  ATOM     10  N   UNL     1      38.205  48.232  13.510 -0.62 +0.05    -0.195 NA ATOM     11  C   UNL     1      39.117  48.248  14.539 -0.45 -0.03    +0.092 A  ATOM     12  C   UNL     1      38.670  47.495  15.628 -0.42 -0.03    +0.072 A  ATOM     13  C   UNL     1      40.361  48.892  14.605 -0.54 -0.01    +0.031 A  ATOM     14  C   UNL     1      39.424  47.368  16.805 -0.44 -0.01    +0.029 A  ATOM     15  C   UNL     1      41.131  48.763  15.768 -0.57 -0.00    +0.002 A  ATOM     16  C   UNL     1      40.665  48.014  16.849 -0.54 -0.00    +0.002 A  BRANCH   9  17ATOM     17  O   UNL     1      36.176  47.213  13.220 -0.25 +0.27    -0.480 OA ATOM     18  H   UNL     1      36.412  47.648  12.377 +0.22 -0.13    +0.296 HD ENDBRANCH   9  17ENDBRANCH   3   8ENDBRANCH   1   2BRANCH   1  19ATOM     19  C   UNL     1      35.905  43.864  18.450 -0.33 -0.00    +0.002 A  ATOM     20  C   UNL     1      37.202  44.000  17.940 -0.25 -0.00    +0.009 A  ATOM     21  C   UNL     1      35.712  44.035  19.820 -0.32 -0.01    +0.128 A  ATOM     22  C   UNL     1      38.274  44.292  18.792 -0.31 -0.00    +0.011 A  ATOM     23  C   UNL     1      36.773  44.337  20.670 -0.32 -0.00    +0.050 A  ATOM     24  C   UNL     1      38.078  44.480  20.172 -0.36 -0.00    +0.005 A  ATOM     25  F   UNL     1      34.484  43.919  20.345 -0.07 +0.01    -0.207 F  BRANCH  24  26ATOM     26  C   UNL     1      39.191  44.779  21.092 -0.28 +0.00    +0.097 A  ATOM     27  N   UNL     1      40.192  45.495  20.506 -0.22 -0.01    -0.244 NA ATOM     28  C   UNL     1      39.258  44.415  22.447 -0.22 +0.00    +0.097 A  ATOM     29  C   UNL     1      41.230  45.868  21.273 -0.26 +0.01    +0.089 A  ATOM     30  N   UNL     1      40.310  44.807  23.221 -0.08 -0.01    -0.244 NA ATOM     31  C   UNL     1      42.265  46.612  20.719 -0.36 +0.01    +0.030 A  ATOM     32  C   UNL     1      41.288  45.525  22.640 -0.17 +0.01    +0.089 A  ATOM     33  C   UNL     1      43.354  47.026  21.486 -0.37 +0.00    +0.002 A  ATOM     34  C   UNL     1      42.376  45.940  23.396 -0.14 +0.00    +0.030 A  ATOM     35  C   UNL     1      43.409  46.689  22.832 -0.23 +0.00    +0.002 A  BRANCH  28  36ATOM     36  C   UNL     1      38.270  43.597  23.178 -0.30 +0.00    +0.008 A  ATOM     37  C   UNL     1      37.798  42.376  22.697 -0.39 +0.00    +0.030 A  ATOM     38  C   UNL     1      37.804  44.016  24.438 -0.26 +0.00    +0.057 A  ATOM     39  C   UNL     1      36.891  41.673  23.466 -0.33 +0.00    +0.114 A  ATOM     40  C   UNL     1      36.889  43.258  25.166 -0.28 +0.00    +0.129 A  ATOM     41  N   UNL     1      36.438  42.088  24.668 -0.28 +0.01    -0.239 NA BRANCH  40  42ATOM     42  N   UNL     1      36.454  43.650  26.415 -0.15 +0.04    -0.352 N  ATOM     43  C   UNL     1      37.253  44.511  27.295 -0.32 -0.02    +0.146 C  ATOM     44  C   UNL     1      35.021  43.568  26.715 -0.35 -0.02    +0.146 C  ATOM     45  C   UNL     1      36.346  45.489  28.064 -0.33 -0.04    +0.181 C  ATOM     46  C   UNL     1      34.820  43.648  28.238 -0.52 -0.05    +0.181 C  ATOM     47  O   UNL     1      35.325  44.849  28.841 -0.33 +0.10    -0.378 OA ENDBRANCH  40  42ENDBRANCH  28  36ENDBRANCH  24  26ENDBRANCH   1  19TORSDOF 7TERENDMDL