REMARK SMILES Oc1nc2ccccc2n1C1CCN(Cc2ccc(-c3nc4ccccc4nc3-c3ccnc(N4CCOCC4)c3)cc2F)CC1
REMARK SMILES IDX 15 1 14 2 11 3 12 4 46 5 13 6 45 7 10 8 2 9 3 10 4 11 9 12
REMARK SMILES IDX 5 13 8 14 6 15 7 16 1 17 16 19 17 20 43 21 18 22 42 23 19 24
REMARK SMILES IDX 44 25 20 26 21 27 29 28 22 29 28 30 23 31 27 32 24 33 26 34
REMARK SMILES IDX 25 35 30 36 31 37 41 38 32 39 34 40 33 41 35 42 36 43 40 44
REMARK SMILES IDX 37 45 39 46 38 47
REMARK H PARENT 1 18
ROOT
ATOM      1  C   UNL     1       2.805   1.922   0.012  1.00  0.00     0.123 C 
ENDROOT
BRANCH   1   2
ATOM      2  N   UNL     1       3.180   0.805  -0.875  1.00  0.00    -0.299 NA
ATOM      3  C   UNL     1       5.626  -0.207   0.279  1.00  0.00     0.095 C 
ATOM      4  C   UNL     1       5.588   0.081  -1.224  1.00  0.00     0.041 C 
ATOM      5  C   UNL     1       4.273  -0.715   0.804  1.00  0.00     0.041 C 
ATOM      6  C   UNL     1       4.463   1.070  -1.549  1.00  0.00     0.087 C 
ATOM      7  C   UNL     1       3.151  -0.506  -0.215  1.00  0.00     0.087 C 
BRANCH   3   8
ATOM      8  N   UNL     1       6.741  -1.064   0.659  1.00  0.00    -0.291 N 
ATOM      9  C   UNL     1       7.779  -0.687   1.466  1.00  0.00     0.295 A 
ATOM     10  N   UNL     1       8.665  -1.628   1.646  1.00  0.00    -0.195 NA
ATOM     11  C   UNL     1       8.191  -2.684   0.904  1.00  0.00     0.092 A 
ATOM     12  C   UNL     1       6.983  -2.367   0.278  1.00  0.00     0.072 A 
ATOM     13  C   UNL     1       8.754  -3.956   0.721  1.00  0.00     0.031 A 
ATOM     14  C   UNL     1       6.297  -3.288  -0.528  1.00  0.00     0.029 A 
ATOM     15  C   UNL     1       8.088  -4.882  -0.092  1.00  0.00     0.002 A 
ATOM     16  C   UNL     1       6.878  -4.550  -0.702  1.00  0.00     0.002 A 
BRANCH   9  17
ATOM     17  O   UNL     1       7.910   0.501   2.015  1.00  0.00    -0.480 OA
ATOM     18  H   UNL     1       8.722   0.379   2.545  1.00  0.00     0.296 HD
ENDBRANCH   9  17
ENDBRANCH   3   8
ENDBRANCH   1   2
BRANCH   1  19
ATOM     19  C   UNL     1       1.374   1.865   0.486  1.00  0.00     0.002 A 
ATOM     20  C   UNL     1       0.314   2.059  -0.408  1.00  0.00     0.009 A 
ATOM     21  C   UNL     1       1.074   1.636   1.828  1.00  0.00     0.128 A 
ATOM     22  C   UNL     1      -1.011   2.030   0.044  1.00  0.00     0.011 A 
ATOM     23  C   UNL     1      -0.242   1.595   2.281  1.00  0.00     0.050 A 
ATOM     24  C   UNL     1      -1.316   1.784   1.395  1.00  0.00     0.005 A 
ATOM     25  F   UNL     1       2.062   1.440   2.713  1.00  0.00    -0.207 F 
BRANCH  24  26
ATOM     26  C   UNL     1      -2.701   1.758   1.898  1.00  0.00     0.097 A 
ATOM     27  N   UNL     1      -2.894   2.568   2.978  1.00  0.00    -0.244 NA
ATOM     28  C   UNL     1      -3.762   1.019   1.349  1.00  0.00     0.097 A 
ATOM     29  C   UNL     1      -4.136   2.660   3.481  1.00  0.00     0.089 A 
ATOM     30  N   UNL     1      -5.022   1.126   1.860  1.00  0.00    -0.244 NA
ATOM     31  C   UNL     1      -4.379   3.486   4.572  1.00  0.00     0.030 A 
ATOM     32  C   UNL     1      -5.208   1.937   2.916  1.00  0.00     0.089 A 
ATOM     33  C   UNL     1      -5.657   3.615   5.116  1.00  0.00     0.002 A 
ATOM     34  C   UNL     1      -6.477   2.071   3.464  1.00  0.00     0.030 A 
ATOM     35  C   UNL     1      -6.712   2.904   4.558  1.00  0.00     0.002 A 
BRANCH  28  36
ATOM     36  C   UNL     1      -3.669   0.069   0.223  1.00  0.00     0.008 A 
ATOM     37  C   UNL     1      -2.668  -0.897   0.131  1.00  0.00     0.030 A 
ATOM     38  C   UNL     1      -4.645   0.083  -0.791  1.00  0.00     0.057 A 
ATOM     39  C   UNL     1      -2.679  -1.756  -0.951  1.00  0.00     0.114 A 
ATOM     40  C   UNL     1      -4.601  -0.814  -1.857  1.00  0.00     0.129 A 
ATOM     41  N   UNL     1      -3.611  -1.728  -1.927  1.00  0.00    -0.239 NA
BRANCH  40  42
ATOM     42  N   UNL     1      -5.573  -0.824  -2.836  1.00  0.00    -0.352 N 
ATOM     43  C   UNL     1      -6.348   0.371  -3.191  1.00  0.00     0.146 C 
ATOM     44  C   UNL     1      -5.559  -1.905  -3.826  1.00  0.00     0.146 C 
ATOM     45  C   UNL     1      -6.610   0.415  -4.708  1.00  0.00     0.181 C 
ATOM     46  C   UNL     1      -6.923  -1.956  -4.536  1.00  0.00     0.181 C 
ATOM     47  O   UNL     1      -7.283  -0.744  -5.217  1.00  0.00    -0.378 OA
ENDBRANCH  40  42
ENDBRANCH  28  36
ENDBRANCH  24  26
ENDBRANCH   1  19
TORSDOF 7
