MODEL        2USER    Run = 2USERUSER    Estimated Free Energy of Binding    = -10.53 kcal/mol  [=(1)+(2)+(3)-(4)]USERUSER    (1) Final Intermolecular Energy     = -12.61 kcal/molUSER        vdW + Hbond + desolv Energy     = -12.16 kcal/molUSER        Electrostatic Energy            =  -0.46 kcal/molUSER        Moving Ligand-Fixed Receptor    = -12.61 kcal/molUSER        Moving Ligand-Moving Receptor   =  +0.00 kcal/molUSER    (2) Final Total Internal Energy     =  -0.96 kcal/molUSER    (3) Torsional Free Energy           =  +2.09 kcal/molUSER    (4) Unbound System's Energy         =  -0.96 kcal/molUSERUSERREMARK SMILES COc1ccc(O)c(C(=O)c2ccc(Nc3nc4c(s3)CCC[C@H]4C(=O)N3CCN(C)CC3)cc2)c1FREMARK SMILES IDX 11 1 12 2 13 3 14 4 34 5 35 6 9 7 10 8 8 9 3 10 4 11 36 12REMARK SMILES IDX 5 13 6 14 37 15 2 16 1 17 7 18 15 20 16 22 17 23 20 24 18 25REMARK SMILES IDX 19 26 24 27 21 28 23 29 22 30 25 31 27 32 28 33 33 34 29 35REMARK SMILES IDX 32 36 30 37 26 38 31 39REMARK H PARENT 7 19 15 21USER                              x       y       z     vdW  Elec       q    TypeUSER                           _______ _______ _______ _____ _____    ______ ____ROOTATOM      1  C   UNL     1      26.913  39.835  17.432 -0.24 +0.00    +0.023 A  ATOM      2  C   UNL     1      26.830  40.456  16.182 -0.30 +0.00    +0.014 A  ATOM      3  C   UNL     1      27.941  41.123  15.655 -0.31 -0.01    +0.027 A  ATOM      4  C   UNL     1      29.135  41.218  16.383 -0.32 -0.01    +0.040 A  ATOM      5  C   UNL     1      29.205  40.585  17.632 -0.26 -0.00    +0.027 A  ATOM      6  C   UNL     1      28.107  39.896  18.156 -0.24 +0.00    +0.014 A  ENDROOTBRANCH   1   7ATOM      7  C   UNL     1      25.701  39.211  18.010 -0.26 +0.01    +0.199 C  ATOM      8  O   UNL     1      24.969  38.504  17.322 -0.86 -0.00    -0.288 OA BRANCH   7   9ATOM      9  C   UNL     1      25.278  39.517  19.378 -0.23 -0.03    +0.104 A  ATOM     10  C   UNL     1      24.332  41.032  20.993 -0.36 -0.04    +0.155 A  ATOM     11  C   UNL     1      24.416  40.046  21.978 -0.40 -0.02    +0.053 A  ATOM     12  C   UNL     1      24.715  40.752  19.681 -0.21 -0.04    +0.179 A  ATOM     13  C   UNL     1      24.977  38.806  21.670 -0.32 -0.03    +0.051 A  ATOM     14  C   UNL     1      25.440  38.557  20.381 -0.21 -0.09    +0.130 A  ATOM     15  F   UNL     1      24.544  41.680  18.724 -0.04 +0.02    -0.202 F  BRANCH  10  16ATOM     16  O   UNL     1      23.792  42.254  21.297 -0.33 +0.12    -0.494 OA ATOM     17  C   UNL     1      24.152  42.626  22.632 -0.54 -0.08    +0.278 C  ENDBRANCH  10  16BRANCH  14  18ATOM     18  O   UNL     1      26.025  37.343  20.150 -0.04 +0.51    -0.507 OA ATOM     19  H   UNL     1      25.336  36.725  19.821 -0.39 -0.71    +0.293 HD ENDBRANCH  14  18ENDBRANCH   7   9ENDBRANCH   1   7BRANCH   4  20ATOM     20  N   UNL     1      30.270  41.889  15.900 -0.18 +0.15    -0.332 N  ATOM     21  H   UNL     1      30.180  42.223  14.947 +0.08 -0.11    +0.169 HD BRANCH  20  22ATOM     22  C   UNL     1      31.264  42.496  16.603 -0.19 -0.07    +0.187 A  ATOM     23  N   UNL     1      32.028  43.404  16.007 -0.21 +0.11    -0.224 NA ATOM     24  S   UNL     1      31.592  42.304  18.292 -0.39 +0.02    -0.102 S  ATOM     25  C   UNL     1      32.919  43.954  16.915 -0.27 -0.03    +0.069 A  ATOM     26  C   UNL     1      32.766  43.522  18.210 -0.32 -0.01    +0.031 A  ATOM     27  C   UNL     1      33.855  45.052  16.507 -0.29 -0.09    +0.129 C  ATOM     28  C   UNL     1      33.462  44.102  19.397 -0.47 -0.01    +0.049 C  ATOM     29  C   UNL     1      34.284  45.875  17.744 -0.49 -0.02    +0.020 C  ATOM     30  C   UNL     1      34.647  44.979  18.947 -0.46 -0.00    +0.007 C  BRANCH  27  31ATOM     31  C   UNL     1      35.099  44.500  15.804 -0.23 -0.12    +0.231 C  ATOM     32  N   UNL     1      35.616  45.203  14.711 -0.13 +0.19    -0.340 N  ATOM     33  C   UNL     1      35.296  46.605  14.406 -0.32 -0.12    +0.135 C  ATOM     34  C   UNL     1      36.905  44.728  14.191 -0.34 -0.05    +0.135 C  ATOM     35  C   UNL     1      35.621  46.990  12.951 -0.55 -0.07    +0.105 C  ATOM     36  C   UNL     1      37.224  45.214  12.762 -0.44 -0.03    +0.105 C  ATOM     37  N   UNL     1      36.988  46.649  12.516 -0.41 +0.11    -0.303 NA ATOM     38  O   UNL     1      35.668  43.493  16.232 -0.27 +0.10    -0.274 OA ATOM     39  C   UNL     1      37.989  47.486  13.179 -0.44 -0.02    +0.105 C  ENDBRANCH  27  31ENDBRANCH  20  22ENDBRANCH   4  20TORSDOF 7TERENDMDL