MODEL        2USER    Run = 2USERUSER    Estimated Free Energy of Binding    = -12.22 kcal/mol  [=(1)+(2)+(3)-(4)]USERUSER    (1) Final Intermolecular Energy     = -14.01 kcal/molUSER        vdW + Hbond + desolv Energy     = -13.78 kcal/molUSER        Electrostatic Energy            =  -0.23 kcal/molUSER        Moving Ligand-Fixed Receptor    = -14.01 kcal/molUSER        Moving Ligand-Moving Receptor   =  +0.00 kcal/molUSER    (2) Final Total Internal Energy     =  -1.54 kcal/molUSER    (3) Torsional Free Energy           =  +1.79 kcal/molUSER    (4) Unbound System's Energy         =  -1.54 kcal/molUSERUSERREMARK SMILES Oc1nc2ccccc2n1C1CCN(Cc2ccc(-c3nc4ccncc4nc3-c3ccncc3)cc2F)CC1REMARK SMILES IDX 11 1 12 2 13 3 14 4 39 5 40 6 10 7 2 8 3 9 4 10 9 11 5 12REMARK SMILES IDX 8 13 6 14 7 15 1 16 15 18 16 19 17 20 37 21 18 22 36 23REMARK SMILES IDX 19 24 38 25 20 26 21 27 29 28 22 29 28 30 23 31 27 32 24 33REMARK SMILES IDX 26 34 25 35 30 36 31 37 35 38 32 39 34 40 33 41REMARK H PARENT 1 17USER                              x       y       z     vdW  Elec       q    TypeUSER                           _______ _______ _______ _____ _____    ______ ____ROOTATOM      1  C   UNL     1      31.706  40.289  18.723 -0.40 -0.00    +0.095 C  ATOM      2  C   UNL     1      32.084  41.582  19.458 -0.30 +0.00    +0.041 C  ATOM      3  C   UNL     1      32.794  42.529  18.492 -0.36 -0.01    +0.087 C  ATOM      4  N   UNL     1      31.965  42.919  17.344 -0.10 +0.09    -0.299 NA ATOM      5  C   UNL     1      30.836  42.019  17.084 -0.30 -0.03    +0.087 C  ATOM      6  C   UNL     1      31.169  40.546  17.303 -0.36 -0.01    +0.041 C  ENDROOTBRANCH   1   7ATOM      7  N   UNL     1      30.843  39.434  19.526 -0.19 -0.03    -0.291 N  ATOM      8  C   UNL     1      31.202  38.729  20.642 -0.24 +0.05    +0.295 A  ATOM      9  N   UNL     1      30.223  38.035  21.154 -0.24 -0.01    -0.195 NA ATOM     10  C   UNL     1      29.154  38.300  20.334 -0.24 +0.00    +0.092 A  ATOM     11  C   UNL     1      29.506  39.173  19.302 -0.25 +0.01    +0.072 A  ATOM     12  C   UNL     1      27.835  37.822  20.416 -0.27 -0.00    +0.031 A  ATOM     13  C   UNL     1      28.587  39.595  18.330 -0.25 +0.00    +0.029 A  ATOM     14  C   UNL     1      26.904  38.238  19.456 -0.26 -0.00    +0.002 A  ATOM     15  C   UNL     1      27.278  39.108  18.431 -0.20 +0.00    +0.002 A  BRANCH   8  16ATOM     16  O   UNL     1      32.403  38.732  21.180 -0.89 -0.22    -0.480 OA ATOM     17  H   UNL     1      32.207  38.431  22.087 -0.05 +0.04    +0.296 HD ENDBRANCH   8  16ENDBRANCH   1   7BRANCH   4  18ATOM     18  C   UNL     1      32.759  43.200  16.137 -0.30 -0.06    +0.123 C  BRANCH  18  19ATOM     19  C   UNL     1      34.085  43.852  16.448 -0.34 -0.00    +0.002 A  ATOM     20  C   UNL     1      34.179  45.221  16.724 -0.32 -0.01    +0.009 A  ATOM     21  C   UNL     1      35.259  43.097  16.449 -0.34 -0.05    +0.128 A  ATOM     22  C   UNL     1      35.425  45.810  16.967 -0.35 -0.01    +0.011 A  ATOM     23  C   UNL     1      36.501  43.678  16.701 -0.32 -0.02    +0.050 A  ATOM     24  C   UNL     1      36.614  45.056  16.940 -0.34 -0.00    +0.005 A  ATOM     25  F   UNL     1      35.209  41.777  16.219 -0.04 +0.11    -0.207 F  BRANCH  24  26ATOM     26  C   UNL     1      37.916  45.706  17.187 -0.31 -0.03    +0.097 A  ATOM     27  N   UNL     1      38.481  45.369  18.383 -0.24 +0.04    -0.244 NA ATOM     28  C   UNL     1      38.568  46.584  16.304 -0.34 -0.03    +0.097 A  ATOM     29  C   UNL     1      39.694  45.874  18.674 -0.38 -0.01    +0.093 A  ATOM     30  N   UNL     1      39.805  47.079  16.593 -0.30 +0.05    -0.242 NA ATOM     31  C   UNL     1      40.295  45.545  19.877 -0.37 +0.00    +0.051 A  ATOM     32  C   UNL     1      40.358  46.725  17.774 -0.42 -0.01    +0.108 A  ATOM     33  C   UNL     1      41.543  46.058  20.173 -0.32 +0.01    +0.113 A  ATOM     34  C   UNL     1      41.604  47.180  18.172 -0.40 -0.01    +0.141 A  ATOM     35  N   UNL     1      42.218  46.873  19.343 -0.33 -0.03    -0.262 NA BRANCH  28  36ATOM     36  C   UNL     1      38.019  47.084  15.033 -0.44 -0.00    +0.005 A  ATOM     37  C   UNL     1      37.958  46.285  13.883 -0.42 -0.01    +0.030 A  ATOM     38  C   UNL     1      37.508  48.387  14.946 -0.51 -0.02    +0.030 A  ATOM     39  C   UNL     1      37.434  46.822  12.717 -0.46 -0.03    +0.111 A  ATOM     40  C   UNL     1      37.000  48.834  13.736 -0.36 -0.06    +0.111 A  ATOM     41  N   UNL     1      36.958  48.080  12.619 -0.95 +0.07    -0.265 NA ENDBRANCH  28  36ENDBRANCH  24  26ENDBRANCH  18  19ENDBRANCH   4  18TORSDOF 6TERENDMDL