REMARK SMILES Cn1cc(C(=O)N[C@H]2CN(C3CC3)CCC[C@H]2NC(=O)c2ccc(C(=O)c3c(O)ccc(O)c3F)cc2)cn1
REMARK SMILES IDX 18 1 19 2 20 3 17 5 8 6 7 7 5 8 6 9 4 11 2 12 3 13 39 14
REMARK SMILES IDX 38 15 1 16 9 17 10 18 11 19 12 20 13 21 14 22 16 24 15 25
REMARK SMILES IDX 21 27 22 28 37 29 23 30 36 31 24 32 25 33 26 34 27 35 28 36
REMARK SMILES IDX 34 37 30 38 32 39 31 40 35 41 29 42 33 44
REMARK H PARENT 18 4 7 10 29 43 33 45
REMARK Flexibility Score:   72.900
ROOT
ATOM      1  N   UNL     1      -0.126  -1.394  -0.673  1.00  0.00    -0.347 N 
ATOM      2  C   UNL     1       1.055  -2.029  -0.986  1.00  0.00     0.251 C 
ATOM      3  O   UNL     1       1.128  -3.059  -1.643  1.00  0.00    -0.269 OA
ATOM      4  H   UNL     1      -0.121  -0.627  -0.009  1.00  0.00     0.164 HD
ENDROOT
BRANCH   1   5
ATOM      5  C   UNL     1      -1.445  -1.893  -1.092  1.00  0.00     0.106 C 
BRANCH   5   6
ATOM      6  C   UNL     1      -2.521  -1.388  -0.087  1.00  0.00     0.118 C 
BRANCH   6   7
ATOM      7  N   UNL     1      -2.459   0.076   0.045  1.00  0.00    -0.346 N 
ATOM      8  C   UNL     1      -2.902   0.713   1.185  1.00  0.00     0.254 C 
ATOM      9  O   UNL     1      -3.337   0.102   2.158  1.00  0.00    -0.269 OA
ATOM     10  H   UNL     1      -2.294   0.612  -0.792  1.00  0.00     0.164 HD
BRANCH   8  11
ATOM     11  C   UNL     1      -2.796   2.160   1.157  1.00  0.00     0.077 A 
ATOM     12  N   UNL     1      -2.998   4.288   1.696  1.00  0.00    -0.275 N 
ATOM     13  C   UNL     1      -3.352   3.029   2.081  1.00  0.00     0.122 A 
ATOM     14  N   UNL     1      -2.232   4.309   0.592  1.00  0.00    -0.181 NA
ATOM     15  C   UNL     1      -2.123   3.022   0.257  1.00  0.00     0.149 A 
ATOM     16  C   UNL     1      -3.370   5.521   2.346  1.00  0.00     0.173 C 
ENDBRANCH   8  11
ENDBRANCH   6   7
BRANCH   6  17
ATOM     17  C   UNL     1      -3.967  -1.889  -0.346  1.00  0.00     0.111 C 
BRANCH  17  18
ATOM     18  N   UNL     1      -4.003  -3.030  -1.263  1.00  0.00    -0.298 NA
BRANCH  18  19
ATOM     19  C   UNL     1      -5.060  -4.000  -0.944  1.00  0.00     0.056 C 
ATOM     20  C   UNL     1      -4.842  -5.453  -1.274  1.00  0.00     0.021 C 
ATOM     21  C   UNL     1      -4.811  -5.001   0.157  1.00  0.00     0.021 C 
ENDBRANCH  18  19
BRANCH  18  22
ATOM     22  C   UNL     1      -4.004  -2.643  -2.680  1.00  0.00     0.085 CG0
ATOM     23  G   UNL     1      -3.135  -1.430  -3.029  1.00  0.00     0.000 G0
ENDBRANCH  18  22
ENDBRANCH  17  18
ENDBRANCH   6  17
ENDBRANCH   5   6
BRANCH   5  24
ATOM     24  C   UNL     1      -1.683  -1.519  -2.568  1.00  0.00     0.028 C 
BRANCH  24  25
ATOM     25  C   UNL     1      -3.135  -1.430  -3.029  1.00  0.00     0.018 CG0
ATOM     26  G   UNL     1      -4.004  -2.643  -2.680  1.00  0.00     0.000 G0
ENDBRANCH  24  25
ENDBRANCH   5  24
ENDBRANCH   1   5
BRANCH   2  27
ATOM     27  C   UNL     1       2.284  -1.407  -0.422  1.00  0.00     0.039 A 
ATOM     28  C   UNL     1       2.398  -0.017  -0.285  1.00  0.00     0.014 A 
ATOM     29  C   UNL     1       3.332  -2.238  -0.010  1.00  0.00     0.014 A 
ATOM     30  C   UNL     1       3.540   0.540   0.298  1.00  0.00     0.013 A 
ATOM     31  C   UNL     1       4.472  -1.678   0.576  1.00  0.00     0.013 A 
ATOM     32  C   UNL     1       4.585  -0.288   0.729  1.00  0.00     0.023 A 
BRANCH  32  33
ATOM     33  C   UNL     1       5.774   0.266   1.430  1.00  0.00     0.199 C 
ATOM     34  O   UNL     1       6.362  -0.406   2.279  1.00  0.00    -0.288 OA
BRANCH  33  35
ATOM     35  C   UNL     1       6.215   1.657   1.233  1.00  0.00     0.104 A 
ATOM     36  C   UNL     1       6.479   2.460   2.347  1.00  0.00     0.130 A 
ATOM     37  C   UNL     1       6.345   2.196  -0.046  1.00  0.00     0.179 A 
ATOM     38  C   UNL     1       6.809   3.805   2.192  1.00  0.00     0.051 A 
ATOM     39  C   UNL     1       6.679   3.542  -0.204  1.00  0.00     0.152 A 
ATOM     40  C   UNL     1       6.894   4.355   0.908  1.00  0.00     0.053 A 
ATOM     41  F   UNL     1       6.170   1.421  -1.128  1.00  0.00    -0.202 F 
BRANCH  36  42
ATOM     42  O   UNL     1       6.415   1.983   3.628  1.00  0.00    -0.507 OA
ATOM     43  H   UNL     1       6.584   1.009   3.598  1.00  0.00     0.293 HD
ENDBRANCH  36  42
BRANCH  39  44
ATOM     44  O   UNL     1       6.766   4.055  -1.470  1.00  0.00    -0.505 OA
ATOM     45  H   UNL     1       6.881   5.015  -1.416  1.00  0.00     0.293 HD
ENDBRANCH  39  44
ENDBRANCH  33  35
ENDBRANCH  32  33
ENDBRANCH   2  27
TORSDOF 9
