MODEL        4USER    Run = 4USERUSER    Estimated Free Energy of Binding    = -11.12 kcal/mol  [=(1)+(2)+(3)-(4)]USERUSER    (1) Final Intermolecular Energy     = -12.91 kcal/molUSER        vdW + Hbond + desolv Energy     = -12.85 kcal/molUSER        Electrostatic Energy            =  -0.06 kcal/molUSER        Moving Ligand-Fixed Receptor    = -12.91 kcal/molUSER        Moving Ligand-Moving Receptor   =  +0.00 kcal/molUSER    (2) Final Total Internal Energy     =  -2.09 kcal/molUSER    (3) Torsional Free Energy           =  +1.79 kcal/molUSER    (4) Unbound System's Energy         =  -2.09 kcal/molUSERUSERREMARK SMILES Oc1nc2ccccc2n1C1CCN(Cc2ccc(-c3cnc4cc(N5CCOCC5)ccc4n3)cc2F)CC1REMARK SMILES IDX 11 1 12 2 13 3 14 4 39 5 40 6 10 7 2 8 3 9 4 10 9 11 5 12REMARK SMILES IDX 8 13 6 14 7 15 1 16 15 18 16 19 17 20 37 21 18 22 36 23REMARK SMILES IDX 19 24 38 25 20 26 21 27 35 28 22 29 34 30 23 31 33 32 24 33REMARK SMILES IDX 32 34 25 35 26 36 27 37 31 38 28 39 30 40 29 41REMARK H PARENT 1 17USER                              x       y       z     vdW  Elec       q    TypeUSER                           _______ _______ _______ _____ _____    ______ ____ROOTATOM      1  C   UNL     1      37.059  44.853  28.092 -0.35 -0.02    +0.095 C  ATOM      2  C   UNL     1      38.073  43.720  28.344 -0.29 -0.01    +0.041 C  ATOM      3  C   UNL     1      37.835  42.481  27.463 -0.37 -0.01    +0.087 C  ATOM      4  N   UNL     1      37.251  42.845  26.176 -0.13 +0.03    -0.299 NA ATOM      5  C   UNL     1      35.915  43.441  26.311 -0.42 -0.01    +0.087 C  ATOM      6  C   UNL     1      35.737  44.245  27.602 -0.50 -0.01    +0.041 C  ENDROOTBRANCH   1   7ATOM      7  N   UNL     1      37.493  45.970  27.253 -0.18 +0.04    -0.291 N  ATOM      8  C   UNL     1      38.519  46.043  26.350 -0.11 -0.00    +0.295 A  ATOM      9  N   UNL     1      38.606  47.199  25.749 -0.18 -0.01    -0.195 NA ATOM     10  C   UNL     1      37.604  47.951  26.303 -0.30 -0.00    +0.092 A  ATOM     11  C   UNL     1      36.898  47.225  27.263 -0.30 -0.01    +0.072 A  ATOM     12  C   UNL     1      37.241  49.280  26.036 -0.37 +0.00    +0.031 A  ATOM     13  C   UNL     1      35.834  47.780  27.989 -0.28 -0.01    +0.029 A  ATOM     14  C   UNL     1      36.177  49.847  26.746 -0.37 +0.00    +0.002 A  ATOM     15  C   UNL     1      35.489  49.108  27.708 -0.30 -0.00    +0.002 A  BRANCH   8  16ATOM     16  O   UNL     1      39.383  45.087  26.079 -0.00 -0.00    -0.480 OA ATOM     17  H   UNL     1      38.788  44.329  25.943 +0.14 -0.00    +0.296 HD ENDBRANCH   8  16ENDBRANCH   1   7BRANCH   4  18ATOM     18  C   UNL     1      37.266  41.723  25.224 -0.24 -0.01    +0.123 C  BRANCH  18  19ATOM     19  C   UNL     1      37.028  42.144  23.791 -0.44 +0.00    +0.002 A  ATOM     20  C   UNL     1      36.303  41.338  22.906 -0.43 +0.00    +0.009 A  ATOM     21  C   UNL     1      37.496  43.371  23.326 -0.28 +0.01    +0.128 A  ATOM     22  C   UNL     1      36.082  41.744  21.584 -0.52 +0.00    +0.011 A  ATOM     23  C   UNL     1      37.275  43.781  22.012 -0.36 +0.00    +0.050 A  ATOM     24  C   UNL     1      36.560  42.978  21.106 -0.45 +0.00    +0.005 A  ATOM     25  F   UNL     1      38.177  44.184  24.147 -0.04 -0.01    -0.207 F  BRANCH  24  26ATOM     26  C   UNL     1      36.345  43.421  19.716 -0.33 -0.01    +0.089 A  ATOM     27  C   UNL     1      35.472  42.803  18.830 -0.28 -0.02    +0.140 A  ATOM     28  N   UNL     1      37.059  44.504  19.312 -0.21 +0.03    -0.245 NA ATOM     29  N   UNL     1      35.291  43.209  17.549 -0.18 +0.08    -0.252 NA ATOM     30  C   UNL     1      36.898  44.921  18.040 -0.28 -0.02    +0.090 A  ATOM     31  C   UNL     1      36.014  44.273  17.152 -0.26 -0.03    +0.091 A  ATOM     32  C   UNL     1      37.622  46.007  17.580 -0.31 -0.01    +0.033 A  ATOM     33  C   UNL     1      35.892  44.742  15.846 -0.31 -0.03    +0.056 A  ATOM     34  C   UNL     1      37.488  46.463  16.266 -0.36 -0.01    +0.028 A  ATOM     35  C   UNL     1      36.609  45.847  15.366 -0.34 -0.02    +0.039 A  BRANCH  35  36ATOM     36  N   UNL     1      36.522  46.319  14.048 -0.16 +0.20    -0.367 N  ATOM     37  C   UNL     1      36.679  47.773  13.813 -0.49 -0.09    +0.145 C  ATOM     38  C   UNL     1      37.284  45.519  13.056 -0.43 -0.05    +0.145 C  ATOM     39  C   UNL     1      36.319  48.112  12.359 -0.48 -0.08    +0.181 C  ATOM     40  C   UNL     1      36.914  45.957  11.628 -0.48 -0.06    +0.181 C  ATOM     41  O   UNL     1      37.124  47.365  11.432 -0.86 +0.11    -0.378 OA ENDBRANCH  35  36ENDBRANCH  24  26ENDBRANCH  18  19ENDBRANCH   4  18TORSDOF 6TERENDMDL