MODEL        8USER    Run = 8USERUSER    Estimated Free Energy of Binding    = -12.75 kcal/mol  [=(1)+(2)+(3)-(4)]USERUSER    (1) Final Intermolecular Energy     = -14.84 kcal/molUSER        vdW + Hbond + desolv Energy     = -14.79 kcal/molUSER        Electrostatic Energy            =  -0.04 kcal/molUSER        Moving Ligand-Fixed Receptor    = -14.84 kcal/molUSER        Moving Ligand-Moving Receptor   =  +0.00 kcal/molUSER    (2) Final Total Internal Energy     =  -1.84 kcal/molUSER    (3) Torsional Free Energy           =  +2.09 kcal/molUSER    (4) Unbound System's Energy         =  -1.84 kcal/molUSERUSERREMARK SMILES Oc1nc2ccccc2n1C1CCN(Cc2ccc(-c3nc4ccc(N5CCOCC5)cc4nc3-c3ccccc3)cc2)CC1REMARK SMILES IDX 11 1 12 2 13 3 14 4 44 5 45 6 10 7 2 8 3 9 4 10 9 11 5 12REMARK SMILES IDX 8 13 6 14 7 15 1 16 15 18 16 19 17 20 43 21 18 22 42 23REMARK SMILES IDX 19 24 20 25 21 26 35 27 22 28 34 29 23 30 33 31 24 32 32 33REMARK SMILES IDX 25 34 36 35 37 36 41 37 38 38 40 39 39 40 26 41 27 42 31 43REMARK SMILES IDX 28 44 30 45 29 46REMARK H PARENT 1 17USER                              x       y       z     vdW  Elec       q    TypeUSER                           _______ _______ _______ _____ _____    ______ ____ROOTATOM      1  C   UNL     1      39.948  46.127  17.718 -0.46 -0.01    +0.095 C  ATOM      2  C   UNL     1      41.258  46.439  18.445 -0.55 -0.00    +0.041 C  ATOM      3  C   UNL     1      41.437  45.497  19.634 -0.41 +0.01    +0.087 C  ATOM      4  N   UNL     1      40.293  45.557  20.558 -0.18 -0.01    -0.299 NA ATOM      5  C   UNL     1      39.024  45.260  19.876 -0.37 -0.00    +0.087 C  ATOM      6  C   UNL     1      38.775  46.197  18.695 -0.18 -0.01    +0.041 C  ENDROOTBRANCH   1   7ATOM      7  N   UNL     1      39.728  46.920  16.519 -0.26 +0.07    -0.291 N  ATOM      8  C   UNL     1      40.429  48.021  16.114 -0.31 -0.06    +0.295 A  ATOM      9  N   UNL     1      40.003  48.518  14.985 -0.39 +0.06    -0.195 NA ATOM     10  C   UNL     1      38.950  47.713  14.629 -0.43 -0.03    +0.092 A  ATOM     11  C   UNL     1      38.746  46.703  15.572 -0.38 -0.02    +0.072 A  ATOM     12  C   UNL     1      38.112  47.787  13.505 -0.46 -0.01    +0.031 A  ATOM     13  C   UNL     1      37.723  45.754  15.444 -0.35 -0.01    +0.029 A  ATOM     14  C   UNL     1      37.087  46.843  13.360 -0.54 -0.00    +0.002 A  ATOM     15  C   UNL     1      36.898  45.845  14.316 -0.41 -0.00    +0.002 A  BRANCH   8  16ATOM     16  O   UNL     1      41.433  48.560  16.773 -0.73 +0.01    -0.480 OA ATOM     17  H   UNL     1      42.109  47.861  16.686 -0.29 -0.03    +0.296 HD ENDBRANCH   8  16ENDBRANCH   1   7BRANCH   4  18ATOM     18  C   UNL     1      40.468  44.636  21.698 -0.26 +0.01    +0.120 C  BRANCH  18  19ATOM     19  C   UNL     1      39.640  45.001  22.911 -0.23 -0.00    -0.034 A  ATOM     20  C   UNL     1      40.066  46.002  23.794 -0.21 +0.00    +0.006 A  ATOM     21  C   UNL     1      38.421  44.355  23.160 -0.30 +0.00    +0.006 A  ATOM     22  C   UNL     1      39.294  46.343  24.906 -0.21 +0.00    +0.011 A  ATOM     23  C   UNL     1      37.658  44.687  24.283 -0.31 +0.00    +0.011 A  ATOM     24  C   UNL     1      38.087  45.679  25.181 -0.28 +0.00    +0.002 A  BRANCH  24  25ATOM     25  C   UNL     1      37.299  46.033  26.370 -0.29 -0.01    +0.097 A  ATOM     26  N   UNL     1      37.004  47.361  26.461 -0.28 +0.02    -0.244 NA ATOM     27  C   UNL     1      36.852  45.121  27.337 -0.32 -0.02    +0.097 A  ATOM     28  C   UNL     1      36.243  47.757  27.494 -0.25 -0.02    +0.090 A  ATOM     29  N   UNL     1      36.083  45.534  28.385 -0.29 +0.06    -0.244 NA ATOM     30  C   UNL     1      35.894  49.094  27.614 -0.31 -0.00    +0.033 A  ATOM     31  C   UNL     1      35.782  46.843  28.463 -0.30 -0.02    +0.092 A  ATOM     32  C   UNL     1      35.098  49.546  28.670 -0.22 -0.00    +0.028 A  ATOM     33  C   UNL     1      35.004  47.310  29.515 -0.35 -0.01    +0.056 A  ATOM     34  C   UNL     1      34.640  48.660  29.646 -0.31 -0.00    +0.039 A  BRANCH  27  35ATOM     35  C   UNL     1      37.150  43.675  27.347 -0.37 -0.00    +0.002 A  ATOM     36  C   UNL     1      36.149  42.702  27.158 -0.47 -0.00    +0.010 A  ATOM     37  C   UNL     1      38.472  43.226  27.526 -0.29 -0.00    +0.010 A  ATOM     38  C   UNL     1      36.455  41.338  27.180 -0.55 -0.00    +0.001 A  ATOM     39  C   UNL     1      38.779  41.863  27.543 -0.37 -0.00    +0.001 A  ATOM     40  C   UNL     1      37.768  40.918  27.376 -0.41 -0.00    +0.000 A  ENDBRANCH  27  35BRANCH  34  41ATOM     41  N   UNL     1      33.845  49.039  30.737 -0.09 +0.01    -0.367 N  ATOM     42  C   UNL     1      32.407  48.749  30.519 -0.29 +0.00    +0.145 C  ATOM     43  C   UNL     1      34.287  48.631  32.087 -0.18 -0.01    +0.145 C  ATOM     44  C   UNL     1      31.570  49.383  31.646 -0.19 +0.00    +0.181 C  ATOM     45  C   UNL     1      33.391  49.310  33.140 -0.09 -0.00    +0.181 C  ATOM     46  O   UNL     1      32.011  48.953  32.946 -0.07 +0.01    -0.378 OA ENDBRANCH  34  41ENDBRANCH  24  25ENDBRANCH  18  19ENDBRANCH   4  18TORSDOF 7TERENDMDL