MODEL        2USER    Run = 2USERUSER    Estimated Free Energy of Binding    =  -7.38 kcal/mol  [=(1)+(2)+(3)-(4)]USERUSER    (1) Final Intermolecular Energy     = -11.86 kcal/molUSER        vdW + Hbond + desolv Energy     = -11.63 kcal/molUSER        Electrostatic Energy            =  -0.44 kcal/molUSER        Moving Ligand-Fixed Receptor    = -12.07 kcal/molUSER        Moving Ligand-Moving Receptor   =  +0.21 kcal/molUSER    (2) Final Total Internal Energy     =  -1.94 kcal/molUSER    (3) Torsional Free Energy           =  +4.47 kcal/molUSER    (4) Unbound System's Energy         =  -1.94 kcal/molUSERUSERREMARK SMILES Cn1cc(C(=O)N[C@H]2CN(C3CC3)CCC[C@H]2NC(=O)c2ccc(C(=O)c3c(O)ccc(O)c3F)cc2)cn1REMARK SMILES IDX 18 1 19 2 20 3 17 5 8 6 7 7 5 8 6 9 4 11 2 12 3 13 39 14REMARK SMILES IDX 38 15 1 16 9 17 10 18 11 19 12 20 13 21 14 22 16 24 15 25REMARK SMILES IDX 21 27 22 28 37 29 23 30 36 31 24 32 25 33 26 34 27 35 28 36REMARK SMILES IDX 34 37 30 38 32 39 31 40 35 41 29 42 33 44REMARK H PARENT 18 4 7 10 29 43 33 45REMARK Flexibility Score:   72.900USER                              x       y       z     vdW  Elec       q    TypeUSER                           _______ _______ _______ _____ _____    ______ ____ROOTATOM      1  N   UNL     1      39.770  47.296  16.978 -0.23 +0.08    -0.347 N  ATOM      2  C   UNL     1      40.884  46.496  17.099 -0.28 -0.02    +0.251 C  ATOM      3  O   UNL     1      41.317  45.782  16.205 +0.01 -0.04    -0.269 OA ATOM      4  H   UNL     1      39.388  47.751  17.801 +0.08 -0.05    +0.164 HD ENDROOTBRANCH   1   5ATOM      5  C   UNL     1      38.964  47.376  15.749 -0.45 -0.04    +0.106 C  BRANCH   5   6ATOM      6  C   UNL     1      38.107  46.083  15.620 -0.36 -0.04    +0.118 C  BRANCH   6   7ATOM      7  N   UNL     1      37.484  45.745  16.909 -0.14 +0.13    -0.346 N  ATOM      8  C   UNL     1      38.101  44.896  17.804 -0.26 -0.05    +0.254 C  ATOM      9  O   UNL     1      39.208  44.405  17.595 -0.14 +0.03    -0.269 OA ATOM     10  H   UNL     1      36.509  45.968  17.027 +0.11 -0.09    +0.164 HD BRANCH   8  11ATOM     11  C   UNL     1      37.353  44.641  19.021 -0.30 -0.01    +0.077 A  ATOM     12  N   UNL     1      36.844  44.337  21.144 -0.24 -0.01    -0.275 N  ATOM     13  C   UNL     1      37.887  44.570  20.297 -0.26 -0.00    +0.122 A  ATOM     14  N   UNL     1      35.657  44.267  20.517 -0.26 +0.01    -0.181 NA ATOM     15  C   UNL     1      35.968  44.435  19.231 -0.26 -0.03    +0.149 A  ATOM     16  C   UNL     1      36.922  44.164  22.574 -0.19 +0.02    +0.173 C  ENDBRANCH   8  11ENDBRANCH   6   7BRANCH   6  17ATOM     17  C   UNL     1      37.080  46.074  14.456 -0.39 -0.05    +0.111 C  BRANCH  17  18ATOM     18  N   UNL     1      37.559  46.815  13.288 -0.32 +0.10    -0.298 NA BRANCH  18  19ATOM     19  C   UNL     1      37.133  46.227  12.011 -0.57 -0.02    +0.056 C  ATOM     20  C   UNL     1      36.582  44.825  11.999 -0.52 -0.01    +0.021 C  ATOM     21  C   UNL     1      35.661  45.990  11.782 -0.29 -0.01    +0.021 C  ENDBRANCH  18  19BRANCH  18  22ATOM     22  C   UNL     1      37.291  48.258  13.360 -0.46 -0.03    +0.085 CG0ATOM     23  G   UNL     1      37.013  48.804  14.765 +0.00 +0.00    +0.000 G0 ENDBRANCH  18  22ENDBRANCH  17  18ENDBRANCH   6  17ENDBRANCH   5   6BRANCH   5  24ATOM     24  C   UNL     1      38.178  48.701  15.743 -0.30 -0.02    +0.028 C  BRANCH  24  25ATOM     25  C   UNL     1      37.011  48.804  14.765 -0.51 -0.02    +0.018 CG0ATOM     26  G   UNL     1      37.290  48.260  13.360 +0.00 +0.00    +0.000 G0 ENDBRANCH  24  25ENDBRANCH   5  24ENDBRANCH   1   5BRANCH   2  27ATOM     27  C   UNL     1      41.532  46.503  18.439 -0.49 -0.00    +0.039 A  ATOM     28  C   UNL     1      41.176  45.571  19.423 -0.43 +0.00    +0.014 A  ATOM     29  C   UNL     1      42.526  47.452  18.702 -0.54 +0.00    +0.014 A  ATOM     30  C   UNL     1      41.838  45.563  20.654 -0.33 +0.00    +0.013 A  ATOM     31  C   UNL     1      43.189  47.439  19.934 -0.28 +0.00    +0.013 A  ATOM     32  C   UNL     1      42.847  46.499  20.917 -0.34 +0.01    +0.023 A  BRANCH  32  33ATOM     33  C   UNL     1      43.628  46.462  22.183 -0.22 +0.08    +0.199 C  ATOM     34  O   UNL     1      44.768  45.997  22.194 -0.45 -0.24    -0.288 OA BRANCH  33  35ATOM     35  C   UNL     1      43.038  46.858  23.473 -0.15 +0.02    +0.104 A  ATOM     36  C   UNL     1      42.742  48.204  23.710 -0.28 +0.03    +0.130 A  ATOM     37  C   UNL     1      42.798  45.917  24.472 -0.03 +0.02    +0.179 A  ATOM     38  C   UNL     1      42.269  48.619  24.954 -0.30 +0.01    +0.051 A  ATOM     39  C   UNL     1      42.321  46.330  25.718 -0.04 +0.01    +0.152 A  ATOM     40  C   UNL     1      42.072  47.678  25.971 -0.14 +0.00    +0.053 A  ATOM     41  F   UNL     1      43.004  44.612  24.237 +0.00 -0.02    -0.202 F  BRANCH  36  42ATOM     42  O   UNL     1      42.910  49.172  22.758 -0.70 -0.19    -0.507 OA ATOM     43  H   UNL     1      43.451  48.787  22.026 -0.40 +0.01    +0.293 HD ENDBRANCH  36  42BRANCH  39  44ATOM     44  O   UNL     1      42.127  45.390  26.693 -0.01 -0.03    -0.505 OA ATOM     45  H   UNL     1      42.440  44.531  26.373 +0.04 +0.01    +0.293 HD ENDBRANCH  39  44ENDBRANCH  33  35ENDBRANCH  32  33ENDBRANCH   2  27TORSDOF 9TERENDMDL