REMARK SMILES Oc1nc2ccccc2n1C1CCN(Cc2ccc(-c3cnc4cc(N5CCOCC5)ccc4n3)cc2F)CC1
REMARK SMILES IDX 11 1 12 2 13 3 14 4 39 5 40 6 10 7 2 8 3 9 4 10 9 11 5 12
REMARK SMILES IDX 8 13 6 14 7 15 1 16 15 18 16 19 17 20 37 21 18 22 36 23
REMARK SMILES IDX 19 24 38 25 20 26 21 27 35 28 22 29 34 30 23 31 33 32 24 33
REMARK SMILES IDX 32 34 25 35 26 36 27 37 31 38 28 39 30 40 29 41
REMARK H PARENT 1 17
ROOT
ATOM      1  C   UNL     1      -4.657  -4.644  -0.519  1.00  0.00     0.095 C 
ATOM      2  C   UNL     1      -3.928  -5.821  -1.198  1.00  0.00     0.041 C 
ATOM      3  C   UNL     1      -2.860  -5.374  -2.211  1.00  0.00     0.087 C 
ATOM      4  N   UNL     1      -2.268  -4.095  -1.834  1.00  0.00    -0.299 NA
ATOM      5  C   UNL     1      -3.242  -2.996  -1.845  1.00  0.00     0.087 C 
ATOM      6  C   UNL     1      -4.659  -3.439  -1.470  1.00  0.00     0.041 C 
ENDROOT
BRANCH   1   7
ATOM      7  N   UNL     1      -4.230  -4.277   0.831  1.00  0.00    -0.291 N 
ATOM      8  C   UNL     1      -3.068  -4.569   1.494  1.00  0.00     0.295 A 
ATOM      9  N   UNL     1      -3.005  -4.051   2.691  1.00  0.00    -0.195 NA
ATOM     10  C   UNL     1      -4.202  -3.404   2.850  1.00  0.00     0.092 A 
ATOM     11  C   UNL     1      -5.004  -3.539   1.716  1.00  0.00     0.072 A 
ATOM     12  C   UNL     1      -4.679  -2.679   3.953  1.00  0.00     0.031 A 
ATOM     13  C   UNL     1      -6.289  -2.982   1.638  1.00  0.00     0.029 A 
ATOM     14  C   UNL     1      -5.956  -2.111   3.888  1.00  0.00     0.002 A 
ATOM     15  C   UNL     1      -6.747  -2.264   2.749  1.00  0.00     0.002 A 
BRANCH   8  16
ATOM     16  O   UNL     1      -2.080  -5.310   1.038  1.00  0.00    -0.480 OA
ATOM     17  H   UNL     1      -1.462  -5.283   1.790  1.00  0.00     0.296 HD
ENDBRANCH   8  16
ENDBRANCH   1   7
BRANCH   4  18
ATOM     18  C   UNL     1      -1.069  -3.784  -2.630  1.00  0.00     0.123 C 
BRANCH  18  19
ATOM     19  C   UNL     1      -0.254  -2.640  -2.071  1.00  0.00     0.002 A 
ATOM     20  C   UNL     1       0.061  -2.567  -0.709  1.00  0.00     0.009 A 
ATOM     21  C   UNL     1       0.239  -1.644  -2.911  1.00  0.00     0.128 A 
ATOM     22  C   UNL     1       0.824  -1.506  -0.205  1.00  0.00     0.011 A 
ATOM     23  C   UNL     1       1.003  -0.588  -2.415  1.00  0.00     0.050 A 
ATOM     24  C   UNL     1       1.317  -0.493  -1.048  1.00  0.00     0.005 A 
ATOM     25  F   UNL     1      -0.020  -1.687  -4.226  1.00  0.00    -0.207 F 
BRANCH  24  26
ATOM     26  C   UNL     1       2.116   0.637  -0.537  1.00  0.00     0.089 A 
ATOM     27  C   UNL     1       2.930   0.567   0.587  1.00  0.00     0.140 A 
ATOM     28  N   UNL     1       2.029   1.799  -1.234  1.00  0.00    -0.245 NA
ATOM     29  N   UNL     1       3.651   1.615   1.057  1.00  0.00    -0.252 NA
ATOM     30  C   UNL     1       2.733   2.856  -0.780  1.00  0.00     0.090 A 
ATOM     31  C   UNL     1       3.546   2.768   0.370  1.00  0.00     0.091 A 
ATOM     32  C   UNL     1       2.656   4.066  -1.447  1.00  0.00     0.033 A 
ATOM     33  C   UNL     1       4.247   3.893   0.799  1.00  0.00     0.056 A 
ATOM     34  C   UNL     1       3.365   5.185  -1.001  1.00  0.00     0.028 A 
ATOM     35  C   UNL     1       4.189   5.124   0.130  1.00  0.00     0.039 A 
BRANCH  35  36
ATOM     36  N   UNL     1       4.865   6.276   0.559  1.00  0.00    -0.367 N 
ATOM     37  C   UNL     1       5.476   6.268   1.908  1.00  0.00     0.145 C 
ATOM     38  C   UNL     1       5.779   6.865  -0.452  1.00  0.00     0.145 C 
ATOM     39  C   UNL     1       5.954   7.681   2.276  1.00  0.00     0.181 C 
ATOM     40  C   UNL     1       6.261   8.249   0.015  1.00  0.00     0.181 C 
ATOM     41  O   UNL     1       6.886   8.187   1.307  1.00  0.00    -0.378 OA
ENDBRANCH  35  36
ENDBRANCH  24  26
ENDBRANCH  18  19
ENDBRANCH   4  18
TORSDOF 6
