
     RDKit          3D

 44 46  0  0  0  0  0  0  0  0999 V2000
   -6.3668    0.0974   -1.3038 C   0  0  0  0  0  0  0  0  0  0  0  0
   -5.1768   -0.7250   -0.8128 C   0  0  0  0  0  0  0  0  0  0  0  0
   -3.9497    0.1837   -0.5751 C   0  0  0  0  0  0  0  0  0  0  0  0
   -2.8441   -0.5513    0.1462 C   0  0  0  0  0  0  0  0  0  0  0  0
   -1.4777    0.0104    0.0971 C   0  0  0  0  0  0  0  0  0  0  0  0
   -0.4240   -0.8028   -0.3553 C   0  0  0  0  0  0  0  0  0  0  0  0
    0.8838   -0.3136   -0.4377 C   0  0  0  0  0  0  0  0  0  0  0  0
    1.1593    1.0017   -0.0551 C   0  0  0  0  0  0  0  0  0  0  0  0
    2.5281    1.5722   -0.1343 C   0  0  0  0  0  0  0  0  0  0  0  0
    2.6658    2.7663   -0.3864 O   0  0  0  0  0  0  0  0  0  0  0  0
    3.7360    0.7403    0.0884 C   0  0  0  0  0  0  0  0  0  0  0  0
    3.7653   -0.2561    1.0725 C   0  0  0  0  0  0  0  0  0  0  0  0
    4.9249   -1.0071    1.2688 C   0  0  0  0  0  0  0  0  0  0  0  0
    6.0580   -0.7564    0.4928 C   0  0  0  0  0  0  0  0  0  0  0  0
    6.0407    0.2531   -0.4792 C   0  0  0  0  0  0  0  0  0  0  0  0
    7.2739    0.4864   -1.2686 C   0  0  0  0  0  0  0  0  0  0  0  0
    8.3268   -0.1088   -1.1342 O   0  0  0  0  0  0  0  0  0  0  0  0
    7.1254    1.4484   -2.1947 O   0  0  0  0  0  0  0  0  0  0  0  0
    4.8784    1.0073   -0.6761 C   0  0  0  0  0  0  0  0  0  0  0  0
    0.1196    1.8339    0.3733 C   0  0  0  0  0  0  0  0  0  0  0  0
   -1.1841    1.3377    0.4503 C   0  0  0  0  0  0  0  0  0  0  0  0
   -2.1814    2.1621    0.8983 O   0  0  0  0  0  0  0  0  0  0  0  0
   -3.1070   -1.7034    0.7928 C   0  0  0  0  0  0  0  0  0  0  0  0
   -4.4747   -2.3180    0.8594 C   0  0  0  0  0  0  0  0  0  0  0  0
   -5.5550   -1.4298    0.4242 N   0  0  0  0  0  0  0  0  0  0  0  0
   -6.6678    0.8522   -0.5685 H   0  0  0  0  0  0  0  0  0  0  0  0
   -7.2318   -0.5454   -1.5014 H   0  0  0  0  0  0  0  0  0  0  0  0
   -6.1178    0.6163   -2.2357 H   0  0  0  0  0  0  0  0  0  0  0  0
   -4.9409   -1.4656   -1.5891 H   0  0  0  0  0  0  0  0  0  0  0  0
   -3.5894    0.5479   -1.5455 H   0  0  0  0  0  0  0  0  0  0  0  0
   -4.2522    1.0571    0.0150 H   0  0  0  0  0  0  0  0  0  0  0  0
   -0.6217   -1.8260   -0.6705 H   0  0  0  0  0  0  0  0  0  0  0  0
    1.6632   -0.9662   -0.8223 H   0  0  0  0  0  0  0  0  0  0  0  0
    2.9017   -0.4453    1.7058 H   0  0  0  0  0  0  0  0  0  0  0  0
    4.9517   -1.7810    2.0329 H   0  0  0  0  0  0  0  0  0  0  0  0
    6.9602   -1.3445    0.6548 H   0  0  0  0  0  0  0  0  0  0  0  0
    8.0019    1.5014   -2.6300 H   0  0  0  0  0  0  0  0  0  0  0  0
    4.8535    1.8031   -1.4183 H   0  0  0  0  0  0  0  0  0  0  0  0
    0.3408    2.8628    0.6463 H   0  0  0  0  0  0  0  0  0  0  0  0
   -1.8134    3.0436    1.0748 H   0  0  0  0  0  0  0  0  0  0  0  0
   -2.3182   -2.2469    1.3057 H   0  0  0  0  0  0  0  0  0  0  0  0
   -4.4845   -3.2305    0.2519 H   0  0  0  0  0  0  0  0  0  0  0  0
   -4.6782   -2.6256    1.8913 H   0  0  0  0  0  0  0  0  0  0  0  0
   -5.7020   -0.7357    1.1577 H   0  0  0  0  0  0  0  0  0  0  0  0
  1  2  1  0
  2  3  1  0
  3  4  1  0
  4  5  1  0
  5  6  2  0
  6  7  1  0
  7  8  2  0
  8  9  1  0
  9 10  2  0
  9 11  1  0
 11 12  2  0
 12 13  1  0
 13 14  2  0
 14 15  1  0
 15 16  1  0
 16 17  2  0
 16 18  1  0
 15 19  2  0
  8 20  1  0
 20 21  2  0
 21 22  1  0
  4 23  2  0
 23 24  1  0
 24 25  1  0
 25  2  1  0
 21  5  1  0
 19 11  1  0
  1 26  1  0
  1 27  1  0
  1 28  1  0
  2 29  1  0
  3 30  1  0
  3 31  1  0
  6 32  1  0
  7 33  1  0
 12 34  1  0
 13 35  1  0
 14 36  1  0
 18 37  1  0
 19 38  1  0
 20 39  1  0
 22 40  1  0
 23 41  1  0
 24 42  1  0
 24 43  1  0
 25 44  1  0
M  END
$$$$
