
     RDKit          3D

 40 43  0  0  0  0  0  0  0  0999 V2000
    3.0265   -2.1262   -1.8169 N   0  0  0  0  0  0  0  0  0  0  0  0
    1.7284   -1.5509   -2.1700 C   0  0  0  0  0  0  0  0  0  0  0  0
    0.9003   -1.1919   -0.9013 C   0  0  0  0  0  0  0  0  0  0  0  0
    1.0452   -2.2982    0.0254 O   0  0  0  0  0  0  0  0  0  0  0  0
    1.2341    0.1322   -0.1582 C   0  0  0  0  0  0  0  0  0  0  0  0
    2.5811    0.7255   -0.6216 C   0  0  0  0  0  0  0  0  0  0  0  0
    3.6924    0.3265   -0.3140 O   0  0  0  0  0  0  0  0  0  0  0  0
    2.3192    1.8122   -1.4269 N   0  0  0  0  0  0  0  0  0  0  0  0
    0.9838    2.1603   -1.3384 C   0  0  0  0  0  0  0  0  0  0  0  0
    0.4090    3.2676   -1.8884 C   0  0  0  0  0  0  0  0  0  0  0  0
   -0.9320    3.4949   -1.5752 C   0  0  0  0  0  0  0  0  0  0  0  0
   -1.6584    2.6752   -0.7078 C   0  0  0  0  0  0  0  0  0  0  0  0
   -2.9101    3.0521   -0.4539 N   0  0  0  0  0  0  0  0  0  0  0  0
   -3.5988    2.3457    0.4396 C   0  0  0  0  0  0  0  0  0  0  0  0
   -3.1563    1.2663    1.0759 N   0  0  0  0  0  0  0  0  0  0  0  0
   -1.9068    0.8466    0.7623 C   0  0  0  0  0  0  0  0  0  0  0  0
   -1.5855   -0.4122    1.4394 C   0  0  0  0  0  0  0  0  0  0  0  0
   -2.1328   -1.6190    0.9434 C   0  0  0  0  0  0  0  0  0  0  0  0
   -1.8714   -2.8347    1.5824 C   0  0  0  0  0  0  0  0  0  0  0  0
   -1.0688   -2.8475    2.7328 C   0  0  0  0  0  0  0  0  0  0  0  0
   -0.8013   -4.0216    3.3590 F   0  0  0  0  0  0  0  0  0  0  0  0
   -0.5472   -1.6666    3.2563 C   0  0  0  0  0  0  0  0  0  0  0  0
   -0.8039   -0.4488    2.6195 C   0  0  0  0  0  0  0  0  0  0  0  0
   -1.0618    1.5358   -0.1435 C   0  0  0  0  0  0  0  0  0  0  0  0
    0.2824    1.2588   -0.5238 C   0  0  0  0  0  0  0  0  0  0  0  0
    3.4934   -2.5000   -2.6586 H   0  0  0  0  0  0  0  0  0  0  0  0
    3.6570   -1.4045   -1.4389 H   0  0  0  0  0  0  0  0  0  0  0  0
    1.8457   -0.7072   -2.8605 H   0  0  0  0  0  0  0  0  0  0  0  0
    1.1711   -2.3187   -2.7252 H   0  0  0  0  0  0  0  0  0  0  0  0
   -0.1664   -1.1785   -1.1847 H   0  0  0  0  0  0  0  0  0  0  0  0
    1.9781   -2.5789   -0.0839 H   0  0  0  0  0  0  0  0  0  0  0  0
    1.2851    0.0264    0.9391 H   0  0  0  0  0  0  0  0  0  0  0  0
    3.0426    2.3913   -1.8398 H   0  0  0  0  0  0  0  0  0  0  0  0
    0.9527    3.9568   -2.5293 H   0  0  0  0  0  0  0  0  0  0  0  0
   -1.4230    4.3624   -2.0028 H   0  0  0  0  0  0  0  0  0  0  0  0
   -4.6125    2.6771    0.6722 H   0  0  0  0  0  0  0  0  0  0  0  0
   -2.7587   -1.6053    0.0534 H   0  0  0  0  0  0  0  0  0  0  0  0
   -2.2708   -3.7637    1.1934 H   0  0  0  0  0  0  0  0  0  0  0  0
    0.0450   -1.7134    4.1633 H   0  0  0  0  0  0  0  0  0  0  0  0
   -0.4066    0.4743    3.0427 H   0  0  0  0  0  0  0  0  0  0  0  0
  1  2  1  0
  2  3  1  0
  3  4  1  0
  3  5  1  0
  5  6  1  0
  6  7  2  0
  6  8  1  0
  8  9  1  0
  9 10  2  0
 10 11  1  0
 11 12  2  0
 12 13  1  0
 13 14  2  0
 14 15  1  0
 15 16  2  0
 16 17  1  0
 17 18  2  0
 18 19  1  0
 19 20  2  0
 20 21  1  0
 20 22  1  0
 22 23  2  0
 16 24  1  0
 24 25  2  0
 25  5  1  0
 25  9  1  0
 24 12  1  0
 23 17  1  0
  1 26  1  0
  1 27  1  0
  2 28  1  0
  2 29  1  0
  3 30  1  0
  4 31  1  0
  5 32  1  0
  8 33  1  0
 10 34  1  0
 11 35  1  0
 14 36  1  0
 18 37  1  0
 19 38  1  0
 22 39  1  0
 23 40  1  0
M  END
$$$$
