
     RDKit          3D

 43 47  0  0  0  0  0  0  0  0999 V2000
    7.1896    1.0347   -1.4217 O   0  0  0  0  0  0  0  0  0  0  0  0
    5.9259    0.5261   -1.5386 C   0  0  0  0  0  0  0  0  0  0  0  0
    4.9467    0.8291   -0.5912 C   0  0  0  0  0  0  0  0  0  0  0  0
    3.6476    0.2998   -0.7116 C   0  0  0  0  0  0  0  0  0  0  0  0
    2.6090    0.6128    0.2798 C   0  0  0  0  0  0  0  0  0  0  0  0
    2.3027    1.9201    0.6473 C   0  0  0  0  0  0  0  0  0  0  0  0
    1.3553    2.2825    1.5453 N   0  0  0  0  0  0  0  0  0  0  0  0
    0.6295    1.2895    2.1310 C   0  0  0  0  0  0  0  0  0  0  0  0
   -0.3391    1.7422    3.0301 N   0  0  0  0  0  0  0  0  0  0  0  0
   -1.3797    0.9644    3.5168 O   0  0  0  0  0  0  0  0  0  0  0  0
   -2.1902    0.5732    2.4740 C   0  0  0  0  0  0  0  0  0  0  0  0
   -2.0637   -0.6131    1.8393 C   0  0  0  0  0  0  0  0  0  0  0  0
   -3.1566   -0.8902    0.8738 C   0  0  0  0  0  0  0  0  0  0  0  0
   -4.1967   -1.7651    1.2183 C   0  0  0  0  0  0  0  0  0  0  0  0
   -5.2549   -2.0315    0.3413 C   0  0  0  0  0  0  0  0  0  0  0  0
   -5.2257   -1.3843   -0.8975 C   0  0  0  0  0  0  0  0  0  0  0  0
   -6.0780   -1.4248   -1.9673 N   0  0  0  0  0  0  0  0  0  0  0  0
   -5.7106   -0.6471   -3.0044 N   0  0  0  0  0  0  0  0  0  0  0  0
   -4.5646   -0.1030   -2.5789 C   0  0  0  0  0  0  0  0  0  0  0  0
   -4.2089   -0.5152   -1.2756 C   0  0  0  0  0  0  0  0  0  0  0  0
   -3.1543   -0.2600   -0.3835 C   0  0  0  0  0  0  0  0  0  0  0  0
   -1.1728   -1.6335    1.9472 N   0  0  0  0  0  0  0  0  0  0  0  0
    0.0459   -1.2941    2.4278 C   0  0  0  0  0  0  0  0  0  0  0  0
    0.8669   -0.0597    1.8407 C   0  0  0  0  0  0  0  0  0  0  0  0
    1.8580   -0.3833    0.9032 C   0  0  0  0  0  0  0  0  0  0  0  0
    3.3684   -0.5407   -1.8058 C   0  0  0  0  0  0  0  0  0  0  0  0
    4.3508   -0.8398   -2.7540 C   0  0  0  0  0  0  0  0  0  0  0  0
    5.6241   -0.3024   -2.6155 C   0  0  0  0  0  0  0  0  0  0  0  0
    6.5591   -0.5964   -3.5310 F   0  0  0  0  0  0  0  0  0  0  0  0
    7.2513    1.5258   -0.5868 H   0  0  0  0  0  0  0  0  0  0  0  0
    5.1851    1.4659    0.2572 H   0  0  0  0  0  0  0  0  0  0  0  0
    2.8235    2.7611    0.1980 H   0  0  0  0  0  0  0  0  0  0  0  0
   -0.5291    2.7246    2.9164 H   0  0  0  0  0  0  0  0  0  0  0  0
   -2.9832    1.2865    2.3085 H   0  0  0  0  0  0  0  0  0  0  0  0
   -4.1596   -2.2529    2.1908 H   0  0  0  0  0  0  0  0  0  0  0  0
   -6.0463   -2.7166    0.6197 H   0  0  0  0  0  0  0  0  0  0  0  0
   -6.9301   -1.9644   -2.0493 H   0  0  0  0  0  0  0  0  0  0  0  0
   -4.0292    0.5755   -3.2293 H   0  0  0  0  0  0  0  0  0  0  0  0
   -2.3335    0.3996   -0.6485 H   0  0  0  0  0  0  0  0  0  0  0  0
    0.6549   -2.0352    2.9391 H   0  0  0  0  0  0  0  0  0  0  0  0
    2.0149   -1.4328    0.6656 H   0  0  0  0  0  0  0  0  0  0  0  0
    2.3711   -0.9640   -1.9259 H   0  0  0  0  0  0  0  0  0  0  0  0
    4.1266   -1.4874   -3.5950 H   0  0  0  0  0  0  0  0  0  0  0  0
  1  2  1  0
  2  3  2  0
  3  4  1  0
  4  5  1  0
  5  6  2  0
  6  7  1  0
  7  8  2  0
  8  9  1  0
  9 10  1  0
 10 11  1  0
 11 12  2  0
 12 13  1  0
 13 14  2  0
 14 15  1  0
 15 16  2  0
 16 17  1  0
 17 18  1  0
 18 19  2  0
 19 20  1  0
 20 21  2  0
 12 22  1  0
 22 23  2  0
 23 24  1  0
 24 25  2  0
  4 26  2  0
 26 27  1  0
 27 28  2  0
 28 29  1  0
 28  2  1  0
 25  5  1  0
 24  8  1  0
 21 13  1  0
 20 16  1  0
  1 30  1  0
  3 31  1  0
  6 32  1  0
  9 33  1  0
 11 34  1  0
 14 35  1  0
 15 36  1  0
 17 37  1  0
 19 38  1  0
 21 39  1  0
 23 40  1  0
 25 41  1  0
 26 42  1  0
 27 43  1  0
M  END
$$$$
