
     RDKit          3D

 46 50  0  0  0  0  0  0  0  0999 V2000
   -8.4846    1.2997    0.6887 C   0  0  0  0  0  0  0  0  0  0  0  0
   -7.2513    1.9527    0.4188 O   0  0  0  0  0  0  0  0  0  0  0  0
   -6.1412    1.1586    0.3294 C   0  0  0  0  0  0  0  0  0  0  0  0
   -4.9472    1.8429    0.1017 C   0  0  0  0  0  0  0  0  0  0  0  0
   -3.7369    1.1501   -0.0100 C   0  0  0  0  0  0  0  0  0  0  0  0
   -3.6913   -0.2478    0.0992 C   0  0  0  0  0  0  0  0  0  0  0  0
   -2.4203   -0.9766   -0.0231 C   0  0  0  0  0  0  0  0  0  0  0  0
   -2.2782   -2.0866   -0.8555 C   0  0  0  0  0  0  0  0  0  0  0  0
   -1.1404   -2.8025   -1.0236 N   0  0  0  0  0  0  0  0  0  0  0  0
   -0.0476   -2.3820   -0.3324 C   0  0  0  0  0  0  0  0  0  0  0  0
    1.1741   -3.0087   -0.6511 N   0  0  0  0  0  0  0  0  0  0  0  0
    1.9290   -2.2792   -1.5743 O   0  0  0  0  0  0  0  0  0  0  0  0
    2.8777   -1.4813   -0.9963 C   0  0  0  0  0  0  0  0  0  0  0  0
    2.9902   -0.8358    0.1883 C   0  0  0  0  0  0  0  0  0  0  0  0
    4.3078   -0.1255    0.2427 C   0  0  0  0  0  0  0  0  0  0  0  0
    5.4434   -0.7862    0.7361 C   0  0  0  0  0  0  0  0  0  0  0  0
    6.6960   -0.1625    0.7782 C   0  0  0  0  0  0  0  0  0  0  0  0
    6.7628    1.1517    0.3060 C   0  0  0  0  0  0  0  0  0  0  0  0
    7.8037    2.0350    0.2146 N   0  0  0  0  0  0  0  0  0  0  0  0
    7.4762    3.2335   -0.3063 N   0  0  0  0  0  0  0  0  0  0  0  0
    6.1639    3.1103   -0.5371 C   0  0  0  0  0  0  0  0  0  0  0  0
    5.6587    1.8395   -0.1841 C   0  0  0  0  0  0  0  0  0  0  0  0
    4.4086    1.2000   -0.2184 C   0  0  0  0  0  0  0  0  0  0  0  0
    2.3340   -0.6370    1.3491 N   0  0  0  0  0  0  0  0  0  0  0  0
    1.0641   -0.9921    1.5776 C   0  0  0  0  0  0  0  0  0  0  0  0
   -0.0847   -1.3185    0.5622 C   0  0  0  0  0  0  0  0  0  0  0  0
   -1.2834   -0.6098    0.7023 C   0  0  0  0  0  0  0  0  0  0  0  0
   -4.9009   -0.9232    0.3299 C   0  0  0  0  0  0  0  0  0  0  0  0
   -6.1138   -0.2300    0.4441 C   0  0  0  0  0  0  0  0  0  0  0  0
   -8.4564    0.7837    1.6542 H   0  0  0  0  0  0  0  0  0  0  0  0
   -8.7526    0.6122   -0.1203 H   0  0  0  0  0  0  0  0  0  0  0  0
   -9.2635    2.0663    0.7445 H   0  0  0  0  0  0  0  0  0  0  0  0
   -4.9524    2.9260    0.0110 H   0  0  0  0  0  0  0  0  0  0  0  0
   -2.8225    1.7131   -0.1926 H   0  0  0  0  0  0  0  0  0  0  0  0
   -3.1113   -2.4406   -1.4563 H   0  0  0  0  0  0  0  0  0  0  0  0
    0.8575   -3.8357   -1.1452 H   0  0  0  0  0  0  0  0  0  0  0  0
    3.6518   -1.3850   -1.7531 H   0  0  0  0  0  0  0  0  0  0  0  0
    5.3282   -1.8033    1.1055 H   0  0  0  0  0  0  0  0  0  0  0  0
    7.5614   -0.6826    1.1702 H   0  0  0  0  0  0  0  0  0  0  0  0
    8.7641    1.8774    0.4917 H   0  0  0  0  0  0  0  0  0  0  0  0
    5.6206    3.9466   -0.9556 H   0  0  0  0  0  0  0  0  0  0  0  0
    3.5183    1.7061   -0.5789 H   0  0  0  0  0  0  0  0  0  0  0  0
    0.7237   -0.9713    2.6113 H   0  0  0  0  0  0  0  0  0  0  0  0
   -1.3166    0.2132    1.4115 H   0  0  0  0  0  0  0  0  0  0  0  0
   -4.9062   -2.0061    0.4416 H   0  0  0  0  0  0  0  0  0  0  0  0
   -7.0123   -0.8087    0.6267 H   0  0  0  0  0  0  0  0  0  0  0  0
  1  2  1  0
  2  3  1  0
  3  4  2  0
  4  5  1  0
  5  6  2  0
  6  7  1  0
  7  8  2  0
  8  9  1  0
  9 10  2  0
 10 11  1  0
 11 12  1  0
 12 13  1  0
 13 14  2  0
 14 15  1  0
 15 16  2  0
 16 17  1  0
 17 18  2  0
 18 19  1  0
 19 20  1  0
 20 21  2  0
 21 22  1  0
 22 23  2  0
 14 24  1  0
 24 25  2  0
 25 26  1  0
 26 27  2  0
  6 28  1  0
 28 29  2  0
 29  3  1  0
 27  7  1  0
 26 10  1  0
 23 15  1  0
 22 18  1  0
  1 30  1  0
  1 31  1  0
  1 32  1  0
  4 33  1  0
  5 34  1  0
  8 35  1  0
 11 36  1  0
 13 37  1  0
 16 38  1  0
 17 39  1  0
 19 40  1  0
 21 41  1  0
 23 42  1  0
 25 43  1  0
 27 44  1  0
 28 45  1  0
 29 46  1  0
M  END
$$$$
