
     RDKit          3D

 47 50  0  0  0  0  0  0  0  0999 V2000
    3.4639    1.4689    1.3000 C   0  0  0  0  0  0  0  0  0  0  0  0
    2.8756    0.7577    0.1104 C   0  0  0  0  0  0  0  0  0  0  0  0
    2.2900    1.3687   -0.7795 O   0  0  0  0  0  0  0  0  0  0  0  0
    3.1037   -0.6001    0.1074 N   0  0  0  0  0  0  0  0  0  0  0  0
    2.4710   -1.5085   -0.7941 C   0  0  0  0  0  0  0  0  0  0  0  0
    1.6875   -2.4597   -0.0661 O   0  0  0  0  0  0  0  0  0  0  0  0
    3.3075   -2.1258   -1.8902 C   0  0  0  0  0  0  0  0  0  0  0  0
    2.1917   -1.1787   -2.2318 C   0  0  0  0  0  0  0  0  0  0  0  0
    0.7747   -1.9587   -3.0138 S   0  0  0  0  0  0  0  0  0  0  0  0
    0.4908   -3.1839   -2.2938 O   0  0  0  0  0  0  0  0  0  0  0  0
    1.0999   -1.9938   -4.4243 O   0  0  0  0  0  0  0  0  0  0  0  0
   -0.5401   -0.9051   -2.8812 N   0  0  0  0  0  0  0  0  0  0  0  0
   -0.9824   -0.5098   -1.5824 C   0  0  0  0  0  0  0  0  0  0  0  0
   -0.9707    0.8453   -1.2495 C   0  0  0  0  0  0  0  0  0  0  0  0
   -1.4189    1.2858    0.0062 C   0  0  0  0  0  0  0  0  0  0  0  0
   -1.4271    2.7202    0.3547 C   0  0  0  0  0  0  0  0  0  0  0  0
   -2.5518    3.3192    0.9381 C   0  0  0  0  0  0  0  0  0  0  0  0
   -2.5165    4.6702    1.2501 C   0  0  0  0  0  0  0  0  0  0  0  0
   -1.4505    5.4640    1.0262 N   0  0  0  0  0  0  0  0  0  0  0  0
   -0.3752    4.8804    0.4594 C   0  0  0  0  0  0  0  0  0  0  0  0
   -0.3183    3.5393    0.1117 C   0  0  0  0  0  0  0  0  0  0  0  0
   -1.8721    0.3167    0.9229 C   0  0  0  0  0  0  0  0  0  0  0  0
   -1.9121   -1.0523    0.6039 C   0  0  0  0  0  0  0  0  0  0  0  0
   -2.3968   -2.0929    1.5354 C   0  0  0  0  0  0  0  0  0  0  0  0
   -2.2765   -3.3893    1.3127 N   0  0  0  0  0  0  0  0  0  0  0  0
   -2.8308   -4.1149    2.3465 C   0  0  0  0  0  0  0  0  0  0  0  0
   -3.3835   -3.3700    3.3619 C   0  0  0  0  0  0  0  0  0  0  0  0
   -3.2056   -1.7052    3.0132 S   0  0  0  0  0  0  0  0  0  0  0  0
   -1.4669   -1.4438   -0.6690 C   0  0  0  0  0  0  0  0  0  0  0  0
    4.4272    1.9023    1.0181 H   0  0  0  0  0  0  0  0  0  0  0  0
    2.7817    2.2633    1.6168 H   0  0  0  0  0  0  0  0  0  0  0  0
    3.6087    0.7891    2.1442 H   0  0  0  0  0  0  0  0  0  0  0  0
    3.4136   -1.0271    0.9725 H   0  0  0  0  0  0  0  0  0  0  0  0
    1.1641   -3.0553   -0.6453 H   0  0  0  0  0  0  0  0  0  0  0  0
    3.1892   -3.1833   -2.0967 H   0  0  0  0  0  0  0  0  0  0  0  0
    4.3220   -1.7700   -2.0260 H   0  0  0  0  0  0  0  0  0  0  0  0
    2.4732   -0.2174   -2.6330 H   0  0  0  0  0  0  0  0  0  0  0  0
   -0.4771   -0.1634   -3.5786 H   0  0  0  0  0  0  0  0  0  0  0  0
   -0.6117    1.5736   -1.9734 H   0  0  0  0  0  0  0  0  0  0  0  0
   -3.4552    2.7518    1.1380 H   0  0  0  0  0  0  0  0  0  0  0  0
   -3.3746    5.1628    1.6996 H   0  0  0  0  0  0  0  0  0  0  0  0
    0.4717    5.5374    0.2844 H   0  0  0  0  0  0  0  0  0  0  0  0
    0.5888    3.1466   -0.3352 H   0  0  0  0  0  0  0  0  0  0  0  0
   -2.1895    0.6534    1.9080 H   0  0  0  0  0  0  0  0  0  0  0  0
   -2.8042   -5.1971    2.3066 H   0  0  0  0  0  0  0  0  0  0  0  0
   -3.8701   -3.7151    4.2622 H   0  0  0  0  0  0  0  0  0  0  0  0
   -1.5182   -2.4956   -0.9472 H   0  0  0  0  0  0  0  0  0  0  0  0
  1  2  1  0
  2  3  2  0
  2  4  1  0
  4  5  1  0
  5  6  1  0
  5  7  1  0
  7  8  1  0
  8  9  1  0
  9 10  2  0
  9 11  2  0
  9 12  1  0
 12 13  1  0
 13 14  2  0
 14 15  1  0
 15 16  1  0
 16 17  2  0
 17 18  1  0
 18 19  2  0
 19 20  1  0
 20 21  2  0
 15 22  2  0
 22 23  1  0
 23 24  1  0
 24 25  2  0
 25 26  1  0
 26 27  2  0
 27 28  1  0
 23 29  2  0
  8  5  1  0
 29 13  1  0
 21 16  1  0
 28 24  1  0
  1 30  1  0
  1 31  1  0
  1 32  1  0
  4 33  1  0
  6 34  1  0
  7 35  1  0
  7 36  1  0
  8 37  1  0
 12 38  1  0
 14 39  1  0
 17 40  1  0
 18 41  1  0
 20 42  1  0
 21 43  1  0
 22 44  1  0
 26 45  1  0
 27 46  1  0
 29 47  1  0
M  END
$$$$
