
     RDKit          3D

 50 53  0  0  0  0  0  0  0  0999 V2000
   -5.2526    3.9096   -2.5144 C   0  0  0  0  0  0  0  0  0  0  0  0
   -4.8908    2.9765   -1.5020 O   0  0  0  0  0  0  0  0  0  0  0  0
   -3.7156    2.3060   -1.7796 C   0  0  0  0  0  0  0  0  0  0  0  0
   -3.3046    1.3770   -0.8362 C   0  0  0  0  0  0  0  0  0  0  0  0
   -2.1196    0.6653   -1.0536 C   0  0  0  0  0  0  0  0  0  0  0  0
   -1.6413   -0.3306   -0.0823 C   0  0  0  0  0  0  0  0  0  0  0  0
   -0.3498   -0.2460    0.4613 C   0  0  0  0  0  0  0  0  0  0  0  0
    0.1045   -1.1810    1.3923 C   0  0  0  0  0  0  0  0  0  0  0  0
    1.4465   -1.1942    1.8963 N   0  0  0  0  0  0  0  0  0  0  0  0
    2.2639    0.2398    2.2431 S   0  0  0  0  0  0  0  0  0  0  0  0
    3.3852   -0.1479    3.0735 O   0  0  0  0  0  0  0  0  0  0  0  0
    1.3069    1.2149    2.7185 O   0  0  0  0  0  0  0  0  0  0  0  0
    2.9581    0.9309    0.7170 C   0  0  0  0  0  0  0  0  0  0  0  0
    3.1260   -0.0310   -0.4250 C   0  0  0  0  0  0  0  0  0  0  0  0
    4.3277    0.4006    0.3702 C   0  0  0  0  0  0  0  0  0  0  0  0
    5.3206    1.2544   -0.2196 N   0  0  0  0  0  0  0  0  0  0  0  0
    6.1668    0.8033   -1.2143 C   0  0  0  0  0  0  0  0  0  0  0  0
    7.2357    1.7910   -1.5974 C   0  0  0  0  0  0  0  0  0  0  0  0
    6.0809   -0.3012   -1.7414 O   0  0  0  0  0  0  0  0  0  0  0  0
   -0.7199   -2.2586    1.7389 C   0  0  0  0  0  0  0  0  0  0  0  0
   -2.0215   -2.3782    1.2260 C   0  0  0  0  0  0  0  0  0  0  0  0
   -2.9434   -3.4800    1.5787 C   0  0  0  0  0  0  0  0  0  0  0  0
   -4.1498   -3.6194    1.0575 N   0  0  0  0  0  0  0  0  0  0  0  0
   -4.7791   -4.7322    1.5769 C   0  0  0  0  0  0  0  0  0  0  0  0
   -4.0507   -5.4470    2.4989 C   0  0  0  0  0  0  0  0  0  0  0  0
   -2.5276   -4.7033    2.7273 S   0  0  0  0  0  0  0  0  0  0  0  0
   -2.4614   -1.3976    0.3190 C   0  0  0  0  0  0  0  0  0  0  0  0
   -1.4079    0.9310   -2.2291 C   0  0  0  0  0  0  0  0  0  0  0  0
   -1.9013    1.8765   -3.1150 C   0  0  0  0  0  0  0  0  0  0  0  0
   -3.0380    2.5729   -2.9153 N   0  0  0  0  0  0  0  0  0  0  0  0
   -5.4355    3.4073   -3.4710 H   0  0  0  0  0  0  0  0  0  0  0  0
   -6.1876    4.3883   -2.2075 H   0  0  0  0  0  0  0  0  0  0  0  0
   -4.4967    4.6953   -2.6195 H   0  0  0  0  0  0  0  0  0  0  0  0
   -3.9005    1.2229    0.0579 H   0  0  0  0  0  0  0  0  0  0  0  0
    0.2831    0.5793    0.1523 H   0  0  0  0  0  0  0  0  0  0  0  0
    1.6276   -1.8630    2.6464 H   0  0  0  0  0  0  0  0  0  0  0  0
    2.7303    1.9660    0.5086 H   0  0  0  0  0  0  0  0  0  0  0  0
    3.0201    0.3520   -1.4338 H   0  0  0  0  0  0  0  0  0  0  0  0
    2.8297   -1.0687   -0.3294 H   0  0  0  0  0  0  0  0  0  0  0  0
    4.7745   -0.3645    1.0022 H   0  0  0  0  0  0  0  0  0  0  0  0
    5.5825    2.0935    0.2862 H   0  0  0  0  0  0  0  0  0  0  0  0
    7.3598    1.7816   -2.6840 H   0  0  0  0  0  0  0  0  0  0  0  0
    6.9687    2.8075   -1.2947 H   0  0  0  0  0  0  0  0  0  0  0  0
    8.1752    1.5075   -1.1156 H   0  0  0  0  0  0  0  0  0  0  0  0
   -0.3334   -3.0069    2.4249 H   0  0  0  0  0  0  0  0  0  0  0  0
   -5.7802   -4.9784    1.2440 H   0  0  0  0  0  0  0  0  0  0  0  0
   -4.3333   -6.3426    3.0330 H   0  0  0  0  0  0  0  0  0  0  0  0
   -3.4651   -1.4811   -0.1014 H   0  0  0  0  0  0  0  0  0  0  0  0
   -0.4902    0.4017   -2.4655 H   0  0  0  0  0  0  0  0  0  0  0  0
   -1.3775    2.1008   -4.0397 H   0  0  0  0  0  0  0  0  0  0  0  0
  1  2  1  0
  2  3  1  0
  3  4  2  0
  4  5  1  0
  5  6  1  0
  6  7  2  0
  7  8  1  0
  8  9  1  0
  9 10  1  0
 10 11  2  0
 10 12  2  0
 10 13  1  0
 13 14  1  0
 14 15  1  0
 15 16  1  0
 16 17  1  0
 17 18  1  0
 17 19  2  0
  8 20  2  0
 20 21  1  0
 21 22  1  0
 22 23  2  0
 23 24  1  0
 24 25  2  0
 25 26  1  0
 21 27  2  0
  5 28  2  0
 28 29  1  0
 29 30  2  0
 30  3  1  0
 27  6  1  0
 15 13  1  0
 26 22  1  0
  1 31  1  0
  1 32  1  0
  1 33  1  0
  4 34  1  0
  7 35  1  0
  9 36  1  0
 13 37  1  0
 14 38  1  0
 14 39  1  0
 15 40  1  0
 16 41  1  0
 18 42  1  0
 18 43  1  0
 18 44  1  0
 20 45  1  0
 24 46  1  0
 25 47  1  0
 27 48  1  0
 28 49  1  0
 29 50  1  0
M  END
$$$$
