REMARK SMILES CNC(=O)c1cc(-c2nc3ncccc3[nH]2)ccc1CN1CC[C@@H](n2c(O)nc3ncccc32)[C@@H](CN2CCOCC2)C1
REMARK SMILES IDX 21 1 22 2 23 3 24 4 35 5 43 6 20 7 19 8 5 9 6 10 7 11 18 12
REMARK SMILES IDX 17 13 3 14 2 15 1 16 4 18 8 19 9 20 16 21 10 22 15 23 11 24
REMARK SMILES IDX 14 25 12 26 13 27 36 29 37 30 38 31 42 32 39 33 41 34 40 35
REMARK SMILES IDX 25 36 26 37 34 38 28 39 33 40 29 41 32 42 30 43 31 44 27 45
REMARK H PARENT 2 17 16 28 27 46
ROOT
ATOM      1  N   UNL     1      -0.125  -1.030  -0.386  1.00  0.00    -0.299 NA
ATOM      2  C   UNL     1      -0.369  -0.411   0.915  1.00  0.00     0.087 C 
ATOM      3  C   UNL     1      -1.260  -1.260   1.817  1.00  0.00     0.041 C 
ATOM      4  C   UNL     1      -2.588  -1.677   1.151  1.00  0.00     0.099 C 
ATOM      5  C   UNL     1      -2.638  -1.454  -0.385  1.00  0.00     0.040 C 
ATOM      6  C   UNL     1      -1.247  -1.781  -0.952  1.00  0.00     0.092 C 
ENDROOT
BRANCH   1   7
ATOM      7  C   UNL     1       0.482  -0.109  -1.355  1.00  0.00     0.120 C 
BRANCH   7   8
ATOM      8  C   UNL     1       1.906   0.265  -0.996  1.00  0.00    -0.021 A 
ATOM      9  C   UNL     1       2.934  -0.685  -0.834  1.00  0.00     0.045 A 
ATOM     10  C   UNL     1       4.216  -0.292  -0.409  1.00  0.00     0.026 A 
ATOM     11  C   UNL     1       4.512   1.054  -0.172  1.00  0.00     0.018 A 
ATOM     12  C   UNL     1       2.218   1.616  -0.775  1.00  0.00     0.006 A 
ATOM     13  C   UNL     1       3.502   2.002  -0.377  1.00  0.00     0.012 A 
BRANCH   9  14
ATOM     14  C   UNL     1       2.755  -2.141  -1.068  1.00  0.00     0.251 C 
ATOM     15  N   UNL     1       2.275  -2.491  -2.310  1.00  0.00    -0.355 N 
ATOM     16  C   UNL     1       2.166  -3.872  -2.703  1.00  0.00     0.143 C 
ATOM     17  H   UNL     1       2.213  -1.781  -3.025  1.00  0.00     0.163 HD
ATOM     18  O   UNL     1       3.127  -2.942  -0.218  1.00  0.00    -0.269 OA
ENDBRANCH   9  14
BRANCH  11  19
ATOM     19  C   UNL     1       5.837   1.499   0.271  1.00  0.00     0.140 A 
ATOM     20  N   UNL     1       6.303   2.733   0.187  1.00  0.00    -0.209 NA
ATOM     21  N   UNL     1       6.774   0.678   0.866  1.00  0.00    -0.337 N 
ATOM     22  C   UNL     1       7.562   2.696   0.717  1.00  0.00     0.178 A 
ATOM     23  C   UNL     1       7.885   1.421   1.156  1.00  0.00     0.085 A 
ATOM     24  N   UNL     1       8.400   3.750   0.819  1.00  0.00    -0.235 NA
ATOM     25  C   UNL     1       9.110   1.127   1.746  1.00  0.00     0.032 A 
ATOM     26  C   UNL     1       9.589   3.459   1.389  1.00  0.00     0.114 A 
ATOM     27  C   UNL     1       9.983   2.208   1.856  1.00  0.00     0.022 A 
ATOM     28  H   UNL     1       6.649  -0.302   1.073  1.00  0.00     0.168 HD
ENDBRANCH  11  19
ENDBRANCH   7   8
ENDBRANCH   1   7
BRANCH   5  29
ATOM     29  C   UNL     1      -3.180  -0.071  -0.826  1.00  0.00     0.091 C 
BRANCH  29  30
ATOM     30  N   UNL     1      -3.107   0.178  -2.278  1.00  0.00    -0.298 NA
ATOM     31  C   UNL     1      -4.043  -0.657  -3.068  1.00  0.00     0.113 C 
ATOM     32  C   UNL     1      -3.397   1.598  -2.592  1.00  0.00     0.113 C 
ATOM     33  C   UNL     1      -5.520  -0.239  -2.956  1.00  0.00     0.175 C 
ATOM     34  C   UNL     1      -4.883   1.979  -2.478  1.00  0.00     0.175 C 
ATOM     35  O   UNL     1      -5.697   1.139  -3.305  1.00  0.00    -0.379 OA
ENDBRANCH  29  30
ENDBRANCH   5  29
BRANCH   4  36
ATOM     36  N   UNL     1      -3.800  -1.263   1.847  1.00  0.00    -0.289 N 
ATOM     37  C   UNL     1      -4.888  -2.079   2.038  1.00  0.00     0.296 A 
ATOM     38  C   UNL     1      -4.129  -0.043   2.394  1.00  0.00     0.091 A 
ATOM     39  N   UNL     1      -5.872  -1.503   2.667  1.00  0.00    -0.175 NA
ATOM     40  C   UNL     1      -3.496   1.197   2.515  1.00  0.00     0.032 A 
ATOM     41  C   UNL     1      -5.421  -0.235   2.893  1.00  0.00     0.181 A 
ATOM     42  C   UNL     1      -4.228   2.195   3.155  1.00  0.00     0.022 A 
ATOM     43  N   UNL     1      -6.137   0.729   3.513  1.00  0.00    -0.235 NA
ATOM     44  C   UNL     1      -5.506   1.915   3.622  1.00  0.00     0.114 A 
BRANCH  37  45
ATOM     45  O   UNL     1      -4.968  -3.328   1.622  1.00  0.00    -0.480 OA
ATOM     46  H   UNL     1      -5.828  -3.596   1.996  1.00  0.00     0.296 HD
ENDBRANCH  37  45
ENDBRANCH   4  36
TORSDOF 8
