MODEL        2USER    Run = 2USERUSER    Estimated Free Energy of Binding    =  -9.37 kcal/mol  [=(1)+(2)+(3)-(4)]USERUSER    (1) Final Intermolecular Energy     = -10.86 kcal/molUSER        vdW + Hbond + desolv Energy     = -10.76 kcal/molUSER        Electrostatic Energy            =  -0.11 kcal/molUSER        Moving Ligand-Fixed Receptor    = -10.86 kcal/molUSER        Moving Ligand-Moving Receptor   =  +0.00 kcal/molUSER    (2) Final Total Internal Energy     =  -0.89 kcal/molUSER    (3) Torsional Free Energy           =  +1.49 kcal/molUSER    (4) Unbound System's Energy         =  -0.89 kcal/molUSERUSERREMARK SMILES CO[C@H]1CN(c2nc(-c3ccc(F)cc3)cc3[nH]ncc23)CC[C@@H]1CC#NREMARK SMILES IDX 3 1 4 2 5 3 22 4 23 5 24 6 2 7 1 8 25 9 26 10 27 11 6 12REMARK SMILES IDX 7 13 21 14 8 15 20 16 17 17 16 18 19 19 18 20 9 22 10 23REMARK SMILES IDX 15 24 11 25 14 26 12 27 13 28REMARK H PARENT 18 21USER                              x       y       z     vdW  Elec       q    TypeUSER                           _______ _______ _______ _____ _____    ______ ____ROOTATOM      1  C   UNL     1      35.292  44.158  18.490 -0.30 -0.04    +0.141 C  ATOM      2  C   UNL     1      36.290  45.261  18.058 -0.28 -0.05    +0.150 C  ATOM      3  N   UNL     1      36.596  45.201  16.613 -0.10 +0.15    -0.353 N  ATOM      4  C   UNL     1      36.490  43.898  15.981 -0.37 -0.04    +0.118 C  ATOM      5  C   UNL     1      35.052  43.369  16.099 -0.44 -0.01    +0.029 C  ATOM      6  C   UNL     1      34.293  43.850  17.356 -0.34 -0.01    +0.036 C  ENDROOTBRANCH   1   7ATOM      7  O   UNL     1      36.040  42.965  18.800 -0.14 +0.06    -0.379 OA ATOM      8  C   UNL     1      36.298  42.816  20.191 -0.35 -0.01    +0.195 C  ENDBRANCH   1   7BRANCH   6   9ATOM      9  C   UNL     1      33.384  45.051  17.019 -0.30 -0.08    +0.126 C  BRANCH   9  10ATOM     10  C   UNL     1      33.591  46.160  17.962 -0.45 -0.05    +0.063 C  ATOM     11  N   UNL     1      33.768  47.012  18.730 -0.95 +0.15    -0.198 NA ENDBRANCH   9  10ENDBRANCH   6   9BRANCH   3  12ATOM     12  C   UNL     1      37.616  46.092  16.265 -0.28 -0.06    +0.140 A  ATOM     13  N   UNL     1      38.673  46.163  17.137 -0.26 +0.06    -0.230 NA ATOM     14  C   UNL     1      37.673  46.941  15.131 -0.38 -0.03    +0.062 A  ATOM     15  C   UNL     1      39.727  46.999  16.954 -0.43 -0.02    +0.075 A  ATOM     16  C   UNL     1      36.897  47.182  13.967 -0.38 -0.08    +0.147 A  ATOM     17  C   UNL     1      38.755  47.804  14.974 -0.46 -0.03    +0.071 A  ATOM     18  C   UNL     1      39.812  47.868  15.876 -0.49 -0.02    +0.057 A  ATOM     19  N   UNL     1      37.403  48.131  13.175 -0.88 +0.05    -0.183 NA ATOM     20  N   UNL     1      38.521  48.499  13.816 -0.29 +0.10    -0.278 N  ATOM     21  H   UNL     1      39.097  49.223  13.401 -0.18 -0.08    +0.190 HD BRANCH  15  22ATOM     22  C   UNL     1      40.771  46.927  17.995 -0.51 -0.00    +0.000 A  ATOM     23  C   UNL     1      41.878  47.799  17.960 -0.46 -0.00    +0.013 A  ATOM     24  C   UNL     1      40.702  46.004  19.056 -0.45 -0.00    +0.013 A  ATOM     25  C   UNL     1      42.882  47.743  18.930 -0.47 +0.00    +0.040 A  ATOM     26  C   UNL     1      41.705  45.946  20.029 -0.37 +0.01    +0.040 A  ATOM     27  C   UNL     1      42.786  46.813  19.955 -0.34 +0.03    +0.123 A  ATOM     28  F   UNL     1      43.749  46.751  20.883 -0.11 -0.12    -0.207 F  ENDBRANCH  15  22ENDBRANCH   3  12TORSDOF 5TERENDMDL