REMARK SMILES CO[C@H]1CN(c2nc(-c3ccc(F)cc3)cc3[nH]ncc23)CC[C@@H]1CC#N
REMARK SMILES IDX 3 1 4 2 5 3 22 4 23 5 24 6 2 7 1 8 25 9 26 10 27 11 6 12
REMARK SMILES IDX 7 13 21 14 8 15 20 16 17 17 16 18 19 19 18 20 9 22 10 23
REMARK SMILES IDX 15 24 11 25 14 26 12 27 13 28
REMARK H PARENT 18 21
ROOT
ATOM      1  C   UNL     1      -2.912   0.306   0.318  1.00  0.00     0.141 C 
ATOM      2  C   UNL     1      -1.402   0.051   0.545  1.00  0.00     0.150 C 
ATOM      3  N   UNL     1      -0.777  -0.652  -0.596  1.00  0.00    -0.353 N 
ATOM      4  C   UNL     1      -1.645  -1.512  -1.382  1.00  0.00     0.118 C 
ATOM      5  C   UNL     1      -2.781  -0.687  -2.005  1.00  0.00     0.029 C 
ATOM      6  C   UNL     1      -3.208   0.546  -1.177  1.00  0.00     0.036 C 
ENDROOT
BRANCH   1   7
ATOM      7  O   UNL     1      -3.641  -0.855   0.764  1.00  0.00    -0.379 OA
ATOM      8  C   UNL     1      -4.949  -0.545   1.231  1.00  0.00     0.195 C 
ENDBRANCH   1   7
BRANCH   6   9
ATOM      9  C   UNL     1      -2.537   1.826  -1.720  1.00  0.00     0.126 C 
BRANCH   9  10
ATOM     10  C   UNL     1      -3.078   3.030  -1.071  1.00  0.00     0.063 C 
ATOM     11  N   UNL     1      -3.525   3.959  -0.539  1.00  0.00    -0.198 NA
ENDBRANCH   9  10
ENDBRANCH   6   9
BRANCH   3  12
ATOM     12  C   UNL     1       0.542  -1.020  -0.314  1.00  0.00     0.140 A 
ATOM     13  N   UNL     1       1.327  -0.049   0.255  1.00  0.00    -0.230 NA
ATOM     14  C   UNL     1       1.163  -2.270  -0.564  1.00  0.00     0.062 A 
ATOM     15  C   UNL     1       2.635  -0.242   0.562  1.00  0.00     0.075 A 
ATOM     16  C   UNL     1       0.782  -3.546  -1.055  1.00  0.00     0.147 A 
ATOM     17  C   UNL     1       2.512  -2.439  -0.258  1.00  0.00     0.071 A 
ATOM     18  C   UNL     1       3.293  -1.437   0.308  1.00  0.00     0.057 A 
ATOM     19  N   UNL     1       1.788  -4.422  -1.103  1.00  0.00    -0.183 NA
ATOM     20  N   UNL     1       2.826  -3.721  -0.627  1.00  0.00    -0.278 N 
ATOM     21  H   UNL     1       3.727  -4.181  -0.560  1.00  0.00     0.190 HD
BRANCH  15  22
ATOM     22  C   UNL     1       3.312   0.918   1.175  1.00  0.00     0.000 A 
ATOM     23  C   UNL     1       2.994   2.230   0.767  1.00  0.00     0.013 A 
ATOM     24  C   UNL     1       4.281   0.766   2.184  1.00  0.00     0.013 A 
ATOM     25  C   UNL     1       3.628   3.341   1.328  1.00  0.00     0.040 A 
ATOM     26  C   UNL     1       4.917   1.877   2.748  1.00  0.00     0.040 A 
ATOM     27  C   UNL     1       4.587   3.153   2.312  1.00  0.00     0.123 A 
ATOM     28  F   UNL     1       5.201   4.215   2.848  1.00  0.00    -0.207 F 
ENDBRANCH  15  22
ENDBRANCH   3  12
TORSDOF 5
