MODEL        1USER    Run = 1USERUSER    Estimated Free Energy of Binding    =  -1.70 kcal/mol  [=(1)+(2)+(3)-(4)]USERUSER    (1) Final Intermolecular Energy     =  -6.18 kcal/molUSER        vdW + Hbond + desolv Energy     =  -8.32 kcal/molUSER        Electrostatic Energy            =  -0.00 kcal/molUSER        Moving Ligand-Fixed Receptor    =  -8.32 kcal/molUSER        Moving Ligand-Moving Receptor   =  +2.14 kcal/molUSER    (2) Final Total Internal Energy     =  -4.62 kcal/molUSER    (3) Torsional Free Energy           =  +4.47 kcal/molUSER    (4) Unbound System's Energy         =  -4.62 kcal/molUSERUSERREMARK SMILES CC1=NN=C2Cc3cc(-c4nc5ncccc5[nH]4)ccc3CN(CC[C@H]2n2c(O)nc3ncccc32)C[C@H](C)N1REMARK SMILES IDX 5 1 4 2 3 3 2 4 40 5 1 6 38 8 39 9 6 11 7 12 8 13 21 14 9 15REMARK SMILES IDX 20 16 19 17 22 18 23 19 24 20 25 21 37 23 10 25 11 26 18 27REMARK SMILES IDX 12 28 17 29 13 30 16 31 14 32 15 33 26 35 27 37 28 38 36 39REMARK SMILES IDX 30 40 35 41 31 42 34 43 32 44 33 45 29 46REMARK H PARENT 40 7 18 34 29 47REMARK Flexibility Score:   91.800USER                              x       y       z     vdW  Elec       q    TypeUSER                           _______ _______ _______ _____ _____    ______ ____ROOTATOM      1  C   UNL     1      40.820  45.965  23.926 -0.17 +0.00    +0.068 C  ENDROOTBRANCH   1   2ATOM      2  N   UNL     1      41.313  46.612  24.948 -0.07 -0.01    -0.156 NA BRANCH   2   3ATOM      3  N   UNL     1      42.623  46.277  25.298 -0.04 -0.01    -0.138 NA BRANCH   3   4ATOM      4  C   UNL     1      42.685  45.493  26.340 -0.04 +0.01    +0.122 C  ATOM      5  N   UNL     1      41.574  44.913  26.919 -0.03 -0.02    -0.369 N  ATOM      6  C   UNL     1      44.052  45.182  26.906 -0.01 +0.00    +0.089 C  ATOM      7  H   UNL     1      40.758  45.297  26.429 +0.04 +0.01    +0.162 HD BRANCH   5   8ATOM      8  C   UNL     1      41.458  43.452  27.001 -0.11 -0.00    +0.091 CG1ATOM      9  C   UNL     1      41.524  43.021  28.467 -0.15 +0.00    +0.032 C  ATOM     10  G   UNL     1      40.124  42.989  26.358 +0.00 +0.00    +0.000 G1 ENDBRANCH   5   8ENDBRANCH   3   4ENDBRANCH   2   3ENDBRANCH   1   2BRANCH   1  11ATOM     11  C   UNL     1      39.325  46.110  23.665 -0.28 +0.01    +0.091 C  BRANCH  11  12ATOM     12  C   UNL     1      38.774  45.084  22.686 -0.30 -0.00    -0.037 A  ATOM     13  C   UNL     1      38.538  45.481  21.357 -0.19 +0.00    +0.016 A  ATOM     14  C   UNL     1      38.421  43.772  23.084 -0.28 -0.00    -0.030 A  ATOM     15  C   UNL     1      37.982  44.599  20.424 -0.34 -0.00    +0.018 A  ATOM     16  C   UNL     1      37.910  42.879  22.129 -0.36 +0.00    +0.006 A  ATOM     17  C   UNL     1      37.699  43.289  20.811 -0.28 +0.00    +0.012 A  BRANCH  14  18ATOM     18  C   UNL     1      38.541  43.321  24.529 -0.23 +0.00    +0.120 C  BRANCH  18  19ATOM     19  N   UNL     1      39.953  43.398  24.948 -0.07 -0.00    -0.297 NA BRANCH  19  20ATOM     20  C   UNL     1      40.855  42.746  23.999 -0.14 +0.00    +0.087 C  BRANCH  20  21ATOM     21  C   UNL     1      41.197  43.622  22.785 -0.28 +0.00    +0.047 CG0ATOM     22  G   UNL     1      41.651  45.088  23.001 +0.00 +0.00    +0.000 G0 ENDBRANCH  20  21ENDBRANCH  19  20BRANCH  19  23ATOM     23  C   UNL     1      40.128  42.991  26.358 -0.17 -0.00    +0.109 CG1ATOM     24  G   UNL     1      41.465  43.448  26.997 +0.00 +0.00    +0.000 G1 ENDBRANCH  19  23ENDBRANCH  18  19ENDBRANCH  14  18BRANCH  15  25ATOM     25  C   UNL     1      37.666  45.035  19.067 -0.21 -0.02    +0.140 A  ATOM     26  N   UNL     1      36.549  44.802  18.402 -0.21 +0.05    -0.209 NA ATOM     27  N   UNL     1      38.510  45.836  18.328 -0.19 +0.06    -0.337 N  ATOM     28  C   UNL     1      36.684  45.464  17.212 -0.22 -0.07    +0.178 A  ATOM     29  C   UNL     1      37.900  46.128  17.137 -0.32 -0.03    +0.085 A  ATOM     30  N   UNL     1      35.762  45.501  16.224 -0.18 +0.15    -0.235 NA ATOM     31  C   UNL     1      38.262  46.897  16.038 -0.39 -0.01    +0.032 A  ATOM     32  C   UNL     1      36.115  46.251  15.160 -0.30 -0.08    +0.114 A  ATOM     33  C   UNL     1      37.312  46.949  15.019 -0.40 -0.01    +0.022 A  ATOM     34  H   UNL     1      39.405  46.180  18.644 +0.09 -0.02    +0.168 HD ENDBRANCH  15  25ENDBRANCH  11  12ENDBRANCH   1  11BRANCH   1  35ATOM     35  C   UNL     1      41.656  45.091  22.979 -0.15 +0.01    +0.140 CG0ATOM     36  G   UNL     1      41.191  43.625  22.785 +0.00 +0.00    +0.000 G0 BRANCH  35  37ATOM     37  N   UNL     1      42.042  45.820  21.768 -0.13 -0.05    -0.284 N  ATOM     38  C   UNL     1      42.633  47.047  21.648 -0.16 +0.06    +0.297 A  ATOM     39  C   UNL     1      41.763  45.398  20.481 -0.29 +0.02    +0.091 A  ATOM     40  N   UNL     1      42.709  47.474  20.416 -0.26 -0.02    -0.175 NA ATOM     41  C   UNL     1      41.204  44.240  19.934 -0.28 +0.00    +0.032 A  ATOM     42  C   UNL     1      42.141  46.473  19.679 -0.32 +0.03    +0.181 A  ATOM     43  C   UNL     1      41.019  44.262  18.556 -0.23 +0.00    +0.022 A  ATOM     44  N   UNL     1      41.944  46.510  18.346 -0.33 -0.00    -0.235 NA ATOM     45  C   UNL     1      41.380  45.394  17.836 -0.30 +0.00    +0.114 A  BRANCH  38  46ATOM     46  O   UNL     1      43.100  47.766  22.646 -0.17 -0.09    -0.480 OA ATOM     47  H   UNL     1      42.699  47.321  23.416 +0.13 +0.05    +0.296 HD ENDBRANCH  38  46ENDBRANCH  35  37ENDBRANCH   1  35TORSDOF 3TERENDMDL