MODEL        7USER    Run = 7USERUSER    Estimated Free Energy of Binding    = -11.42 kcal/mol  [=(1)+(2)+(3)-(4)]USERUSER    (1) Final Intermolecular Energy     = -13.80 kcal/molUSER        vdW + Hbond + desolv Energy     = -13.54 kcal/molUSER        Electrostatic Energy            =  -0.26 kcal/molUSER        Moving Ligand-Fixed Receptor    = -13.80 kcal/molUSER        Moving Ligand-Moving Receptor   =  +0.00 kcal/molUSER    (2) Final Total Internal Energy     =  -1.11 kcal/molUSER    (3) Torsional Free Energy           =  +2.39 kcal/molUSER    (4) Unbound System's Energy         =  -1.11 kcal/molUSERUSERREMARK SMILES CNC(=O)c1cc(-c2nc3ncccc3[nH]2)ccc1CN1CC[C@@H](n2c(O)nc3ncccc32)[C@@H](CN2CCOCC2)C1REMARK SMILES IDX 21 1 22 2 23 3 24 4 35 5 43 6 20 7 19 8 5 9 6 10 7 11 18 12REMARK SMILES IDX 17 13 3 14 2 15 1 16 4 18 8 19 9 20 16 21 10 22 15 23 11 24REMARK SMILES IDX 14 25 12 26 13 27 36 29 37 30 38 31 42 32 39 33 41 34 40 35REMARK SMILES IDX 25 36 26 37 34 38 28 39 33 40 29 41 32 42 30 43 31 44 27 45REMARK H PARENT 2 17 16 28 27 46USER                              x       y       z     vdW  Elec       q    TypeUSER                           _______ _______ _______ _____ _____    ______ ____ROOTATOM      1  N   UNL     1      34.888  44.862  15.092 -0.10 +0.17    -0.299 NA ATOM      2  C   UNL     1      35.203  46.289  15.099 -0.29 -0.09    +0.087 C  ATOM      3  C   UNL     1      36.626  46.584  14.633 -0.45 -0.03    +0.041 C  ATOM      4  C   UNL     1      37.700  45.781  15.397 -0.36 -0.04    +0.099 C  ATOM      5  C   UNL     1      37.146  44.604  16.244 -0.38 -0.01    +0.040 C  ATOM      6  C   UNL     1      35.986  43.968  15.462 -0.37 -0.04    +0.092 C  ENDROOTBRANCH   1   7ATOM      7  C   UNL     1      33.641  44.546  15.800 -0.29 -0.07    +0.120 C  BRANCH   7   8ATOM      8  C   UNL     1      32.416  45.116  15.113 -0.34 +0.01    -0.021 A  ATOM      9  C   UNL     1      31.106  44.675  15.387 -0.35 -0.02    +0.045 A  ATOM     10  C   UNL     1      30.012  45.171  14.654 -0.30 -0.02    +0.026 A  ATOM     11  C   UNL     1      30.194  46.140  13.662 -0.53 -0.01    +0.018 A  ATOM     12  C   UNL     1      32.586  46.103  14.129 -0.19 -0.01    +0.006 A  ATOM     13  C   UNL     1      31.491  46.610  13.422 -0.20 -0.01    +0.012 A  BRANCH   9  14ATOM     14  C   UNL     1      30.776  43.663  16.424 -0.19 -0.09    +0.251 C  ATOM     15  N   UNL     1      31.357  42.427  16.256 -0.11 +0.17    -0.355 N  ATOM     16  C   UNL     1      31.210  41.396  17.251 -0.28 -0.04    +0.143 C  ATOM     17  H   UNL     1      32.069  42.315  15.550 -0.39 -0.12    +0.163 HD ATOM     18  O   UNL     1      30.112  43.991  17.401 -0.15 +0.03    -0.269 OA ENDBRANCH   9  14BRANCH  11  19ATOM     19  C   UNL     1      29.078  46.679  12.879 -0.29 -0.09    +0.140 A  ATOM     20  N   UNL     1      29.175  47.587  11.923 -0.69 +0.05    -0.209 NA ATOM     21  N   UNL     1      27.763  46.283  13.025 -0.11 +0.28    -0.337 N  ATOM     22  C   UNL     1      27.903  47.788  11.466 -0.32 -0.08    +0.178 A  ATOM     23  C   UNL     1      26.995  46.982  12.135 -0.37 -0.04    +0.085 A  ATOM     24  N   UNL     1      27.550  48.649  10.487 -0.29 +0.13    -0.235 NA ATOM     25  C   UNL     1      25.635  46.994  11.842 -0.32 -0.01    +0.032 A  ATOM     26  C   UNL     1      26.229  48.659  10.209 -0.31 -0.09    +0.114 A  ATOM     27  C   UNL     1      25.259  47.879  10.833 -0.28 -0.02    +0.022 A  ATOM     28  H   UNL     1      27.430  45.579  13.667 -0.29 -0.18    +0.168 HD ENDBRANCH  11  19ENDBRANCH   7   8ENDBRANCH   1   7BRANCH   5  29ATOM     29  C   UNL     1      36.784  44.967  17.707 -0.34 -0.03    +0.091 C  BRANCH  29  30ATOM     30  N   UNL     1      35.457  44.494  18.142 -0.12 +0.10    -0.298 NA ATOM     31  C   UNL     1      35.356  43.017  18.230 -0.34 -0.03    +0.113 C  ATOM     32  C   UNL     1      35.101  45.048  19.471 -0.18 -0.03    +0.113 C  ATOM     33  C   UNL     1      36.096  42.398  19.429 -0.21 -0.02    +0.175 C  ATOM     34  C   UNL     1      35.853  44.401  20.647 -0.07 -0.01    +0.175 C  ATOM     35  O   UNL     1      35.663  42.981  20.664 -0.25 -0.01    -0.379 OA ENDBRANCH  29  30ENDBRANCH   5  29BRANCH   4  36ATOM     36  N   UNL     1      38.713  46.576  16.081 -0.20 +0.09    -0.289 N  ATOM     37  C   UNL     1      39.046  47.860  15.725 -0.26 -0.12    +0.296 A  ATOM     38  C   UNL     1      39.536  46.238  17.132 -0.39 -0.02    +0.091 A  ATOM     39  N   UNL     1      39.991  48.378  16.456 -0.39 +0.05    -0.175 NA ATOM     40  C   UNL     1      39.724  45.102  17.923 -0.36 -0.00    +0.032 A  ATOM     41  C   UNL     1      40.311  47.384  17.334 -0.35 -0.03    +0.181 A  ATOM     42  C   UNL     1      40.712  45.198  18.902 -0.43 +0.00    +0.022 A  ATOM     43  N   UNL     1      41.272  47.483  18.279 -0.36 +0.01    -0.235 NA ATOM     44  C   UNL     1      41.434  46.378  19.033 -0.41 +0.00    +0.114 A  BRANCH  37  45ATOM     45  O   UNL     1      38.494  48.527  14.731 -0.20 +0.26    -0.480 OA ATOM     46  H   UNL     1      38.485  49.432  15.094 -0.16 -0.24    +0.296 HD ENDBRANCH  37  45ENDBRANCH   4  36TORSDOF 8TERENDMDL