REMARK SMILES CC1=NN=C2Cc3cc(-c4nc5ncccc5[nH]4)ccc3CN(CC[C@H]2n2c(O)nc3ncccc32)C[C@H](C)N1
REMARK SMILES IDX 5 1 4 2 3 3 2 4 40 5 1 6 38 8 39 9 6 11 7 12 8 13 21 14 9 15
REMARK SMILES IDX 20 16 19 17 22 18 23 19 24 20 25 21 37 23 10 25 11 26 18 27
REMARK SMILES IDX 12 28 17 29 13 30 16 31 14 32 15 33 26 35 27 37 28 38 36 39
REMARK SMILES IDX 30 40 35 41 31 42 34 43 32 44 33 45 29 46
REMARK H PARENT 40 7 18 34 29 47
REMARK Flexibility Score:   91.800
ROOT
ATOM      1  C   UNL     1      -1.036   0.767   0.223  1.00  0.00     0.068 C 
ENDROOT
BRANCH   1   2
ATOM      2  N   UNL     1      -0.472   0.546  -0.934  1.00  0.00    -0.156 NA
BRANCH   2   3
ATOM      3  N   UNL     1      -1.341   0.480  -2.025  1.00  0.00    -0.138 NA
BRANCH   3   4
ATOM      4  C   UNL     1      -1.593  -0.746  -2.399  1.00  0.00     0.122 C 
ATOM      5  N   UNL     1      -1.095  -1.855  -1.745  1.00  0.00    -0.369 N 
ATOM      6  C   UNL     1      -2.509  -0.945  -3.585  1.00  0.00     0.089 C 
ATOM      7  H   UNL     1      -0.459  -1.503  -1.020  1.00  0.00     0.162 HD
BRANCH   5   8
ATOM      8  C   UNL     1      -2.009  -2.844  -1.161  1.00  0.00     0.091 CG1
ATOM      9  C   UNL     1      -1.938  -4.139  -1.972  1.00  0.00     0.032 C 
ATOM     10  G   UNL     1      -1.629  -3.108   0.319  1.00  0.00     0.000 G1
ENDBRANCH   5   8
ENDBRANCH   3   4
ENDBRANCH   2   3
ENDBRANCH   1   2
BRANCH   1  11
ATOM     11  C   UNL     1      -0.125   0.817   1.444  1.00  0.00     0.091 C 
BRANCH  11  12
ATOM     12  C   UNL     1       0.982  -0.227   1.423  1.00  0.00    -0.037 A 
ATOM     13  C   UNL     1       2.242   0.139   0.915  1.00  0.00     0.016 A 
ATOM     14  C   UNL     1       0.766  -1.567   1.824  1.00  0.00    -0.030 A 
ATOM     15  C   UNL     1       3.284  -0.790   0.819  1.00  0.00     0.018 A 
ATOM     16  C   UNL     1       1.831  -2.480   1.771  1.00  0.00     0.006 A 
ATOM     17  C   UNL     1       3.079  -2.091   1.278  1.00  0.00     0.012 A 
BRANCH  14  18
ATOM     18  C   UNL     1      -0.602  -2.052   2.269  1.00  0.00     0.120 C 
BRANCH  18  19
ATOM     19  N   UNL     1      -1.560  -1.894   1.159  1.00  0.00    -0.297 NA
BRANCH  19  20
ATOM     20  C   UNL     1      -2.853  -1.375   1.605  1.00  0.00     0.087 C 
BRANCH  20  21
ATOM     21  C   UNL     1      -3.407  -0.264   0.702  1.00  0.00     0.047 CG0
ATOM     22  G   UNL     1      -2.544   0.991   0.414  1.00  0.00     0.000 G0
ENDBRANCH  20  21
ENDBRANCH  19  20
BRANCH  19  23
ATOM     23  C   UNL     1      -1.629  -3.108   0.319  1.00  0.00     0.109 CG1
ATOM     24  G   UNL     1      -2.009  -2.844  -1.161  1.00  0.00     0.000 G1
ENDBRANCH  19  23
ENDBRANCH  18  19
ENDBRANCH  14  18
BRANCH  15  25
ATOM     25  C   UNL     1       4.565  -0.429   0.220  1.00  0.00     0.140 A 
ATOM     26  N   UNL     1       5.765  -0.747   0.669  1.00  0.00    -0.209 NA
ATOM     27  N   UNL     1       4.662   0.255  -0.973  1.00  0.00    -0.337 N 
ATOM     28  C   UNL     1       6.647  -0.254  -0.254  1.00  0.00     0.178 A 
ATOM     29  C   UNL     1       5.986   0.374  -1.300  1.00  0.00     0.085 A 
ATOM     30  N   UNL     1       7.993  -0.365  -0.193  1.00  0.00    -0.235 NA
ATOM     31  C   UNL     1       6.661   0.932  -2.379  1.00  0.00     0.032 A 
ATOM     32  C   UNL     1       8.645   0.175  -1.244  1.00  0.00     0.114 A 
ATOM     33  C   UNL     1       8.049   0.812  -2.329  1.00  0.00     0.022 A 
ATOM     34  H   UNL     1       3.877   0.567  -1.526  1.00  0.00     0.168 HD
ENDBRANCH  15  25
ENDBRANCH  11  12
ENDBRANCH   1  11
BRANCH   1  35
ATOM     35  C   UNL     1      -2.544   0.991   0.414  1.00  0.00     0.140 CG0
ATOM     36  G   UNL     1      -3.407  -0.264   0.702  1.00  0.00     0.000 G0
BRANCH  35  37
ATOM     37  N   UNL     1      -2.817   2.174   1.234  1.00  0.00    -0.284 N 
ATOM     38  C   UNL     1      -3.164   2.250   2.555  1.00  0.00     0.297 A 
ATOM     39  C   UNL     1      -2.864   3.467   0.748  1.00  0.00     0.091 A 
ATOM     40  N   UNL     1      -3.481   3.455   2.945  1.00  0.00    -0.175 NA
ATOM     41  C   UNL     1      -2.592   4.053  -0.491  1.00  0.00     0.032 A 
ATOM     42  C   UNL     1      -3.332   4.220   1.822  1.00  0.00     0.181 A 
ATOM     43  C   UNL     1      -2.860   5.415  -0.577  1.00  0.00     0.022 A 
ATOM     44  N   UNL     1      -3.615   5.536   1.740  1.00  0.00    -0.235 NA
ATOM     45  C   UNL     1      -3.370   6.082   0.530  1.00  0.00     0.114 A 
BRANCH  38  46
ATOM     46  O   UNL     1      -3.188   1.236   3.393  1.00  0.00    -0.480 OA
ATOM     47  H   UNL     1      -3.442   1.673   4.227  1.00  0.00     0.296 HD
ENDBRANCH  38  46
ENDBRANCH  35  37
ENDBRANCH   1  35
TORSDOF 3
