MODEL        2USER    Run = 2USERUSER    Estimated Free Energy of Binding    =  -9.03 kcal/mol  [=(1)+(2)+(3)-(4)]USERUSER    (1) Final Intermolecular Energy     = -12.01 kcal/molUSER        vdW + Hbond + desolv Energy     = -11.64 kcal/molUSER        Electrostatic Energy            =  -0.37 kcal/molUSER        Moving Ligand-Fixed Receptor    = -12.01 kcal/molUSER        Moving Ligand-Moving Receptor   =  +0.00 kcal/molUSER    (2) Final Total Internal Energy     =  -2.48 kcal/molUSER    (3) Torsional Free Energy           =  +2.98 kcal/molUSER    (4) Unbound System's Energy         =  -2.48 kcal/molUSERUSERREMARK SMILES C[C@@H]1C[C@@H](n2c(O)nc3ncccc32)CCN1Cc1ccc(C(=O)c2c(O)ccc(OC(F)(F)F)c2N2CCOCC2)cc1REMARK SMILES IDX 19 1 20 2 21 3 22 4 43 5 44 6 18 7 17 8 2 9 3 10 4 11 16 12REMARK SMILES IDX 15 13 1 14 5 15 6 16 14 17 8 18 13 19 9 20 12 21 10 22 11 23REMARK SMILES IDX 7 24 23 26 24 27 25 28 26 29 36 30 28 31 30 32 29 33 27 34REMARK SMILES IDX 37 36 38 37 42 38 39 39 41 40 40 41 31 42 32 43 33 44 34 45REMARK SMILES IDX 35 46REMARK H PARENT 7 25 27 35USER                              x       y       z     vdW  Elec       q    TypeUSER                           _______ _______ _______ _____ _____    ______ ____ROOTATOM      1  C   UNL     1      37.942  44.788  19.439 -0.33 +0.00    -0.034 A  ATOM      2  C   UNL     1      37.609  44.708  20.800 -0.28 +0.00    +0.006 A  ATOM      3  C   UNL     1      38.609  44.632  21.772 -0.34 +0.00    +0.012 A  ATOM      4  C   UNL     1      39.954  44.621  21.392 -0.29 +0.00    +0.023 A  ATOM      5  C   UNL     1      40.294  44.740  20.039 -0.38 +0.00    +0.012 A  ATOM      6  C   UNL     1      39.294  44.818  19.069 -0.40 -0.00    +0.006 A  ENDROOTBRANCH   1   7ATOM      7  C   UNL     1      36.851  44.849  18.391 -0.32 -0.03    +0.120 C  BRANCH   7   8ATOM      8  N   UNL     1      36.211  43.540  18.151 -0.12 +0.07    -0.296 NA ATOM      9  C   UNL     1      34.943  43.422  18.899 -0.39 -0.01    +0.056 C  ATOM     10  C   UNL     1      33.913  42.511  18.216 -0.42 -0.01    +0.044 C  ATOM     11  C   UNL     1      33.623  42.922  16.763 -0.35 -0.04    +0.095 C  ATOM     12  C   UNL     1      36.104  43.226  16.719 -0.38 -0.03    +0.087 C  ATOM     13  C   UNL     1      34.785  43.671  16.103 -0.39 -0.02    +0.041 C  ATOM     14  C   UNL     1      35.243  42.880  20.303 -0.46 +0.00    +0.024 C  BRANCH  11  15ATOM     15  N   UNL     1      32.327  43.573  16.600 -0.13 +0.12    -0.289 N  ATOM     16  C   UNL     1      32.138  44.931  16.648 -0.07 -0.12    +0.296 A  ATOM     17  C   UNL     1      31.096  43.017  16.333 -0.26 -0.04    +0.091 A  ATOM     18  N   UNL     1      30.905  45.298  16.445 -0.78 +0.03    -0.175 NA ATOM     19  C   UNL     1      30.602  41.721  16.162 -0.29 -0.01    +0.032 A  ATOM     20  C   UNL     1      30.241  44.121  16.242 -0.18 -0.07    +0.181 A  ATOM     21  C   UNL     1      29.238  41.617  15.894 -0.32 -0.01    +0.022 A  ATOM     22  N   UNL     1      28.919  44.028  15.982 -0.16 +0.11    -0.235 NA ATOM     23  C   UNL     1      28.467  42.770  15.815 -0.16 -0.07    +0.114 A  BRANCH  16  24ATOM     24  O   UNL     1      33.093  45.813  16.866 -0.10 +0.45    -0.480 OA ATOM     25  H   UNL     1      32.801  46.556  16.305 -0.28 -0.61    +0.296 HD ENDBRANCH  16  24ENDBRANCH  11  15ENDBRANCH   7   8ENDBRANCH   1   7BRANCH   4  26ATOM     26  C   UNL     1      41.051  44.536  22.389 -0.18 +0.01    +0.198 C  ATOM     27  O   UNL     1      41.228  43.482  23.005 -0.15 -0.01    -0.288 OA BRANCH  26  28ATOM     28  C   UNL     1      42.014  45.642  22.620 -0.16 +0.01    +0.091 A  ATOM     29  C   UNL     1      43.346  45.410  22.231 -0.16 +0.04    +0.129 A  ATOM     30  C   UNL     1      41.623  46.881  23.190 -0.18 +0.01    +0.095 A  ATOM     31  C   UNL     1      44.294  46.419  22.309 -0.22 +0.03    +0.051 A  ATOM     32  C   UNL     1      42.629  47.870  23.298 -0.25 +0.03    +0.153 A  ATOM     33  C   UNL     1      43.932  47.657  22.824 -0.29 +0.01    +0.053 A  BRANCH  29  34ATOM     34  O   UNL     1      43.783  44.203  21.750 +0.06 -0.21    -0.507 OA ATOM     35  H   UNL     1      43.218  43.502  22.147 +0.11 +0.04    +0.293 HD ENDBRANCH  29  34BRANCH  30  36ATOM     36  N   UNL     1      40.307  47.055  23.650 -0.09 -0.04    -0.363 N  ATOM     37  C   UNL     1      39.812  48.411  23.966 -0.27 +0.02    +0.145 C  ATOM     38  C   UNL     1      39.883  46.061  24.664 -0.15 +0.01    +0.145 C  ATOM     39  C   UNL     1      38.279  48.361  24.102 -0.24 +0.03    +0.181 C  ATOM     40  C   UNL     1      38.350  46.110  24.815 -0.24 +0.02    +0.181 C  ATOM     41  O   UNL     1      37.884  47.436  25.130 -0.46 -0.04    -0.378 OA ENDBRANCH  30  36BRANCH  32  42ATOM     42  O   UNL     1      42.332  49.094  23.842 -0.71 -0.12    -0.404 OA BRANCH  42  43ATOM     43  C   UNL     1      42.741  49.172  25.204 -0.12 +0.09    +0.573 C  ATOM     44  F   UNL     1      43.063  47.929  25.627 -0.04 -0.01    -0.132 F  ATOM     45  F   UNL     1      43.820  49.968  25.370 -0.16 -0.02    -0.132 F  ATOM     46  F   UNL     1      41.726  49.623  25.974 -0.15 -0.01    -0.132 F  ENDBRANCH  42  43ENDBRANCH  32  42ENDBRANCH  26  28ENDBRANCH   4  26TORSDOF 10TERENDMDL