REMARK SMILES C[C@@H]1C[C@@H](n2c(O)nc3ncccc32)CCN1Cc1ccc(C(=O)c2c(O)ccc(OC(F)(F)F)c2N2CCOCC2)cc1
REMARK SMILES IDX 19 1 20 2 21 3 22 4 43 5 44 6 18 7 17 8 2 9 3 10 4 11 16 12
REMARK SMILES IDX 15 13 1 14 5 15 6 16 14 17 8 18 13 19 9 20 12 21 10 22 11 23
REMARK SMILES IDX 7 24 23 26 24 27 25 28 26 29 36 30 28 31 30 32 29 33 27 34
REMARK SMILES IDX 37 36 38 37 42 38 39 39 41 40 40 41 31 42 32 43 33 44 34 45
REMARK SMILES IDX 35 46
REMARK H PARENT 7 25 27 35
ROOT
ATOM      1  C   UNL     1       0.675   1.614  -0.558  1.00  0.00    -0.034 A 
ATOM      2  C   UNL     1      -0.472   1.568  -1.364  1.00  0.00     0.006 A 
ATOM      3  C   UNL     1      -1.662   2.164  -0.941  1.00  0.00     0.012 A 
ATOM      4  C   UNL     1      -1.721   2.801   0.302  1.00  0.00     0.023 A 
ATOM      5  C   UNL     1      -0.570   2.884   1.095  1.00  0.00     0.012 A 
ATOM      6  C   UNL     1       0.619   2.290   0.669  1.00  0.00     0.006 A 
ENDROOT
BRANCH   1   7
ATOM      7  C   UNL     1       1.955   0.947  -1.016  1.00  0.00     0.120 C 
BRANCH   7   8
ATOM      8  N   UNL     1       1.811  -0.512  -1.193  1.00  0.00    -0.296 NA
ATOM      9  C   UNL     1       2.876  -1.050  -2.064  1.00  0.00     0.056 C 
ATOM     10  C   UNL     1       3.245  -2.507  -1.748  1.00  0.00     0.044 C 
ATOM     11  C   UNL     1       3.623  -2.721  -0.273  1.00  0.00     0.095 C 
ATOM     12  C   UNL     1       1.658  -1.217   0.088  1.00  0.00     0.087 C 
ATOM     13  C   UNL     1       2.980  -1.699   0.670  1.00  0.00     0.041 C 
ATOM     14  C   UNL     1       2.420  -0.952  -3.526  1.00  0.00     0.024 C 
BRANCH  11  15
ATOM     15  N   UNL     1       5.057  -2.898  -0.068  1.00  0.00    -0.289 N 
ATOM     16  C   UNL     1       5.657  -4.111   0.158  1.00  0.00     0.296 A 
ATOM     17  C   UNL     1       6.067  -1.962  -0.098  1.00  0.00     0.091 A 
ATOM     18  N   UNL     1       6.952  -4.042   0.282  1.00  0.00    -0.175 NA
ATOM     19  C   UNL     1       6.141  -0.579  -0.279  1.00  0.00     0.032 A 
ATOM     20  C   UNL     1       7.227  -2.713   0.121  1.00  0.00     0.181 A 
ATOM     21  C   UNL     1       7.418  -0.024  -0.234  1.00  0.00     0.022 A 
ATOM     22  N   UNL     1       8.468  -2.182   0.165  1.00  0.00    -0.235 NA
ATOM     23  C   UNL     1       8.515  -0.848  -0.018  1.00  0.00     0.114 A 
BRANCH  16  24
ATOM     24  O   UNL     1       5.017  -5.260   0.237  1.00  0.00    -0.480 OA
ATOM     25  H   UNL     1       5.753  -5.879   0.404  1.00  0.00     0.296 HD
ENDBRANCH  16  24
ENDBRANCH  11  15
ENDBRANCH   7   8
ENDBRANCH   1   7
BRANCH   4  26
ATOM     26  C   UNL     1      -2.965   3.443   0.797  1.00  0.00     0.198 C 
ATOM     27  O   UNL     1      -2.886   4.448   1.507  1.00  0.00    -0.288 OA
BRANCH  26  28
ATOM     28  C   UNL     1      -4.319   2.981   0.401  1.00  0.00     0.091 A 
ATOM     29  C   UNL     1      -5.230   3.973  -0.007  1.00  0.00     0.129 A 
ATOM     30  C   UNL     1      -4.687   1.611   0.413  1.00  0.00     0.095 A 
ATOM     31  C   UNL     1      -6.482   3.630  -0.495  1.00  0.00     0.051 A 
ATOM     32  C   UNL     1      -5.989   1.303  -0.047  1.00  0.00     0.153 A 
ATOM     33  C   UNL     1      -6.856   2.293  -0.534  1.00  0.00     0.053 A 
BRANCH  29  34
ATOM     34  O   UNL     1      -4.944   5.313   0.041  1.00  0.00    -0.507 OA
ATOM     35  H   UNL     1      -4.149   5.428   0.610  1.00  0.00     0.293 HD
ENDBRANCH  29  34
BRANCH  30  36
ATOM     36  N   UNL     1      -3.788   0.650   0.907  1.00  0.00    -0.363 N 
ATOM     37  C   UNL     1      -3.684  -0.667   0.246  1.00  0.00     0.145 C 
ATOM     38  C   UNL     1      -3.780   0.530   2.384  1.00  0.00     0.145 C 
ATOM     39  C   UNL     1      -2.413  -1.376   0.748  1.00  0.00     0.181 C 
ATOM     40  C   UNL     1      -2.529  -0.255   2.824  1.00  0.00     0.181 C 
ATOM     41  O   UNL     1      -2.445  -1.538   2.177  1.00  0.00    -0.378 OA
ENDBRANCH  30  36
BRANCH  32  42
ATOM     42  O   UNL     1      -6.422   0.002  -0.062  1.00  0.00    -0.404 OA
BRANCH  42  43
ATOM     43  C   UNL     1      -7.414  -0.230   0.933  1.00  0.00     0.573 C 
ATOM     44  F   UNL     1      -7.509  -1.563   1.140  1.00  0.00    -0.132 F 
ATOM     45  F   UNL     1      -7.107   0.360   2.109  1.00  0.00    -0.132 F 
ATOM     46  F   UNL     1      -8.618   0.212   0.508  1.00  0.00    -0.132 F 
ENDBRANCH  42  43
ENDBRANCH  32  42
ENDBRANCH  26  28
ENDBRANCH   4  26
TORSDOF 10
