MODEL        10USER    Run = 10USERUSER    Estimated Free Energy of Binding    = -13.72 kcal/mol  [=(1)+(2)+(3)-(4)]USERUSER    (1) Final Intermolecular Energy     = -15.81 kcal/molUSER        vdW + Hbond + desolv Energy     = -15.64 kcal/molUSER        Electrostatic Energy            =  -0.17 kcal/molUSER        Moving Ligand-Fixed Receptor    = -15.81 kcal/molUSER        Moving Ligand-Moving Receptor   =  +0.00 kcal/molUSER    (2) Final Total Internal Energy     =  -2.05 kcal/molUSER    (3) Torsional Free Energy           =  +2.09 kcal/molUSER    (4) Unbound System's Energy         =  -2.05 kcal/molUSERUSERREMARK SMILES O=C(c1ccc(-c2nc3ccccc3nc2-c2ccc(CN3CCC(n4c(O)nc5ccccc54)CC3)cc2)cc1)N1CCOCC1REMARK SMILES IDX 17 1 18 2 19 3 20 4 38 5 39 6 16 7 7 8 8 9 9 10 15 11 10 12REMARK SMILES IDX 14 13 11 14 13 15 12 16 6 17 3 18 4 19 41 20 5 21 40 22 2 23REMARK SMILES IDX 42 24 43 25 47 26 44 27 46 28 45 29 1 30 21 31 22 32 23 33REMARK SMILES IDX 37 34 24 35 36 36 25 37 26 38 27 39 35 40 29 41 34 42 30 43REMARK SMILES IDX 33 44 31 45 32 46 28 47REMARK H PARENT 28 48USER                              x       y       z     vdW  Elec       q    TypeUSER                           _______ _______ _______ _____ _____    ______ ____ROOTATOM      1  C   UNL     1      37.700  43.938  21.468 -0.38 +0.00    +0.002 A  ATOM      2  C   UNL     1      38.004  44.635  22.648 -0.34 +0.00    +0.011 A  ATOM      3  C   UNL     1      37.731  44.082  23.904 -0.31 +0.00    +0.006 A  ATOM      4  C   UNL     1      37.156  42.810  24.017 -0.37 -0.00    -0.034 A  ATOM      5  C   UNL     1      36.863  42.103  22.846 -0.49 +0.00    +0.006 A  ATOM      6  C   UNL     1      37.140  42.656  21.591 -0.43 +0.00    +0.011 A  ENDROOTBRANCH   1   7ATOM      7  C   UNL     1      37.964  44.508  20.137 -0.29 -0.00    +0.097 A  ATOM      8  C   UNL     1      37.119  44.385  19.022 -0.30 -0.01    +0.097 A  ATOM      9  N   UNL     1      37.420  44.994  17.839 -0.20 +0.06    -0.244 NA ATOM     10  C   UNL     1      38.568  45.694  17.775 -0.34 -0.02    +0.089 A  ATOM     11  N   UNL     1      39.131  45.209  20.062 -0.23 +0.00    -0.244 NA ATOM     12  C   UNL     1      38.925  46.324  16.588 -0.40 -0.01    +0.030 A  ATOM     13  C   UNL     1      39.427  45.800  18.891 -0.36 -0.01    +0.089 A  ATOM     14  C   UNL     1      40.106  47.058  16.480 -0.50 -0.00    +0.002 A  ATOM     15  C   UNL     1      40.601  46.534  18.775 -0.42 -0.00    +0.030 A  ATOM     16  C   UNL     1      40.948  47.165  17.579 -0.52 -0.00    +0.002 A  BRANCH   8  17ATOM     17  C   UNL     1      35.868  43.604  18.986 -0.36 -0.00    +0.002 A  ATOM     18  C   UNL     1      33.487  42.094  18.872 -0.38 -0.00    +0.040 A  ATOM     19  C   UNL     1      34.561  41.763  18.044 -0.36 -0.00    +0.014 A  ATOM     20  C   UNL     1      33.585  43.179  19.746 -0.35 +0.00    +0.014 A  ATOM     21  C   UNL     1      35.743  42.507  18.113 -0.19 -0.00    +0.011 A  ATOM     22  C   UNL     1      34.771  43.917  19.811 -0.40 -0.00    +0.011 A  BRANCH  18  23ATOM     23  C   UNL     1      32.204  41.358  18.792 -0.26 -0.01    +0.254 C  ATOM     24  N   UNL     1      31.233  41.789  17.898 -0.10 +0.06    -0.334 N  ATOM     25  C   UNL     1      31.459  42.717  16.782 -0.27 -0.05    +0.148 C  ATOM     26  C   UNL     1      29.936  41.115  17.896 -0.18 -0.01    +0.148 C  ATOM     27  C   UNL     1      30.543  42.391  15.598 -0.24 -0.10    +0.181 C  ATOM     28  C   UNL     1      28.858  42.006  17.276 -0.16 -0.03    +0.181 C  ATOM     29  O   UNL     1      29.148  42.425  15.933 -0.12 +0.19    -0.378 OA ATOM     30  O   UNL     1      32.052  40.389  19.533 -0.76 -0.05    -0.269 OA ENDBRANCH  18  23ENDBRANCH   8  17ENDBRANCH   1   7BRANCH   4  31ATOM     31  C   UNL     1      36.848  42.220  25.379 -0.38 -0.01    +0.120 C  BRANCH  31  32ATOM     32  N   UNL     1      36.487  43.175  26.426 -0.18 +0.04    -0.299 NA ATOM     33  C   UNL     1      35.069  43.501  26.515 -0.28 -0.01    +0.087 C  ATOM     34  C   UNL     1      37.183  43.027  27.691 -0.37 -0.02    +0.087 C  ATOM     35  C   UNL     1      34.602  43.925  27.910 -0.63 -0.01    +0.041 C  ATOM     36  C   UNL     1      37.079  44.337  28.467 -0.29 -0.01    +0.041 C  ATOM     37  C   UNL     1      35.621  44.761  28.699 -0.27 -0.02    +0.095 C  BRANCH  37  38ATOM     38  N   UNL     1      35.408  46.200  28.571 -0.24 +0.08    -0.291 N  ATOM     39  C   UNL     1      34.337  46.921  29.022 -0.17 -0.05    +0.295 A  ATOM     40  C   UNL     1      36.262  47.101  27.961 -0.25 -0.02    +0.072 A  ATOM     41  N   UNL     1      34.425  48.199  28.767 -0.22 +0.02    -0.195 NA ATOM     42  C   UNL     1      37.500  46.976  27.313 -0.29 -0.00    +0.029 A  ATOM     43  C   UNL     1      35.616  48.332  28.102 -0.30 -0.01    +0.092 A  ATOM     44  C   UNL     1      38.079  48.144  26.801 -0.29 -0.00    +0.002 A  ATOM     45  C   UNL     1      36.215  49.489  27.582 -0.29 -0.00    +0.031 A  ATOM     46  C   UNL     1      37.448  49.383  26.932 -0.29 +0.00    +0.002 A  BRANCH  39  47ATOM     47  O   UNL     1      33.295  46.417  29.647 -0.62 +0.04    -0.480 OA ATOM     48  H   UNL     1      33.518  46.604  30.578 -0.28 -0.17    +0.296 HD ENDBRANCH  39  47ENDBRANCH  37  38ENDBRANCH  31  32ENDBRANCH   4  31TORSDOF 7TERENDMDL