MODEL        2USER    Run = 2USERUSER    Estimated Free Energy of Binding    = -12.66 kcal/mol  [=(1)+(2)+(3)-(4)]USERUSER    (1) Final Intermolecular Energy     = -14.75 kcal/molUSER        vdW + Hbond + desolv Energy     = -14.68 kcal/molUSER        Electrostatic Energy            =  -0.07 kcal/molUSER        Moving Ligand-Fixed Receptor    = -14.75 kcal/molUSER        Moving Ligand-Moving Receptor   =  +0.00 kcal/molUSER    (2) Final Total Internal Energy     =  -1.67 kcal/molUSER    (3) Torsional Free Energy           =  +2.09 kcal/molUSER    (4) Unbound System's Energy         =  -1.67 kcal/molUSERUSERREMARK SMILES O=C(c1ccc(-c2nc3ccccc3nc2-c2ccc(CN3CCC(n4c(O)nc5ccccc54)CC3)cc2)cc1)N1CC(F)C1REMARK SMILES IDX 17 1 18 2 19 3 20 4 38 5 39 6 16 7 7 8 8 9 9 10 15 11 10 12REMARK SMILES IDX 14 13 11 14 13 15 12 16 6 17 3 18 4 19 41 20 5 21 40 22 2 23REMARK SMILES IDX 42 24 43 25 46 26 44 27 1 28 45 29 21 30 22 31 23 32 37 33REMARK SMILES IDX 24 34 36 35 25 36 26 37 27 38 35 39 29 40 34 41 30 42 33 43REMARK SMILES IDX 31 44 32 45 28 46REMARK H PARENT 28 47USER                              x       y       z     vdW  Elec       q    TypeUSER                           _______ _______ _______ _____ _____    ______ ____ROOTATOM      1  C   UNL     1      37.851  43.818  22.636 -0.35 +0.00    +0.002 A  ATOM      2  C   UNL     1      37.880  42.416  22.734 -0.39 +0.00    +0.011 A  ATOM      3  C   UNL     1      37.311  41.751  23.824 -0.30 +0.00    +0.006 A  ATOM      4  C   UNL     1      36.687  42.470  24.850 -0.38 +0.00    -0.034 A  ATOM      5  C   UNL     1      36.646  43.866  24.760 -0.26 +0.00    +0.006 A  ATOM      6  C   UNL     1      37.215  44.529  23.668 -0.22 +0.00    +0.011 A  ENDROOTBRANCH   1   7ATOM      7  C   UNL     1      38.440  44.494  21.466 -0.30 +0.00    +0.097 A  ATOM      8  C   UNL     1      37.806  44.668  20.227 -0.26 -0.00    +0.097 A  ATOM      9  N   UNL     1      38.451  45.247  19.176 -0.24 +0.02    -0.244 NA ATOM     10  C   UNL     1      39.711  45.672  19.379 -0.35 -0.00    +0.089 A  ATOM     11  N   UNL     1      39.711  44.945  21.669 -0.17 -0.01    -0.244 NA ATOM     12  C   UNL     1      40.408  46.275  18.339 -0.46 -0.00    +0.030 A  ATOM     13  C   UNL     1      40.341  45.527  20.635 -0.30 +0.00    +0.089 A  ATOM     14  C   UNL     1      41.713  46.739  18.511 -0.52 -0.00    +0.002 A  ATOM     15  C   UNL     1      41.641  45.993  20.798 -0.33 +0.00    +0.030 A  ATOM     16  C   UNL     1      42.332  46.598  19.748 -0.45 +0.00    +0.002 A  BRANCH   8  17ATOM     17  C   UNL     1      36.416  44.285  19.929 -0.38 -0.00    +0.002 A  ATOM     18  C   UNL     1      33.772  43.512  19.364 -0.39 -0.00    +0.040 A  ATOM     19  C   UNL     1      34.302  44.659  18.770 -0.39 -0.00    +0.014 A  ATOM     20  C   UNL     1      34.542  42.754  20.246 -0.16 +0.00    +0.014 A  ATOM     21  C   UNL     1      35.616  45.042  19.054 -0.25 -0.00    +0.011 A  ATOM     22  C   UNL     1      35.860  43.131  20.511 -0.44 -0.00    +0.011 A  BRANCH  18  23ATOM     23  C   UNL     1      32.385  43.084  19.080 -0.27 -0.02    +0.254 C  ATOM     24  N   UNL     1      32.234  42.026  18.202 -0.13 +0.06    -0.333 N  ATOM     25  C   UNL     1      31.007  41.239  18.083 -0.24 -0.02    +0.159 C  ATOM     26  C   UNL     1      33.099  40.851  18.087 -0.27 -0.04    +0.159 C  ATOM     27  C   UNL     1      31.878  40.093  17.544 -0.24 -0.05    +0.205 C  ATOM     28  O   UNL     1      31.450  43.654  19.632 -0.26 -0.01    -0.269 OA ATOM     29  F   UNL     1      31.653  38.869  18.083 -0.09 -0.02    -0.244 F  ENDBRANCH  18  23ENDBRANCH   8  17ENDBRANCH   1   7BRANCH   4  30ATOM     30  C   UNL     1      36.034  41.750  26.010 -0.43 -0.03    +0.120 C  BRANCH  30  31ATOM     31  N   UNL     1      35.949  42.546  27.248 -0.24 +0.08    -0.299 NA ATOM     32  C   UNL     1      34.845  43.518  27.194 -0.54 -0.02    +0.087 C  ATOM     33  C   UNL     1      37.252  43.142  27.577 -0.37 -0.02    +0.087 C  ATOM     34  C   UNL     1      34.900  44.511  28.355 -0.58 -0.01    +0.041 C  ATOM     35  C   UNL     1      37.289  44.664  27.473 -0.39 -0.01    +0.041 C  ATOM     36  C   UNL     1      36.232  45.280  28.394 -0.32 -0.02    +0.095 C  BRANCH  36  37ATOM     37  N   UNL     1      36.096  46.712  28.158 -0.21 +0.08    -0.291 N  ATOM     38  C   UNL     1      35.459  47.619  28.961 -0.23 -0.06    +0.295 A  ATOM     39  C   UNL     1      36.575  47.412  27.069 -0.25 -0.01    +0.072 A  ATOM     40  N   UNL     1      35.509  48.841  28.505 -0.23 +0.02    -0.195 NA ATOM     41  C   UNL     1      37.283  47.042  25.917 -0.35 -0.00    +0.029 A  ATOM     42  C   UNL     1      36.193  48.733  27.318 -0.31 -0.01    +0.092 A  ATOM     43  C   UNL     1      37.606  48.057  25.008 -0.37 +0.00    +0.002 A  ATOM     44  C   UNL     1      36.524  49.736  26.392 -0.38 +0.00    +0.031 A  ATOM     45  C   UNL     1      37.234  49.383  25.237 -0.42 +0.00    +0.002 A  BRANCH  38  46ATOM     46  O   UNL     1      34.849  47.330  30.092 -0.16 +0.09    -0.480 OA ATOM     47  H   UNL     1      34.874  46.357  30.075 -0.11 -0.08    +0.296 HD ENDBRANCH  38  46ENDBRANCH  36  37ENDBRANCH  30  31ENDBRANCH   4  30TORSDOF 7TERENDMDL