REMARK SMILES CS(=O)(=O)N1CCN(C(=O)c2ccc(-c3nc4ccccc4nc3-c3ccc(CN4CCC(n5c(O)nc6ccccc65)CC4)cc3)cc2)CC1
REMARK SMILES IDX 25 1 26 2 27 3 28 4 46 5 47 6 24 7 15 8 16 9 17 10 23 11
REMARK SMILES IDX 18 12 22 13 19 14 21 15 20 16 14 17 11 18 12 19 49 20 13 21
REMARK SMILES IDX 48 22 9 23 5 24 6 25 51 26 7 27 50 28 8 29 10 30 2 31 1 32
REMARK SMILES IDX 3 33 4 34 29 35 30 36 31 37 45 38 32 39 44 40 33 41 34 42
REMARK SMILES IDX 35 43 43 44 37 45 42 46 38 47 41 48 39 49 40 50 36 51
REMARK H PARENT 36 52
ROOT
ATOM      1  C   UNL     1      -0.446  -1.292   3.147  1.00  0.00     0.002 A 
ATOM      2  C   UNL     1      -0.383  -1.953   1.908  1.00  0.00     0.011 A 
ATOM      3  C   UNL     1      -1.499  -2.027   1.066  1.00  0.00     0.006 A 
ATOM      4  C   UNL     1      -2.721  -1.456   1.443  1.00  0.00    -0.034 A 
ATOM      5  C   UNL     1      -2.797  -0.793   2.673  1.00  0.00     0.006 A 
ATOM      6  C   UNL     1      -1.676  -0.711   3.506  1.00  0.00     0.011 A 
ENDROOT
BRANCH   1   7
ATOM      7  C   UNL     1       0.695  -1.265   4.089  1.00  0.00     0.097 A 
ATOM      8  C   UNL     1       2.033  -1.010   3.756  1.00  0.00     0.097 A 
ATOM      9  N   UNL     1       3.027  -1.100   4.686  1.00  0.00    -0.244 NA
ATOM     10  C   UNL     1       2.675  -1.414   5.946  1.00  0.00     0.089 A 
ATOM     11  N   UNL     1       0.348  -1.562   5.375  1.00  0.00    -0.244 NA
ATOM     12  C   UNL     1       3.654  -1.520   6.927  1.00  0.00     0.030 A 
ATOM     13  C   UNL     1       1.327  -1.640   6.293  1.00  0.00     0.089 A 
ATOM     14  C   UNL     1       3.327  -1.840   8.246  1.00  0.00     0.002 A 
ATOM     15  C   UNL     1       1.010  -1.956   7.610  1.00  0.00     0.030 A 
ATOM     16  C   UNL     1       1.999  -2.057   8.590  1.00  0.00     0.002 A 
BRANCH   8  17
ATOM     17  C   UNL     1       2.514  -0.598   2.428  1.00  0.00     0.002 A 
ATOM     18  C   UNL     1       3.519   0.203  -0.082  1.00  0.00     0.040 A 
ATOM     19  C   UNL     1       2.556   0.979   0.568  1.00  0.00     0.014 A 
ATOM     20  C   UNL     1       3.954  -0.992   0.495  1.00  0.00     0.014 A 
ATOM     21  C   UNL     1       2.060   0.583   1.815  1.00  0.00     0.011 A 
ATOM     22  C   UNL     1       3.473  -1.374   1.750  1.00  0.00     0.011 A 
BRANCH  18  23
ATOM     23  C   UNL     1       4.012   0.648  -1.410  1.00  0.00     0.253 C 
ATOM     24  N   UNL     1       8.226   0.890  -2.355  1.00  0.00    -0.199 NA
ATOM     25  C   UNL     1       7.684   1.339  -1.048  1.00  0.00     0.123 C 
ATOM     26  C   UNL     1       7.218   0.451  -3.362  1.00  0.00     0.123 C 
ATOM     27  C   UNL     1       6.435   0.530  -0.664  1.00  0.00     0.136 C 
ATOM     28  C   UNL     1       5.810   0.962  -3.036  1.00  0.00     0.136 C 
ATOM     29  N   UNL     1       5.377   0.617  -1.681  1.00  0.00    -0.336 N 
ATOM     30  O   UNL     1       3.184   1.042  -2.231  1.00  0.00    -0.269 OA
BRANCH  24  31
ATOM     31  S   UNL     1       9.659   1.589  -2.901  1.00  0.00     0.211 S 
ATOM     32  C   UNL     1       9.135   3.219  -3.405  1.00  0.00     0.176 C 
ATOM     33  O   UNL     1      10.539   1.739  -1.761  1.00  0.00    -0.213 OA
ATOM     34  O   UNL     1      10.074   0.866  -4.084  1.00  0.00    -0.213 OA
ENDBRANCH  24  31
ENDBRANCH  18  23
ENDBRANCH   8  17
ENDBRANCH   1   7
BRANCH   4  35
ATOM     35  C   UNL     1      -3.959  -1.630   0.585  1.00  0.00     0.120 C 
BRANCH  35  36
ATOM     36  N   UNL     1      -3.779  -1.244  -0.829  1.00  0.00    -0.299 NA
ATOM     37  C   UNL     1      -4.870  -1.817  -1.633  1.00  0.00     0.087 C 
ATOM     38  C   UNL     1      -3.597   0.200  -1.008  1.00  0.00     0.087 C 
ATOM     39  C   UNL     1      -5.259  -0.985  -2.851  1.00  0.00     0.041 C 
ATOM     40  C   UNL     1      -4.906   0.956  -1.212  1.00  0.00     0.041 C 
ATOM     41  C   UNL     1      -5.633   0.457  -2.471  1.00  0.00     0.095 C 
BRANCH  41  42
ATOM     42  N   UNL     1      -7.076   0.676  -2.425  1.00  0.00    -0.291 N 
ATOM     43  C   UNL     1      -7.956   0.206  -1.487  1.00  0.00     0.295 A 
ATOM     44  C   UNL     1      -7.822   1.395  -3.341  1.00  0.00     0.072 A 
ATOM     45  N   UNL     1      -9.196   0.545  -1.717  1.00  0.00    -0.195 NA
ATOM     46  C   UNL     1      -7.504   2.108  -4.505  1.00  0.00     0.029 A 
ATOM     47  C   UNL     1      -9.134   1.290  -2.867  1.00  0.00     0.092 A 
ATOM     48  C   UNL     1      -8.560   2.725  -5.191  1.00  0.00     0.002 A 
ATOM     49  C   UNL     1     -10.178   1.913  -3.570  1.00  0.00     0.031 A 
ATOM     50  C   UNL     1      -9.876   2.630  -4.733  1.00  0.00     0.002 A 
BRANCH  43  51
ATOM     51  O   UNL     1      -7.633  -0.514  -0.432  1.00  0.00    -0.480 OA
ATOM     52  H   UNL     1      -8.507  -0.634  -0.013  1.00  0.00     0.296 HD
ENDBRANCH  43  51
ENDBRANCH  41  42
ENDBRANCH  35  36
ENDBRANCH   4  35
TORSDOF 8
