MODEL        1USER    Run = 1USERUSER    Estimated Free Energy of Binding    = -13.36 kcal/mol  [=(1)+(2)+(3)-(4)]USERUSER    (1) Final Intermolecular Energy     = -15.74 kcal/molUSER        vdW + Hbond + desolv Energy     = -15.52 kcal/molUSER        Electrostatic Energy            =  -0.23 kcal/molUSER        Moving Ligand-Fixed Receptor    = -15.74 kcal/molUSER        Moving Ligand-Moving Receptor   =  +0.00 kcal/molUSER    (2) Final Total Internal Energy     =  -3.08 kcal/molUSER    (3) Torsional Free Energy           =  +2.39 kcal/molUSER    (4) Unbound System's Energy         =  -3.08 kcal/molUSERUSERREMARK SMILES CS(=O)(=O)N1CCN(C(=O)c2ccc(-c3nc4ccccc4nc3-c3ccc(CN4CCC(n5c(O)nc6ccccc65)CC4)cc3)cc2)CC1REMARK SMILES IDX 25 1 26 2 27 3 28 4 46 5 47 6 24 7 15 8 16 9 17 10 23 11REMARK SMILES IDX 18 12 22 13 19 14 21 15 20 16 14 17 11 18 12 19 49 20 13 21REMARK SMILES IDX 48 22 9 23 5 24 6 25 51 26 7 27 50 28 8 29 10 30 2 31 1 32REMARK SMILES IDX 3 33 4 34 29 35 30 36 31 37 45 38 32 39 44 40 33 41 34 42REMARK SMILES IDX 35 43 43 44 37 45 42 46 38 47 41 48 39 49 40 50 36 51REMARK H PARENT 36 52USER                              x       y       z     vdW  Elec       q    TypeUSER                           _______ _______ _______ _____ _____    ______ ____ROOTATOM      1  C   UNL     1      39.425  43.975  23.084 -0.24 +0.00    +0.002 A  ATOM      2  C   UNL     1      39.252  45.313  22.688 -0.29 +0.00    +0.011 A  ATOM      3  C   UNL     1      40.287  46.030  22.077 -0.22 +0.00    +0.006 A  ATOM      4  C   UNL     1      41.536  45.438  21.855 -0.25 -0.00    -0.034 A  ATOM      5  C   UNL     1      41.722  44.106  22.242 -0.27 +0.00    +0.006 A  ATOM      6  C   UNL     1      40.682  43.389  22.842 -0.26 +0.00    +0.011 A  ENDROOTBRANCH   1   7ATOM      7  C   UNL     1      38.375  43.218  23.800 -0.23 +0.01    +0.097 A  ATOM      8  C   UNL     1      37.160  42.777  23.256 -0.34 +0.01    +0.097 A  ATOM      9  N   UNL     1      36.215  42.166  24.027 -0.22 -0.01    -0.244 NA ATOM     10  C   UNL     1      36.502  41.974  25.328 -0.33 -0.01    +0.089 A  ATOM     11  N   UNL     1      38.662  42.998  25.116 -0.12 -0.00    -0.244 NA ATOM     12  C   UNL     1      35.568  41.358  26.153 -0.41 -0.01    +0.030 A  ATOM     13  C   UNL     1      37.735  42.386  25.873 -0.27 -0.01    +0.089 A  ATOM     14  C   UNL     1      35.831  41.137  27.506 -0.63 -0.00    +0.002 A  ATOM     15  C   UNL     1      37.989  42.160  27.222 -0.36 -0.00    +0.030 A  ATOM     16  C   UNL     1      37.047  41.538  28.043 -0.34 -0.00    +0.002 A  BRANCH   8  17ATOM     17  C   UNL     1      36.777  42.881  21.839 -0.43 +0.00    +0.002 A  ATOM     18  C   UNL     1      35.985  43.146  19.146 -0.33 -0.01    +0.040 A  ATOM     19  C   UNL     1      35.714  41.967  19.843 -0.32 -0.00    +0.014 A  ATOM     20  C   UNL     1      36.685  44.179  19.773 -0.38 -0.00    +0.014 A  ATOM     21  C   UNL     1      36.104  41.837  21.181 -0.52 +0.00    +0.011 A  ATOM     22  C   UNL     1      37.055  44.055  21.114 -0.39 +0.00    +0.011 A  BRANCH  18  23ATOM     23  C   UNL     1      35.568  43.243  17.724 -0.23 -0.07    +0.253 C  ATOM     24  N   UNL     1      32.156  45.584  16.464 -0.57 +0.12    -0.199 NA ATOM     25  C   UNL     1      32.125  44.739  17.684 -0.11 -0.02    +0.123 C  ATOM     26  C   UNL     1      33.396  45.494  15.641 -0.25 -0.12    +0.123 C  ATOM     27  C   UNL     1      33.524  44.628  18.311 -0.34 -0.05    +0.136 C  ATOM     28  C   UNL     1      34.208  44.232  15.950 -0.28 -0.07    +0.136 C  ATOM     29  N   UNL     1      34.517  44.085  17.373 -0.07 +0.13    -0.336 N  ATOM     30  O   UNL     1      36.170  42.558  16.898 -0.22 +0.09    -0.269 OA BRANCH  24  31ATOM     31  S   UNL     1      30.696  45.910  15.689 -0.46 -0.07    +0.211 S  ATOM     32  C   UNL     1      30.919  45.148  14.091 -0.39 -0.14    +0.176 C  ATOM     33  O   UNL     1      29.655  45.184  16.386 -0.38 +0.03    -0.213 OA ATOM     34  O   UNL     1      30.615  47.342  15.496 -0.88 +0.01    -0.213 OA ENDBRANCH  24  31ENDBRANCH  18  23ENDBRANCH   8  17ENDBRANCH   1   7BRANCH   4  35ATOM     35  C   UNL     1      42.692  46.245  21.296 -0.31 +0.03    +0.120 C  BRANCH  35  36ATOM     36  N   UNL     1      43.437  47.023  22.306 -0.16 -0.09    -0.299 NA ATOM     37  C   UNL     1      42.594  48.128  22.789 -0.32 +0.02    +0.087 C  ATOM     38  C   UNL     1      43.997  46.186  23.371 -0.15 +0.02    +0.087 C  ATOM     39  C   UNL     1      42.857  48.534  24.236 -0.37 +0.01    +0.041 C  ATOM     40  C   UNL     1      43.054  45.997  24.555 -0.09 +0.00    +0.041 C  ATOM     41  C   UNL     1      42.717  47.348  25.205 -0.13 +0.01    +0.095 C  BRANCH  41  42ATOM     42  N   UNL     1      41.440  47.342  25.914 -0.05 -0.02    -0.291 N  ATOM     43  C   UNL     1      41.206  46.918  27.194 -0.03 +0.03    +0.295 A  ATOM     44  C   UNL     1      40.222  47.755  25.405 -0.21 +0.01    +0.072 A  ATOM     45  N   UNL     1      39.954  47.010  27.555 -0.40 -0.02    -0.195 NA ATOM     46  C   UNL     1      39.815  48.285  24.173 -0.32 +0.00    +0.029 A  ATOM     47  C   UNL     1      39.324  47.533  26.454 -0.19 +0.00    +0.092 A  ATOM     48  C   UNL     1      38.455  48.592  24.023 -0.36 +0.00    +0.002 A  ATOM     49  C   UNL     1      37.966  47.845  26.283 -0.31 +0.00    +0.031 A  ATOM     50  C   UNL     1      37.544  48.376  25.059 -0.42 +0.00    +0.002 A  BRANCH  43  51ATOM     51  O   UNL     1      42.121  46.463  28.026 -0.42 -0.07    -0.480 OA ATOM     52  H   UNL     1      42.489  47.298  28.374 +0.05 +0.03    +0.296 HD ENDBRANCH  43  51ENDBRANCH  41  42ENDBRANCH  35  36ENDBRANCH   4  35TORSDOF 8TERENDMDL