REMARK SMILES O=C(c1ccc(-c2nc3ccccc3nc2-c2ccc(CN3CCC(n4c(O)nc5ccccc54)CC3)cc2)cc1)N1CC(F)C1
REMARK SMILES IDX 17 1 18 2 19 3 20 4 38 5 39 6 16 7 7 8 8 9 9 10 15 11 10 12
REMARK SMILES IDX 14 13 11 14 13 15 12 16 6 17 3 18 4 19 41 20 5 21 40 22 2 23
REMARK SMILES IDX 42 24 43 25 46 26 44 27 1 28 45 29 21 30 22 31 23 32 37 33
REMARK SMILES IDX 24 34 36 35 25 36 26 37 27 38 35 39 29 40 34 41 30 42 33 43
REMARK SMILES IDX 31 44 32 45 28 46
REMARK H PARENT 28 47
ROOT
ATOM      1  C   UNL     1      -1.546  -2.814   1.406  1.00  0.00     0.002 A 
ATOM      2  C   UNL     1      -0.557  -3.495   0.675  1.00  0.00     0.011 A 
ATOM      3  C   UNL     1       0.791  -3.138   0.769  1.00  0.00     0.006 A 
ATOM      4  C   UNL     1       1.194  -2.090   1.605  1.00  0.00    -0.034 A 
ATOM      5  C   UNL     1       0.219  -1.410   2.344  1.00  0.00     0.006 A 
ATOM      6  C   UNL     1      -1.129  -1.770   2.249  1.00  0.00     0.011 A 
ENDROOT
BRANCH   1   7
ATOM      7  C   UNL     1      -2.959  -3.223   1.306  1.00  0.00     0.097 A 
ATOM      8  C   UNL     1      -4.040  -2.356   1.086  1.00  0.00     0.097 A 
ATOM      9  N   UNL     1      -5.323  -2.813   1.075  1.00  0.00    -0.244 NA
ATOM     10  C   UNL     1      -5.514  -4.132   1.256  1.00  0.00     0.089 A 
ATOM     11  N   UNL     1      -3.160  -4.562   1.470  1.00  0.00    -0.244 NA
ATOM     12  C   UNL     1      -6.805  -4.646   1.247  1.00  0.00     0.030 A 
ATOM     13  C   UNL     1      -4.426  -5.012   1.447  1.00  0.00     0.089 A 
ATOM     14  C   UNL     1      -7.046  -6.010   1.421  1.00  0.00     0.002 A 
ATOM     15  C   UNL     1      -4.675  -6.369   1.618  1.00  0.00     0.030 A 
ATOM     16  C   UNL     1      -5.975  -6.876   1.606  1.00  0.00     0.002 A 
BRANCH   8  17
ATOM     17  C   UNL     1      -3.924  -0.912   0.825  1.00  0.00     0.002 A 
ATOM     18  C   UNL     1      -3.743   1.852   0.342  1.00  0.00     0.040 A 
ATOM     19  C   UNL     1      -3.088   0.955  -0.504  1.00  0.00     0.014 A 
ATOM     20  C   UNL     1      -4.477   1.386   1.433  1.00  0.00     0.014 A 
ATOM     21  C   UNL     1      -3.178  -0.418  -0.260  1.00  0.00     0.011 A 
ATOM     22  C   UNL     1      -4.579   0.012   1.660  1.00  0.00     0.011 A 
BRANCH  18  23
ATOM     23  C   UNL     1      -3.665   3.310   0.106  1.00  0.00     0.254 C 
ATOM     24  N   UNL     1      -3.993   3.748  -1.164  1.00  0.00    -0.333 N 
ATOM     25  C   UNL     1      -4.327   5.135  -1.484  1.00  0.00     0.159 C 
ATOM     26  C   UNL     1      -5.037   3.207  -2.036  1.00  0.00     0.159 C 
ATOM     27  C   UNL     1      -5.110   4.595  -2.691  1.00  0.00     0.205 C 
ATOM     28  O   UNL     1      -3.341   4.056   1.025  1.00  0.00    -0.269 OA
ATOM     29  F   UNL     1      -6.355   5.101  -2.869  1.00  0.00    -0.244 F 
ENDBRANCH  18  23
ENDBRANCH   8  17
ENDBRANCH   1   7
BRANCH   4  30
ATOM     30  C   UNL     1       2.658  -1.730   1.740  1.00  0.00     0.120 C 
BRANCH  30  31
ATOM     31  N   UNL     1       2.974  -0.333   1.390  1.00  0.00    -0.299 NA
ATOM     32  C   UNL     1       2.661  -0.042  -0.018  1.00  0.00     0.087 C 
ATOM     33  C   UNL     1       4.353   0.003   1.776  1.00  0.00     0.087 C 
ATOM     34  C   UNL     1       3.211   1.315  -0.457  1.00  0.00     0.041 C 
ATOM     35  C   UNL     1       5.285   0.270   0.598  1.00  0.00     0.041 C 
ATOM     36  C   UNL     1       4.734   1.411  -0.261  1.00  0.00     0.095 C 
BRANCH  36  37
ATOM     37  N   UNL     1       5.483   1.546  -1.504  1.00  0.00    -0.291 N 
ATOM     38  C   UNL     1       5.407   0.732  -2.601  1.00  0.00     0.295 A 
ATOM     39  C   UNL     1       6.421   2.517  -1.794  1.00  0.00     0.072 A 
ATOM     40  N   UNL     1       6.185   1.105  -3.580  1.00  0.00    -0.195 NA
ATOM     41  C   UNL     1       6.942   3.603  -1.076  1.00  0.00     0.029 A 
ATOM     42  C   UNL     1       6.837   2.213  -3.093  1.00  0.00     0.092 A 
ATOM     43  C   UNL     1       7.907   4.391  -1.715  1.00  0.00     0.002 A 
ATOM     44  C   UNL     1       7.807   3.015  -3.715  1.00  0.00     0.031 A 
ATOM     45  C   UNL     1       8.336   4.105  -3.012  1.00  0.00     0.002 A 
BRANCH  38  46
ATOM     46  O   UNL     1       4.633  -0.329  -2.703  1.00  0.00    -0.480 OA
ATOM     47  H   UNL     1       4.796  -0.591  -3.626  1.00  0.00     0.296 HD
ENDBRANCH  38  46
ENDBRANCH  36  37
ENDBRANCH  30  31
ENDBRANCH   4  30
TORSDOF 7
