REMARK SMILES OC1=CC(c2nnc3sc(-c4ccccc4)nn23)=CC=CC1
REMARK SMILES IDX 4 1 3 2 2 3 1 5 5 7 6 8 18 9 7 10 17 11 8 12 10 13 9 14
REMARK SMILES IDX 11 15 12 16 16 17 13 18 15 19 14 20 19 21 20 22 21 23 22 24
REMARK H PARENT 1 6
REMARK Flexibility Score:   26.900
ROOT
ATOM      1  C   UNL     1      -2.242  -1.047   0.671  1.00  0.00     0.025 C 
ENDROOT
BRANCH   1   2
ATOM      2  C   UNL     1      -2.133   0.394   0.421  1.00  0.00     0.054 C 
BRANCH   2   3
ATOM      3  C   UNL     1      -2.679   1.081  -0.598  1.00  0.00     0.097 CG0
ATOM      4  G   UNL     1      -3.575   0.491  -1.657  1.00  0.00     0.000 G0
BRANCH   3   5
ATOM      5  O   UNL     1      -2.465   2.444  -0.735  1.00  0.00    -0.512 OA
ATOM      6  H   UNL     1      -1.923   2.755   0.009  1.00  0.00     0.293 HD
ENDBRANCH   3   5
ENDBRANCH   2   3
ENDBRANCH   1   2
BRANCH   1   7
ATOM      7  C   UNL     1      -1.190  -1.815   1.279  1.00  0.00     0.186 A 
ATOM      8  N   UNL     1      -1.231  -2.955   1.972  1.00  0.00    -0.127 NA
ATOM      9  N   UNL     1       0.133  -1.445   1.175  1.00  0.00    -0.182 N 
ATOM     10  N   UNL     1       0.060  -3.321   2.331  1.00  0.00    -0.117 NA
ATOM     11  N   UNL     1       0.804  -0.413   0.586  1.00  0.00    -0.152 NA
ATOM     12  C   UNL     1       0.830  -2.399   1.834  1.00  0.00     0.235 A 
ATOM     13  C   UNL     1       2.076  -0.617   0.822  1.00  0.00     0.147 A 
ATOM     14  S   UNL     1       2.500  -2.067   1.776  1.00  0.00    -0.073 S 
BRANCH  13  15
ATOM     15  C   UNL     1       3.141   0.294   0.328  1.00  0.00     0.012 A 
ATOM     16  C   UNL     1       2.771   1.326  -0.549  1.00  0.00     0.011 A 
ATOM     17  C   UNL     1       4.486   0.171   0.701  1.00  0.00     0.011 A 
ATOM     18  C   UNL     1       3.727   2.215  -1.045  1.00  0.00     0.001 A 
ATOM     19  C   UNL     1       5.441   1.063   0.202  1.00  0.00     0.001 A 
ATOM     20  C   UNL     1       5.062   2.082  -0.669  1.00  0.00     0.000 A 
ENDBRANCH  13  15
ENDBRANCH   1   7
BRANCH   1  21
ATOM     21  C   UNL     1      -3.378  -1.738   0.419  1.00  0.00     0.012 C 
BRANCH  21  22
ATOM     22  C   UNL     1      -4.617  -1.254  -0.152  1.00  0.00    -0.003 C 
BRANCH  22  23
ATOM     23  C   UNL     1      -4.718  -0.303  -1.091  1.00  0.00    -0.019 C 
BRANCH  23  24
ATOM     24  C   UNL     1      -3.575   0.491  -1.657  1.00  0.00     0.101 CG0
ATOM     25  G   UNL     1      -2.679   1.081  -0.598  1.00  0.00     0.000 G0
ENDBRANCH  23  24
ENDBRANCH  22  23
ENDBRANCH  21  22
ENDBRANCH   1  21
TORSDOF 3
