REMARK SMILES NCNc1ccccc1-c1ccnc(Nc2cccc(O)c2)c1
REMARK SMILES IDX 4 1 5 2 6 3 7 4 8 5 9 6 3 7 2 9 1 10 10 13 11 14 23 15 12 16
REMARK SMILES IDX 14 17 13 18 15 19 16 21 17 22 22 23 18 24 20 25 19 26 21 27
REMARK H PARENT 3 8 1 11 1 12 15 20 21 28
ROOT
ATOM      1  C   UNL     1      -3.248  -0.312  -0.214  1.00  0.00     0.043 A 
ATOM      2  C   UNL     1      -4.597  -0.368   0.175  1.00  0.00     0.026 A 
ATOM      3  C   UNL     1      -5.148  -1.510   0.762  1.00  0.00     0.002 A 
ATOM      4  C   UNL     1      -4.351  -2.621   1.002  1.00  0.00     0.001 A 
ATOM      5  C   UNL     1      -3.000  -2.581   0.669  1.00  0.00     0.011 A 
ATOM      6  C   UNL     1      -2.425  -1.436   0.078  1.00  0.00     0.005 A 
ENDROOT
BRANCH   1   7
ATOM      7  N   UNL     1      -2.677   0.856  -0.757  1.00  0.00    -0.372 N 
ATOM      8  H   UNL     1      -1.855   0.623  -1.310  1.00  0.00     0.161 HD
BRANCH   7   9
ATOM      9  C   UNL     1      -3.499   1.841  -1.423  1.00  0.00     0.195 C 
BRANCH   9  10
ATOM     10  N   UNL     1      -4.232   2.783  -0.602  1.00  0.00    -0.314 NA
ATOM     11  H   UNL     1      -3.600   3.064   0.144  1.00  0.00     0.120 HD
ATOM     12  H   UNL     1      -4.434   3.615  -1.148  1.00  0.00     0.120 HD
ENDBRANCH   9  10
ENDBRANCH   7   9
ENDBRANCH   1   7
BRANCH   6  13
ATOM     13  C   UNL     1      -0.979  -1.455  -0.216  1.00  0.00    -0.011 A 
ATOM     14  C   UNL     1      -0.448  -2.327  -1.165  1.00  0.00     0.029 A 
ATOM     15  C   UNL     1      -0.095  -0.597   0.453  1.00  0.00     0.056 A 
ATOM     16  C   UNL     1       0.913  -2.291  -1.403  1.00  0.00     0.114 A 
ATOM     17  C   UNL     1       1.271  -0.622   0.165  1.00  0.00     0.130 A 
ATOM     18  N   UNL     1       1.767  -1.460  -0.768  1.00  0.00    -0.239 NA
BRANCH  17  19
ATOM     19  N   UNL     1       2.100   0.286   0.865  1.00  0.00    -0.340 N 
ATOM     20  H   UNL     1       1.865   0.268   1.851  1.00  0.00     0.168 HD
BRANCH  19  21
ATOM     21  C   UNL     1       3.462   0.598   0.661  1.00  0.00     0.043 A 
ATOM     22  C   UNL     1       4.104   0.456  -0.576  1.00  0.00     0.026 A 
ATOM     23  C   UNL     1       4.184   1.192   1.708  1.00  0.00     0.072 A 
ATOM     24  C   UNL     1       5.440   0.837  -0.748  1.00  0.00     0.006 A 
ATOM     25  C   UNL     1       5.514   1.570   1.532  1.00  0.00     0.117 A 
ATOM     26  C   UNL     1       6.152   1.392   0.312  1.00  0.00     0.046 A 
BRANCH  25  27
ATOM     27  O   UNL     1       6.161   2.126   2.598  1.00  0.00    -0.508 OA
ATOM     28  H   UNL     1       7.072   2.332   2.330  1.00  0.00     0.293 HD
ENDBRANCH  25  27
ENDBRANCH  19  21
ENDBRANCH  17  19
ENDBRANCH   6  13
TORSDOF 7
