REMARK SMILES O=S1(=O)CC=CC=C(F)Cc2c(cc(Cl)nc2-c2ccccc2)N1
REMARK SMILES IDX 11 1 12 2 13 3 14 4 15 5 16 6 17 7 24 8 2 10 1 11 3 12 4 13
REMARK SMILES IDX 5 14 10 16 8 17 9 18 7 19 6 20 18 22 19 23 23 24 20 25 22 26
REMARK SMILES IDX 21 27
REMARK H PARENT 24 9
REMARK Flexibility Score:   15.900
ROOT
ATOM      1  C   UNL     1       0.149  -0.540   0.800  1.00  0.00     0.009 A 
ATOM      2  C   UNL     1      -0.751  -0.523   1.880  1.00  0.00     0.057 A 
ATOM      3  C   UNL     1      -0.621   0.407   2.903  1.00  0.00     0.068 A 
ATOM      4  C   UNL     1       0.393   1.329   2.791  1.00  0.00     0.131 A 
ATOM      5  Cl  UNL     1       0.624   2.535   3.987  1.00  0.00    -0.062 Cl
ATOM      6  N   UNL     1       1.272   1.373   1.776  1.00  0.00    -0.236 NA
ATOM      7  C   UNL     1       1.157   0.438   0.800  1.00  0.00     0.078 A 
ENDROOT
BRANCH   2   8
ATOM      8  N   UNL     1      -1.794  -1.501   1.940  1.00  0.00    -0.283 N 
ATOM      9  H   UNL     1      -1.751  -2.138   2.739  1.00  0.00     0.180 HD
BRANCH   8  10
ATOM     10  S   UNL     1      -3.396  -0.995   1.723  1.00  0.00     0.236 S 
ATOM     11  O   UNL     1      -3.611   0.223   2.477  1.00  0.00    -0.206 OA
ATOM     12  O   UNL     1      -4.191  -2.172   2.007  1.00  0.00    -0.206 OA
BRANCH  10  13
ATOM     13  C   UNL     1      -3.498  -0.669  -0.053  1.00  0.00     0.187 C 
BRANCH  13  14
ATOM     14  C   UNL     1      -2.847   0.647  -0.378  1.00  0.00    -0.009 CG0
ATOM     15  G   UNL     1      -1.843   0.887  -1.234  1.00  0.00     0.000 G0
ENDBRANCH  13  14
ENDBRANCH  10  13
ENDBRANCH   8  10
ENDBRANCH   2   8
BRANCH   1  16
ATOM     16  C   UNL     1       0.032  -1.569  -0.302  1.00  0.00     0.107 C 
BRANCH  16  17
ATOM     17  C   UNL     1      -0.369  -1.101  -1.677  1.00  0.00     0.104 C 
ATOM     18  F   UNL     1       0.158  -1.820  -2.702  1.00  0.00    -0.211 F 
BRANCH  17  19
ATOM     19  C   UNL     1      -1.146  -0.072  -2.052  1.00  0.00     0.034 C 
BRANCH  19  20
ATOM     20  C   UNL     1      -1.843   0.887  -1.234  1.00  0.00    -0.001 CG0
ATOM     21  G   UNL     1      -2.847   0.647  -0.378  1.00  0.00     0.000 G0
ENDBRANCH  19  20
ENDBRANCH  17  19
ENDBRANCH  16  17
ENDBRANCH   1  16
BRANCH   7  22
ATOM     22  C   UNL     1       2.184   0.560  -0.245  1.00  0.00     0.001 A 
ATOM     23  C   UNL     1       3.222  -0.378  -0.363  1.00  0.00     0.010 A 
ATOM     24  C   UNL     1       2.162   1.644  -1.138  1.00  0.00     0.010 A 
ATOM     25  C   UNL     1       4.189  -0.254  -1.365  1.00  0.00     0.001 A 
ATOM     26  C   UNL     1       3.128   1.769  -2.139  1.00  0.00     0.001 A 
ATOM     27  C   UNL     1       4.138   0.817  -2.255  1.00  0.00     0.000 A 
ENDBRANCH   7  22
TORSDOF 1
