MODEL        5USER    Run = 5USERUSER    Estimated Free Energy of Binding    =  -7.54 kcal/mol  [=(1)+(2)+(3)-(4)]USERUSER    (1) Final Intermolecular Energy     =  -9.62 kcal/molUSER        vdW + Hbond + desolv Energy     =  -8.98 kcal/molUSER        Electrostatic Energy            =  -0.65 kcal/molUSER        Moving Ligand-Fixed Receptor    =  -9.62 kcal/molUSER        Moving Ligand-Moving Receptor   =  +0.00 kcal/molUSER    (2) Final Total Internal Energy     =  -0.96 kcal/molUSER    (3) Torsional Free Energy           =  +2.09 kcal/molUSER    (4) Unbound System's Energy         =  -0.96 kcal/molUSERUSERREMARK SMILES NCNc1ccccc1-c1ccnc(Nc2cccc(O)c2)c1REMARK SMILES IDX 4 1 5 2 6 3 7 4 8 5 9 6 3 7 2 9 1 10 10 13 11 14 23 15 12 16REMARK SMILES IDX 14 17 13 18 15 19 16 21 17 22 22 23 18 24 20 25 19 26 21 27REMARK H PARENT 3 8 1 11 1 12 15 20 21 28USER                              x       y       z     vdW  Elec       q    TypeUSER                           _______ _______ _______ _____ _____    ______ ____ROOTATOM      1  C   UNL     1      29.654  21.578  -4.072 -0.25 -0.01    +0.043 A  ATOM      2  C   UNL     1      28.974  21.502  -5.300 -0.29 -0.00    +0.026 A  ATOM      3  C   UNL     1      29.657  21.417  -6.516 -0.28 +0.00    +0.002 A  ATOM      4  C   UNL     1      31.045  21.378  -6.532 -0.09 +0.00    +0.001 A  ATOM      5  C   UNL     1      31.746  21.407  -5.330 -0.24 +0.00    +0.011 A  ATOM      6  C   UNL     1      31.074  21.489  -4.092 -0.24 +0.00    +0.005 A  ENDROOTBRANCH   1   7ATOM      7  N   UNL     1      28.968  21.609  -2.842 -0.20 +0.19    -0.372 N  ATOM      8  H   UNL     1      28.147  22.208  -2.910 -0.52 -0.13    +0.161 HD BRANCH   7   9ATOM      9  C   UNL     1      28.672  20.388  -2.128 -0.18 -0.14    +0.195 C  BRANCH   9  10ATOM     10  N   UNL     1      29.661  19.887  -1.196 +0.07 +0.33    -0.314 NA ATOM     11  H   UNL     1      29.985  20.691  -0.664 -0.47 -0.18    +0.120 HD ATOM     12  H   UNL     1      29.212  19.258  -0.538 -0.43 -0.18    +0.120 HD ENDBRANCH   9  10ENDBRANCH   7   9ENDBRANCH   1   7BRANCH   6  13ATOM     13  C   UNL     1      31.883  21.481  -2.858 -0.23 +0.00    -0.011 A  ATOM     14  C   UNL     1      32.933  20.579  -2.690 -0.13 +0.00    +0.029 A  ATOM     15  C   UNL     1      31.619  22.380  -1.815 -0.27 -0.01    +0.056 A  ATOM     16  C   UNL     1      33.660  20.627  -1.516 -0.14 +0.06    +0.114 A  ATOM     17  C   UNL     1      32.392  22.365  -0.653 -0.21 +0.02    +0.130 A  ATOM     18  N   UNL     1      33.415  21.497  -0.513 -0.28 -0.20    -0.239 NA BRANCH  17  19ATOM     19  N   UNL     1      32.080  23.314   0.349 -0.22 +0.03    -0.340 N  ATOM     20  H   UNL     1      32.474  24.213   0.097 -0.36 -0.01    +0.168 HD BRANCH  19  21ATOM     21  C   UNL     1      30.901  23.458   1.112 -0.50 -0.02    +0.043 A  ATOM     22  C   UNL     1      29.842  24.294   0.736 -0.57 -0.01    +0.026 A  ATOM     23  C   UNL     1      30.720  22.640   2.239 -0.41 -0.05    +0.072 A  ATOM     24  C   UNL     1      28.665  24.358   1.491 -0.64 -0.00    +0.006 A  ATOM     25  C   UNL     1      29.547  22.708   2.987 -0.38 -0.11    +0.117 A  ATOM     26  C   UNL     1      28.517  23.566   2.626 -0.58 -0.03    +0.046 A  BRANCH  25  27ATOM     27  O   UNL     1      29.445  21.897   4.081 -0.52 +0.37    -0.508 OA ATOM     28  H   UNL     1      28.968  21.091   3.821 -0.41 -0.57    +0.293 HD ENDBRANCH  25  27ENDBRANCH  19  21ENDBRANCH  17  19ENDBRANCH   6  13TORSDOF 7TERENDMDL