REMARK SMILES CCC=NC(N)=NC(=N)N1CCN(C[C@H](O)c2ccccc2OC)CC1
REMARK SMILES IDX 8 1 10 2 11 3 12 4 13 5 25 6 26 7 7 8 5 9 6 10 4 13 3 14
REMARK SMILES IDX 2 15 1 16 9 17 14 19 15 20 16 21 17 23 18 24 22 25 19 26
REMARK SMILES IDX 21 27 20 28 23 29 24 30
REMARK H PARENT 6 11 6 12 9 18 16 22
ROOT
ATOM      1  C   UNL     1      -2.914  -2.160   0.787  1.00  0.00     0.221 C 
ATOM      2  N   UNL     1      -1.647  -1.659   0.586  1.00  0.00    -0.339 N 
ATOM      3  C   UNL     1      -1.515  -0.344  -0.075  1.00  0.00     0.135 C 
ATOM      4  C   UNL     1      -0.114   0.259   0.175  1.00  0.00     0.106 C 
ATOM      5  N   UNL     1       0.992  -0.638  -0.227  1.00  0.00    -0.297 NA
ATOM      6  C   UNL     1       0.808  -1.958   0.415  1.00  0.00     0.106 C 
ATOM      7  C   UNL     1      -0.578  -2.575   0.141  1.00  0.00     0.135 C 
ENDROOT
BRANCH   1   8
ATOM      8  N   UNL     1      -3.985  -1.574   0.180  1.00  0.00    -0.178 NA
BRANCH   8   9
ATOM      9  C   UNL     1      -5.184  -1.708   0.637  1.00  0.00     0.222 C 
ATOM     10  N   UNL     1      -5.584  -2.392   1.740  1.00  0.00    -0.368 N 
ATOM     11  H   UNL     1      -4.845  -3.059   1.987  1.00  0.00     0.159 HD
ATOM     12  H   UNL     1      -6.473  -2.844   1.583  1.00  0.00     0.159 HD
BRANCH   9  13
ATOM     13  N   UNL     1      -6.179  -1.123  -0.091  1.00  0.00    -0.226 NA
BRANCH  13  14
ATOM     14  C   UNL     1      -6.184   0.168  -0.051  1.00  0.00     0.087 C 
BRANCH  14  15
ATOM     15  C   UNL     1      -7.214   0.950  -0.818  1.00  0.00     0.044 C 
ATOM     16  C   UNL     1      -6.533   1.849  -1.830  1.00  0.00     0.010 C 
ENDBRANCH  14  15
ENDBRANCH  13  14
ENDBRANCH   9  13
ENDBRANCH   8   9
ENDBRANCH   1   8
BRANCH   1  17
ATOM     17  N   UNL     1      -3.110  -3.197   1.540  1.00  0.00    -0.267 NA
ATOM     18  H   UNL     1      -2.200  -3.441   1.936  1.00  0.00     0.191 HD
ENDBRANCH   1  17
BRANCH   5  19
ATOM     19  C   UNL     1       2.318  -0.079   0.136  1.00  0.00     0.121 C 
BRANCH  19  20
ATOM     20  C   UNL     1       2.752   1.189  -0.656  1.00  0.00     0.162 C 
BRANCH  20  21
ATOM     21  O   UNL     1       2.866   0.915  -2.054  1.00  0.00    -0.387 OA
ATOM     22  H   UNL     1       3.612   0.292  -2.138  1.00  0.00     0.211 HD
ENDBRANCH  20  21
BRANCH  20  23
ATOM     23  C   UNL     1       4.064   1.752  -0.128  1.00  0.00     0.024 A 
ATOM     24  C   UNL     1       4.032   2.960   0.595  1.00  0.00     0.010 A 
ATOM     25  C   UNL     1       5.301   1.098  -0.310  1.00  0.00     0.124 A 
ATOM     26  C   UNL     1       5.197   3.505   1.128  1.00  0.00     0.001 A 
ATOM     27  C   UNL     1       6.465   1.657   0.226  1.00  0.00     0.047 A 
ATOM     28  C   UNL     1       6.412   2.853   0.945  1.00  0.00     0.004 A 
BRANCH  25  29
ATOM     29  O   UNL     1       5.262  -0.068  -1.032  1.00  0.00    -0.496 OA
ATOM     30  C   UNL     1       6.479  -0.797  -1.162  1.00  0.00     0.278 C 
ENDBRANCH  25  29
ENDBRANCH  20  23
ENDBRANCH  19  20
ENDBRANCH   5  19
TORSDOF 11
