MODEL        3USER    Run = 3USERUSER    Estimated Free Energy of Binding    =  -9.96 kcal/mol  [=(1)+(2)+(3)-(4)]USERUSER    (1) Final Intermolecular Energy     = -12.65 kcal/molUSER        vdW + Hbond + desolv Energy     = -12.58 kcal/molUSER        Electrostatic Energy            =  -0.06 kcal/molUSER        Moving Ligand-Fixed Receptor    = -12.65 kcal/molUSER        Moving Ligand-Moving Receptor   =  +0.00 kcal/molUSER    (2) Final Total Internal Energy     =  -1.73 kcal/molUSER    (3) Torsional Free Energy           =  +2.68 kcal/molUSER    (4) Unbound System's Energy         =  -1.73 kcal/molUSERUSERREMARK SMILES NCCCCNC(=O)Cc1ccccc1-c1ccnc(-c2ccccc2)n1REMARK SMILES IDX 5 1 4 2 3 3 2 4 1 5 6 8 7 9 8 11 9 12 10 13 11 14 15 15REMARK SMILES IDX 12 16 14 17 13 18 16 19 17 20 27 21 18 22 20 23 19 24 21 25REMARK SMILES IDX 22 26 26 27 23 28 25 29 24 30REMARK H PARENT 1 6 1 7 6 10USER                              x       y       z     vdW  Elec       q    TypeUSER                           _______ _______ _______ _____ _____    ______ ____ROOTATOM      1  C   UNL     1      36.589  43.924  18.868 -0.32 -0.02    +0.116 C  ENDROOTBRANCH   1   2ATOM      2  C   UNL     1      35.318  44.719  19.154 -0.42 -0.01    +0.023 C  BRANCH   2   3ATOM      3  C   UNL     1      34.598  45.189  17.887 -0.42 -0.01    +0.017 C  BRANCH   3   4ATOM      4  C   UNL     1      34.687  46.700  17.674 -0.31 -0.08    +0.077 C  BRANCH   4   5ATOM      5  N   UNL     1      33.939  47.416  18.702 -0.88 +0.25    -0.330 NA ATOM      6  H   UNL     1      33.002  47.625  18.360 -0.42 -0.14    +0.118 HD ATOM      7  H   UNL     1      33.810  46.813  19.515 -0.52 -0.06    +0.118 HD ENDBRANCH   4   5ENDBRANCH   3   4ENDBRANCH   2   3ENDBRANCH   1   2BRANCH   1   8ATOM      8  N   UNL     1      37.394  44.546  17.838 -0.12 +0.08    -0.356 N  ATOM      9  C   UNL     1      37.232  44.238  16.501 -0.25 -0.07    +0.224 C  ATOM     10  H   UNL     1      37.879  45.405  18.071 +0.10 -0.04    +0.163 HD ATOM     11  O   UNL     1      36.432  43.397  16.100 -0.30 +0.09    -0.275 OA BRANCH   9  12ATOM     12  C   UNL     1      38.179  44.992  15.580 -0.11 -0.04    +0.136 C  BRANCH  12  13ATOM     13  C   UNL     1      37.509  46.038  14.710 -0.38 +0.01    -0.029 A  ATOM     14  C   UNL     1      36.351  45.657  14.000 -0.43 -0.00    +0.005 A  ATOM     15  C   UNL     1      38.006  47.358  14.575 -0.48 -0.00    +0.004 A  ATOM     16  C   UNL     1      35.688  46.554  13.166 -0.56 -0.00    +0.000 A  ATOM     17  C   UNL     1      37.316  48.240  13.716 -0.55 -0.00    +0.010 A  ATOM     18  C   UNL     1      36.171  47.846  13.019 -0.59 -0.00    +0.001 A  BRANCH  15  19ATOM     19  C   UNL     1      39.202  47.848  15.291 -0.46 -0.03    +0.075 A  ATOM     20  C   UNL     1      39.910  48.953  14.858 -0.43 -0.02    +0.049 A  ATOM     21  N   UNL     1      39.569  47.152  16.388 -0.30 +0.06    -0.228 NA ATOM     22  C   UNL     1      41.012  49.301  15.598 -0.55 -0.02    +0.116 A  ATOM     23  C   UNL     1      40.664  47.570  17.051 -0.40 -0.02    +0.159 A  ATOM     24  N   UNL     1      41.409  48.633  16.694 -0.87 +0.00    -0.237 NA BRANCH  23  25ATOM     25  C   UNL     1      41.027  46.853  18.290 -0.50 -0.00    +0.019 A  ATOM     26  C   UNL     1      40.236  45.801  18.790 -0.45 -0.00    +0.012 A  ATOM     27  C   UNL     1      42.190  47.182  19.015 -0.52 +0.00    +0.012 A  ATOM     28  C   UNL     1      40.591  45.108  19.953 -0.40 +0.00    +0.001 A  ATOM     29  C   UNL     1      42.548  46.492  20.178 -0.39 +0.00    +0.001 A  ATOM     30  C   UNL     1      41.747  45.454  20.645 -0.35 +0.00    +0.000 A  ENDBRANCH  23  25ENDBRANCH  15  19ENDBRANCH  12  13ENDBRANCH   9  12ENDBRANCH   1   8TORSDOF 9TERENDMDL