MODEL        10USER    Run = 10USERUSER    Estimated Free Energy of Binding    =  -7.22 kcal/mol  [=(1)+(2)+(3)-(4)]USERUSER    (1) Final Intermolecular Energy     =  -9.90 kcal/molUSER        vdW + Hbond + desolv Energy     =  -9.99 kcal/molUSER        Electrostatic Energy            =  -0.15 kcal/molUSER        Moving Ligand-Fixed Receptor    = -10.14 kcal/molUSER        Moving Ligand-Moving Receptor   =  +0.24 kcal/molUSER    (2) Final Total Internal Energy     =  -0.74 kcal/molUSER    (3) Torsional Free Energy           =  +2.68 kcal/molUSER    (4) Unbound System's Energy         =  -0.74 kcal/molUSERUSERREMARK SMILES OC1=CC(c2nnc3sc(-c4ccccc4)nn23)=CC=CC1REMARK SMILES IDX 4 1 3 2 2 3 1 5 5 7 6 8 18 9 7 10 17 11 8 12 10 13 9 14REMARK SMILES IDX 11 15 12 16 16 17 13 18 15 19 14 20 19 21 20 22 21 23 22 24REMARK H PARENT 1 6REMARK Flexibility Score:   26.900USER                              x       y       z     vdW  Elec       q    TypeUSER                           _______ _______ _______ _____ _____    ______ ____ROOTATOM      1  C   UNL     1      38.623  47.149  14.952 -0.51 -0.01    +0.025 C  ENDROOTBRANCH   1   2ATOM      2  C   UNL     1      38.439  46.832  13.532 -0.38 -0.01    +0.054 C  BRANCH   2   3ATOM      3  C   UNL     1      37.311  46.972  12.813 -0.58 -0.03    +0.097 CG0ATOM      4  G   UNL     1      35.974  46.377  13.177 +0.00 +0.00    +0.000 G0 BRANCH   3   5ATOM      5  O   UNL     1      37.295  47.726  11.650 -0.79 +0.06    -0.512 OA ATOM      6  H   UNL     1      36.397  48.068  11.507 -0.09 -0.16    +0.293 HD ENDBRANCH   3   5ENDBRANCH   2   3ENDBRANCH   1   2BRANCH   1   7ATOM      7  C   UNL     1      39.766  47.866  15.449 -0.39 -0.05    +0.186 A  ATOM      8  N   UNL     1      40.394  48.943  14.973 -0.49 +0.04    -0.127 NA ATOM      9  N   UNL     1      40.392  47.511  16.624 -0.39 +0.03    -0.182 N  ATOM     10  N   UNL     1      41.436  49.281  15.827 -1.06 +0.00    -0.117 NA ATOM     11  N   UNL     1      40.208  46.535  17.559 -0.37 +0.02    -0.152 NA ATOM     12  C   UNL     1      41.391  48.408  16.788 -0.24 -0.01    +0.235 A  ATOM     13  C   UNL     1      41.126  46.722  18.474 -0.40 -0.01    +0.147 A  ATOM     14  S   UNL     1      42.251  48.088  18.224 -0.46 -0.00    -0.073 S  BRANCH  13  15ATOM     15  C   UNL     1      41.249  45.860  19.678 -0.42 +0.00    +0.012 A  ATOM     16  C   UNL     1      42.270  46.152  20.597 -0.35 +0.00    +0.011 A  ATOM     17  C   UNL     1      40.393  44.782  19.937 -0.39 +0.00    +0.011 A  ATOM     18  C   UNL     1      42.434  45.379  21.748 -0.27 +0.00    +0.001 A  ATOM     19  C   UNL     1      40.560  44.009  21.091 -0.28 +0.00    +0.001 A  ATOM     20  C   UNL     1      41.578  44.307  21.994 -0.27 +0.00    +0.000 A  ENDBRANCH  13  15ENDBRANCH   1   7BRANCH   1  21ATOM     21  C   UNL     1      37.686  46.856  15.883 -0.46 -0.01    +0.012 C  BRANCH  21  22ATOM     22  C   UNL     1      36.334  46.381  15.679 -0.43 +0.00    -0.003 C  BRANCH  22  23ATOM     23  C   UNL     1      35.577  46.635  14.603 -0.42 +0.02    -0.019 C  BRANCH  23  24ATOM     24  C   UNL     1      35.972  46.377  13.176 -0.54 -0.06    +0.101 CG0ATOM     25  G   UNL     1      37.308  46.973  12.813 +0.00 +0.00    +0.000 G0 ENDBRANCH  23  24ENDBRANCH  22  23ENDBRANCH  21  22ENDBRANCH   1  21TORSDOF 3TERENDMDL