MODEL        4USER    Run = 4USERUSER    Estimated Free Energy of Binding    =  -9.84 kcal/mol  [=(1)+(2)+(3)-(4)]USERUSER    (1) Final Intermolecular Energy     = -11.63 kcal/molUSER        vdW + Hbond + desolv Energy     = -11.45 kcal/molUSER        Electrostatic Energy            =  -0.18 kcal/molUSER        Moving Ligand-Fixed Receptor    = -11.63 kcal/molUSER        Moving Ligand-Moving Receptor   =  +0.00 kcal/molUSER    (2) Final Total Internal Energy     =  -1.27 kcal/molUSER    (3) Torsional Free Energy           =  +1.79 kcal/molUSER    (4) Unbound System's Energy         =  -1.27 kcal/molUSERUSERREMARK SMILES CN1CCN(C(=O)c2ccc([C@H](c3ccccc3)c3ccncc3)cc2)[C@H]1OREMARK SMILES IDX 6 1 7 2 5 3 2 4 3 5 27 6 4 7 1 8 28 9 8 11 9 12 26 13 10 14REMARK SMILES IDX 25 15 11 16 12 17 13 18 14 19 18 20 15 21 17 22 16 23 19 24REMARK SMILES IDX 20 25 24 26 21 27 23 28 22 29REMARK H PARENT 28 10USER                              x       y       z     vdW  Elec       q    TypeUSER                           _______ _______ _______ _____ _____    ______ ____ROOTATOM      1  C   UNL     1      33.838  43.506  18.986 -0.26 -0.04    +0.256 C  ATOM      2  O   UNL     1      33.959  43.472  20.209 -0.76 -0.02    -0.269 OA ENDROOTBRANCH   1   3ATOM      3  N   UNL     1      32.714  43.046  18.343 -0.13 +0.06    -0.299 N  ATOM      4  N   UNL     1      31.475  41.969  16.728 -0.13 +0.11    -0.262 NA ATOM      5  C   UNL     1      30.590  42.213  17.881 -0.20 -0.02    +0.110 C  ATOM      6  C   UNL     1      32.825  42.101  17.274 -0.18 -0.12    +0.292 C  ATOM      7  C   UNL     1      31.329  43.242  18.720 -0.20 -0.01    +0.139 C  ATOM      8  C   UNL     1      31.252  42.939  15.660 -0.34 -0.06    +0.110 C  BRANCH   6   9ATOM      9  O   UNL     1      33.228  40.878  17.845 -0.25 +0.12    -0.361 OA ATOM     10  H   UNL     1      33.966  40.603  17.273 -0.43 -0.15    +0.214 HD ENDBRANCH   6   9ENDBRANCH   1   3BRANCH   1  11ATOM     11  C   UNL     1      34.921  44.109  18.180 -0.29 -0.01    +0.040 A  ATOM     12  C   UNL     1      35.736  43.270  17.420 -0.34 -0.00    +0.014 A  ATOM     13  C   UNL     1      35.097  45.493  18.132 -0.38 -0.01    +0.014 A  ATOM     14  C   UNL     1      36.755  43.817  16.635 -0.34 -0.00    +0.005 A  ATOM     15  C   UNL     1      36.118  46.038  17.348 -0.34 -0.00    +0.005 A  ATOM     16  C   UNL     1      36.958  45.208  16.584 -0.32 +0.01    -0.036 A  BRANCH  16  17ATOM     17  C   UNL     1      38.099  45.763  15.717 -0.37 -0.03    +0.079 C  BRANCH  17  18ATOM     18  C   UNL     1      39.248  46.377  16.526 -0.41 +0.01    -0.036 A  ATOM     19  C   UNL     1      39.602  45.802  17.759 -0.44 -0.00    +0.005 A  ATOM     20  C   UNL     1      39.995  47.474  16.065 -0.52 -0.00    +0.005 A  ATOM     21  C   UNL     1      40.657  46.317  18.514 -0.49 -0.00    +0.000 A  ATOM     22  C   UNL     1      41.049  47.989  16.822 -0.54 -0.00    +0.000 A  ATOM     23  C   UNL     1      41.379  47.412  18.046 -0.53 -0.00    +0.000 A  ENDBRANCH  17  18BRANCH  17  24ATOM     24  C   UNL     1      37.627  46.621  14.540 -0.40 +0.01    -0.033 A  ATOM     25  C   UNL     1      37.344  47.988  14.657 -0.50 -0.02    +0.025 A  ATOM     26  C   UNL     1      37.433  46.021  13.286 -0.45 -0.01    +0.025 A  ATOM     27  C   UNL     1      36.902  48.680  13.539 -0.37 -0.06    +0.111 A  ATOM     28  C   UNL     1      36.983  46.797  12.229 -0.56 -0.04    +0.111 A  ATOM     29  N   UNL     1      36.714  48.116  12.329 -0.96 +0.08    -0.265 NA ENDBRANCH  17  24ENDBRANCH  16  17ENDBRANCH   1  11TORSDOF 6TERENDMDL