REMARK SMILES Cc1cc(NC(=O)NC=Cc2cc(-c3cnn(C)c3)cnc2N)ccc1[C@H](N)CO
REMARK SMILES IDX 5 1 6 2 7 3 8 4 4 7 2 8 3 9 26 10 25 11 24 12 1 13 27 14
REMARK SMILES IDX 28 15 29 18 30 19 9 21 10 22 11 23 12 24 22 25 13 26 21 27
REMARK SMILES IDX 20 28 23 29 14 32 15 33 19 34 16 35 17 36 18 37
REMARK H PARENT 5 5 8 6 28 16 28 17 30 20 23 30 23 31
ROOT
ATOM      1  N   UNL     1      -1.835  -1.371   0.241  1.00  0.00    -0.308 N 
ATOM      2  C   UNL     1      -0.781  -0.568  -0.168  1.00  0.00     0.323 C 
ATOM      3  O   UNL     1      -0.862   0.619  -0.462  1.00  0.00    -0.248 OA
ATOM      4  N   UNL     1       0.400  -1.304  -0.207  1.00  0.00    -0.314 N 
ATOM      5  H   UNL     1      -1.594  -2.285   0.588  1.00  0.00     0.171 HD
ATOM      6  H   UNL     1       0.300  -2.304  -0.122  1.00  0.00     0.171 HD
ENDROOT
BRANCH   1   7
ATOM      7  C   UNL     1      -3.198  -1.022   0.351  1.00  0.00     0.043 A 
ATOM      8  C   UNL     1      -5.103   0.498   0.102  1.00  0.00    -0.044 A 
ATOM      9  C   UNL     1      -3.726   0.215  -0.023  1.00  0.00     0.030 A 
ATOM     10  C   UNL     1      -5.972  -0.480   0.630  1.00  0.00    -0.026 A 
ATOM     11  C   UNL     1      -5.430  -1.727   0.990  1.00  0.00     0.008 A 
ATOM     12  C   UNL     1      -4.065  -1.992   0.856  1.00  0.00     0.026 A 
ATOM     13  C   UNL     1      -5.589   1.862  -0.314  1.00  0.00     0.045 C 
BRANCH  10  14
ATOM     14  C   UNL     1      -7.465  -0.243   0.771  1.00  0.00     0.107 C 
BRANCH  14  15
ATOM     15  N   UNL     1      -7.990  -0.780   2.040  1.00  0.00    -0.322 NA
ATOM     16  H   UNL     1      -7.658  -0.195   2.804  1.00  0.00     0.119 HD
ATOM     17  H   UNL     1      -9.008  -0.696   2.014  1.00  0.00     0.119 HD
ENDBRANCH  14  15
BRANCH  14  18
ATOM     18  C   UNL     1      -8.243  -0.842  -0.424  1.00  0.00     0.179 C 
BRANCH  18  19
ATOM     19  O   UNL     1      -9.618  -0.441  -0.379  1.00  0.00    -0.394 OA
ATOM     20  H   UNL     1      -9.648   0.497  -0.630  1.00  0.00     0.210 HD
ENDBRANCH  18  19
ENDBRANCH  14  18
ENDBRANCH  10  14
ENDBRANCH   1   7
BRANCH   4  21
ATOM     21  C   UNL     1       1.673  -0.860  -0.493  1.00  0.00     0.088 C 
BRANCH  21  22
ATOM     22  C   UNL     1       2.052   0.412  -0.674  1.00  0.00     0.030 C 
BRANCH  22  23
ATOM     23  C   UNL     1       3.436   0.798  -0.999  1.00  0.00     0.019 A 
ATOM     24  C   UNL     1       4.497   0.373  -0.185  1.00  0.00     0.022 A 
ATOM     25  C   UNL     1       3.732   1.623  -2.098  1.00  0.00     0.130 A 
ATOM     26  C   UNL     1       5.810   0.753  -0.473  1.00  0.00     0.004 A 
ATOM     27  N   UNL     1       4.988   2.004  -2.392  1.00  0.00    -0.238 NA
ATOM     28  C   UNL     1       5.987   1.568  -1.586  1.00  0.00     0.122 A 
BRANCH  25  29
ATOM     29  N   UNL     1       2.722   2.104  -2.945  1.00  0.00    -0.383 N 
ATOM     30  H   UNL     1       2.082   2.679  -2.405  1.00  0.00     0.158 HD
ATOM     31  H   UNL     1       2.185   1.317  -3.298  1.00  0.00     0.158 HD
ENDBRANCH  25  29
BRANCH  26  32
ATOM     32  C   UNL     1       6.918   0.320   0.362  1.00  0.00     0.021 A 
ATOM     33  C   UNL     1       6.933  -0.214   1.673  1.00  0.00     0.143 A 
ATOM     34  C   UNL     1       8.252   0.339   0.004  1.00  0.00     0.117 A 
ATOM     35  N   UNL     1       8.162  -0.512   2.101  1.00  0.00    -0.181 NA
ATOM     36  N   UNL     1       8.947  -0.157   1.070  1.00  0.00    -0.275 N 
ATOM     37  C   UNL     1      10.375  -0.334   1.171  1.00  0.00     0.173 C 
ENDBRANCH  26  32
ENDBRANCH  22  23
ENDBRANCH  21  22
ENDBRANCH   4  21
TORSDOF 10
