REMARK SMILES CN1CCN(C(=O)c2ccc([C@H](c3ccccc3)c3ccncc3)cc2)[C@H]1O
REMARK SMILES IDX 6 1 7 2 5 3 2 4 3 5 27 6 4 7 1 8 28 9 8 11 9 12 26 13 10 14
REMARK SMILES IDX 25 15 11 16 12 17 13 18 14 19 18 20 15 21 17 22 16 23 19 24
REMARK SMILES IDX 20 25 24 26 21 27 23 28 22 29
REMARK H PARENT 28 10
ROOT
ATOM      1  C   UNL     1       3.123   1.107   0.685  1.00  0.00     0.256 C 
ATOM      2  O   UNL     1       3.635   2.095   1.207  1.00  0.00    -0.269 OA
ENDROOT
BRANCH   1   3
ATOM      3  N   UNL     1       3.868   0.056   0.205  1.00  0.00    -0.299 N 
ATOM      4  N   UNL     1       5.745  -1.078  -0.498  1.00  0.00    -0.262 NA
ATOM      5  C   UNL     1       4.687  -2.074  -0.252  1.00  0.00     0.110 C 
ATOM      6  C   UNL     1       5.298   0.110   0.227  1.00  0.00     0.292 C 
ATOM      7  C   UNL     1       3.405  -1.262  -0.178  1.00  0.00     0.139 C 
ATOM      8  C   UNL     1       5.895  -0.790  -1.922  1.00  0.00     0.110 C 
BRANCH   6   9
ATOM      9  O   UNL     1       5.694   0.021   1.575  1.00  0.00    -0.361 OA
ATOM     10  H   UNL     1       5.282   0.806   1.977  1.00  0.00     0.214 HD
ENDBRANCH   6   9
ENDBRANCH   1   3
BRANCH   1  11
ATOM     11  C   UNL     1       1.649   1.022   0.615  1.00  0.00     0.040 A 
ATOM     12  C   UNL     1       0.912   1.186   1.789  1.00  0.00     0.014 A 
ATOM     13  C   UNL     1       0.996   0.835  -0.605  1.00  0.00     0.014 A 
ATOM     14  C   UNL     1      -0.483   1.128   1.746  1.00  0.00     0.005 A 
ATOM     15  C   UNL     1      -0.400   0.775  -0.645  1.00  0.00     0.005 A 
ATOM     16  C   UNL     1      -1.160   0.927   0.529  1.00  0.00    -0.036 A 
BRANCH  16  17
ATOM     17  C   UNL     1      -2.695   0.857   0.533  1.00  0.00     0.079 C 
BRANCH  17  18
ATOM     18  C   UNL     1      -3.252  -0.483   1.028  1.00  0.00    -0.036 A 
ATOM     19  C   UNL     1      -4.471  -0.502   1.728  1.00  0.00     0.005 A 
ATOM     20  C   UNL     1      -2.611  -1.708   0.775  1.00  0.00     0.005 A 
ATOM     21  C   UNL     1      -5.023  -1.704   2.175  1.00  0.00     0.000 A 
ATOM     22  C   UNL     1      -3.164  -2.909   1.224  1.00  0.00     0.000 A 
ATOM     23  C   UNL     1      -4.368  -2.907   1.924  1.00  0.00     0.000 A 
ENDBRANCH  17  18
BRANCH  17  24
ATOM     24  C   UNL     1      -3.346   1.374  -0.753  1.00  0.00    -0.033 A 
ATOM     25  C   UNL     1      -3.906   0.528  -1.719  1.00  0.00     0.025 A 
ATOM     26  C   UNL     1      -3.363   2.754  -1.007  1.00  0.00     0.025 A 
ATOM     27  C   UNL     1      -4.456   1.087  -2.863  1.00  0.00     0.111 A 
ATOM     28  C   UNL     1      -3.932   3.216  -2.184  1.00  0.00     0.111 A 
ATOM     29  N   UNL     1      -4.480   2.411  -3.118  1.00  0.00    -0.265 NA
ENDBRANCH  17  24
ENDBRANCH  16  17
ENDBRANCH   1  11
TORSDOF 6
