REMARK SMILES Nc1ncc(F)c(-c2ccc(C(=O)N[C@H](CO)c3ccccc3)cc2)n1
REMARK SMILES IDX 12 1 13 2 14 3 11 5 8 6 9 7 25 8 10 9 24 10 7 11 2 12 3 13
REMARK SMILES IDX 26 14 4 15 5 16 6 17 1 18 15 21 16 22 17 23 18 25 19 26
REMARK SMILES IDX 23 27 20 28 22 29 21 30
REMARK H PARENT 14 4 1 19 1 20 17 24
ROOT
ATOM      1  C   UNL     1      -0.929   0.023  -1.729  1.00  0.00     0.251 C 
ATOM      2  O   UNL     1      -1.174  -0.172  -2.915  1.00  0.00    -0.269 OA
ATOM      3  N   UNL     1      -1.902   0.285  -0.793  1.00  0.00    -0.343 N 
ATOM      4  H   UNL     1      -1.658   0.156   0.181  1.00  0.00     0.164 HD
ENDROOT
BRANCH   1   5
ATOM      5  C   UNL     1       0.473  -0.044  -1.232  1.00  0.00     0.039 A 
ATOM      6  C   UNL     1       3.176  -0.220  -0.368  1.00  0.00     0.003 A 
ATOM      7  C   UNL     1       2.729  -0.898  -1.516  1.00  0.00     0.011 A 
ATOM      8  C   UNL     1       2.225   0.550   0.332  1.00  0.00     0.011 A 
ATOM      9  C   UNL     1       1.399  -0.807  -1.948  1.00  0.00     0.014 A 
ATOM     10  C   UNL     1       0.893   0.645  -0.092  1.00  0.00     0.014 A 
BRANCH   6  11
ATOM     11  C   UNL     1       4.575  -0.304   0.111  1.00  0.00     0.112 A 
ATOM     12  C   UNL     1       5.973  -0.268   1.949  1.00  0.00     0.220 A 
ATOM     13  N   UNL     1       7.077  -0.428   1.215  1.00  0.00    -0.219 NA
ATOM     14  N   UNL     1       4.733  -0.179   1.456  1.00  0.00    -0.210 NA
ATOM     15  C   UNL     1       6.896  -0.539  -0.116  1.00  0.00     0.156 A 
ATOM     16  C   UNL     1       5.664  -0.486  -0.721  1.00  0.00     0.167 A 
ATOM     17  F   UNL     1       5.564  -0.583  -2.053  1.00  0.00    -0.203 F 
BRANCH  12  18
ATOM     18  N   UNL     1       6.130  -0.142   3.310  1.00  0.00    -0.368 N 
ATOM     19  H   UNL     1       7.064   0.173   3.530  1.00  0.00     0.159 HD
ATOM     20  H   UNL     1       5.356   0.366   3.713  1.00  0.00     0.159 HD
ENDBRANCH  12  18
ENDBRANCH   6  11
ENDBRANCH   1   5
BRANCH   3  21
ATOM     21  C   UNL     1      -3.333   0.207  -1.100  1.00  0.00     0.138 C 
BRANCH  21  22
ATOM     22  C   UNL     1      -3.788   1.228  -2.175  1.00  0.00     0.185 C 
BRANCH  22  23
ATOM     23  O   UNL     1      -3.571   0.748  -3.503  1.00  0.00    -0.394 OA
ATOM     24  H   UNL     1      -2.645   0.417  -3.534  1.00  0.00     0.210 HD
ENDBRANCH  22  23
ENDBRANCH  21  22
BRANCH  21  25
ATOM     25  C   UNL     1      -4.112   0.384   0.194  1.00  0.00    -0.023 A 
ATOM     26  C   UNL     1      -4.096   1.602   0.893  1.00  0.00     0.006 A 
ATOM     27  C   UNL     1      -4.845  -0.689   0.725  1.00  0.00     0.006 A 
ATOM     28  C   UNL     1      -4.803   1.745   2.088  1.00  0.00     0.000 A 
ATOM     29  C   UNL     1      -5.551  -0.543   1.920  1.00  0.00     0.000 A 
ATOM     30  C   UNL     1      -5.530   0.673   2.600  1.00  0.00     0.000 A 
ENDBRANCH  21  25
ENDBRANCH   3  21
TORSDOF 7
