REMARK SMILES CCN[C@H]1CNC(c2ccnc(-c3ccnc(Cl)c3)c2)=CC1=O
REMARK SMILES IDX 4 1 5 2 6 3 7 4 21 5 22 6 23 7 3 9 2 11 1 12 8 13 9 14 20 15
REMARK SMILES IDX 10 16 12 17 11 18 13 19 14 20 19 21 15 22 17 23 16 24 18 25
REMARK H PARENT 6 8 3 10
ROOT
ATOM      1  C   UNL     1       3.496  -0.836  -0.791  1.00  0.00     0.145 C 
ATOM      2  C   UNL     1       2.867  -1.174   0.571  1.00  0.00     0.140 C 
ATOM      3  N   UNL     1       1.513  -1.692   0.383  1.00  0.00    -0.382 N 
ATOM      4  C   UNL     1       0.646  -1.054  -0.484  1.00  0.00     0.045 C 
ATOM      5  C   UNL     1       1.057  -0.229  -1.456  1.00  0.00     0.075 C 
ATOM      6  C   UNL     1       2.513  -0.000  -1.629  1.00  0.00     0.176 C 
ATOM      7  O   UNL     1       2.884   0.805  -2.487  1.00  0.00    -0.293 OA
ATOM      8  H   UNL     1       1.068  -2.013   1.243  1.00  0.00     0.160 HD
ENDROOT
BRANCH   1   9
ATOM      9  N   UNL     1       4.848  -0.224  -0.784  1.00  0.00    -0.306 NA
ATOM     10  H   UNL     1       4.991   0.192  -1.712  1.00  0.00     0.123 HD
BRANCH   9  11
ATOM     11  C   UNL     1       5.120   0.788   0.233  1.00  0.00     0.078 C 
ATOM     12  C   UNL     1       4.343   2.087   0.074  1.00  0.00     0.020 C 
ENDBRANCH   9  11
ENDBRANCH   1   9
BRANCH   4  13
ATOM     13  C   UNL     1      -0.794  -1.331  -0.319  1.00  0.00     0.001 A 
ATOM     14  C   UNL     1      -1.256  -2.645  -0.350  1.00  0.00     0.030 A 
ATOM     15  C   UNL     1      -1.713  -0.297  -0.104  1.00  0.00     0.039 A 
ATOM     16  C   UNL     1      -2.607  -2.867  -0.172  1.00  0.00     0.112 A 
ATOM     17  C   UNL     1      -3.063  -0.601   0.062  1.00  0.00     0.071 A 
ATOM     18  N   UNL     1      -3.508  -1.883   0.036  1.00  0.00    -0.256 NA
BRANCH  17  19
ATOM     19  C   UNL     1      -4.102   0.424   0.292  1.00  0.00     0.005 A 
ATOM     20  C   UNL     1      -5.262   0.116   1.021  1.00  0.00     0.030 A 
ATOM     21  C   UNL     1      -3.994   1.729  -0.206  1.00  0.00     0.051 A 
ATOM     22  C   UNL     1      -6.225   1.092   1.228  1.00  0.00     0.113 A 
ATOM     23  C   UNL     1      -5.013   2.631   0.056  1.00  0.00     0.129 A 
ATOM     24  N   UNL     1      -6.122   2.352   0.764  1.00  0.00    -0.245 NA
ATOM     25  Cl  UNL     1      -4.927   4.242  -0.530  1.00  0.00    -0.062 Cl
ENDBRANCH  17  19
ENDBRANCH   4  13
TORSDOF 4
