REMARK SMILES Clc1ccccc1Nc1cnc(C=CC=NC=CC2=CC=CC2)cn1
REMARK SMILES IDX 14 1 13 2 12 3 9 4 10 5 25 6 11 7 24 8 8 9 7 11 2 12 3 13
REMARK SMILES IDX 4 14 6 15 5 16 1 17 15 18 16 19 17 20 18 21 19 22 20 23
REMARK SMILES IDX 23 24 21 25 22 26
REMARK H PARENT 8 10
ROOT
ATOM      1  C   UNL     1       1.969   1.571   1.064  1.00  0.00     0.022 C 
ENDROOT
BRANCH   1   2
ATOM      2  C   UNL     1       0.733   1.311   1.515  1.00  0.00     0.031 C 
BRANCH   2   3
ATOM      3  C   UNL     1      -0.404   1.039   0.628  1.00  0.00     0.081 A 
ATOM      4  C   UNL     1      -2.549   0.528  -0.975  1.00  0.00     0.148 A 
ATOM      5  C   UNL     1      -1.279   0.819  -1.480  1.00  0.00     0.158 A 
ATOM      6  N   UNL     1      -2.747   0.493   0.361  1.00  0.00    -0.235 NA
ATOM      7  N   UNL     1      -0.195   1.089  -0.707  1.00  0.00    -0.251 NA
ATOM      8  C   UNL     1      -1.664   0.742   1.139  1.00  0.00     0.141 A 
BRANCH   4   9
ATOM      9  N   UNL     1      -3.611   0.269  -1.878  1.00  0.00    -0.338 N 
ATOM     10  H   UNL     1      -3.686   1.052  -2.519  1.00  0.00     0.168 HD
BRANCH   9  11
ATOM     11  C   UNL     1      -4.888  -0.199  -1.475  1.00  0.00     0.059 A 
ATOM     12  C   UNL     1      -5.088  -1.449  -0.855  1.00  0.00     0.064 A 
ATOM     13  C   UNL     1      -6.364  -1.840  -0.432  1.00  0.00     0.023 A 
ATOM     14  C   UNL     1      -7.455  -0.992  -0.617  1.00  0.00     0.002 A 
ATOM     15  C   UNL     1      -6.003   0.640  -1.652  1.00  0.00     0.027 A 
ATOM     16  C   UNL     1      -7.275   0.246  -1.228  1.00  0.00     0.002 A 
ATOM     17  Cl  UNL     1      -3.802  -2.594  -0.661  1.00  0.00    -0.082 Cl
ENDBRANCH   9  11
ENDBRANCH   4   9
ENDBRANCH   2   3
ENDBRANCH   1   2
BRANCH   1  18
ATOM     18  C   UNL     1       3.059   1.833   2.039  1.00  0.00     0.111 C 
BRANCH  18  19
ATOM     19  N   UNL     1       4.312   2.081   1.826  1.00  0.00    -0.265 NA
BRANCH  19  20
ATOM     20  C   UNL     1       4.753   2.101   0.531  1.00  0.00     0.111 C 
BRANCH  20  21
ATOM     21  C   UNL     1       5.194   1.044  -0.169  1.00  0.00     0.024 C 
BRANCH  21  22
ATOM     22  C   UNL     1       5.263  -0.322   0.282  1.00  0.00    -0.043 C 
ATOM     23  C   UNL     1       5.639  -0.788   1.484  1.00  0.00     0.004 C 
ATOM     24  C   UNL     1       4.965  -1.482  -0.632  1.00  0.00     0.063 C 
ATOM     25  C   UNL     1       5.603  -2.228   1.478  1.00  0.00    -0.004 C 
ATOM     26  C   UNL     1       5.218  -2.659   0.269  1.00  0.00    -0.022 C 
ENDBRANCH  21  22
ENDBRANCH  20  21
ENDBRANCH  19  20
ENDBRANCH  18  19
ENDBRANCH   1  18
TORSDOF 9
