MODEL        8USER    Run = 8USERUSER    Estimated Free Energy of Binding    = -10.47 kcal/mol  [=(1)+(2)+(3)-(4)]USERUSER    (1) Final Intermolecular Energy     = -11.67 kcal/molUSER        vdW + Hbond + desolv Energy     = -11.63 kcal/molUSER        Electrostatic Energy            =  -0.04 kcal/molUSER        Moving Ligand-Fixed Receptor    = -11.67 kcal/molUSER        Moving Ligand-Moving Receptor   =  +0.00 kcal/molUSER    (2) Final Total Internal Energy     =  -0.95 kcal/molUSER    (3) Torsional Free Energy           =  +1.19 kcal/molUSER    (4) Unbound System's Energy         =  -0.95 kcal/molUSERUSERREMARK SMILES Cc1cc(NC2=NC=C3C2=CN=C3C=C2C=CC(NC(=O)N3CCNCC3)=C2)ccn1REMARK SMILES IDX 14 1 13 2 5 3 6 4 7 5 10 6 8 7 9 8 11 9 12 10 4 12 2 13 3 14REMARK SMILES IDX 31 15 30 16 29 17 1 18 15 19 16 20 28 21 17 22 18 23 19 24REMARK SMILES IDX 20 25 22 26 23 27 27 28 24 29 26 30 25 31 21 33REMARK H PARENT 5 11 19 32 25 34USER                              x       y       z     vdW  Elec       q    TypeUSER                           _______ _______ _______ _____ _____    ______ ____ROOTATOM      1  C   UNL     1      37.028  41.753  25.339 -0.37 -0.00    +0.037 C  ENDROOTBRANCH   1   2ATOM      2  C   UNL     1      36.953  41.957  23.881 -0.43 +0.00    +0.073 C  ATOM      3  N   UNL     1      38.214  44.228  19.886 -0.14 +0.01    -0.340 N  ATOM      4  C   UNL     1      38.285  43.959  21.227 -0.30 +0.00    +0.139 C  ATOM      5  N   UNL     1      39.047  44.527  22.149 -0.16 -0.01    -0.238 NA ATOM      6  C   UNL     1      37.449  42.932  21.884 -0.43 +0.00    +0.046 C  ATOM      7  C   UNL     1      38.736  43.919  23.364 -0.24 +0.01    +0.124 C  ATOM      8  C   UNL     1      37.802  42.979  23.259 -0.39 +0.00    +0.031 C  ATOM      9  C   UNL     1      36.518  41.987  21.766 -0.51 +0.01    +0.124 C  ATOM     10  N   UNL     1      36.193  41.375  22.980 -0.36 -0.00    -0.255 NA ATOM     11  H   UNL     1      37.510  43.725  19.359 +0.11 -0.01    +0.168 HD BRANCH   3  12ATOM     12  C   UNL     1      38.958  45.147  19.123 -0.37 -0.00    +0.043 A  ATOM     13  C   UNL     1      40.895  46.507  18.647 -0.46 -0.00    +0.039 A  ATOM     14  C   UNL     1      40.244  45.577  19.456 -0.39 -0.00    +0.049 A  ATOM     15  N   UNL     1      40.334  47.029  17.532 -0.31 +0.04    -0.261 NA ATOM     16  C   UNL     1      39.092  46.611  17.222 -0.36 -0.03    +0.113 A  ATOM     17  C   UNL     1      38.377  45.690  17.972 -0.36 -0.01    +0.046 A  ATOM     18  C   UNL     1      42.279  46.965  18.999 -0.55 +0.01    +0.067 C  ENDBRANCH   3  12ENDBRANCH   1   2BRANCH   1  19ATOM     19  C   UNL     1      36.302  42.428  26.239 -0.50 +0.00    -0.021 C  ATOM     20  C   UNL     1      35.275  41.813  27.065 -0.67 -0.00    +0.010 C  ATOM     21  C   UNL     1      36.345  43.839  26.583 -0.44 -0.00    +0.034 C  ATOM     22  C   UNL     1      34.757  42.787  27.835 -0.62 -0.01    +0.027 C  ATOM     23  C   UNL     1      35.415  44.043  27.531 -0.53 -0.01    +0.043 C  BRANCH  23  24ATOM     24  N   UNL     1      35.154  45.256  28.102 +0.01 +0.11    -0.308 N  ATOM     25  C   UNL     1      34.100  45.597  28.921 -0.19 -0.06    +0.321 C  ATOM     26  N   UNL     1      34.143  46.898  29.405 -0.28 +0.05    -0.322 N  ATOM     27  C   UNL     1      32.999  47.394  30.171 -0.27 -0.01    +0.136 C  ATOM     28  C   UNL     1      35.292  47.808  29.315 -0.36 -0.02    +0.136 C  ATOM     29  C   UNL     1      32.809  48.914  30.004 -0.28 +0.00    +0.102 C  ATOM     30  C   UNL     1      35.230  48.950  30.346 -0.24 -0.01    +0.102 C  ATOM     31  N   UNL     1      33.996  49.744  30.278 -0.09 -0.01    -0.313 NA ATOM     32  H   UNL     1      35.735  46.014  27.785 -0.35 -0.07    +0.171 HD ATOM     33  O   UNL     1      33.177  44.839  29.213 -0.83 -0.01    -0.248 OA ATOM     34  H   UNL     1      33.873  50.248  31.157 +0.04 +0.00    +0.122 HD ENDBRANCH  23  24ENDBRANCH   1  19TORSDOF 4TERENDMDL