MODEL        7USER    Run = 7USERUSER    Estimated Free Energy of Binding    =  -8.81 kcal/mol  [=(1)+(2)+(3)-(4)]USERUSER    (1) Final Intermolecular Energy     = -10.90 kcal/molUSER        vdW + Hbond + desolv Energy     = -10.46 kcal/molUSER        Electrostatic Energy            =  -0.44 kcal/molUSER        Moving Ligand-Fixed Receptor    = -10.90 kcal/molUSER        Moving Ligand-Moving Receptor   =  +0.00 kcal/molUSER    (2) Final Total Internal Energy     =  -1.42 kcal/molUSER    (3) Torsional Free Energy           =  +2.09 kcal/molUSER    (4) Unbound System's Energy         =  -1.42 kcal/molUSERUSERREMARK SMILES Nc1ncc(F)c(-c2ccc(C(=O)N[C@H](CO)c3ccccc3)cc2)n1REMARK SMILES IDX 12 1 13 2 14 3 11 5 8 6 9 7 25 8 10 9 24 10 7 11 2 12 3 13REMARK SMILES IDX 26 14 4 15 5 16 6 17 1 18 15 21 16 22 17 23 18 25 19 26REMARK SMILES IDX 23 27 20 28 22 29 21 30REMARK H PARENT 14 4 1 19 1 20 17 24USER                              x       y       z     vdW  Elec       q    TypeUSER                           _______ _______ _______ _____ _____    ______ ____ROOTATOM      1  C   UNL     1      34.085  44.635  15.533 -0.12 -0.15    +0.251 C  ATOM      2  O   UNL     1      34.112  43.421  15.704 -0.24 +0.13    -0.269 OA ATOM      3  N   UNL     1      32.922  45.343  15.344 -0.14 +0.28    -0.343 N  ATOM      4  H   UNL     1      32.956  46.344  15.490 -0.37 -0.28    +0.164 HD ENDROOTBRANCH   1   5ATOM      5  C   UNL     1      35.349  45.423  15.550 -0.32 -0.03    +0.039 A  ATOM      6  C   UNL     1      37.786  46.882  15.670 -0.41 -0.00    +0.003 A  ATOM      7  C   UNL     1      37.345  46.103  16.755 -0.36 -0.00    +0.011 A  ATOM      8  C   UNL     1      36.967  46.905  14.523 -0.43 -0.01    +0.011 A  ATOM      9  C   UNL     1      36.148  45.378  16.696 -0.33 -0.01    +0.014 A  ATOM     10  C   UNL     1      35.768  46.183  14.456 -0.41 -0.01    +0.014 A  BRANCH   6  11ATOM     11  C   UNL     1      39.045  47.661  15.711 -0.40 -0.04    +0.112 A  ATOM     12  C   UNL     1      40.995  48.087  16.873 -0.35 -0.03    +0.220 A  ATOM     13  N   UNL     1      41.420  48.993  15.990 -0.94 +0.00    -0.219 NA ATOM     14  N   UNL     1      39.835  47.427  16.793 -0.34 +0.05    -0.210 NA ATOM     15  C   UNL     1      40.616  49.216  14.931 -0.47 -0.05    +0.156 A  ATOM     16  C   UNL     1      39.417  48.574  14.741 -0.37 -0.07    +0.167 A  ATOM     17  F   UNL     1      38.661  48.863  13.674 -0.09 +0.08    -0.203 F  BRANCH  12  18ATOM     18  N   UNL     1      41.792  47.847  17.969 -0.30 +0.02    -0.368 N  ATOM     19  H   UNL     1      41.250  47.439  18.717 +0.08 -0.01    +0.159 HD ATOM     20  H   UNL     1      42.643  47.378  17.695 -0.46 -0.03    +0.159 HD ENDBRANCH  12  18ENDBRANCH   6  11ENDBRANCH   1   5BRANCH   3  21ATOM     21  C   UNL     1      31.596  44.732  15.478 -0.35 -0.07    +0.138 C  BRANCH  21  22ATOM     22  C   UNL     1      30.455  45.769  15.645 -0.35 -0.06    +0.185 C  BRANCH  22  23ATOM     23  O   UNL     1      30.882  47.097  15.340 -0.78 +0.15    -0.394 OA ATOM     24  H   UNL     1      31.646  47.289  15.930 -0.40 -0.31    +0.210 HD ENDBRANCH  22  23ENDBRANCH  21  22BRANCH  21  25ATOM     25  C   UNL     1      31.633  43.758  16.646 -0.30 +0.01    -0.023 A  ATOM     26  C   UNL     1      31.243  42.418  16.489 -0.31 -0.00    +0.006 A  ATOM     27  C   UNL     1      32.038  44.199  17.916 -0.27 -0.00    +0.006 A  ATOM     28  C   UNL     1      31.266  41.540  17.574 -0.32 -0.00    +0.000 A  ATOM     29  C   UNL     1      32.060  43.318  18.998 -0.37 -0.00    +0.000 A  ATOM     30  C   UNL     1      31.675  41.990  18.827 -0.25 -0.00    +0.000 A  ENDBRANCH  21  25ENDBRANCH   3  21TORSDOF 7TERENDMDL