MODEL        5USER    Run = 5USERUSER    Estimated Free Energy of Binding    = -10.30 kcal/mol  [=(1)+(2)+(3)-(4)]USERUSER    (1) Final Intermolecular Energy     = -13.28 kcal/molUSER        vdW + Hbond + desolv Energy     = -13.10 kcal/molUSER        Electrostatic Energy            =  -0.18 kcal/molUSER        Moving Ligand-Fixed Receptor    = -13.28 kcal/molUSER        Moving Ligand-Moving Receptor   =  +0.00 kcal/molUSER    (2) Final Total Internal Energy     =  -2.29 kcal/molUSER    (3) Torsional Free Energy           =  +2.98 kcal/molUSER    (4) Unbound System's Energy         =  -2.29 kcal/molUSERUSERREMARK SMILES Cc1cc(NC(=O)NC=Cc2cc(-c3cnn(C)c3)cnc2N)ccc1[C@H](N)COREMARK SMILES IDX 5 1 6 2 7 3 8 4 4 7 2 8 3 9 26 10 25 11 24 12 1 13 27 14REMARK SMILES IDX 28 15 29 18 30 19 9 21 10 22 11 23 12 24 22 25 13 26 21 27REMARK SMILES IDX 20 28 23 29 14 32 15 33 19 34 16 35 17 36 18 37REMARK H PARENT 5 5 8 6 28 16 28 17 30 20 23 30 23 31USER                              x       y       z     vdW  Elec       q    TypeUSER                           _______ _______ _______ _____ _____    ______ ____ROOTATOM      1  N   UNL     1      38.229  43.773  21.935 -0.15 -0.01    -0.308 N  ATOM      2  C   UNL     1      38.677  44.738  21.045 -0.21 +0.01    +0.323 C  ATOM      3  O   UNL     1      38.777  45.936  21.285 -0.22 -0.02    -0.248 OA ATOM      4  N   UNL     1      38.996  44.156  19.822 -0.12 +0.01    -0.314 N  ATOM      5  H   UNL     1      38.338  42.814  21.648 +0.11 +0.01    +0.171 HD ATOM      6  H   UNL     1      38.697  43.201  19.695 +0.14 -0.00    +0.171 HD ENDROOTBRANCH   1   7ATOM      7  C   UNL     1      37.753  43.961  23.250 -0.31 +0.00    +0.043 A  ATOM      8  C   UNL     1      37.422  45.259  25.301 -0.30 -0.00    -0.044 A  ATOM      9  C   UNL     1      37.933  45.130  23.992 -0.28 +0.00    +0.030 A  ATOM     10  C   UNL     1      36.724  44.182  25.888 -0.34 +0.00    -0.026 A  ATOM     11  C   UNL     1      36.537  43.015  25.125 -0.38 +0.00    +0.008 A  ATOM     12  C   UNL     1      37.047  42.906  23.829 -0.38 +0.00    +0.026 A  ATOM     13  C   UNL     1      37.670  46.549  26.037 -0.35 -0.00    +0.045 C  BRANCH  10  14ATOM     14  C   UNL     1      36.133  44.267  27.284 -0.42 -0.02    +0.107 C  BRANCH  14  15ATOM     15  N   UNL     1      37.006  43.634  28.290 -0.11 +0.09    -0.322 NA ATOM     16  H   UNL     1      36.792  44.029  29.203 -0.39 -0.04    +0.119 HD ATOM     17  H   UNL     1      36.768  42.641  28.326 -0.34 -0.05    +0.119 HD ENDBRANCH  14  15BRANCH  14  18ATOM     18  C   UNL     1      34.720  43.640  27.334 -0.48 -0.03    +0.179 C  BRANCH  18  19ATOM     19  O   UNL     1      34.596  42.773  28.468 -0.29 +0.15    -0.394 OA ATOM     20  H   UNL     1      35.307  43.010  29.086 -0.41 -0.16    +0.210 HD ENDBRANCH  18  19ENDBRANCH  14  18ENDBRANCH  10  14ENDBRANCH   1   7BRANCH   4  21ATOM     21  C   UNL     1      39.538  44.758  18.706 -0.41 -0.01    +0.088 C  BRANCH  21  22ATOM     22  C   UNL     1      40.430  45.757  18.693 -0.51 -0.00    +0.030 C  BRANCH  22  23ATOM     23  C   UNL     1      40.443  46.807  17.660 -0.49 -0.00    +0.019 A  ATOM     24  C   UNL     1      39.461  46.824  16.658 -0.45 -0.01    +0.022 A  ATOM     25  C   UNL     1      41.446  47.791  17.623 -0.40 -0.01    +0.130 A  ATOM     26  C   UNL     1      39.479  47.802  15.661 -0.52 -0.00    +0.004 A  ATOM     27  N   UNL     1      41.485  48.741  16.671 -0.88 -0.01    -0.238 NA ATOM     28  C   UNL     1      40.516  48.728  15.724 -0.50 -0.03    +0.122 A  BRANCH  25  29ATOM     29  N   UNL     1      42.473  47.827  18.579 -0.31 -0.00    -0.383 N  ATOM     30  H   UNL     1      42.683  48.795  18.805 -0.19 -0.01    +0.158 HD ATOM     31  H   UNL     1      43.315  47.429  18.173 -0.31 +0.00    +0.158 HD ENDBRANCH  25  29BRANCH  26  32ATOM     32  C   UNL     1      38.468  47.831  14.618 -0.50 -0.01    +0.021 A  ATOM     33  C   UNL     1      37.609  48.872  14.192 -0.33 -0.09    +0.143 A  ATOM     34  C   UNL     1      38.143  46.780  13.782 -0.36 -0.04    +0.117 A  ATOM     35  N   UNL     1      36.820  48.515  13.176 -0.79 +0.07    -0.181 NA ATOM     36  N   UNL     1      37.158  47.234  12.952 -0.36 +0.10    -0.275 N  ATOM     37  C   UNL     1      36.495  46.497  11.904 -0.60 -0.07    +0.173 C  ENDBRANCH  26  32ENDBRANCH  22  23ENDBRANCH  21  22ENDBRANCH   4  21TORSDOF 10TERENDMDL