MODEL        1USER    Run = 1USERUSER    Estimated Free Energy of Binding    =  -8.16 kcal/mol  [=(1)+(2)+(3)-(4)]USERUSER    (1) Final Intermolecular Energy     = -10.85 kcal/molUSER        vdW + Hbond + desolv Energy     = -10.78 kcal/molUSER        Electrostatic Energy            =  -0.06 kcal/molUSER        Moving Ligand-Fixed Receptor    = -10.85 kcal/molUSER        Moving Ligand-Moving Receptor   =  +0.00 kcal/molUSER    (2) Final Total Internal Energy     =  -2.05 kcal/molUSER    (3) Torsional Free Energy           =  +2.68 kcal/molUSER    (4) Unbound System's Energy         =  -2.05 kcal/molUSERUSERREMARK SMILES Clc1ccccc1Nc1cnc(C=CC=NC=CC2=CC=CC2)cn1REMARK SMILES IDX 14 1 13 2 12 3 9 4 10 5 25 6 11 7 24 8 8 9 7 11 2 12 3 13REMARK SMILES IDX 4 14 6 15 5 16 1 17 15 18 16 19 17 20 18 21 19 22 20 23REMARK SMILES IDX 23 24 21 25 22 26REMARK H PARENT 8 10USER                              x       y       z     vdW  Elec       q    TypeUSER                           _______ _______ _______ _____ _____    ______ ____ROOTATOM      1  C   UNL     1      36.336  45.863  12.295 -0.66 -0.01    +0.022 C  ENDROOTBRANCH   1   2ATOM      2  C   UNL     1      36.905  45.059  13.205 -0.53 -0.01    +0.031 C  BRANCH   2   3ATOM      3  C   UNL     1      36.499  45.030  14.615 -0.33 -0.03    +0.081 A  ATOM      4  C   UNL     1      35.785  44.937  17.245 -0.22 -0.07    +0.148 A  ATOM      5  C   UNL     1      35.152  45.769  16.317 -0.23 -0.13    +0.158 A  ATOM      6  N   UNL     1      36.797  44.136  16.845 -0.19 +0.07    -0.235 NA ATOM      7  N   UNL     1      35.493  45.845  15.004 -0.21 +0.19    -0.251 NA ATOM      8  C   UNL     1      37.129  44.193  15.531 -0.18 -0.05    +0.141 A  BRANCH   4   9ATOM      9  N   UNL     1      35.349  44.946  18.594 -0.15 +0.11    -0.338 N  ATOM     10  H   UNL     1      35.351  45.905  18.926 +0.07 -0.06    +0.168 HD BRANCH   9  11ATOM     11  C   UNL     1      35.833  44.051  19.581 -0.35 -0.01    +0.059 A  ATOM     12  C   UNL     1      35.241  42.798  19.840 -0.40 -0.00    +0.064 A  ATOM     13  C   UNL     1      35.791  41.931  20.793 -0.45 +0.00    +0.023 A  ATOM     14  C   UNL     1      36.937  42.298  21.496 -0.49 +0.00    +0.002 A  ATOM     15  C   UNL     1      36.989  44.400  20.303 -0.33 -0.00    +0.027 A  ATOM     16  C   UNL     1      37.534  43.532  21.253 -0.38 +0.00    +0.002 A  ATOM     17  Cl  UNL     1      33.771  42.300  19.069 -0.57 +0.01    -0.082 Cl ENDBRANCH   9  11ENDBRANCH   4   9ENDBRANCH   2   3ENDBRANCH   1   2BRANCH   1  18ATOM     18  C   UNL     1      36.318  47.330  12.531 -0.66 -0.05    +0.111 C  BRANCH  18  19ATOM     19  N   UNL     1      37.284  48.121  12.873 -0.89 +0.06    -0.265 NA BRANCH  19  20ATOM     20  C   UNL     1      37.430  48.422  14.200 -0.53 -0.07    +0.111 C  BRANCH  20  21ATOM     21  C   UNL     1      38.594  48.569  14.852 -0.56 -0.01    +0.024 C  BRANCH  21  22ATOM     22  C   UNL     1      39.140  47.686  15.851 -0.53 +0.02    -0.043 C  ATOM     23  C   UNL     1      38.487  46.947  16.762 -0.46 -0.00    +0.004 C  ATOM     24  C   UNL     1      40.625  47.528  16.052 -0.53 -0.01    +0.063 C  ATOM     25  C   UNL     1      39.436  46.250  17.592 -0.51 +0.00    -0.004 C  ATOM     26  C   UNL     1      40.681  46.566  17.206 -0.54 +0.00    -0.022 C  ENDBRANCH  21  22ENDBRANCH  20  21ENDBRANCH  19  20ENDBRANCH  18  19ENDBRANCH   1  18TORSDOF 9TERENDMDL