MODEL        9USER    Run = 9USERUSER    Estimated Free Energy of Binding    = -11.36 kcal/mol  [=(1)+(2)+(3)-(4)]USERUSER    (1) Final Intermolecular Energy     = -13.75 kcal/molUSER        vdW + Hbond + desolv Energy     = -13.64 kcal/molUSER        Electrostatic Energy            =  -0.10 kcal/molUSER        Moving Ligand-Fixed Receptor    = -13.75 kcal/molUSER        Moving Ligand-Moving Receptor   =  +0.00 kcal/molUSER    (2) Final Total Internal Energy     =  -2.26 kcal/molUSER    (3) Torsional Free Energy           =  +2.39 kcal/molUSER    (4) Unbound System's Energy         =  -2.26 kcal/molUSERUSERREMARK SMILES C[C@@H](CN)[C@@H](C)c1cccc(-c2cccc(NS(=O)(=O)c3ccccc3)c2)c1REMARK SMILES IDX 7 1 8 2 9 3 10 4 11 5 28 6 5 7 6 8 2 9 1 10 3 11 4 12 12 15REMARK SMILES IDX 13 16 27 17 14 18 16 19 15 20 17 21 18 23 19 24 20 25 21 26REMARK SMILES IDX 22 27 26 28 23 29 25 30 24 31REMARK H PARENT 4 13 4 14 17 22USER                              x       y       z     vdW  Elec       q    TypeUSER                           _______ _______ _______ _____ _____    ______ ____ROOTATOM      1  C   UNL     1      37.421  44.789  19.368 -0.27 +0.00    -0.044 A  ATOM      2  C   UNL     1      38.475  44.171  20.053 -0.31 -0.00    +0.004 A  ATOM      3  C   UNL     1      39.798  44.429  19.695 -0.35 -0.00    +0.001 A  ATOM      4  C   UNL     1      40.082  45.308  18.649 -0.44 -0.00    +0.009 A  ATOM      5  C   UNL     1      39.052  45.952  17.944 -0.41 +0.00    -0.018 A  ATOM      6  C   UNL     1      37.725  45.677  18.321 -0.25 -0.00    +0.012 A  ENDROOTBRANCH   1   7ATOM      7  C   UNL     1      35.965  44.516  19.730 -0.36 -0.00    +0.020 C  ATOM      8  C   UNL     1      35.887  43.201  20.521 -0.49 -0.00    +0.013 C  BRANCH   7   9ATOM      9  C   UNL     1      35.022  44.544  18.483 -0.41 -0.00    +0.007 C  ATOM     10  C   UNL     1      34.532  43.132  18.120 -0.40 -0.00    +0.009 C  BRANCH   9  11ATOM     11  C   UNL     1      33.817  45.483  18.731 -0.47 -0.04    +0.081 C  BRANCH  11  12ATOM     12  N   UNL     1      34.199  46.893  18.710 -0.81 +0.22    -0.330 NA ATOM     13  H   UNL     1      33.914  47.333  19.584 -0.46 -0.03    +0.118 HD ATOM     14  H   UNL     1      33.675  47.368  17.975 -0.42 -0.18    +0.118 HD ENDBRANCH  11  12ENDBRANCH   9  11ENDBRANCH   7   9ENDBRANCH   1   7BRANCH   5  15ATOM     15  C   UNL     1      39.354  46.883  16.842 -0.45 +0.00    -0.016 A  ATOM     16  C   UNL     1      40.677  47.249  16.540 -0.49 -0.00    +0.009 A  ATOM     17  C   UNL     1      38.326  47.426  16.051 -0.41 -0.02    +0.035 A  ATOM     18  C   UNL     1      40.964  48.127  15.492 -0.50 -0.00    +0.003 A  ATOM     19  C   UNL     1      38.611  48.297  14.999 -0.49 -0.02    +0.049 A  ATOM     20  C   UNL     1      39.929  48.652  14.720 -0.52 -0.01    +0.027 A  BRANCH  19  21ATOM     21  N   UNL     1      37.570  48.800  14.170 -0.33 +0.17    -0.280 N  ATOM     22  H   UNL     1      37.638  49.763  13.849 -0.43 -0.13    +0.180 HD BRANCH  21  23ATOM     23  S   UNL     1      36.903  47.791  12.988 -0.62 -0.10    +0.261 S  ATOM     24  O   UNL     1      35.759  48.440  12.383 -0.62 +0.11    -0.201 OA ATOM     25  O   UNL     1      38.015  47.332  12.181 -0.93 +0.01    -0.201 OA BRANCH  23  26ATOM     26  C   UNL     1      36.317  46.401  13.929 -0.40 -0.05    +0.087 A  ATOM     27  C   UNL     1      35.060  46.464  14.539 -0.28 -0.02    +0.022 A  ATOM     28  C   UNL     1      37.131  45.274  14.085 -0.41 -0.01    +0.022 A  ATOM     29  C   UNL     1      34.605  45.377  15.286 -0.33 -0.00    +0.001 A  ATOM     30  C   UNL     1      36.667  44.192  14.831 -0.29 -0.00    +0.001 A  ATOM     31  C   UNL     1      35.406  44.242  15.429 -0.28 -0.00    +0.000 A  ENDBRANCH  23  26ENDBRANCH  21  23ENDBRANCH  19  21ENDBRANCH   5  15TORSDOF 8TERENDMDL