REMARK SMILES C[C@@H](CN)[C@@H](C)c1cccc(-c2cccc(NS(=O)(=O)c3ccccc3)c2)c1
REMARK SMILES IDX 7 1 8 2 9 3 10 4 11 5 28 6 5 7 6 8 2 9 1 10 3 11 4 12 12 15
REMARK SMILES IDX 13 16 27 17 14 18 16 19 15 20 17 21 18 23 19 24 20 25 21 26
REMARK SMILES IDX 22 27 26 28 23 29 25 30 24 31
REMARK H PARENT 4 13 4 14 17 22
ROOT
ATOM      1  C   UNL     1      -2.788  -0.863   0.160  1.00  0.00    -0.044 A 
ATOM      2  C   UNL     1      -2.675  -1.828  -0.849  1.00  0.00     0.004 A 
ATOM      3  C   UNL     1      -1.447  -2.067  -1.464  1.00  0.00     0.001 A 
ATOM      4  C   UNL     1      -0.317  -1.346  -1.076  1.00  0.00     0.009 A 
ATOM      5  C   UNL     1      -0.389  -0.376  -0.063  1.00  0.00    -0.018 A 
ATOM      6  C   UNL     1      -1.638  -0.150   0.543  1.00  0.00     0.012 A 
ENDROOT
BRANCH   1   7
ATOM      7  C   UNL     1      -4.121  -0.572   0.841  1.00  0.00     0.020 C 
ATOM      8  C   UNL     1      -4.561  -1.817   1.626  1.00  0.00     0.013 C 
BRANCH   7   9
ATOM      9  C   UNL     1      -5.206  -0.059  -0.161  1.00  0.00     0.007 C 
ATOM     10  C   UNL     1      -6.560   0.150   0.538  1.00  0.00     0.009 C 
BRANCH   9  11
ATOM     11  C   UNL     1      -4.744   1.253  -0.840  1.00  0.00     0.081 C 
BRANCH  11  12
ATOM     12  N   UNL     1      -5.695   1.722  -1.846  1.00  0.00    -0.330 NA
ATOM     13  H   UNL     1      -5.780   1.021  -2.581  1.00  0.00     0.118 HD
ATOM     14  H   UNL     1      -5.317   2.555  -2.297  1.00  0.00     0.118 HD
ENDBRANCH  11  12
ENDBRANCH   9  11
ENDBRANCH   7   9
ENDBRANCH   1   7
BRANCH   5  15
ATOM     15  C   UNL     1       0.806   0.383   0.348  1.00  0.00    -0.016 A 
ATOM     16  C   UNL     1       1.158   0.507   1.703  1.00  0.00     0.009 A 
ATOM     17  C   UNL     1       1.636   0.998  -0.605  1.00  0.00     0.035 A 
ATOM     18  C   UNL     1       2.294   1.222   2.093  1.00  0.00     0.003 A 
ATOM     19  C   UNL     1       2.775   1.706  -0.218  1.00  0.00     0.049 A 
ATOM     20  C   UNL     1       3.103   1.822   1.131  1.00  0.00     0.027 A 
BRANCH  19  21
ATOM     21  N   UNL     1       3.639   2.280  -1.192  1.00  0.00    -0.280 N 
ATOM     22  H   UNL     1       4.187   3.094  -0.923  1.00  0.00     0.180 HD
BRANCH  21  23
ATOM     23  S   UNL     1       4.500   1.258  -2.229  1.00  0.00     0.261 S 
ATOM     24  O   UNL     1       3.575   0.447  -2.991  1.00  0.00    -0.201 OA
ATOM     25  O   UNL     1       5.481   2.095  -2.889  1.00  0.00    -0.201 OA
BRANCH  23  26
ATOM     26  C   UNL     1       5.376   0.192  -1.107  1.00  0.00     0.087 A 
ATOM     27  C   UNL     1       6.621   0.591  -0.610  1.00  0.00     0.022 A 
ATOM     28  C   UNL     1       4.834  -1.050  -0.762  1.00  0.00     0.022 A 
ATOM     29  C   UNL     1       7.312  -0.250   0.262  1.00  0.00     0.001 A 
ATOM     30  C   UNL     1       5.530  -1.883   0.112  1.00  0.00     0.001 A 
ATOM     31  C   UNL     1       6.766  -1.483   0.625  1.00  0.00     0.000 A 
ENDBRANCH  23  26
ENDBRANCH  21  23
ENDBRANCH  19  21
ENDBRANCH   5  15
TORSDOF 8
