MODEL        1USER    Run = 1USERUSER    Estimated Free Energy of Binding    =  -9.51 kcal/mol  [=(1)+(2)+(3)-(4)]USERUSER    (1) Final Intermolecular Energy     = -10.70 kcal/molUSER        vdW + Hbond + desolv Energy     = -10.53 kcal/molUSER        Electrostatic Energy            =  -0.17 kcal/molUSER        Moving Ligand-Fixed Receptor    = -10.70 kcal/molUSER        Moving Ligand-Moving Receptor   =  +0.00 kcal/molUSER    (2) Final Total Internal Energy     =  -1.38 kcal/molUSER    (3) Torsional Free Energy           =  +1.19 kcal/molUSER    (4) Unbound System's Energy         =  -1.38 kcal/molUSERUSERREMARK SMILES CCN[C@H]1CNC(c2ccnc(-c3ccnc(Cl)c3)c2)=CC1=OREMARK SMILES IDX 4 1 5 2 6 3 7 4 21 5 22 6 23 7 3 9 2 11 1 12 8 13 9 14 20 15REMARK SMILES IDX 10 16 12 17 11 18 13 19 14 20 19 21 15 22 17 23 16 24 18 25REMARK H PARENT 6 8 3 10USER                              x       y       z     vdW  Elec       q    TypeUSER                           _______ _______ _______ _____ _____    ______ ____ROOTATOM      1  C   UNL     1      33.030  43.400  16.239 -0.29 -0.07    +0.145 C  ATOM      2  C   UNL     1      32.777  44.913  16.134 -0.29 -0.09    +0.140 C  ATOM      3  N   UNL     1      33.672  45.503  15.140 -0.09 +0.35    -0.382 N  ATOM      4  C   UNL     1      35.012  45.164  15.133 -0.34 -0.03    +0.045 C  ATOM      5  C   UNL     1      35.490  44.054  15.710 -0.36 -0.03    +0.075 C  ATOM      6  C   UNL     1      34.538  43.128  16.374 -0.33 -0.08    +0.176 C  ATOM      7  O   UNL     1      34.989  42.138  16.954 -0.35 +0.13    -0.293 OA ATOM      8  H   UNL     1      33.500  46.493  14.962 -0.27 -0.28    +0.160 HD ENDROOTBRANCH   1   9ATOM      9  N   UNL     1      32.257  42.649  17.259 -0.11 +0.10    -0.306 NA ATOM     10  H   UNL     1      32.869  41.899  17.603 +0.06 -0.04    +0.123 HD BRANCH   9  11ATOM     11  C   UNL     1      31.748  43.402  18.402 -0.32 -0.01    +0.078 C  ATOM     12  C   UNL     1      32.795  43.790  19.437 -0.50 -0.00    +0.020 C  ENDBRANCH   9  11ENDBRANCH   1   9BRANCH   4  13ATOM     13  C   UNL     1      35.932  46.078  14.429 -0.42 -0.00    +0.001 A  ATOM     14  C   UNL     1      35.646  46.486  13.128 -0.52 -0.02    +0.030 A  ATOM     15  C   UNL     1      37.085  46.570  15.053 -0.37 -0.02    +0.039 A  ATOM     16  C   UNL     1      36.519  47.358  12.510 -0.59 -0.05    +0.112 A  ATOM     17  C   UNL     1      37.922  47.443  14.360 -0.44 -0.03    +0.071 A  ATOM     18  N   UNL     1      37.636  47.842  13.095 -0.84 +0.06    -0.256 NA BRANCH  17  19ATOM     19  C   UNL     1      39.157  48.011  14.938 -0.53 -0.00    +0.005 A  ATOM     20  C   UNL     1      39.524  47.727  16.263 -0.47 -0.01    +0.030 A  ATOM     21  C   UNL     1      40.007  48.857  14.212 -0.32 -0.02    +0.051 A  ATOM     22  C   UNL     1      40.689  48.267  16.787 -0.41 -0.02    +0.113 A  ATOM     23  C   UNL     1      41.148  49.345  14.828 -0.53 -0.03    +0.129 A  ATOM     24  N   UNL     1      41.517  49.070  16.092 -0.91 -0.01    -0.245 NA ATOM     25  Cl  UNL     1      42.222  50.383  13.982 -0.97 +0.01    -0.062 Cl ENDBRANCH  17  19ENDBRANCH   4  13TORSDOF 4TERENDMDL