MODEL        8USER    Run = 8USERUSER    Estimated Free Energy of Binding    =  -8.97 kcal/mol  [=(1)+(2)+(3)-(4)]USERUSER    (1) Final Intermolecular Energy     = -10.76 kcal/molUSER        vdW + Hbond + desolv Energy     = -10.42 kcal/molUSER        Electrostatic Energy            =  -0.34 kcal/molUSER        Moving Ligand-Fixed Receptor    = -10.76 kcal/molUSER        Moving Ligand-Moving Receptor   =  +0.00 kcal/molUSER    (2) Final Total Internal Energy     =  -1.24 kcal/molUSER    (3) Torsional Free Energy           =  +1.79 kcal/molUSER    (4) Unbound System's Energy         =  -1.24 kcal/molUSERUSERREMARK SMILES COc1ccc(O)c(C(=O)c2ccc(C(=O)N[C@@H]3CCCNC3)cc2)c1FREMARK SMILES IDX 11 1 12 2 13 3 14 4 24 5 25 6 9 7 10 8 8 9 3 10 4 11 26 12REMARK SMILES IDX 5 13 6 14 27 15 2 16 1 17 7 18 15 20 17 21 16 22 18 24 19 25REMARK SMILES IDX 23 26 20 27 22 28 21 29REMARK H PARENT 7 19 17 23 22 30USER                              x       y       z     vdW  Elec       q    TypeUSER                           _______ _______ _______ _____ _____    ______ ____ROOTATOM      1  C   UNL     1      42.180  46.962  19.164 -0.51 +0.00    +0.023 A  ATOM      2  C   UNL     1      41.383  45.854  18.848 -0.47 +0.00    +0.013 A  ATOM      3  C   UNL     1      40.586  45.865  17.697 -0.47 -0.00    +0.014 A  ATOM      4  C   UNL     1      40.586  46.983  16.854 -0.47 -0.01    +0.039 A  ATOM      5  C   UNL     1      41.370  48.096  17.174 -0.49 -0.00    +0.014 A  ATOM      6  C   UNL     1      42.172  48.081  18.320 -0.40 -0.00    +0.013 A  ENDROOTBRANCH   1   7ATOM      7  C   UNL     1      43.059  46.994  20.367 -0.35 +0.06    +0.199 C  ATOM      8  O   UNL     1      44.246  47.290  20.272 -0.42 -0.21    -0.288 OA BRANCH   7   9ATOM      9  C   UNL     1      42.523  46.682  21.698 -0.26 +0.02    +0.104 A  ATOM     10  C   UNL     1      41.547  45.053  23.207 -0.10 +0.01    +0.155 A  ATOM     11  C   UNL     1      41.561  46.009  24.227 -0.10 +0.00    +0.053 A  ATOM     12  C   UNL     1      42.038  45.401  21.943 -0.17 +0.03    +0.179 A  ATOM     13  C   UNL     1      42.051  47.298  23.984 -0.19 +0.01    +0.051 A  ATOM     14  C   UNL     1      42.530  47.632  22.718 -0.24 +0.02    +0.130 A  ATOM     15  F   UNL     1      42.006  44.495  20.951 -0.08 -0.04    -0.202 F  BRANCH  10  16ATOM     16  O   UNL     1      41.072  43.776  23.326 -0.03 -0.02    -0.494 OA ATOM     17  C   UNL     1      41.999  42.711  23.163 -0.11 -0.01    +0.278 C  ENDBRANCH  10  16BRANCH  14  18ATOM     18  O   UNL     1      42.997  48.892  22.476 -0.63 -0.11    -0.507 OA ATOM     19  H   UNL     1      43.612  48.876  21.723 -0.43 -0.06    +0.293 HD ENDBRANCH  14  18ENDBRANCH   7   9ENDBRANCH   1   7BRANCH   4  20ATOM     20  C   UNL     1      39.755  47.030  15.621 -0.35 -0.05    +0.251 C  ATOM     21  N   UNL     1      38.389  46.964  15.810 -0.16 +0.14    -0.348 N  ATOM     22  O   UNL     1      40.285  47.087  14.519 -0.31 +0.03    -0.269 OA ATOM     23  H   UNL     1      38.051  46.630  16.703 +0.10 -0.07    +0.164 HD BRANCH  21  24ATOM     24  C   UNL     1      37.486  46.847  14.672 -0.42 -0.05    +0.096 C  ATOM     25  C   UNL     1      37.705  45.519  13.947 -0.47 -0.01    +0.027 C  ATOM     26  C   UNL     1      37.643  48.034  13.684 -0.52 -0.04    +0.105 C  ATOM     27  C   UNL     1      36.772  45.376  12.739 -0.59 -0.01    +0.017 C  ATOM     28  N   UNL     1      37.238  47.747  12.298 -0.96 +0.06    -0.315 NA ATOM     29  C   UNL     1      36.214  46.712  12.240 -0.69 -0.04    +0.081 C  ATOM     30  H   UNL     1      36.894  48.607  11.871 -0.14 -0.01    +0.122 HD ENDBRANCH  21  24ENDBRANCH   4  20TORSDOF 6TERENDMDL