MODEL        8USER    Run = 8USERUSER    Estimated Free Energy of Binding    =  -9.33 kcal/mol  [=(1)+(2)+(3)-(4)]USERUSER    (1) Final Intermolecular Energy     = -10.23 kcal/molUSER        vdW + Hbond + desolv Energy     =  -9.82 kcal/molUSER        Electrostatic Energy            =  -0.40 kcal/molUSER        Moving Ligand-Fixed Receptor    = -10.23 kcal/molUSER        Moving Ligand-Moving Receptor   =  +0.00 kcal/molUSER    (2) Final Total Internal Energy     =  -0.66 kcal/molUSER    (3) Torsional Free Energy           =  +0.89 kcal/molUSER    (4) Unbound System's Energy         =  -0.66 kcal/molUSERUSERREMARK SMILES Cn1ccnccc(-c2cccc(-c3ccc(O)c(F)c3)c2)cc1REMARK SMILES IDX 9 1 10 2 11 3 12 4 13 5 22 6 8 7 2 8 3 9 24 10 4 11 23 12REMARK SMILES IDX 5 13 6 14 7 15 1 16 14 17 15 18 21 19 16 20 19 21 17 22REMARK SMILES IDX 20 23 18 24REMARK H PARENT 18 25USER                              x       y       z     vdW  Elec       q    TypeUSER                           _______ _______ _______ _____ _____    ______ ____ROOTATOM      1  C   UNL     1      38.002  45.619  17.060 -0.36 +0.01    -0.018 A  ATOM      2  C   UNL     1      37.102  44.945  17.894 -0.34 -0.00    +0.009 A  ATOM      3  C   UNL     1      37.442  44.677  19.217 -0.35 -0.00    +0.001 A  ATOM      4  C   UNL     1      38.685  45.079  19.715 -0.37 -0.00    +0.009 A  ATOM      5  C   UNL     1      39.609  45.763  18.907 -0.42 +0.00    -0.018 A  ATOM      6  C   UNL     1      39.245  46.029  17.574 -0.42 -0.00    +0.017 A  ENDROOTBRANCH   1   7ATOM      7  C   UNL     1      37.645  45.895  15.629 -0.36 +0.01    -0.015 A  ATOM      8  N   UNL     1      36.845  45.095  12.645 -0.25 +0.12    -0.356 N  ATOM      9  C   UNL     1      36.172  46.235  12.255 -0.55 -0.05    +0.105 A  ATOM     10  C   UNL     1      36.534  44.582  13.886 -0.21 -0.03    +0.086 A  ATOM     11  C   UNL     1      36.446  47.527  12.462 -0.57 -0.06    +0.129 A  ATOM     12  C   UNL     1      36.875  44.917  15.131 -0.36 -0.01    +0.026 A  ATOM     13  N   UNL     1      37.363  48.273  13.085 -0.79 +0.07    -0.263 NA ATOM     14  C   UNL     1      38.071  47.907  14.165 -0.44 -0.05    +0.111 A  ATOM     15  C   UNL     1      38.193  47.034  15.181 -0.41 -0.01    +0.029 A  ATOM     16  C   UNL     1      37.154  44.139  11.577 -0.38 -0.04    +0.149 C  ENDBRANCH   1   7BRANCH   5  17ATOM     17  C   UNL     1      40.921  46.184  19.433 -0.42 -0.00    -0.015 A  ATOM     18  C   UNL     1      41.797  46.968  18.655 -0.54 +0.00    +0.013 A  ATOM     19  C   UNL     1      41.341  45.818  20.722 -0.32 +0.01    +0.052 A  ATOM     20  C   UNL     1      43.046  47.373  19.143 -0.50 +0.01    +0.050 A  ATOM     21  C   UNL     1      42.586  46.217  21.204 -0.24 +0.04    +0.165 A  ATOM     22  C   UNL     1      43.436  46.992  20.422 -0.27 +0.06    +0.151 A  ATOM     23  F   UNL     1      42.953  45.845  22.440 -0.03 -0.05    -0.203 F  BRANCH  22  24ATOM     24  O   UNL     1      44.649  47.370  20.922 -0.52 -0.45    -0.505 OA ATOM     25  H   UNL     1      44.557  48.240  21.339 -0.42 +0.03    +0.293 HD ENDBRANCH  22  24ENDBRANCH   5  17TORSDOF 3TERENDMDL