MODEL        2USER    Run = 2USERUSER    Estimated Free Energy of Binding    =  -7.93 kcal/mol  [=(1)+(2)+(3)-(4)]USERUSER    (1) Final Intermolecular Energy     = -10.02 kcal/molUSER        vdW + Hbond + desolv Energy     =  -9.91 kcal/molUSER        Electrostatic Energy            =  -0.11 kcal/molUSER        Moving Ligand-Fixed Receptor    = -10.02 kcal/molUSER        Moving Ligand-Moving Receptor   =  +0.00 kcal/molUSER    (2) Final Total Internal Energy     =  -1.16 kcal/molUSER    (3) Torsional Free Energy           =  +2.09 kcal/molUSER    (4) Unbound System's Energy         =  -1.16 kcal/molUSERUSERREMARK SMILES O=C(C=C(CO)Nc1cccc(F)c1)[C@@H]1CCN1REMARK SMILES IDX 3 1 2 2 1 3 15 4 16 5 18 6 17 7 4 9 5 10 6 11 7 13 8 15 9 16REMARK SMILES IDX 14 17 10 18 12 19 11 20 13 21REMARK H PARENT 18 8 6 12 7 14USER                              x       y       z     vdW  Elec       q    TypeUSER                           _______ _______ _______ _____ _____    ______ ____ROOTATOM      1  C   UNL     1      39.293  47.895  14.555 -0.52 -0.02    +0.072 C  ENDROOTBRANCH   1   2ATOM      2  C   UNL     1      37.879  48.382  14.503 -0.47 -0.10    +0.174 C  ATOM      3  O   UNL     1      37.522  49.331  15.204 -0.42 +0.28    -0.293 OA BRANCH   2   4ATOM      4  C   UNL     1      36.943  47.568  13.541 -0.54 -0.06    +0.127 C  ATOM      5  C   UNL     1      37.190  46.052  13.329 -0.53 -0.02    +0.042 C  ATOM      6  N   UNL     1      37.296  47.728  12.093 -0.95 +0.04    -0.307 NA ATOM      7  C   UNL     1      36.838  46.343  11.860 -0.65 -0.03    +0.084 C  ATOM      8  H   UNL     1      36.783  48.460  11.606 -0.31 -0.03    +0.123 HD ENDBRANCH   2   4ENDBRANCH   1   2BRANCH   1   9ATOM      9  C   UNL     1      40.300  48.402  15.294 -0.61 -0.01    +0.045 C  BRANCH   9  10ATOM     10  C   UNL     1      40.967  49.736  14.982 -0.50 -0.06    +0.209 C  BRANCH  10  11ATOM     11  O   UNL     1      41.795  50.100  16.100 -0.88 -0.02    -0.390 OA ATOM     12  H   UNL     1      41.423  50.936  16.433 -0.42 -0.08    +0.211 HD ENDBRANCH  10  11ENDBRANCH   9  10BRANCH   9  13ATOM     13  N   UNL     1      40.755  47.807  16.473 -0.26 +0.06    -0.357 N  ATOM     14  H   UNL     1      41.781  47.762  16.483 -0.39 -0.02    +0.166 HD BRANCH  13  15ATOM     15  C   UNL     1      40.184  46.745  17.208 -0.46 -0.01    +0.041 A  ATOM     16  C   UNL     1      38.784  46.616  17.195 -0.40 -0.01    +0.026 A  ATOM     17  C   UNL     1      40.925  45.796  17.916 -0.43 -0.00    +0.065 A  ATOM     18  C   UNL     1      38.142  45.568  17.866 -0.38 -0.00    +0.005 A  ATOM     19  C   UNL     1      40.280  44.755  18.582 -0.34 -0.00    +0.125 A  ATOM     20  C   UNL     1      38.897  44.631  18.562 -0.35 -0.00    +0.039 A  ATOM     21  F   UNL     1      41.010  43.856  19.256 -0.10 -0.02    -0.207 F  ENDBRANCH  13  15ENDBRANCH   9  13ENDBRANCH   1   9TORSDOF 7TERENDMDL