MODEL        1USER    Run = 1USERUSER    Estimated Free Energy of Binding    =  -8.63 kcal/mol  [=(1)+(2)+(3)-(4)]USERUSER    (1) Final Intermolecular Energy     = -10.72 kcal/molUSER        vdW + Hbond + desolv Energy     = -10.62 kcal/molUSER        Electrostatic Energy            =  -0.10 kcal/molUSER        Moving Ligand-Fixed Receptor    = -10.72 kcal/molUSER        Moving Ligand-Moving Receptor   =  +0.00 kcal/molUSER    (2) Final Total Internal Energy     =  -1.68 kcal/molUSER    (3) Torsional Free Energy           =  +2.09 kcal/molUSER    (4) Unbound System's Energy         =  -1.68 kcal/molUSERUSERREMARK SMILES C[C@@H]1CN[C@H]1C(=O)C=C(CO)Nc1cccc(Cl)c1REMARK SMILES IDX 8 1 6 2 7 3 5 4 2 5 3 6 4 7 1 8 9 10 10 11 11 12 12 14 13 16REMARK SMILES IDX 14 17 19 18 15 19 17 20 16 21 18 22REMARK H PARENT 4 9 11 13 12 15USER                              x       y       z     vdW  Elec       q    TypeUSER                           _______ _______ _______ _____ _____    ______ ____ROOTATOM      1  C   UNL     1      38.857  47.765  15.656 -0.50 -0.03    +0.072 C  ENDROOTBRANCH   1   2ATOM      2  C   UNL     1      37.867  48.288  14.663 -0.46 -0.10    +0.174 C  ATOM      3  O   UNL     1      37.269  49.349  14.865 -0.42 +0.28    -0.293 OA BRANCH   2   4ATOM      4  C   UNL     1      37.676  47.393  13.384 -0.51 -0.04    +0.130 C  ATOM      5  C   UNL     1      36.530  46.348  13.423 -0.57 -0.01    +0.025 C  ATOM      6  C   UNL     1      36.208  46.838  12.000 -0.69 -0.04    +0.087 C  ATOM      7  N   UNL     1      36.921  48.097  12.300 -0.92 +0.07    -0.307 NA ATOM      8  C   UNL     1      36.938  44.897  13.574 -0.50 -0.00    +0.011 C  ATOM      9  H   UNL     1      36.314  48.831  12.680 +0.05 -0.05    +0.123 HD ENDBRANCH   2   4ENDBRANCH   1   2BRANCH   1  10ATOM     10  C   UNL     1      40.116  48.215  15.845 -0.59 -0.01    +0.045 C  BRANCH  10  11ATOM     11  C   UNL     1      40.531  49.636  15.470 -0.48 -0.07    +0.209 C  BRANCH  11  12ATOM     12  O   UNL     1      41.763  49.980  16.092 -0.91 -0.02    -0.390 OA ATOM     13  H   UNL     1      41.563  50.795  16.600 -0.43 -0.05    +0.211 HD ENDBRANCH  11  12ENDBRANCH  10  11BRANCH  10  14ATOM     14  N   UNL     1      41.043  47.425  16.531 -0.20 +0.04    -0.357 N  ATOM     15  H   UNL     1      42.006  47.748  16.467 -0.41 -0.02    +0.166 HD BRANCH  14  16ATOM     16  C   UNL     1      40.850  46.692  17.724 -0.48 -0.00    +0.040 A  ATOM     17  C   UNL     1      39.850  45.726  17.893 -0.43 -0.00    +0.026 A  ATOM     18  C   UNL     1      41.735  46.918  18.789 -0.50 +0.00    +0.046 A  ATOM     19  C   UNL     1      39.727  45.015  19.092 -0.42 -0.00    +0.004 A  ATOM     20  C   UNL     1      41.611  46.208  19.984 -0.38 +0.00    +0.043 A  ATOM     21  C   UNL     1      40.608  45.258  20.142 -0.38 +0.00    +0.020 A  ATOM     22  Cl  UNL     1      42.709  46.513  21.274 -0.48 -0.02    -0.084 Cl ENDBRANCH  14  16ENDBRANCH  10  14ENDBRANCH   1  10TORSDOF 7TERENDMDL