MODEL        1USER    Run = 1USERUSER    Estimated Free Energy of Binding    =  -8.32 kcal/mol  [=(1)+(2)+(3)-(4)]USERUSER    (1) Final Intermolecular Energy     =  -9.52 kcal/molUSER        vdW + Hbond + desolv Energy     =  -9.41 kcal/molUSER        Electrostatic Energy            =  -0.11 kcal/molUSER        Moving Ligand-Fixed Receptor    =  -9.52 kcal/molUSER        Moving Ligand-Moving Receptor   =  +0.00 kcal/molUSER    (2) Final Total Internal Energy     =  -0.54 kcal/molUSER    (3) Torsional Free Energy           =  +1.19 kcal/molUSER    (4) Unbound System's Energy         =  -0.54 kcal/molUSERUSERREMARK SMILES N#Cc1c(-c2ccc(-c3cccc(F)c3)cc2)ccnc1NREMARK SMILES IDX 3 1 4 2 18 3 19 4 20 5 21 6 2 7 1 8 5 9 6 10 17 11 7 12REMARK SMILES IDX 16 13 8 14 9 15 10 16 15 17 11 18 13 19 12 20 14 21 22 22REMARK H PARENT 22 23 22 24USER                              x       y       z     vdW  Elec       q    TypeUSER                           _______ _______ _______ _____ _____    ______ ____ROOTATOM      1  C   UNL     1      41.779  46.678  19.094 -0.43 +0.01    +0.102 A  ATOM      2  C   UNL     1      40.819  45.720  18.711 -0.47 -0.00    +0.005 A  ATOM      3  C   UNL     1      40.649  44.593  19.523 -0.38 +0.00    +0.030 A  ATOM      4  C   UNL     1      41.424  44.470  20.660 -0.28 +0.01    +0.114 A  ATOM      5  N   UNL     1      42.344  45.380  21.036 -0.17 -0.06    -0.238 NA ATOM      6  C   UNL     1      42.521  46.469  20.264 -0.29 +0.04    +0.141 A  ENDROOTBRANCH   1   7ATOM      7  C   UNL     1      42.011  47.849  18.304 -0.44 -0.00    +0.104 C  ATOM      8  N   UNL     1      42.159  48.799  17.652 -0.40 -0.03    -0.192 NA ENDBRANCH   1   7BRANCH   2   9ATOM      9  C   UNL     1      39.996  45.859  17.500 -0.44 +0.00    -0.017 A  ATOM     10  C   UNL     1      38.613  45.648  17.539 -0.39 -0.00    +0.009 A  ATOM     11  C   UNL     1      40.584  46.201  16.273 -0.37 -0.00    +0.009 A  ATOM     12  C   UNL     1      37.834  45.785  16.384 -0.36 -0.00    +0.009 A  ATOM     13  C   UNL     1      39.803  46.334  15.119 -0.43 -0.00    +0.009 A  ATOM     14  C   UNL     1      38.416  46.132  15.154 -0.39 +0.01    -0.018 A  BRANCH  14  15ATOM     15  C   UNL     1      37.595  46.279  13.941 -0.44 +0.01    -0.015 A  ATOM     16  C   UNL     1      37.313  45.172  13.118 -0.45 -0.00    +0.009 A  ATOM     17  C   UNL     1      37.067  47.526  13.572 -0.53 -0.02    +0.048 A  ATOM     18  C   UNL     1      36.533  45.306  11.965 -0.57 -0.00    +0.004 A  ATOM     19  C   UNL     1      36.292  47.650  12.423 -0.56 -0.06    +0.123 A  ATOM     20  C   UNL     1      36.020  46.553  11.616 -0.50 -0.02    +0.039 A  ATOM     21  F   UNL     1      35.801  48.851  12.087 -0.12 +0.11    -0.207 F  ENDBRANCH  14  15ENDBRANCH   2   9BRANCH   6  22ATOM     22  N   UNL     1      43.495  47.370  20.714 -0.16 -0.12    -0.383 N  ATOM     23  H   UNL     1      43.072  48.141  21.223 -0.38 -0.00    +0.158 HD ATOM     24  H   UNL     1      44.015  47.761  19.933 -0.46 +0.04    +0.158 HD ENDBRANCH   6  22TORSDOF 4TERENDMDL