MODEL        4USER    Run = 4USERUSER    Estimated Free Energy of Binding    =  -8.55 kcal/mol  [=(1)+(2)+(3)-(4)]USERUSER    (1) Final Intermolecular Energy     =  -9.44 kcal/molUSER        vdW + Hbond + desolv Energy     =  -9.43 kcal/molUSER        Electrostatic Energy            =  -0.01 kcal/molUSER        Moving Ligand-Fixed Receptor    =  -9.44 kcal/molUSER        Moving Ligand-Moving Receptor   =  +0.00 kcal/molUSER    (2) Final Total Internal Energy     =  -0.60 kcal/molUSER    (3) Torsional Free Energy           =  +0.89 kcal/molUSER    (4) Unbound System's Energy         =  -0.60 kcal/molUSERUSERREMARK SMILES Cn1ccnccc(-c2cccc(-c3ccc(O)cc3)c2)cc1REMARK SMILES IDX 9 1 10 2 11 3 12 4 13 5 21 6 8 7 2 8 3 9 23 10 4 11 22 12REMARK SMILES IDX 5 13 6 14 7 15 1 16 14 17 15 18 20 19 16 20 19 21 17 22REMARK SMILES IDX 18 23REMARK H PARENT 18 24USER                              x       y       z     vdW  Elec       q    TypeUSER                           _______ _______ _______ _____ _____    ______ ____ROOTATOM      1  C   UNL     1      38.565  45.265  18.882 -0.38 +0.00    -0.018 A  ATOM      2  C   UNL     1      39.865  45.649  19.233 -0.42 -0.00    +0.009 A  ATOM      3  C   UNL     1      40.647  46.378  18.339 -0.49 -0.00    +0.001 A  ATOM      4  C   UNL     1      40.133  46.730  17.089 -0.48 -0.00    +0.009 A  ATOM      5  C   UNL     1      38.831  46.361  16.708 -0.40 +0.01    -0.018 A  ATOM      6  C   UNL     1      38.058  45.624  17.622 -0.37 -0.00    +0.017 A  ENDROOTBRANCH   1   7ATOM      7  C   UNL     1      37.731  44.494  19.836 -0.35 +0.00    -0.015 A  ATOM      8  N   UNL     1      37.714  42.955  22.961 -0.15 -0.03    -0.356 N  ATOM      9  C   UNL     1      37.037  41.767  22.673 -0.43 +0.01    +0.105 A  ATOM     10  C   UNL     1      37.432  43.962  22.062 -0.33 +0.01    +0.086 A  ATOM     11  C   UNL     1      36.157  41.439  21.697 -0.45 +0.00    +0.129 A  ATOM     12  C   UNL     1      38.236  44.359  21.073 -0.35 +0.00    +0.026 A  ATOM     13  N   UNL     1      35.535  41.898  20.586 -0.27 -0.00    -0.263 NA ATOM     14  C   UNL     1      35.790  42.914  19.723 -0.35 -0.01    +0.111 A  ATOM     15  C   UNL     1      36.608  43.927  19.341 -0.35 -0.00    +0.029 A  ATOM     16  C   UNL     1      38.988  42.900  23.666 -0.22 +0.01    +0.149 C  ENDBRANCH   1   7BRANCH   5  17ATOM     17  C   UNL     1      38.293  46.732  15.388 -0.40 +0.01    -0.018 A  ATOM     18  C   UNL     1      37.979  45.751  14.432 -0.40 -0.00    +0.012 A  ATOM     19  C   UNL     1      38.079  48.079  15.046 -0.52 -0.01    +0.012 A  ATOM     20  C   UNL     1      37.471  46.104  13.178 -0.43 -0.02    +0.047 A  ATOM     21  C   UNL     1      37.569  48.437  13.794 -0.49 -0.02    +0.047 A  ATOM     22  C   UNL     1      37.270  47.443  12.870 -0.48 -0.03    +0.115 A  BRANCH  22  23ATOM     23  O   UNL     1      36.771  47.746  11.637 -0.71 +0.18    -0.508 OA ATOM     24  H   UNL     1      36.544  48.690  11.626 -0.19 -0.10    +0.293 HD ENDBRANCH  22  23ENDBRANCH   5  17TORSDOF 3TERENDMDL