REMARK SMILES COc1ccc(O)c(C(=O)c2ccc(C(=O)N[C@H]3CCNC3)cc2)c1F
REMARK SMILES IDX 11 1 12 2 13 3 14 4 23 5 24 6 9 7 10 8 8 9 3 10 4 11 25 12
REMARK SMILES IDX 5 13 6 14 26 15 2 16 1 17 7 18 15 20 17 21 16 22 18 24 19 25
REMARK SMILES IDX 22 26 20 27 21 28
REMARK H PARENT 7 19 17 23 21 29
ROOT
ATOM      1  C   UNL     1       1.094   1.502  -0.278  1.00  0.00     0.023 A 
ATOM      2  C   UNL     1      -0.062   1.946   0.376  1.00  0.00     0.013 A 
ATOM      3  C   UNL     1      -1.278   1.281   0.188  1.00  0.00     0.014 A 
ATOM      4  C   UNL     1      -1.343   0.170  -0.663  1.00  0.00     0.039 A 
ATOM      5  C   UNL     1      -0.193  -0.248  -1.345  1.00  0.00     0.014 A 
ATOM      6  C   UNL     1       1.023   0.416  -1.157  1.00  0.00     0.013 A 
ENDROOT
BRANCH   1   7
ATOM      7  C   UNL     1       2.353   2.256  -0.071  1.00  0.00     0.199 C 
ATOM      8  O   UNL     1       2.301   3.483   0.032  1.00  0.00    -0.288 OA
BRANCH   7   9
ATOM      9  C   UNL     1       3.685   1.613  -0.034  1.00  0.00     0.104 A 
ATOM     10  C   UNL     1       5.136  -0.272   0.501  1.00  0.00     0.155 A 
ATOM     11  C   UNL     1       6.232   0.434   0.000  1.00  0.00     0.053 A 
ATOM     12  C   UNL     1       3.870   0.331   0.486  1.00  0.00     0.179 A 
ATOM     13  C   UNL     1       6.064   1.731  -0.491  1.00  0.00     0.051 A 
ATOM     14  C   UNL     1       4.802   2.320  -0.493  1.00  0.00     0.130 A 
ATOM     15  F   UNL     1       2.830  -0.341   1.007  1.00  0.00    -0.202 F 
BRANCH  10  16
ATOM     16  O   UNL     1       5.179  -1.537   1.024  1.00  0.00    -0.494 OA
ATOM     17  C   UNL     1       6.448  -2.176   1.081  1.00  0.00     0.278 C 
ENDBRANCH  10  16
BRANCH  14  18
ATOM     18  O   UNL     1       4.731   3.605  -0.960  1.00  0.00    -0.507 OA
ATOM     19  H   UNL     1       3.851   3.970  -0.710  1.00  0.00     0.293 HD
ENDBRANCH  14  18
ENDBRANCH   7   9
ENDBRANCH   1   7
BRANCH   4  20
ATOM     20  C   UNL     1      -2.615  -0.569  -0.898  1.00  0.00     0.251 C 
ATOM     21  N   UNL     1      -3.540  -0.540   0.127  1.00  0.00    -0.348 N 
ATOM     22  O   UNL     1      -2.785  -1.186  -1.943  1.00  0.00    -0.269 OA
ATOM     23  H   UNL     1      -3.206  -0.285   1.047  1.00  0.00     0.164 HD
BRANCH  21  24
ATOM     24  C   UNL     1      -4.739  -1.359   0.052  1.00  0.00     0.097 C 
ATOM     25  C   UNL     1      -5.589  -1.234   1.310  1.00  0.00     0.041 C 
ATOM     26  C   UNL     1      -5.705  -0.976  -1.086  1.00  0.00     0.105 C 
ATOM     27  C   UNL     1      -6.995  -1.467   0.801  1.00  0.00     0.083 C 
ATOM     28  N   UNL     1      -7.030  -0.745  -0.473  1.00  0.00    -0.315 NA
ATOM     29  H   UNL     1      -7.112   0.255  -0.280  1.00  0.00     0.122 HD
ENDBRANCH  21  24
ENDBRANCH   4  20
TORSDOF 6
