REMARK SMILES Cn1ccnccc(-c2cccc(-c3ccc(O)cc3)c2)cc1
REMARK SMILES IDX 9 1 10 2 11 3 12 4 13 5 21 6 8 7 2 8 3 9 23 10 4 11 22 12
REMARK SMILES IDX 5 13 6 14 7 15 1 16 14 17 15 18 20 19 16 20 19 21 17 22
REMARK SMILES IDX 18 23
REMARK H PARENT 18 24
ROOT
ATOM      1  C   UNL     1       0.310  -0.964  -0.308  1.00  0.00    -0.018 A 
ATOM      2  C   UNL     1       0.429  -1.880  -1.361  1.00  0.00     0.009 A 
ATOM      3  C   UNL     1      -0.692  -2.244  -2.105  1.00  0.00     0.001 A 
ATOM      4  C   UNL     1      -1.939  -1.692  -1.802  1.00  0.00     0.009 A 
ATOM      5  C   UNL     1      -2.091  -0.769  -0.753  1.00  0.00    -0.018 A 
ATOM      6  C   UNL     1      -0.949  -0.416  -0.013  1.00  0.00     0.017 A 
ENDROOT
BRANCH   1   7
ATOM      7  C   UNL     1       1.504  -0.573   0.480  1.00  0.00    -0.015 A 
ATOM      8  N   UNL     1       4.128   1.710   0.677  1.00  0.00    -0.356 N 
ATOM      9  C   UNL     1       5.192   0.869   1.012  1.00  0.00     0.105 A 
ATOM     10  C   UNL     1       2.901   1.183   1.022  1.00  0.00     0.086 A 
ATOM     11  C   UNL     1       5.235  -0.341   1.619  1.00  0.00     0.129 A 
ATOM     12  C   UNL     1       2.038   0.621   0.173  1.00  0.00     0.026 A 
ATOM     13  N   UNL     1       4.472  -1.335   2.132  1.00  0.00    -0.263 NA
ATOM     14  C   UNL     1       3.175  -1.697   1.970  1.00  0.00     0.111 A 
ATOM     15  C   UNL     1       1.987  -1.490   1.347  1.00  0.00     0.029 A 
ATOM     16  C   UNL     1       4.271   2.635  -0.439  1.00  0.00     0.149 C 
ENDBRANCH   1   7
BRANCH   5  17
ATOM     17  C   UNL     1      -3.408  -0.191  -0.436  1.00  0.00    -0.018 A 
ATOM     18  C   UNL     1      -3.927  -0.244   0.869  1.00  0.00     0.012 A 
ATOM     19  C   UNL     1      -4.184   0.431  -1.430  1.00  0.00     0.012 A 
ATOM     20  C   UNL     1      -5.178   0.302   1.169  1.00  0.00     0.047 A 
ATOM     21  C   UNL     1      -5.435   0.981  -1.134  1.00  0.00     0.047 A 
ATOM     22  C   UNL     1      -5.921   0.910   0.166  1.00  0.00     0.115 A 
BRANCH  22  23
ATOM     23  O   UNL     1      -7.136   1.433   0.499  1.00  0.00    -0.508 OA
ATOM     24  H   UNL     1      -7.513   1.853  -0.291  1.00  0.00     0.293 HD
ENDBRANCH  22  23
ENDBRANCH   5  17
TORSDOF 3
