REMARK SMILES Cn1ccnccc(-c2cccc(-c3ccc(O)c(F)c3)c2)cc1
REMARK SMILES IDX 9 1 10 2 11 3 12 4 13 5 22 6 8 7 2 8 3 9 24 10 4 11 23 12
REMARK SMILES IDX 5 13 6 14 7 15 1 16 14 17 15 18 21 19 16 20 19 21 17 22
REMARK SMILES IDX 20 23 18 24
REMARK H PARENT 18 25
ROOT
ATOM      1  C   UNL     1      -0.332  -1.021  -0.771  1.00  0.00    -0.018 A 
ATOM      2  C   UNL     1      -0.253  -1.957  -1.809  1.00  0.00     0.009 A 
ATOM      3  C   UNL     1       0.989  -2.389  -2.268  1.00  0.00     0.001 A 
ATOM      4  C   UNL     1       2.160  -1.887  -1.693  1.00  0.00     0.009 A 
ATOM      5  C   UNL     1       2.116  -0.951  -0.645  1.00  0.00    -0.018 A 
ATOM      6  C   UNL     1       0.852  -0.531  -0.193  1.00  0.00     0.017 A 
ENDROOT
BRANCH   1   7
ATOM      7  C   UNL     1      -1.668  -0.542  -0.286  1.00  0.00    -0.015 A 
ATOM      8  N   UNL     1      -3.883   1.659   0.373  1.00  0.00    -0.356 N 
ATOM      9  C   UNL     1      -5.029   0.898   0.263  1.00  0.00     0.105 A 
ATOM     10  C   UNL     1      -2.945   1.520  -0.627  1.00  0.00     0.086 A 
ATOM     11  C   UNL     1      -5.297  -0.345   0.676  1.00  0.00     0.129 A 
ATOM     12  C   UNL     1      -2.017   0.600  -0.895  1.00  0.00     0.026 A 
ATOM     13  N   UNL     1      -4.677  -1.355   1.293  1.00  0.00    -0.263 NA
ATOM     14  C   UNL     1      -3.359  -1.607   1.257  1.00  0.00     0.111 A 
ATOM     15  C   UNL     1      -2.186  -1.349   0.652  1.00  0.00     0.029 A 
ATOM     16  C   UNL     1      -4.057   2.993   0.956  1.00  0.00     0.149 C 
ENDBRANCH   1   7
BRANCH   5  17
ATOM     17  C   UNL     1       3.353  -0.420  -0.042  1.00  0.00    -0.015 A 
ATOM     18  C   UNL     1       3.518   0.963   0.175  1.00  0.00     0.013 A 
ATOM     19  C   UNL     1       4.405  -1.271   0.333  1.00  0.00     0.052 A 
ATOM     20  C   UNL     1       4.688   1.480   0.745  1.00  0.00     0.050 A 
ATOM     21  C   UNL     1       5.570  -0.755   0.896  1.00  0.00     0.165 A 
ATOM     22  C   UNL     1       5.714   0.613   1.104  1.00  0.00     0.151 A 
ATOM     23  F   UNL     1       6.555  -1.600   1.239  1.00  0.00    -0.203 F 
BRANCH  22  24
ATOM     24  O   UNL     1       6.867   1.089   1.659  1.00  0.00    -0.505 OA
ATOM     25  H   UNL     1       6.777   2.045   1.794  1.00  0.00     0.293 HD
ENDBRANCH  22  24
ENDBRANCH   5  17
TORSDOF 3
