MODEL        5USER    Run = 5USERUSER    Estimated Free Energy of Binding    =  -8.56 kcal/mol  [=(1)+(2)+(3)-(4)]USERUSER    (1) Final Intermolecular Energy     = -10.35 kcal/molUSER        vdW + Hbond + desolv Energy     =  -9.89 kcal/molUSER        Electrostatic Energy            =  -0.46 kcal/molUSER        Moving Ligand-Fixed Receptor    = -10.35 kcal/molUSER        Moving Ligand-Moving Receptor   =  +0.00 kcal/molUSER    (2) Final Total Internal Energy     =  -1.36 kcal/molUSER    (3) Torsional Free Energy           =  +1.79 kcal/molUSER    (4) Unbound System's Energy         =  -1.36 kcal/molUSERUSERREMARK SMILES COc1ccc(O)c(C(=O)c2ccc(C(=O)N[C@H]3CCNC3)cc2)c1FREMARK SMILES IDX 11 1 12 2 13 3 14 4 23 5 24 6 9 7 10 8 8 9 3 10 4 11 25 12REMARK SMILES IDX 5 13 6 14 26 15 2 16 1 17 7 18 15 20 17 21 16 22 18 24 19 25REMARK SMILES IDX 22 26 20 27 21 28REMARK H PARENT 7 19 17 23 21 29USER                              x       y       z     vdW  Elec       q    TypeUSER                           _______ _______ _______ _____ _____    ______ ____ROOTATOM      1  C   UNL     1      38.032  28.806  20.579 -0.24 +0.00    +0.023 A  ATOM      2  C   UNL     1      37.894  30.160  20.908 -0.37 +0.00    +0.013 A  ATOM      3  C   UNL     1      36.765  30.606  21.603 -0.41 -0.00    +0.014 A  ATOM      4  C   UNL     1      35.763  29.696  21.965 -0.38 -0.01    +0.039 A  ATOM      5  C   UNL     1      35.886  28.349  21.600 -0.36 -0.00    +0.014 A  ATOM      6  C   UNL     1      37.015  27.903  20.907 -0.23 -0.00    +0.013 A  ENDROOTBRANCH   1   7ATOM      7  C   UNL     1      39.231  28.386  19.817 -0.16 +0.05    +0.199 C  ATOM      8  O   UNL     1      40.157  27.838  20.420 -0.14 -0.19    -0.288 OA BRANCH   7   9ATOM      9  C   UNL     1      39.401  28.638  18.369 -0.20 +0.03    +0.104 A  ATOM     10  C   UNL     1      38.548  28.642  16.085 -0.21 +0.01    +0.155 A  ATOM     11  C   UNL     1      39.769  29.148  15.633 -0.20 +0.00    +0.053 A  ATOM     12  C   UNL     1      38.379  28.384  17.453 -0.15 +0.01    +0.179 A  ATOM     13  C   UNL     1      40.810  29.373  16.537 -0.24 +0.02    +0.051 A  ATOM     14  C   UNL     1      40.630  29.106  17.892 -0.25 +0.07    +0.130 A  ATOM     15  F   UNL     1      37.214  27.860  17.870 -0.07 +0.04    -0.202 F  BRANCH  10  16ATOM     16  O   UNL     1      37.464  28.364  15.295 -0.60 +0.02    -0.494 OA ATOM     17  C   UNL     1      37.268  27.008  14.913 -0.27 -0.09    +0.278 C  ENDBRANCH  10  16BRANCH  14  18ATOM     18  O   UNL     1      41.711  29.322  18.704 -0.61 -0.78    -0.507 OA ATOM     19  H   UNL     1      41.379  29.460  19.621 -0.38 +0.46    +0.293 HD ENDBRANCH  14  18ENDBRANCH   7   9ENDBRANCH   1   7BRANCH   4  20ATOM     20  C   UNL     1      34.540  30.122  22.702 -0.30 -0.02    +0.251 C  ATOM     21  N   UNL     1      33.346  30.032  22.014 -0.30 +0.02    -0.348 N  ATOM     22  O   UNL     1      34.630  30.556  23.845 -0.28 -0.02    -0.269 OA ATOM     23  H   UNL     1      33.395  29.969  21.006 -0.47 -0.02    +0.164 HD BRANCH  21  24ATOM     24  C   UNL     1      32.127  30.572  22.594 -0.52 +0.00    +0.097 C  ATOM     25  C   UNL     1      30.911  30.282  21.724 -0.56 -0.01    +0.041 C  ATOM     26  C   UNL     1      31.752  29.974  23.964 -0.52 +0.03    +0.105 C  ATOM     27  C   UNL     1      29.781  30.199  22.727 -0.55 -0.01    +0.083 C  ATOM     28  N   UNL     1      30.367  29.470  23.854 -0.81 -0.06    -0.315 NA ATOM     29  H   UNL     1      30.416  28.478  23.612 -0.14 -0.02    +0.122 HD ENDBRANCH  21  24ENDBRANCH   4  20TORSDOF 6TERENDMDL