REMARK SMILES C[C@@H]1CN[C@H]1C(=O)C=C(CO)Nc1cccc(Cl)c1
REMARK SMILES IDX 8 1 6 2 7 3 5 4 2 5 3 6 4 7 1 8 9 10 10 11 11 12 12 14 13 16
REMARK SMILES IDX 14 17 19 18 15 19 17 20 16 21 18 22
REMARK H PARENT 4 9 11 13 12 15
ROOT
ATOM      1  C   UNL     1       0.538  -0.111  -0.143  1.00  0.00     0.072 C 
ENDROOT
BRANCH   1   2
ATOM      2  C   UNL     1       1.363  -1.313   0.197  1.00  0.00     0.174 C 
ATOM      3  O   UNL     1       0.851  -2.299   0.735  1.00  0.00    -0.293 OA
BRANCH   2   4
ATOM      4  C   UNL     1       2.884  -1.204  -0.188  1.00  0.00     0.130 C 
ATOM      5  C   UNL     1       3.885  -0.953   0.970  1.00  0.00     0.025 C 
ATOM      6  C   UNL     1       4.741  -2.039   0.293  1.00  0.00     0.087 C 
ATOM      7  N   UNL     1       3.524  -2.543  -0.377  1.00  0.00    -0.307 NA
ATOM      8  C   UNL     1       4.484   0.435   1.062  1.00  0.00     0.011 C 
ATOM      9  H   UNL     1       3.036  -3.272   0.155  1.00  0.00     0.123 HD
ENDBRANCH   2   4
ENDBRANCH   1   2
BRANCH   1  10
ATOM     10  C   UNL     1      -0.738   0.117   0.236  1.00  0.00     0.045 C 
BRANCH  10  11
ATOM     11  C   UNL     1      -1.472  -0.809   1.202  1.00  0.00     0.209 C 
BRANCH  11  12
ATOM     12  O   UNL     1      -1.790  -2.043   0.571  1.00  0.00    -0.390 OA
ATOM     13  H   UNL     1      -0.938  -2.528   0.536  1.00  0.00     0.211 HD
ENDBRANCH  11  12
ENDBRANCH  10  11
BRANCH  10  14
ATOM     14  N   UNL     1      -1.375   1.303  -0.141  1.00  0.00    -0.357 N 
ATOM     15  H   UNL     1      -0.769   1.987  -0.588  1.00  0.00     0.166 HD
BRANCH  14  16
ATOM     16  C   UNL     1      -2.711   1.476  -0.571  1.00  0.00     0.040 A 
ATOM     17  C   UNL     1      -3.562   0.420  -0.919  1.00  0.00     0.026 A 
ATOM     18  C   UNL     1      -3.226   2.781  -0.615  1.00  0.00     0.046 A 
ATOM     19  C   UNL     1      -4.884   0.656  -1.312  1.00  0.00     0.004 A 
ATOM     20  C   UNL     1      -4.545   3.015  -1.008  1.00  0.00     0.043 A 
ATOM     21  C   UNL     1      -5.377   1.957  -1.359  1.00  0.00     0.020 A 
ATOM     22  Cl  UNL     1      -5.146   4.627  -1.057  1.00  0.00    -0.084 Cl
ENDBRANCH  14  16
ENDBRANCH  10  14
ENDBRANCH   1  10
TORSDOF 7
