REMARK SMILES N#Cc1c(-c2ccc(-c3cccc(Cl)c3F)cc2)ccnc1N
REMARK SMILES IDX 3 1 4 2 19 3 20 4 21 5 22 6 2 7 1 8 5 9 6 10 18 11 7 12
REMARK SMILES IDX 17 13 8 14 9 15 10 16 15 17 11 18 13 19 12 20 16 21 14 22
REMARK SMILES IDX 23 23
REMARK H PARENT 23 24 23 25
ROOT
ATOM      1  C   UNL     1      -3.458  -0.157   0.763  1.00  0.00     0.102 A 
ATOM      2  C   UNL     1      -2.563  -0.707  -0.176  1.00  0.00     0.005 A 
ATOM      3  C   UNL     1      -3.077  -1.576  -1.147  1.00  0.00     0.030 A 
ATOM      4  C   UNL     1      -4.430  -1.860  -1.140  1.00  0.00     0.114 A 
ATOM      5  N   UNL     1      -5.297  -1.342  -0.248  1.00  0.00    -0.238 NA
ATOM      6  C   UNL     1      -4.811  -0.498   0.684  1.00  0.00     0.141 A 
ENDROOT
BRANCH   1   7
ATOM      7  C   UNL     1      -3.007   0.750   1.777  1.00  0.00     0.104 C 
ATOM      8  N   UNL     1      -2.647   1.501   2.587  1.00  0.00    -0.192 NA
ENDBRANCH   1   7
BRANCH   2   9
ATOM      9  C   UNL     1      -1.124  -0.406  -0.177  1.00  0.00    -0.017 A 
ATOM     10  C   UNL     1      -0.560   0.398  -1.177  1.00  0.00     0.009 A 
ATOM     11  C   UNL     1      -0.278  -0.924   0.813  1.00  0.00     0.009 A 
ATOM     12  C   UNL     1       0.810   0.683  -1.180  1.00  0.00     0.009 A 
ATOM     13  C   UNL     1       1.092  -0.636   0.808  1.00  0.00     0.009 A 
ATOM     14  C   UNL     1       1.661   0.174  -0.188  1.00  0.00    -0.015 A 
BRANCH  14  15
ATOM     15  C   UNL     1       3.101   0.486  -0.183  1.00  0.00     0.019 A 
ATOM     16  C   UNL     1       3.720   0.996   0.974  1.00  0.00     0.012 A 
ATOM     17  C   UNL     1       3.904   0.294  -1.320  1.00  0.00     0.149 A 
ATOM     18  C   UNL     1       5.086   1.298   0.994  1.00  0.00     0.002 A 
ATOM     19  C   UNL     1       5.268   0.594  -1.302  1.00  0.00     0.077 A 
ATOM     20  C   UNL     1       5.862   1.096  -0.146  1.00  0.00     0.023 A 
ATOM     21  F   UNL     1       3.354  -0.197  -2.444  1.00  0.00    -0.205 F 
ATOM     22  Cl  UNL     1       6.237   0.350  -2.706  1.00  0.00    -0.081 Cl
ENDBRANCH  14  15
ENDBRANCH   2   9
BRANCH   6  23
ATOM     23  N   UNL     1      -5.765  -0.038   1.590  1.00  0.00    -0.383 N 
ATOM     24  H   UNL     1      -5.773   0.972   1.689  1.00  0.00     0.158 HD
ATOM     25  H   UNL     1      -6.669  -0.397   1.291  1.00  0.00     0.158 HD
ENDBRANCH   6  23
TORSDOF 4
