MODEL        1USER    Run = 1USERUSER    Estimated Free Energy of Binding    =  -8.27 kcal/mol  [=(1)+(2)+(3)-(4)]USERUSER    (1) Final Intermolecular Energy     =  -9.46 kcal/molUSER        vdW + Hbond + desolv Energy     =  -9.38 kcal/molUSER        Electrostatic Energy            =  -0.08 kcal/molUSER        Moving Ligand-Fixed Receptor    =  -9.46 kcal/molUSER        Moving Ligand-Moving Receptor   =  +0.00 kcal/molUSER    (2) Final Total Internal Energy     =  -0.56 kcal/molUSER    (3) Torsional Free Energy           =  +1.19 kcal/molUSER    (4) Unbound System's Energy         =  -0.56 kcal/molUSERUSERREMARK SMILES N#Cc1c(-c2ccc(-c3cccc(Cl)c3F)cc2)ccnc1NREMARK SMILES IDX 3 1 4 2 19 3 20 4 21 5 22 6 2 7 1 8 5 9 6 10 18 11 7 12REMARK SMILES IDX 17 13 8 14 9 15 10 16 15 17 11 18 13 19 12 20 16 21 14 22REMARK SMILES IDX 23 23REMARK H PARENT 23 24 23 25USER                              x       y       z     vdW  Elec       q    TypeUSER                           _______ _______ _______ _____ _____    ______ ____ROOTATOM      1  C   UNL     1      35.922  46.507  14.813 -0.32 -0.08    +0.102 A  ATOM      2  C   UNL     1      37.293  46.733  14.582 -0.42 -0.00    +0.005 A  ATOM      3  C   UNL     1      37.707  46.992  13.269 -0.49 -0.01    +0.030 A  ATOM      4  C   UNL     1      36.760  47.010  12.261 -0.58 -0.04    +0.114 A  ATOM      5  N   UNL     1      35.446  46.795  12.468 -0.39 +0.16    -0.238 NA ATOM      6  C   UNL     1      35.039  46.553  13.730 -0.32 -0.11    +0.141 A  ENDROOTBRANCH   1   7ATOM      7  C   UNL     1      35.423  46.249  16.132 -0.32 -0.10    +0.104 C  ATOM      8  N   UNL     1      35.038  46.044  17.208 -0.26 +0.16    -0.192 NA ENDBRANCH   1   7BRANCH   2   9ATOM      9  C   UNL     1      38.298  46.709  15.655 -0.40 +0.01    -0.017 A  ATOM     10  C   UNL     1      39.203  47.767  15.814 -0.49 -0.00    +0.009 A  ATOM     11  C   UNL     1      38.384  45.624  16.538 -0.36 -0.00    +0.009 A  ATOM     12  C   UNL     1      40.161  47.744  16.834 -0.50 -0.00    +0.009 A  ATOM     13  C   UNL     1      39.342  45.604  17.558 -0.41 -0.00    +0.009 A  ATOM     14  C   UNL     1      40.248  46.665  17.726 -0.48 +0.00    -0.015 A  BRANCH  14  15ATOM     15  C   UNL     1      41.247  46.647  18.809 -0.48 -0.00    +0.019 A  ATOM     16  C   UNL     1      42.444  47.379  18.692 -0.54 +0.00    +0.012 A  ATOM     17  C   UNL     1      41.050  45.905  19.985 -0.30 +0.01    +0.149 A  ATOM     18  C   UNL     1      43.402  47.371  19.711 -0.38 +0.00    +0.002 A  ATOM     19  C   UNL     1      42.005  45.896  21.004 -0.29 +0.01    +0.077 A  ATOM     20  C   UNL     1      43.183  46.629  20.870 -0.33 +0.01    +0.023 A  ATOM     21  F   UNL     1      39.918  45.197  20.140 -0.09 -0.00    -0.205 F  ATOM     22  Cl  UNL     1      41.745  44.981  22.441 -0.30 -0.01    -0.081 Cl ENDBRANCH  14  15ENDBRANCH   2   9BRANCH   6  23ATOM     23  N   UNL     1      33.674  46.304  13.852 -0.05 +0.36    -0.383 N  ATOM     24  H   UNL     1      33.245  46.780  14.639 -0.35 -0.28    +0.158 HD ATOM     25  H   UNL     1      33.236  46.561  12.970 -0.49 -0.16    +0.158 HD ENDBRANCH   6  23TORSDOF 4TERENDMDL