REMARK SMILES N#Cc1c(-c2ccc(-c3cccc(F)c3)cc2)ccnc1N
REMARK SMILES IDX 3 1 4 2 18 3 19 4 20 5 21 6 2 7 1 8 5 9 6 10 17 11 7 12
REMARK SMILES IDX 16 13 8 14 9 15 10 16 15 17 11 18 13 19 12 20 14 21 22 22
REMARK H PARENT 22 23 22 24
ROOT
ATOM      1  C   UNL     1      -3.518   0.068   0.541  1.00  0.00     0.102 A 
ATOM      2  C   UNL     1      -2.610  -0.600  -0.305  1.00  0.00     0.005 A 
ATOM      3  C   UNL     1      -3.120  -1.524  -1.224  1.00  0.00     0.030 A 
ATOM      4  C   UNL     1      -4.484  -1.738  -1.263  1.00  0.00     0.114 A 
ATOM      5  N   UNL     1      -5.361  -1.105  -0.460  1.00  0.00    -0.238 NA
ATOM      6  C   UNL     1      -4.886  -0.214   0.431  1.00  0.00     0.141 A 
ENDROOT
BRANCH   1   7
ATOM      7  C   UNL     1      -3.063   1.018   1.511  1.00  0.00     0.104 C 
ATOM      8  N   UNL     1      -2.734   1.799   2.305  1.00  0.00    -0.192 NA
ENDBRANCH   1   7
BRANCH   2   9
ATOM      9  C   UNL     1      -1.159  -0.365  -0.258  1.00  0.00    -0.017 A 
ATOM     10  C   UNL     1      -0.599   0.800  -0.796  1.00  0.00     0.009 A 
ATOM     11  C   UNL     1      -0.301  -1.310   0.323  1.00  0.00     0.009 A 
ATOM     12  C   UNL     1       0.783   1.020  -0.746  1.00  0.00     0.009 A 
ATOM     13  C   UNL     1       1.080  -1.089   0.369  1.00  0.00     0.009 A 
ATOM     14  C   UNL     1       1.646   0.080  -0.161  1.00  0.00    -0.018 A 
BRANCH  14  15
ATOM     15  C   UNL     1       3.098   0.315  -0.106  1.00  0.00    -0.015 A 
ATOM     16  C   UNL     1       3.620   1.497   0.451  1.00  0.00     0.009 A 
ATOM     17  C   UNL     1       4.003  -0.634  -0.606  1.00  0.00     0.048 A 
ATOM     18  C   UNL     1       4.999   1.725   0.506  1.00  0.00     0.004 A 
ATOM     19  C   UNL     1       5.374  -0.399  -0.547  1.00  0.00     0.123 A 
ATOM     20  C   UNL     1       5.880   0.771   0.004  1.00  0.00     0.039 A 
ATOM     21  F   UNL     1       6.220  -1.317  -1.033  1.00  0.00    -0.207 F 
ENDBRANCH  14  15
ENDBRANCH   2   9
BRANCH   6  22
ATOM     22  N   UNL     1      -5.853   0.403   1.235  1.00  0.00    -0.383 N 
ATOM     23  H   UNL     1      -5.840   1.412   1.112  1.00  0.00     0.158 HD
ATOM     24  H   UNL     1      -5.685   0.208   2.218  1.00  0.00     0.158 HD
ENDBRANCH   6  22
TORSDOF 4
