REMARK SMILES O=C(C=C(CO)Nc1cccc(F)c1)[C@@H]1CCN1
REMARK SMILES IDX 3 1 2 2 1 3 15 4 16 5 18 6 17 7 4 9 5 10 6 11 7 13 8 15 9 16
REMARK SMILES IDX 14 17 10 18 12 19 11 20 13 21
REMARK H PARENT 18 8 6 12 7 14
ROOT
ATOM      1  C   UNL     1       0.659  -0.487   0.759  1.00  0.00     0.072 C 
ENDROOT
BRANCH   1   2
ATOM      2  C   UNL     1       2.153  -0.579   0.784  1.00  0.00     0.174 C 
ATOM      3  O   UNL     1       2.708  -1.679   0.808  1.00  0.00    -0.293 OA
BRANCH   2   4
ATOM      4  C   UNL     1       2.891   0.806   0.817  1.00  0.00     0.127 C 
ATOM      5  C   UNL     1       2.524   1.898  -0.221  1.00  0.00     0.042 C 
ATOM      6  N   UNL     1       4.240   0.776   0.163  1.00  0.00    -0.307 NA
ATOM      7  C   UNL     1       4.036   2.180  -0.250  1.00  0.00     0.084 C 
ATOM      8  H   UNL     1       5.018   0.601   0.796  1.00  0.00     0.123 HD
ENDBRANCH   2   4
ENDBRANCH   1   2
BRANCH   1   9
ATOM      9  C   UNL     1      -0.217  -1.512   0.760  1.00  0.00     0.045 C 
BRANCH   9  10
ATOM     10  C   UNL     1       0.209  -2.967   0.914  1.00  0.00     0.209 C 
BRANCH  10  11
ATOM     11  O   UNL     1      -0.892  -3.704   1.472  1.00  0.00    -0.390 OA
ATOM     12  H   UNL     1      -0.866  -3.519   2.428  1.00  0.00     0.211 HD
ENDBRANCH  10  11
ENDBRANCH   9  10
BRANCH   9  13
ATOM     13  N   UNL     1      -1.602  -1.331   0.726  1.00  0.00    -0.357 N 
ATOM     14  H   UNL     1      -2.087  -2.228   0.849  1.00  0.00     0.166 HD
BRANCH  13  15
ATOM     15  C   UNL     1      -2.360  -0.437  -0.061  1.00  0.00     0.041 A 
ATOM     16  C   UNL     1      -3.709  -0.241   0.283  1.00  0.00     0.026 A 
ATOM     17  C   UNL     1      -1.843   0.289  -1.137  1.00  0.00     0.065 A 
ATOM     18  C   UNL     1      -4.518   0.657  -0.423  1.00  0.00     0.005 A 
ATOM     19  C   UNL     1      -2.654   1.181  -1.836  1.00  0.00     0.125 A 
ATOM     20  C   UNL     1      -3.985   1.373  -1.489  1.00  0.00     0.039 A 
ATOM     21  F   UNL     1      -2.139   1.867  -2.866  1.00  0.00    -0.207 F 
ENDBRANCH  13  15
ENDBRANCH   9  13
ENDBRANCH   1   9
TORSDOF 7
