REMARK SMILES COc1ccc(/C=C/c2n[nH]c3cc(Cl)ccc23)cc1C
REMARK SMILES IDX 7 1 6 2 3 3 4 4 20 5 5 6 19 7 21 8 2 9 1 10 8 11 9 12 10 13
REMARK SMILES IDX 18 14 11 15 17 16 12 17 16 18 13 19 14 20 15 22
REMARK H PARENT 11 21
ROOT
ATOM      1  C   UNL     1       0.333   0.011  -0.368  1.00  0.00     0.010 C 
ENDROOT
BRANCH   1   2
ATOM      2  C   UNL     1      -1.128   0.001  -0.210  1.00  0.00    -0.025 A 
ATOM      3  C   UNL     1      -3.932   0.088   0.108  1.00  0.00     0.121 A 
ATOM      4  C   UNL     1      -3.353  -0.725  -0.869  1.00  0.00     0.047 A 
ATOM      5  C   UNL     1      -3.105   0.875   0.929  1.00  0.00    -0.008 A 
ATOM      6  C   UNL     1      -1.963  -0.763  -1.030  1.00  0.00     0.012 A 
ATOM      7  C   UNL     1      -1.711   0.828   0.758  1.00  0.00     0.015 A 
ATOM      8  C   UNL     1      -3.697   1.766   1.986  1.00  0.00     0.048 C 
BRANCH   3   9
ATOM      9  O   UNL     1      -5.278   0.195   0.343  1.00  0.00    -0.496 OA
ATOM     10  C   UNL     1      -6.145  -0.599  -0.456  1.00  0.00     0.278 C 
ENDBRANCH   3   9
ENDBRANCH   1   2
BRANCH   1  11
ATOM     11  C   UNL     1       1.065  -1.088  -0.619  1.00  0.00     0.031 C 
BRANCH  11  12
ATOM     12  C   UNL     1       2.485  -1.145  -0.802  1.00  0.00     0.093 A 
ATOM     13  N   UNL     1       3.038  -2.065  -1.605  1.00  0.00    -0.175 NA
ATOM     14  C   UNL     1       3.484  -0.326  -0.186  1.00  0.00     0.027 A 
ATOM     15  N   UNL     1       4.352  -1.810  -1.547  1.00  0.00    -0.277 N 
ATOM     16  C   UNL     1       3.521   0.726   0.754  1.00  0.00     0.014 A 
ATOM     17  C   UNL     1       4.691  -0.785  -0.709  1.00  0.00     0.067 A 
ATOM     18  C   UNL     1       4.755   1.287   1.111  1.00  0.00     0.021 A 
ATOM     19  C   UNL     1       5.935  -0.240  -0.370  1.00  0.00     0.048 A 
ATOM     20  C   UNL     1       5.937   0.810   0.551  1.00  0.00     0.043 A 
ATOM     21  H   UNL     1       4.976  -2.385  -2.102  1.00  0.00     0.190 HD
ATOM     22  Cl  UNL     1       7.438   1.520   1.010  1.00  0.00    -0.084 Cl
ENDBRANCH  11  12
ENDBRANCH   1  11
TORSDOF 4
