MODEL        1USER    Run = 1USERUSER    Estimated Free Energy of Binding    =  -8.47 kcal/mol  [=(1)+(2)+(3)-(4)]USERUSER    (1) Final Intermolecular Energy     =  -9.66 kcal/molUSER        vdW + Hbond + desolv Energy     =  -9.59 kcal/molUSER        Electrostatic Energy            =  -0.07 kcal/molUSER        Moving Ligand-Fixed Receptor    =  -9.66 kcal/molUSER        Moving Ligand-Moving Receptor   =  +0.00 kcal/molUSER    (2) Final Total Internal Energy     =  -0.65 kcal/molUSER    (3) Torsional Free Energy           =  +1.19 kcal/molUSER    (4) Unbound System's Energy         =  -0.65 kcal/molUSERUSERREMARK SMILES COc1ccc(/C=C/c2n[nH]c3cc(Cl)ccc23)cc1CREMARK SMILES IDX 7 1 6 2 3 3 4 4 20 5 5 6 19 7 21 8 2 9 1 10 8 11 9 12 10 13REMARK SMILES IDX 18 14 11 15 17 16 12 17 16 18 13 19 14 20 15 22REMARK H PARENT 11 21USER                              x       y       z     vdW  Elec       q    TypeUSER                           _______ _______ _______ _____ _____    ______ ____ROOTATOM      1  C   UNL     1      41.415  46.183  18.340 -0.56 -0.00    +0.010 C  ENDROOTBRANCH   1   2ATOM      2  C   UNL     1      40.411  45.661  19.277 -0.42 +0.00    -0.025 A  ATOM      3  C   UNL     1      38.453  44.585  21.004 -0.29 +0.00    +0.121 A  ATOM      4  C   UNL     1      39.709  44.950  21.494 -0.29 +0.00    +0.047 A  ATOM      5  C   UNL     1      38.173  44.747  19.635 -0.36 +0.00    -0.008 A  ATOM      6  C   UNL     1      40.681  45.478  20.636 -0.35 +0.00    +0.012 A  ATOM      7  C   UNL     1      39.157  45.279  18.784 -0.41 -0.00    +0.015 A  ATOM      8  C   UNL     1      36.834  44.358  19.074 -0.39 -0.01    +0.048 C  BRANCH   3   9ATOM      9  O   UNL     1      37.438  44.061  21.760 -0.13 -0.03    -0.496 OA ATOM     10  C   UNL     1      37.561  42.704  22.168 -0.28 +0.02    +0.278 C  ENDBRANCH   3   9ENDBRANCH   1   2BRANCH   1  11ATOM     11  C   UNL     1      41.515  47.479  17.998 -0.56 -0.00    +0.031 C  BRANCH  11  12ATOM     12  C   UNL     1      40.936  48.106  16.847 -0.47 -0.01    +0.093 A  ATOM     13  N   UNL     1      41.331  49.326  16.456 -1.02 +0.00    -0.175 NA ATOM     14  C   UNL     1      39.895  47.603  16.003 -0.50 -0.01    +0.027 A  ATOM     15  N   UNL     1      40.602  49.577  15.361 -0.40 +0.09    -0.277 N  ATOM     16  C   UNL     1      39.077  46.455  15.945 -0.42 -0.00    +0.014 A  ATOM     17  C   UNL     1      39.715  48.590  15.036 -0.50 -0.02    +0.067 A  ATOM     18  C   UNL     1      38.135  46.331  14.914 -0.39 -0.01    +0.021 A  ATOM     19  C   UNL     1      38.783  48.489  13.996 -0.38 -0.02    +0.048 A  ATOM     20  C   UNL     1      37.999  47.333  13.957 -0.47 -0.02    +0.043 A  ATOM     21  H   UNL     1      40.751  50.456  14.878 -0.10 -0.09    +0.190 HD ATOM     22  Cl  UNL     1      36.833  47.153  12.702 -0.91 +0.03    -0.084 Cl ENDBRANCH  11  12ENDBRANCH   1  11TORSDOF 4TERENDMDL