MODEL        4USER    Run = 4USERUSER    Estimated Free Energy of Binding    =  -9.70 kcal/mol  [=(1)+(2)+(3)-(4)]USERUSER    (1) Final Intermolecular Energy     = -10.90 kcal/molUSER        vdW + Hbond + desolv Energy     = -10.91 kcal/molUSER        Electrostatic Energy            =  +0.01 kcal/molUSER        Moving Ligand-Fixed Receptor    = -10.90 kcal/molUSER        Moving Ligand-Moving Receptor   =  +0.00 kcal/molUSER    (2) Final Total Internal Energy     =  -1.01 kcal/molUSER    (3) Torsional Free Energy           =  +1.19 kcal/molUSER    (4) Unbound System's Energy         =  -1.01 kcal/molUSERUSERREMARK SMILES C1=C(NCc2ccccc2)NC2=CCN=C(c3cccc4cccnc34)C2=N1REMARK SMILES IDX 3 1 2 3 1 4 28 5 11 6 27 7 12 8 16 9 13 10 15 11 14 12 17 14REMARK SMILES IDX 18 15 26 16 19 17 25 18 21 19 20 20 24 21 22 22 23 23 4 24REMARK SMILES IDX 5 25 6 26 10 27 7 28 9 29 8 30REMARK H PARENT 3 2 11 13USER                              x       y       z     vdW  Elec       q    TypeUSER                           _______ _______ _______ _____ _____    ______ ____ROOTATOM      1  N   UNL     1      33.311  45.363  16.652 -0.09 +0.28    -0.366 N  ATOM      2  H   UNL     1      32.811  46.057  17.195 -0.10 -0.14    +0.162 HD ENDROOTBRANCH   1   3ATOM      3  C   UNL     1      34.468  45.859  16.091 -0.18 -0.13    +0.122 C  ATOM      4  C   UNL     1      35.459  46.466  16.794 -0.27 -0.16    +0.156 C  ATOM      5  N   UNL     1      36.634  46.972  16.265 -0.23 +0.20    -0.249 NA ATOM      6  N   UNL     1      34.637  45.744  14.728 -0.15 +0.29    -0.339 N  ATOM      7  C   UNL     1      36.783  46.825  14.976 -0.39 -0.07    +0.112 C  ATOM      8  C   UNL     1      35.741  46.237  14.080 -0.47 -0.04    +0.066 C  ATOM      9  C   UNL     1      38.054  47.295  14.306 -0.48 -0.04    +0.095 C  ATOM     10  C   UNL     1      35.955  46.294  12.764 -0.64 -0.01    +0.025 C  ATOM     11  N   UNL     1      38.189  47.382  13.025 -0.60 +0.05    -0.278 NA ATOM     12  C   UNL     1      37.140  46.926  12.123 -0.57 -0.05    +0.172 C  ATOM     13  H   UNL     1      33.922  45.274  14.196 +0.13 -0.11    +0.168 HD BRANCH   9  14ATOM     14  C   UNL     1      39.184  47.696  15.166 -0.49 -0.01    +0.028 A  ATOM     15  C   UNL     1      39.882  48.864  14.823 -0.52 -0.00    +0.013 A  ATOM     16  C   UNL     1      39.529  46.899  16.262 -0.41 -0.02    +0.080 A  ATOM     17  C   UNL     1      40.942  49.284  15.615 -0.66 -0.00    +0.001 A  ATOM     18  N   UNL     1      38.887  45.741  16.548 -0.20 +0.06    -0.256 NA ATOM     19  C   UNL     1      40.609  47.350  17.056 -0.53 -0.00    +0.001 A  ATOM     20  C   UNL     1      41.298  48.534  16.733 -0.47 -0.00    +0.010 A  ATOM     21  C   UNL     1      39.270  45.033  17.631 -0.23 -0.01    +0.112 A  ATOM     22  C   UNL     1      40.980  46.584  18.171 -0.51 -0.00    +0.012 A  ATOM     23  C   UNL     1      40.301  45.410  18.467 -0.44 -0.00    +0.021 A  ENDBRANCH   9  14ENDBRANCH   1   3BRANCH   1  24ATOM     24  C   UNL     1      33.108  44.006  17.126 -0.26 -0.06    +0.150 C  BRANCH  24  25ATOM     25  C   UNL     1      34.150  43.677  18.167 -0.30 +0.01    -0.029 A  ATOM     26  C   UNL     1      34.524  44.635  19.121 -0.40 -0.00    +0.005 A  ATOM     27  C   UNL     1      34.783  42.425  18.178 -0.40 -0.00    +0.005 A  ATOM     28  C   UNL     1      35.499  44.342  20.075 -0.35 -0.00    +0.000 A  ATOM     29  C   UNL     1      35.757  42.134  19.135 -0.31 -0.00    +0.000 A  ATOM     30  C   UNL     1      36.113  43.092  20.083 -0.44 -0.00    +0.000 A  ENDBRANCH  24  25ENDBRANCH   1  24TORSDOF 4TERENDMDL