REMARK SMILES C1=C(NCc2ccccc2)NC2=CCN=C(c3cccc4cccnc34)C2=N1
REMARK SMILES IDX 3 1 2 3 1 4 28 5 11 6 27 7 12 8 16 9 13 10 15 11 14 12 17 14
REMARK SMILES IDX 18 15 26 16 19 17 25 18 21 19 20 20 24 21 22 22 23 23 4 24
REMARK SMILES IDX 5 25 6 26 10 27 7 28 9 29 8 30
REMARK H PARENT 3 2 11 13
ROOT
ATOM      1  N   UNL     1       2.688   0.008  -0.162  1.00  0.00    -0.366 N 
ATOM      2  H   UNL     1       3.318  -0.716  -0.487  1.00  0.00     0.162 HD
ENDROOT
BRANCH   1   3
ATOM      3  C   UNL     1       1.386  -0.430  -0.054  1.00  0.00     0.122 C 
ATOM      4  C   UNL     1       0.435   0.178   0.701  1.00  0.00     0.156 C 
ATOM      5  N   UNL     1      -0.881  -0.232   0.830  1.00  0.00    -0.249 NA
ATOM      6  N   UNL     1       1.016  -1.563  -0.747  1.00  0.00    -0.339 N 
ATOM      7  C   UNL     1      -1.214  -1.290   0.141  1.00  0.00     0.112 C 
ATOM      8  C   UNL     1      -0.248  -2.090  -0.674  1.00  0.00     0.066 C 
ATOM      9  C   UNL     1      -2.640  -1.790   0.169  1.00  0.00     0.095 C 
ATOM     10  C   UNL     1      -0.683  -3.238  -1.196  1.00  0.00     0.025 C 
ATOM     11  N   UNL     1      -2.998  -2.937  -0.304  1.00  0.00    -0.278 NA
ATOM     12  C   UNL     1      -2.050  -3.795  -1.001  1.00  0.00     0.172 C 
ATOM     13  H   UNL     1       1.704  -2.011  -1.331  1.00  0.00     0.168 HD
BRANCH   9  14
ATOM     14  C   UNL     1      -3.664  -0.930   0.792  1.00  0.00     0.028 A 
ATOM     15  C   UNL     1      -4.299  -1.406   1.950  1.00  0.00     0.013 A 
ATOM     16  C   UNL     1      -3.979   0.299   0.204  1.00  0.00     0.080 A 
ATOM     17  C   UNL     1      -5.257  -0.620   2.575  1.00  0.00     0.001 A 
ATOM     18  N   UNL     1      -3.404   0.720  -0.949  1.00  0.00    -0.256 NA
ATOM     19  C   UNL     1      -4.955   1.083   0.861  1.00  0.00     0.001 A 
ATOM     20  C   UNL     1      -5.578   0.624   2.037  1.00  0.00     0.010 A 
ATOM     21  C   UNL     1      -3.751   1.925  -1.448  1.00  0.00     0.112 A 
ATOM     22  C   UNL     1      -5.292   2.327   0.308  1.00  0.00     0.012 A 
ATOM     23  C   UNL     1      -4.680   2.758  -0.861  1.00  0.00     0.021 A 
ENDBRANCH   9  14
ENDBRANCH   1   3
BRANCH   1  24
ATOM     24  C   UNL     1       3.331   0.989   0.694  1.00  0.00     0.150 C 
BRANCH  24  25
ATOM     25  C   UNL     1       4.774   1.147   0.279  1.00  0.00    -0.029 A 
ATOM     26  C   UNL     1       5.101   1.849  -0.891  1.00  0.00     0.005 A 
ATOM     27  C   UNL     1       5.805   0.569   1.034  1.00  0.00     0.005 A 
ATOM     28  C   UNL     1       6.431   1.984  -1.288  1.00  0.00     0.000 A 
ATOM     29  C   UNL     1       7.136   0.707   0.635  1.00  0.00     0.000 A 
ATOM     30  C   UNL     1       7.448   1.415  -0.524  1.00  0.00     0.000 A 
ENDBRANCH  24  25
ENDBRANCH   1  24
TORSDOF 4
