
     RDKit          3D

 41 42  0  0  0  0  0  0  0  0999 V2000
    7.7833   -2.7659    1.8193 N   0  0  0  0  0  0  0  0  0  0  0  0
    7.3646   -1.9917    1.0651 C   0  0  0  0  0  0  0  0  0  0  0  0
    6.8581   -1.0423    0.1365 C   0  0  0  0  0  0  0  0  0  0  0  0
    5.6608   -0.4581    0.2988 C   0  0  0  0  0  0  0  0  0  0  0  0
    5.1296    0.5221   -0.6322 C   0  0  0  0  0  0  0  0  0  0  0  0
    3.9454    1.1585   -0.5289 C   0  0  0  0  0  0  0  0  0  0  0  0
    3.0220    0.9602    0.5730 C   0  0  0  0  0  0  0  0  0  0  0  0
    1.9486    0.1514    0.6524 C   0  0  0  0  0  0  0  0  0  0  0  0
    1.1791    0.1888    1.7917 N   0  0  0  0  0  0  0  0  0  0  0  0
   -0.0726   -0.1006    1.6412 C   0  0  0  0  0  0  0  0  0  0  0  0
   -0.7849   -0.4723    0.3807 C   0  0  0  0  0  0  0  0  0  0  0  0
   -2.1754   -0.4981    0.3635 N   0  0  0  0  0  0  0  0  0  0  0  0
   -3.0482    0.3071    1.2003 C   0  0  0  0  0  0  0  0  0  0  0  0
   -4.4613    0.2216    0.6808 C   0  0  0  0  0  0  0  0  0  0  0  0
   -5.0038    1.2595   -0.0914 C   0  0  0  0  0  0  0  0  0  0  0  0
   -6.3050    1.1652   -0.5879 C   0  0  0  0  0  0  0  0  0  0  0  0
   -7.0733    0.0324   -0.3245 C   0  0  0  0  0  0  0  0  0  0  0  0
   -6.5411   -1.0100    0.4326 C   0  0  0  0  0  0  0  0  0  0  0  0
   -5.2402   -0.9189    0.9300 C   0  0  0  0  0  0  0  0  0  0  0  0
    0.0325   -0.8172   -0.6284 C   0  0  0  0  0  0  0  0  0  0  0  0
   -0.5989   -1.3501   -2.1498 Cl  0  0  0  0  0  0  0  0  0  0  0  0
    1.5178   -0.7373   -0.4925 C   0  0  0  0  0  0  0  0  0  0  0  0
    2.3106   -1.3876   -1.2875 N   0  0  0  0  0  0  0  0  0  0  0  0
    3.5332    2.3677   -1.7277 S   0  0  0  0  0  0  0  0  0  0  0  0
    2.1640    1.6985   -2.3704 N   0  0  0  0  0  0  0  0  0  0  0  0
    7.4921   -0.8106   -0.7113 H   0  0  0  0  0  0  0  0  0  0  0  0
    5.0577   -0.7157    1.1687 H   0  0  0  0  0  0  0  0  0  0  0  0
    5.7709    0.7576   -1.4820 H   0  0  0  0  0  0  0  0  0  0  0  0
    3.2230    1.6086    1.4253 H   0  0  0  0  0  0  0  0  0  0  0  0
   -0.7024   -0.0747    2.5458 H   0  0  0  0  0  0  0  0  0  0  0  0
   -2.5504   -0.6702   -0.5721 H   0  0  0  0  0  0  0  0  0  0  0  0
   -2.7133    1.3508    1.2059 H   0  0  0  0  0  0  0  0  0  0  0  0
   -3.0219   -0.0492    2.2363 H   0  0  0  0  0  0  0  0  0  0  0  0
   -4.4166    2.1485   -0.3125 H   0  0  0  0  0  0  0  0  0  0  0  0
   -6.7192    1.9747   -1.1842 H   0  0  0  0  0  0  0  0  0  0  0  0
   -8.0858   -0.0402   -0.7134 H   0  0  0  0  0  0  0  0  0  0  0  0
   -7.1371   -1.8974    0.6309 H   0  0  0  0  0  0  0  0  0  0  0  0
   -4.8320   -1.7444    1.5095 H   0  0  0  0  0  0  0  0  0  0  0  0
    3.2855   -1.2560   -1.0075 H   0  0  0  0  0  0  0  0  0  0  0  0
    2.3264    0.7327   -2.6737 H   0  0  0  0  0  0  0  0  0  0  0  0
    1.8782    2.2025   -3.2103 H   0  0  0  0  0  0  0  0  0  0  0  0
  1  2  3  0
  2  3  1  0
  3  4  2  3
  4  5  1  0
  5  6  2  3
  6  7  1  0
  7  8  2  3
  8  9  1  0
  9 10  2  0
 10 11  1  0
 11 12  1  0
 12 13  1  0
 13 14  1  0
 14 15  2  0
 15 16  1  0
 16 17  2  0
 17 18  1  0
 18 19  2  0
 11 20  2  0
 20 21  1  0
 20 22  1  0
 22 23  2  3
  6 24  1  0
 24 25  1  0
 22  8  1  0
 19 14  1  0
  3 26  1  0
  4 27  1  0
  5 28  1  0
  7 29  1  0
 10 30  1  0
 12 31  1  0
 13 32  1  0
 13 33  1  0
 15 34  1  0
 16 35  1  0
 17 36  1  0
 18 37  1  0
 19 38  1  0
 23 39  1  0
 25 40  1  0
 25 41  1  0
M  END
$$$$
