
     RDKit          3D

 44 45  0  0  0  0  0  0  0  0999 V2000
    4.5482   -0.2246    1.9732 C   0  0  0  0  0  0  0  0  0  0  0  0
    3.5005    0.8172    2.3387 C   0  0  0  0  0  0  0  0  0  0  0  0
    2.1195    0.2157    2.6132 C   0  0  0  0  0  0  0  0  0  0  0  0
    1.1650    0.2288    1.4175 C   0  0  0  0  0  0  0  0  0  0  0  0
    1.6221   -0.6094    0.2278 C   0  0  0  0  0  0  0  0  0  0  0  0
    0.5552   -0.6147   -0.7267 O   0  0  0  0  0  0  0  0  0  0  0  0
    0.7472   -1.2799   -1.9132 C   0  0  0  0  0  0  0  0  0  0  0  0
    1.9098   -2.0122   -2.2014 C   0  0  0  0  0  0  0  0  0  0  0  0
    2.0562   -2.6762   -3.4220 C   0  0  0  0  0  0  0  0  0  0  0  0
    1.0447   -2.6203   -4.3715 C   0  0  0  0  0  0  0  0  0  0  0  0
   -0.1166   -1.8987   -4.1003 C   0  0  0  0  0  0  0  0  0  0  0  0
   -0.2853   -1.2213   -2.8767 C   0  0  0  0  0  0  0  0  0  0  0  0
   -1.5853   -0.4750   -2.7062 C   0  0  0  0  0  0  0  0  0  0  0  0
   -2.4144   -0.5279   -3.6092 O   0  0  0  0  0  0  0  0  0  0  0  0
   -1.7375    0.2121   -1.5282 N   0  0  0  0  0  0  0  0  0  0  0  0
   -2.8412    0.9511   -1.2326 C   0  0  0  0  0  0  0  0  0  0  0  0
   -3.9319    1.1969   -1.9163 N   0  0  0  0  0  0  0  0  0  0  0  0
   -4.7675    2.0868   -1.2371 N   0  0  0  0  0  0  0  0  0  0  0  0
   -4.2635    2.4565   -0.0804 C   0  0  0  0  0  0  0  0  0  0  0  0
   -4.8117    3.3488    0.7560 N   0  0  0  0  0  0  0  0  0  0  0  0
   -2.8304    1.6715    0.2632 S   0  0  0  0  0  4  0  0  0  0  0  0
   -3.3093    0.4328    1.3758 C   0  0  0  0  0  0  0  0  0  0  0  0
    4.6609   -0.9616    2.7750 H   0  0  0  0  0  0  0  0  0  0  0  0
    5.5195    0.2577    1.8231 H   0  0  0  0  0  0  0  0  0  0  0  0
    4.2954   -0.7583    1.0544 H   0  0  0  0  0  0  0  0  0  0  0  0
    3.8443    1.3218    3.2502 H   0  0  0  0  0  0  0  0  0  0  0  0
    3.4437    1.5845    1.5585 H   0  0  0  0  0  0  0  0  0  0  0  0
    2.2115   -0.8028    3.0089 H   0  0  0  0  0  0  0  0  0  0  0  0
    1.6459    0.8103    3.4051 H   0  0  0  0  0  0  0  0  0  0  0  0
    0.9935    1.2612    1.0867 H   0  0  0  0  0  0  0  0  0  0  0  0
    0.1835   -0.1335    1.7496 H   0  0  0  0  0  0  0  0  0  0  0  0
    1.8319   -1.6327    0.5595 H   0  0  0  0  0  0  0  0  0  0  0  0
    2.5109   -0.1559   -0.2232 H   0  0  0  0  0  0  0  0  0  0  0  0
    2.7300   -2.0920   -1.4949 H   0  0  0  0  0  0  0  0  0  0  0  0
    2.9635   -3.2390   -3.6296 H   0  0  0  0  0  0  0  0  0  0  0  0
    1.1540   -3.1353   -5.3229 H   0  0  0  0  0  0  0  0  0  0  0  0
   -0.9001   -1.8652   -4.8571 H   0  0  0  0  0  0  0  0  0  0  0  0
   -1.0021    0.1863   -0.8370 H   0  0  0  0  0  0  0  0  0  0  0  0
   -5.7872    3.5644    0.5770 H   0  0  0  0  0  0  0  0  0  0  0  0
   -4.5762    3.2926    1.7375 H   0  0  0  0  0  0  0  0  0  0  0  0
   -1.8638    2.5990    0.4207 H   0  0  0  0  0  0  0  0  0  0  0  0
   -2.5015   -0.2913    1.5229 H   0  0  0  0  0  0  0  0  0  0  0  0
   -3.5406    0.8568    2.3582 H   0  0  0  0  0  0  0  0  0  0  0  0
   -4.1907   -0.1253    1.0424 H   0  0  0  0  0  0  0  0  0  0  0  0
  1  2  1  0
  2  3  1  0
  3  4  1  0
  4  5  1  0
  5  6  1  0
  6  7  1  0
  7  8  2  0
  8  9  1  0
  9 10  2  0
 10 11  1  0
 11 12  2  0
 12 13  1  0
 13 14  2  0
 13 15  1  0
 15 16  1  0
 16 17  2  0
 17 18  1  0
 18 19  2  0
 19 20  1  0
 19 21  1  0
 21 22  1  0
 12  7  1  0
 21 16  1  0
  1 23  1  0
  1 24  1  0
  1 25  1  0
  2 26  1  0
  2 27  1  0
  3 28  1  0
  3 29  1  0
  4 30  1  0
  4 31  1  0
  5 32  1  0
  5 33  1  0
  8 34  1  0
  9 35  1  0
 10 36  1  0
 11 37  1  0
 15 38  1  0
 20 39  1  0
 20 40  1  0
 21 41  1  0
 22 42  1  0
 22 43  1  0
 22 44  1  0
M  END
$$$$
