
     RDKit          3D

 61 64  0  0  0  0  0  0  0  0999 V2000
   -7.9319   -0.3923    0.3447 C   0  0  0  0  0  0  0  0  0  0  0  0
   -6.6416   -1.2010    0.4628 C   0  0  0  0  0  0  0  0  0  0  0  0
   -6.9257   -2.5439    1.1326 C   0  0  0  0  0  0  0  0  0  0  0  0
   -5.7475   -0.4339    1.2786 O   0  0  0  0  0  0  0  0  0  0  0  0
   -4.4112   -0.4733    0.9990 C   0  0  0  0  0  0  0  0  0  0  0  0
   -3.6652    0.5551    1.5765 C   0  0  0  0  0  0  0  0  0  0  0  0
   -2.2829    0.6351    1.3799 C   0  0  0  0  0  0  0  0  0  0  0  0
   -1.6124   -0.3173    0.5985 C   0  0  0  0  0  0  0  0  0  0  0  0
   -0.1559   -0.2553    0.3789 C   0  0  0  0  0  0  0  0  0  0  0  0
    0.4954   -1.3728    0.7989 N   0  0  0  0  0  0  0  0  0  0  0  0
    1.8547   -1.4230    0.6814 C   0  0  0  0  0  0  0  0  0  0  0  0
    2.4639   -2.6084    1.1609 N   0  0  0  0  0  0  0  0  0  0  0  0
    1.6462   -3.4284    1.6416 N   0  0  0  0  0  0  0  0  0  0  0  0
    2.6124   -0.3862    0.1335 C   0  0  0  0  0  0  0  0  0  0  0  0
    4.0862   -0.4260   -0.0339 C   0  0  0  0  0  0  0  0  0  0  0  0
    4.8231    0.5565    0.5201 C   0  0  0  0  0  0  0  0  0  0  0  0
    6.1788    0.8123    0.4915 N   0  0  0  0  0  0  0  0  0  0  0  0
    7.2148   -0.0442   -0.0759 C   0  0  0  0  0  0  0  0  0  0  0  0
    7.4233   -1.3439    0.7101 C   0  0  0  0  0  0  0  0  0  0  0  0
    6.2435   -2.0811    1.0172 O   0  0  0  0  0  0  0  0  0  0  0  0
    5.5162   -2.5873   -0.0964 C   0  0  0  0  0  0  0  0  0  0  0  0
    4.6562   -1.5606   -0.8538 C   0  0  0  0  0  0  0  0  0  0  0  0
    1.9084    0.7443   -0.3112 C   0  0  0  0  0  0  0  0  0  0  0  0
    0.5095    0.8386   -0.1996 C   0  0  0  0  0  0  0  0  0  0  0  0
   -0.1705    2.0369   -0.7115 C   0  0  0  0  0  0  0  0  0  0  0  0
    0.0886    3.3077   -0.1882 C   0  0  0  0  0  0  0  0  0  0  0  0
   -0.5654    4.4244   -0.7085 C   0  0  0  0  0  0  0  0  0  0  0  0
   -1.4679    4.2507   -1.7465 C   0  0  0  0  0  0  0  0  0  0  0  0
   -2.1243    5.3430   -2.3052 N   0  0  0  0  0  0  0  0  0  0  0  0
   -1.7331    3.0513   -2.2844 N   0  0  0  0  0  0  0  0  0  0  0  0
   -1.0885    1.9797   -1.7599 C   0  0  0  0  0  0  0  0  0  0  0  0
   -2.3711   -1.3637    0.0472 C   0  0  0  0  0  0  0  0  0  0  0  0
   -3.7564   -1.4413    0.2424 C   0  0  0  0  0  0  0  0  0  0  0  0
   -8.6709   -0.9108   -0.2749 H   0  0  0  0  0  0  0  0  0  0  0  0
   -8.3703   -0.2030    1.3302 H   0  0  0  0  0  0  0  0  0  0  0  0
   -7.7281    0.5872   -0.1014 H   0  0  0  0  0  0  0  0  0  0  0  0
   -6.2529   -1.3418   -0.5528 H   0  0  0  0  0  0  0  0  0  0  0  0
   -6.0108   -3.1367    1.2340 H   0  0  0  0  0  0  0  0  0  0  0  0
   -7.3164   -2.4013    2.1465 H   0  0  0  0  0  0  0  0  0  0  0  0
   -7.6518   -3.1270    0.5554 H   0  0  0  0  0  0  0  0  0  0  0  0
   -4.1654    1.3048    2.1849 H   0  0  0  0  0  0  0  0  0  0  0  0
   -1.7349    1.4471    1.8523 H   0  0  0  0  0  0  0  0  0  0  0  0
    0.6717   -3.0735    1.6149 H   0  0  0  0  0  0  0  0  0  0  0  0
    4.3252    1.3187    1.1213 H   0  0  0  0  0  0  0  0  0  0  0  0
    6.4920    1.3280    1.3127 H   0  0  0  0  0  0  0  0  0  0  0  0
    8.1581    0.5148   -0.0749 H   0  0  0  0  0  0  0  0  0  0  0  0
    7.0056   -0.2471   -1.1289 H   0  0  0  0  0  0  0  0  0  0  0  0
    8.1284   -1.9954    0.1806 H   0  0  0  0  0  0  0  0  0  0  0  0
    7.8843   -1.0965    1.6732 H   0  0  0  0  0  0  0  0  0  0  0  0
    6.1983   -3.0958   -0.7887 H   0  0  0  0  0  0  0  0  0  0  0  0
    4.8589   -3.3665    0.3025 H   0  0  0  0  0  0  0  0  0  0  0  0
    3.8576   -2.1050   -1.3763 H   0  0  0  0  0  0  0  0  0  0  0  0
    5.2364   -1.1332   -1.6792 H   0  0  0  0  0  0  0  0  0  0  0  0
    2.4600    1.5621   -0.7776 H   0  0  0  0  0  0  0  0  0  0  0  0
    0.7976    3.4398    0.6257 H   0  0  0  0  0  0  0  0  0  0  0  0
   -0.3600    5.4145   -0.3166 H   0  0  0  0  0  0  0  0  0  0  0  0
   -2.6241    5.8744   -1.6017 H   0  0  0  0  0  0  0  0  0  0  0  0
   -2.7544    4.9731   -3.0134 H   0  0  0  0  0  0  0  0  0  0  0  0
   -1.3399    1.0351   -2.2370 H   0  0  0  0  0  0  0  0  0  0  0  0
   -1.8789   -2.1368   -0.5409 H   0  0  0  0  0  0  0  0  0  0  0  0
   -4.2846   -2.2809   -0.1959 H   0  0  0  0  0  0  0  0  0  0  0  0
  1  2  1  0
  2  3  1  0
  2  4  1  0
  4  5  1  0
  5  6  2  0
  6  7  1  0
  7  8  2  0
  8  9  1  0
  9 10  2  0
 10 11  1  0
 11 12  1  0
 12 13  2  3
 11 14  2  0
 14 15  1  0
 15 16  2  3
 16 17  1  0
 17 18  1  0
 18 19  1  0
 19 20  1  0
 20 21  1  0
 21 22  1  0
 14 23  1  0
 23 24  2  0
 24 25  1  0
 25 26  2  0
 26 27  1  0
 27 28  2  0
 28 29  1  0
 28 30  1  0
 30 31  2  0
  8 32  1  0
 32 33  2  0
 33  5  1  0
 24  9  1  0
 31 25  1  0
 22 15  1  0
  1 34  1  0
  1 35  1  0
  1 36  1  0
  2 37  1  0
  3 38  1  0
  3 39  1  0
  3 40  1  0
  6 41  1  0
  7 42  1  0
 13 43  1  0
 16 44  1  0
 17 45  1  0
 18 46  1  0
 18 47  1  0
 19 48  1  0
 19 49  1  0
 21 50  1  0
 21 51  1  0
 22 52  1  0
 22 53  1  0
 23 54  1  0
 26 55  1  0
 27 56  1  0
 29 57  1  0
 29 58  1  0
 31 59  1  0
 32 60  1  0
 33 61  1  0
M  END
$$$$
