
     RDKit          3D

 36 39  0  0  0  0  0  0  0  0999 V2000
   -4.1380    1.4866    0.9819 C   0  0  0  0  0  0  0  0  0  0  0  0
   -3.2450    0.3969    0.4513 C   0  0  0  0  0  0  0  0  0  0  0  0
   -1.8525    0.6271    0.4314 C   0  0  0  0  0  0  0  0  0  0  0  0
   -0.9599   -0.3356   -0.0557 C   0  0  0  0  0  0  0  0  0  0  0  0
    0.5205   -0.1260   -0.0774 C   0  0  0  0  0  0  0  0  0  0  0  0
    1.3024   -1.1714   -0.0006 N   0  0  0  0  0  0  0  0  0  0  0  0
    2.7051   -0.9987   -0.0125 C   0  0  0  0  0  0  0  0  0  0  0  0
    3.5151   -2.1304    0.0830 C   0  0  0  0  0  0  0  0  0  0  0  0
    4.9080   -2.0114    0.0762 C   0  0  0  0  0  0  0  0  0  0  0  0
    5.5063   -0.7539   -0.0268 C   0  0  0  0  0  0  0  0  0  0  0  0
    4.7181    0.3929   -0.1233 C   0  0  0  0  0  0  0  0  0  0  0  0
    3.3277    0.2579   -0.1143 C   0  0  0  0  0  0  0  0  0  0  0  0
    2.4626    1.3561   -0.2103 N   0  0  0  0  0  0  0  0  0  0  0  0
    2.7191    2.6950   -0.3363 C   0  0  0  0  0  0  0  0  0  0  0  0
    1.4799    3.2895   -0.4122 C   0  0  0  0  0  0  0  0  0  0  0  0
    0.4795    2.3549   -0.3301 N   0  0  0  0  0  0  0  0  0  0  0  0
    1.0978    1.1970   -0.1961 C   0  0  0  0  0  0  0  0  0  0  0  0
   -1.4670   -1.5583   -0.5077 C   0  0  0  0  0  0  0  0  0  0  0  0
   -2.8430   -1.8047   -0.4922 C   0  0  0  0  0  0  0  0  0  0  0  0
   -3.7446   -0.8364   -0.0181 C   0  0  0  0  0  0  0  0  0  0  0  0
   -5.2085   -1.1386   -0.0088 C   0  0  0  0  0  0  0  0  0  0  0  0
   -6.0977   -0.4765    0.4908 O   0  0  0  0  0  0  0  0  0  0  0  0
   -5.5026   -2.2860   -0.6508 O   0  0  0  0  0  0  0  0  0  0  0  0
   -4.8692    1.7864    0.2246 H   0  0  0  0  0  0  0  0  0  0  0  0
   -4.6496    1.1528    1.8899 H   0  0  0  0  0  0  0  0  0  0  0  0
   -3.5657    2.3834    1.2438 H   0  0  0  0  0  0  0  0  0  0  0  0
   -1.4740    1.5722    0.8158 H   0  0  0  0  0  0  0  0  0  0  0  0
    3.0554   -3.1121    0.1642 H   0  0  0  0  0  0  0  0  0  0  0  0
    5.5257   -2.9031    0.1517 H   0  0  0  0  0  0  0  0  0  0  0  0
    6.5908   -0.6707   -0.0315 H   0  0  0  0  0  0  0  0  0  0  0  0
    5.2041    1.3600   -0.2027 H   0  0  0  0  0  0  0  0  0  0  0  0
    3.7153    3.1092   -0.3693 H   0  0  0  0  0  0  0  0  0  0  0  0
    1.2564    4.3432   -0.5241 H   0  0  0  0  0  0  0  0  0  0  0  0
   -0.7955   -2.3303   -0.8789 H   0  0  0  0  0  0  0  0  0  0  0  0
   -3.1992   -2.7677   -0.8525 H   0  0  0  0  0  0  0  0  0  0  0  0
   -6.4776   -2.3493   -0.5722 H   0  0  0  0  0  0  0  0  0  0  0  0
  1  2  1  0
  2  3  2  0
  3  4  1  0
  4  5  1  0
  5  6  2  0
  6  7  1  0
  7  8  2  0
  8  9  1  0
  9 10  2  0
 10 11  1  0
 11 12  2  0
 12 13  1  0
 13 14  1  0
 14 15  2  0
 15 16  1  0
 16 17  2  0
  4 18  2  0
 18 19  1  0
 19 20  2  0
 20 21  1  0
 21 22  2  0
 21 23  1  0
 20  2  1  0
 17  5  1  0
 12  7  1  0
 17 13  1  0
  1 24  1  0
  1 25  1  0
  1 26  1  0
  3 27  1  0
  8 28  1  0
  9 29  1  0
 10 30  1  0
 11 31  1  0
 14 32  1  0
 15 33  1  0
 18 34  1  0
 19 35  1  0
 23 36  1  0
M  END
$$$$
