
     RDKit          3D

 42 45  0  0  0  0  0  0  0  0999 V2000
   -0.2805   -0.8190   -0.4153 O   0  0  0  0  0  0  0  0  0  0  0  0
    0.3956   -0.0789    0.2749 C   0  0  0  0  0  0  0  0  0  0  0  0
   -0.0977    0.8093    1.3587 C   0  0  0  0  0  0  0  0  0  0  0  0
   -1.3496    1.2452    1.5661 C   0  0  0  0  0  0  0  0  0  0  0  0
   -2.5670    1.0057    0.7727 C   0  0  0  0  0  0  0  0  0  0  0  0
   -3.2611    2.1332    0.3234 C   0  0  0  0  0  0  0  0  0  0  0  0
   -4.4750    2.0009   -0.3616 C   0  0  0  0  0  0  0  0  0  0  0  0
   -5.0456    0.7619   -0.6089 C   0  0  0  0  0  0  0  0  0  0  0  0
   -6.2189    0.7073   -1.2654 N   0  0  0  0  0  0  0  0  0  0  0  0
   -6.7601   -0.5089   -1.4962 C   0  0  0  0  0  0  0  0  0  0  0  0
   -6.1819   -1.6974   -1.0981 C   0  0  0  0  0  0  0  0  0  0  0  0
   -4.9708   -1.6332   -0.4209 C   0  0  0  0  0  0  0  0  0  0  0  0
   -4.3686   -0.3887   -0.1583 C   0  0  0  0  0  0  0  0  0  0  0  0
   -3.1351   -0.2504    0.5203 C   0  0  0  0  0  0  0  0  0  0  0  0
   -2.4898   -1.3937    0.9247 O   0  0  0  0  0  0  0  0  0  0  0  0
    1.0940    1.2037    2.1844 C   0  0  0  0  0  0  0  0  0  0  0  0
    2.2842    1.0893    1.2349 C   0  0  0  0  0  0  0  0  0  0  0  0
    1.8759    0.0414    0.2475 C   0  0  0  0  0  0  0  0  0  0  0  0
    2.6207   -0.7595   -0.5274 C   0  0  0  0  0  0  0  0  0  0  0  0
    4.0858   -0.7334   -0.5930 C   0  0  0  0  0  0  0  0  0  0  0  0
    4.7841    0.4386   -0.9119 C   0  0  0  0  0  0  0  0  0  0  0  0
    6.1805    0.4315   -0.9902 C   0  0  0  0  0  0  0  0  0  0  0  0
    6.8910   -0.7471   -0.7613 C   0  0  0  0  0  0  0  0  0  0  0  0
    6.2055   -1.9222   -0.4598 C   0  0  0  0  0  0  0  0  0  0  0  0
    4.8147   -1.9095   -0.3834 C   0  0  0  0  0  0  0  0  0  0  0  0
    4.1787   -3.0555   -0.0950 F   0  0  0  0  0  0  0  0  0  0  0  0
   -1.5216    1.9147    2.4090 H   0  0  0  0  0  0  0  0  0  0  0  0
   -2.8714    3.1330    0.5023 H   0  0  0  0  0  0  0  0  0  0  0  0
   -4.9946    2.8928   -0.7047 H   0  0  0  0  0  0  0  0  0  0  0  0
   -7.7064   -0.4987   -2.0295 H   0  0  0  0  0  0  0  0  0  0  0  0
   -6.6575   -2.6482   -1.3072 H   0  0  0  0  0  0  0  0  0  0  0  0
   -4.4910   -2.5524   -0.0925 H   0  0  0  0  0  0  0  0  0  0  0  0
   -1.6528   -1.3940    0.4072 H   0  0  0  0  0  0  0  0  0  0  0  0
    1.2071    0.5041    3.0217 H   0  0  0  0  0  0  0  0  0  0  0  0
    1.0130    2.2173    2.5903 H   0  0  0  0  0  0  0  0  0  0  0  0
    3.1940    0.8292    1.7845 H   0  0  0  0  0  0  0  0  0  0  0  0
    2.4465    2.0426    0.7179 H   0  0  0  0  0  0  0  0  0  0  0  0
    2.1440   -1.5198   -1.1457 H   0  0  0  0  0  0  0  0  0  0  0  0
    4.2491    1.3632   -1.1155 H   0  0  0  0  0  0  0  0  0  0  0  0
    6.7138    1.3464   -1.2386 H   0  0  0  0  0  0  0  0  0  0  0  0
    7.9764   -0.7511   -0.8257 H   0  0  0  0  0  0  0  0  0  0  0  0
    6.7424   -2.8495   -0.2867 H   0  0  0  0  0  0  0  0  0  0  0  0
  1  2  2  0
  2  3  1  0
  3  4  2  0
  4  5  1  0
  5  6  2  0
  6  7  1  0
  7  8  2  0
  8  9  1  0
  9 10  2  0
 10 11  1  0
 11 12  2  0
 12 13  1  0
 13 14  2  0
 14 15  1  0
  3 16  1  0
 16 17  1  0
 17 18  1  0
 18 19  2  0
 19 20  1  0
 20 21  2  0
 21 22  1  0
 22 23  2  0
 23 24  1  0
 24 25  2  0
 25 26  1  0
 18  2  1  0
 25 20  1  0
 14  5  1  0
 13  8  1  0
  4 27  1  0
  6 28  1  0
  7 29  1  0
 10 30  1  0
 11 31  1  0
 12 32  1  0
 15 33  1  0
 16 34  1  0
 16 35  1  0
 17 36  1  0
 17 37  1  0
 19 38  1  0
 21 39  1  0
 22 40  1  0
 23 41  1  0
 24 42  1  0
M  END
$$$$
