
     RDKit          3D

 52 55  0  0  0  0  0  0  0  0999 V2000
   -4.5764   -0.5821    3.3703 C   0  0  0  0  0  0  0  0  0  0  0  0
   -5.4420   -1.1376    2.2487 C   0  0  0  0  0  0  0  0  0  0  0  0
   -4.9477   -0.7506    0.8537 C   0  0  0  0  0  0  0  0  0  0  0  0
   -3.6469   -1.4604    0.4829 C   0  0  0  0  0  0  0  0  0  0  0  0
   -3.8531   -2.8909    0.3222 O   0  0  0  0  0  0  0  0  0  0  0  0
   -3.6425   -2.7940   -1.1064 C   0  0  0  0  0  0  0  0  0  0  0  0
   -3.2190   -1.3204   -0.9982 C   0  0  0  0  0  0  0  0  0  0  0  0
   -1.7500   -1.1854   -1.0555 N   0  0  0  0  0  0  0  0  0  0  0  0
   -1.3191   -1.0641   -2.4496 C   0  0  0  0  0  0  0  0  0  0  0  0
    0.1666   -0.9696   -2.5424 C   0  0  0  0  0  0  0  0  0  0  0  0
    0.9616   -1.9171   -2.9951 N   0  0  0  0  0  0  0  0  0  0  0  0
    2.2446   -1.4427   -2.9833 N   0  0  0  0  0  0  0  0  0  0  0  0
    2.2290   -0.2108   -2.5149 C   0  0  0  0  0  0  0  0  0  0  0  0
    3.4225    0.6790   -2.3967 C   0  0  0  0  0  0  0  0  0  0  0  0
    3.9161    0.8399   -0.9937 C   0  0  0  0  0  0  0  0  0  0  0  0
    4.0714   -0.0838    0.0238 C   0  0  0  0  0  0  0  0  0  0  0  0
    4.5783    0.5947    1.1642 C   0  0  0  0  0  0  0  0  0  0  0  0
    4.9151    0.2051    2.4664 C   0  0  0  0  0  0  0  0  0  0  0  0
    5.3909    1.2025    3.3049 C   0  0  0  0  0  0  0  0  0  0  0  0
    5.5486    2.4982    2.9529 N   0  0  0  0  0  0  0  0  0  0  0  0
    5.2305    2.8785    1.6948 C   0  0  0  0  0  0  0  0  0  0  0  0
    4.7438    1.9301    0.8043 C   0  0  0  0  0  0  0  0  0  0  0  0
    4.3544    2.0507   -0.5094 N   0  0  0  0  0  0  0  0  0  0  0  0
    0.9317    0.1204   -2.1912 N   0  0  0  0  0  0  0  0  0  0  0  0
    0.4541    1.3807   -1.6629 C   0  0  0  0  0  0  0  0  0  0  0  0
    0.3917    1.4267   -0.1452 C   0  0  0  0  0  0  0  0  0  0  0  0
   -5.0278   -0.8116    4.3410 H   0  0  0  0  0  0  0  0  0  0  0  0
   -4.4803    0.5054    3.2911 H   0  0  0  0  0  0  0  0  0  0  0  0
   -3.5741   -1.0197    3.3600 H   0  0  0  0  0  0  0  0  0  0  0  0
   -6.4586   -0.7466    2.3759 H   0  0  0  0  0  0  0  0  0  0  0  0
   -5.5054   -2.2274    2.3449 H   0  0  0  0  0  0  0  0  0  0  0  0
   -5.7296   -1.0030    0.1265 H   0  0  0  0  0  0  0  0  0  0  0  0
   -4.8046    0.3351    0.7989 H   0  0  0  0  0  0  0  0  0  0  0  0
   -2.8450   -1.2651    1.2053 H   0  0  0  0  0  0  0  0  0  0  0  0
   -2.8931   -3.5116   -1.4537 H   0  0  0  0  0  0  0  0  0  0  0  0
   -4.5783   -2.9624   -1.6494 H   0  0  0  0  0  0  0  0  0  0  0  0
   -3.7929   -0.6044   -1.5935 H   0  0  0  0  0  0  0  0  0  0  0  0
   -1.2524   -1.9772   -0.6362 H   0  0  0  0  0  0  0  0  0  0  0  0
   -1.7725   -0.1832   -2.9185 H   0  0  0  0  0  0  0  0  0  0  0  0
   -1.6470   -1.9383   -3.0255 H   0  0  0  0  0  0  0  0  0  0  0  0
    3.1973    1.6564   -2.8398 H   0  0  0  0  0  0  0  0  0  0  0  0
    4.2375    0.2558   -2.9979 H   0  0  0  0  0  0  0  0  0  0  0  0
    3.8325   -1.1390   -0.0456 H   0  0  0  0  0  0  0  0  0  0  0  0
    4.8116   -0.8176    2.8067 H   0  0  0  0  0  0  0  0  0  0  0  0
    5.6706    0.9713    4.3295 H   0  0  0  0  0  0  0  0  0  0  0  0
    5.3744    3.9220    1.4447 H   0  0  0  0  0  0  0  0  0  0  0  0
    4.3911    2.9134   -1.0353 H   0  0  0  0  0  0  0  0  0  0  0  0
   -0.5367    1.5743   -2.0863 H   0  0  0  0  0  0  0  0  0  0  0  0
    1.1076    2.1759   -2.0352 H   0  0  0  0  0  0  0  0  0  0  0  0
    0.0186    2.4011    0.1854 H   0  0  0  0  0  0  0  0  0  0  0  0
    1.3754    1.2749    0.3044 H   0  0  0  0  0  0  0  0  0  0  0  0
   -0.2725    0.6583    0.2582 H   0  0  0  0  0  0  0  0  0  0  0  0
  1  2  1  0
  2  3  1  0
  3  4  1  0
  4  5  1  0
  5  6  1  0
  6  7  1  0
  7  8  1  0
  8  9  1  0
  9 10  1  0
 10 11  2  0
 11 12  1  0
 12 13  2  0
 13 14  1  0
 14 15  1  0
 15 16  2  0
 16 17  1  0
 17 18  2  0
 18 19  1  0
 19 20  2  0
 20 21  1  0
 21 22  2  0
 22 23  1  0
 13 24  1  0
 24 25  1  0
 25 26  1  0
  7  4  1  0
 24 10  1  0
 23 15  1  0
 22 17  1  0
  1 27  1  0
  1 28  1  0
  1 29  1  0
  2 30  1  0
  2 31  1  0
  3 32  1  0
  3 33  1  0
  4 34  1  0
  6 35  1  0
  6 36  1  0
  7 37  1  0
  8 38  1  0
  9 39  1  0
  9 40  1  0
 14 41  1  0
 14 42  1  0
 16 43  1  0
 18 44  1  0
 19 45  1  0
 21 46  1  0
 23 47  1  0
 25 48  1  0
 25 49  1  0
 26 50  1  0
 26 51  1  0
 26 52  1  0
M  END
$$$$
