
     RDKit          3D

 46 48  0  0  0  0  0  0  0  0999 V2000
    6.7384    0.3036    0.3135 N   0  0  0  0  0  0  0  0  0  0  0  0
    5.5229   -0.5014    0.3263 C   0  0  0  0  0  0  0  0  0  0  0  0
    4.2941    0.4028    0.3944 C   0  0  0  0  0  0  0  0  0  0  0  0
    3.0021   -0.4191    0.4007 C   0  0  0  0  0  0  0  0  0  0  0  0
    1.7700    0.4937    0.4623 C   0  0  0  0  0  0  0  0  0  0  0  0
    0.5294   -0.2732    0.5790 N   0  0  0  0  0  0  0  0  0  0  0  0
    0.0832   -0.9201   -0.6635 C   0  0  0  0  0  0  0  0  0  0  0  0
   -0.8917   -2.0706   -0.4366 C   0  0  0  0  0  0  0  0  0  0  0  0
   -0.3812   -3.3410   -0.1161 C   0  0  0  0  0  0  0  0  0  0  0  0
   -1.2358   -4.4284    0.0756 C   0  0  0  0  0  0  0  0  0  0  0  0
   -2.6141   -4.2633   -0.0412 C   0  0  0  0  0  0  0  0  0  0  0  0
   -3.1430   -3.0078   -0.3395 C   0  0  0  0  0  0  0  0  0  0  0  0
   -2.2924   -1.9130   -0.5353 C   0  0  0  0  0  0  0  0  0  0  0  0
   -2.8592   -0.5866   -0.7717 C   0  0  0  0  0  0  0  0  0  0  0  0
   -3.1638    0.1699    0.2923 C   0  0  0  0  0  0  0  0  0  0  0  0
   -3.1807    1.6258    0.1603 C   0  0  0  0  0  0  0  0  0  0  0  0
   -4.4090    2.2621   -0.0566 C   0  0  0  0  0  0  0  0  0  0  0  0
   -4.4463    3.6375   -0.2403 C   0  0  0  0  0  0  0  0  0  0  0  0
   -5.6218    4.2437   -0.4515 F   0  0  0  0  0  0  0  0  0  0  0  0
   -3.2820    4.3937   -0.2262 C   0  0  0  0  0  0  0  0  0  0  0  0
   -2.0530    3.7655   -0.0113 C   0  0  0  0  0  0  0  0  0  0  0  0
   -1.9794    2.3794    0.2204 C   0  0  0  0  0  0  0  0  0  0  0  0
   -0.6825    1.7988    0.3651 N   0  0  0  0  0  0  0  0  0  0  0  0
   -0.5453    0.5894    1.0515 O   0  0  0  0  0  0  0  0  0  0  0  0
    6.8065    0.8366    1.1798 H   0  0  0  0  0  0  0  0  0  0  0  0
    7.5504   -0.3127    0.2963 H   0  0  0  0  0  0  0  0  0  0  0  0
    5.4906   -1.1132   -0.5816 H   0  0  0  0  0  0  0  0  0  0  0  0
    5.5447   -1.1801    1.1860 H   0  0  0  0  0  0  0  0  0  0  0  0
    4.2877    1.0859   -0.4645 H   0  0  0  0  0  0  0  0  0  0  0  0
    4.3376    1.0222    1.2993 H   0  0  0  0  0  0  0  0  0  0  0  0
    2.9760   -1.0457   -0.4975 H   0  0  0  0  0  0  0  0  0  0  0  0
    3.0045   -1.0939    1.2662 H   0  0  0  0  0  0  0  0  0  0  0  0
    1.8765    1.1336    1.3478 H   0  0  0  0  0  0  0  0  0  0  0  0
    1.7529    1.1512   -0.4159 H   0  0  0  0  0  0  0  0  0  0  0  0
    0.9415   -1.3586   -1.1878 H   0  0  0  0  0  0  0  0  0  0  0  0
   -0.3171   -0.1943   -1.3816 H   0  0  0  0  0  0  0  0  0  0  0  0
    0.6921   -3.4842   -0.0119 H   0  0  0  0  0  0  0  0  0  0  0  0
   -0.8243   -5.4039    0.3213 H   0  0  0  0  0  0  0  0  0  0  0  0
   -3.2784   -5.1092    0.1131 H   0  0  0  0  0  0  0  0  0  0  0  0
   -4.2210   -2.8834   -0.4067 H   0  0  0  0  0  0  0  0  0  0  0  0
   -2.7693   -0.1805   -1.7744 H   0  0  0  0  0  0  0  0  0  0  0  0
   -3.1503   -0.2223    1.3061 H   0  0  0  0  0  0  0  0  0  0  0  0
   -5.3342    1.6955   -0.0973 H   0  0  0  0  0  0  0  0  0  0  0  0
   -3.3361    5.4651   -0.3921 H   0  0  0  0  0  0  0  0  0  0  0  0
   -1.1491    4.3696   -0.0263 H   0  0  0  0  0  0  0  0  0  0  0  0
   -0.0401    2.4808    0.7573 H   0  0  0  0  0  0  0  0  0  0  0  0
  1  2  1  0
  2  3  1  0
  3  4  1  0
  4  5  1  0
  5  6  1  0
  6  7  1  0
  7  8  1  0
  8  9  2  0
  9 10  1  0
 10 11  2  0
 11 12  1  0
 12 13  2  0
 13 14  1  0
 14 15  2  3
 15 16  1  0
 16 17  2  0
 17 18  1  0
 18 19  1  0
 18 20  2  0
 20 21  1  0
 21 22  2  0
 22 23  1  0
 23 24  1  0
 24  6  1  0
 13  8  1  0
 22 16  1  0
  1 25  1  0
  1 26  1  0
  2 27  1  0
  2 28  1  0
  3 29  1  0
  3 30  1  0
  4 31  1  0
  4 32  1  0
  5 33  1  0
  5 34  1  0
  7 35  1  0
  7 36  1  0
  9 37  1  0
 10 38  1  0
 11 39  1  0
 12 40  1  0
 14 41  1  0
 15 42  1  0
 17 43  1  0
 20 44  1  0
 21 45  1  0
 23 46  1  0
M  END
$$$$
