
     RDKit          3D

 45 47  0  0  0  0  0  0  0  0999 V2000
   -2.9469    3.3439    2.5328 C   0  0  0  0  0  0  0  0  0  0  0  0
   -2.0471    3.0425    1.4700 O   0  0  0  0  0  0  0  0  0  0  0  0
   -2.3836    1.8821    0.8236 C   0  0  0  0  0  0  0  0  0  0  0  0
   -1.5120    1.1044    0.1644 C   0  0  0  0  0  0  0  0  0  0  0  0
   -1.8729   -0.1309   -0.5318 C   0  0  0  0  0  0  0  0  0  0  0  0
   -3.1769   -0.7679   -0.6933 C   0  0  0  0  0  0  0  0  0  0  0  0
   -4.1279   -0.2182   -1.5609 C   0  0  0  0  0  0  0  0  0  0  0  0
   -5.3768   -0.8239   -1.7122 C   0  0  0  0  0  0  0  0  0  0  0  0
   -5.6824   -1.9804   -0.9962 C   0  0  0  0  0  0  0  0  0  0  0  0
   -4.7410   -2.5328   -0.1289 C   0  0  0  0  0  0  0  0  0  0  0  0
   -3.4914   -1.9287    0.0225 C   0  0  0  0  0  0  0  0  0  0  0  0
   -0.7317   -0.6276   -1.0424 C   0  0  0  0  0  0  0  0  0  0  0  0
    0.3878    0.2447   -0.7096 C   0  0  0  0  0  0  0  0  0  0  0  0
    1.7788    0.0248   -1.1030 C   0  0  0  0  0  0  0  0  0  0  0  0
    2.1919    0.3250   -2.3978 C   0  0  0  0  0  0  0  0  0  0  0  0
    3.5146    0.0977   -2.7235 C   0  0  0  0  0  0  0  0  0  0  0  0
    4.4261   -0.4016   -1.8606 N   0  0  0  0  0  0  0  0  0  0  0  0
    4.0087   -0.6914   -0.6085 C   0  0  0  0  0  0  0  0  0  0  0  0
    5.0272   -1.1986    0.1989 N   0  0  0  0  0  0  0  0  0  0  0  0
    4.9610   -1.5897    1.5129 C   0  0  0  0  0  0  0  0  0  0  0  0
    6.2875   -2.0684    2.0481 C   0  0  0  0  0  0  0  0  0  0  0  0
    3.9715   -1.5585    2.2365 O   0  0  0  0  0  0  0  0  0  0  0  0
    2.7014   -0.4963   -0.1919 C   0  0  0  0  0  0  0  0  0  0  0  0
   -0.0665    1.2926    0.0136 C   0  0  0  0  0  0  0  0  0  0  0  0
    0.6924    2.4446    0.5743 C   0  0  0  0  0  0  0  0  0  0  0  0
   -2.5710    4.2286    3.0554 H   0  0  0  0  0  0  0  0  0  0  0  0
   -2.9991    2.5167    3.2497 H   0  0  0  0  0  0  0  0  0  0  0  0
   -3.9437    3.5739    2.1422 H   0  0  0  0  0  0  0  0  0  0  0  0
   -3.4399    1.6459    0.8718 H   0  0  0  0  0  0  0  0  0  0  0  0
   -3.8982    0.6833   -2.1252 H   0  0  0  0  0  0  0  0  0  0  0  0
   -6.1093   -0.3941   -2.3897 H   0  0  0  0  0  0  0  0  0  0  0  0
   -6.6547   -2.4517   -1.1145 H   0  0  0  0  0  0  0  0  0  0  0  0
   -4.9794   -3.4325    0.4316 H   0  0  0  0  0  0  0  0  0  0  0  0
   -2.7655   -2.3653    0.7052 H   0  0  0  0  0  0  0  0  0  0  0  0
   -0.6305   -1.5356   -1.6187 H   0  0  0  0  0  0  0  0  0  0  0  0
    1.5044    0.7303   -3.1318 H   0  0  0  0  0  0  0  0  0  0  0  0
    3.8906    0.3187   -3.7180 H   0  0  0  0  0  0  0  0  0  0  0  0
    5.9057   -1.2560   -0.2974 H   0  0  0  0  0  0  0  0  0  0  0  0
    6.7644   -1.2553    2.6023 H   0  0  0  0  0  0  0  0  0  0  0  0
    6.9538   -2.3949    1.2436 H   0  0  0  0  0  0  0  0  0  0  0  0
    6.1196   -2.9187    2.7149 H   0  0  0  0  0  0  0  0  0  0  0  0
    2.3782   -0.7338    0.8147 H   0  0  0  0  0  0  0  0  0  0  0  0
    1.7572    2.3996    0.3264 H   0  0  0  0  0  0  0  0  0  0  0  0
    0.3105    3.3898    0.1759 H   0  0  0  0  0  0  0  0  0  0  0  0
    0.6149    2.4637    1.6656 H   0  0  0  0  0  0  0  0  0  0  0  0
  1  2  1  0
  2  3  1  0
  3  4  2  3
  4  5  1  0
  5  6  1  0
  6  7  2  0
  7  8  1  0
  8  9  2  0
  9 10  1  0
 10 11  2  0
  5 12  2  0
 12 13  1  0
 13 14  1  0
 14 15  2  0
 15 16  1  0
 16 17  2  0
 17 18  1  0
 18 19  1  0
 19 20  1  0
 20 21  1  0
 20 22  2  0
 18 23  2  0
 13 24  2  0
 24 25  1  0
 24  4  1  0
 11  6  1  0
 23 14  1  0
  1 26  1  0
  1 27  1  0
  1 28  1  0
  3 29  1  0
  7 30  1  0
  8 31  1  0
  9 32  1  0
 10 33  1  0
 11 34  1  0
 12 35  1  0
 15 36  1  0
 16 37  1  0
 19 38  1  0
 21 39  1  0
 21 40  1  0
 21 41  1  0
 23 42  1  0
 25 43  1  0
 25 44  1  0
 25 45  1  0
M  END
$$$$
