REMARK SMILES O=c1[nH]c2cc(Cl)ccc2nc1-c1ccc(CCO)cc1
REMARK SMILES IDX 17 1 16 2 13 3 14 4 21 5 15 6 20 7 12 8 2 9 3 10 4 11 11 12
REMARK SMILES IDX 5 13 10 14 6 15 9 16 8 17 1 18 7 20 18 21 19 22
REMARK H PARENT 3 19 19 23
ROOT
ATOM      1  C   UNL     1      -4.714  -0.856   0.332  1.00  0.00     0.063 C 
ENDROOT
BRANCH   1   2
ATOM      2  C   UNL     1      -3.217  -0.640   0.342  1.00  0.00    -0.046 A 
ATOM      3  C   UNL     1      -0.432  -0.207   0.364  1.00  0.00     0.006 A 
ATOM      4  C   UNL     1      -1.109  -0.508   1.550  1.00  0.00     0.011 A 
ATOM      5  C   UNL     1      -1.152  -0.144  -0.836  1.00  0.00     0.011 A 
ATOM      6  C   UNL     1      -2.493  -0.716   1.539  1.00  0.00     0.004 A 
ATOM      7  C   UNL     1      -2.534  -0.354  -0.845  1.00  0.00     0.004 A 
BRANCH   3   8
ATOM      8  C   UNL     1       1.044   0.008   0.321  1.00  0.00     0.136 A 
ATOM      9  C   UNL     1       1.763   0.635   1.531  1.00  0.00     0.274 A 
ATOM     10  N   UNL     1       3.128   0.752   1.422  1.00  0.00    -0.319 N 
ATOM     11  C   UNL     1       3.812   0.376   0.265  1.00  0.00     0.069 A 
ATOM     12  N   UNL     1       1.694  -0.331  -0.761  1.00  0.00    -0.240 NA
ATOM     13  C   UNL     1       5.195   0.537   0.191  1.00  0.00     0.049 A 
ATOM     14  C   UNL     1       3.084  -0.153  -0.809  1.00  0.00     0.088 A 
ATOM     15  C   UNL     1       5.858   0.161  -0.976  1.00  0.00     0.043 A 
ATOM     16  C   UNL     1       3.767  -0.523  -1.969  1.00  0.00     0.032 A 
ATOM     17  C   UNL     1       5.152  -0.367  -2.056  1.00  0.00     0.023 A 
ATOM     18  O   UNL     1       1.167   1.024   2.524  1.00  0.00    -0.267 OA
ATOM     19  H   UNL     1       3.612   1.164   2.208  1.00  0.00     0.170 HD
ATOM     20  Cl  UNL     1       7.565   0.352  -1.084  1.00  0.00    -0.084 Cl
ENDBRANCH   3   8
ENDBRANCH   1   2
BRANCH   1  21
ATOM     21  C   UNL     1      -5.497   0.452   0.217  1.00  0.00     0.161 C 
BRANCH  21  22
ATOM     22  O   UNL     1      -5.496   0.918  -1.130  1.00  0.00    -0.396 OA
ATOM     23  H   UNL     1      -5.932   1.787  -1.128  1.00  0.00     0.210 HD
ENDBRANCH  21  22
ENDBRANCH   1  21
TORSDOF 4
