REMARK SMILES CCCO[C@@H](O)Cc1ccc(NC(=O)Cc2nn(-c3ccnc(F)c3)cc2C)cc1
REMARK SMILES IDX 8 1 9 2 10 3 11 4 29 5 30 6 7 7 5 8 4 9 3 10 2 11 1 12 6 13
REMARK SMILES IDX 12 15 13 16 14 18 15 19 16 20 17 21 27 22 18 23 26 24 28 25
REMARK SMILES IDX 19 26 20 27 25 28 21 29 23 30 22 31 24 32
REMARK H PARENT 6 14 12 17
ROOT
ATOM      1  C   UNL     1       3.371   0.126  -0.749  1.00  0.00    -0.043 A 
ATOM      2  C   UNL     1       2.475   1.113  -1.180  1.00  0.00     0.006 A 
ATOM      3  C   UNL     1       1.150   0.790  -1.499  1.00  0.00     0.026 A 
ATOM      4  C   UNL     1       0.697  -0.525  -1.391  1.00  0.00     0.041 A 
ATOM      5  C   UNL     1       1.593  -1.512  -0.956  1.00  0.00     0.026 A 
ATOM      6  C   UNL     1       2.917  -1.192  -0.639  1.00  0.00     0.006 A 
ENDROOT
BRANCH   1   7
ATOM      7  C   UNL     1       4.794   0.488  -0.388  1.00  0.00     0.097 C 
BRANCH   7   8
ATOM      8  C   UNL     1       4.907   1.163   0.989  1.00  0.00     0.250 C 
BRANCH   8   9
ATOM      9  O   UNL     1       6.260   1.125   1.436  1.00  0.00    -0.353 OA
BRANCH   9  10
ATOM     10  C   UNL     1       6.529   0.005   2.276  1.00  0.00     0.163 C 
BRANCH  10  11
ATOM     11  C   UNL     1       8.021  -0.007   2.588  1.00  0.00     0.025 C 
ATOM     12  C   UNL     1       8.409  -1.166   3.490  1.00  0.00     0.006 C 
ENDBRANCH  10  11
ENDBRANCH   9  10
ENDBRANCH   8   9
BRANCH   8  13
ATOM     13  O   UNL     1       4.548   2.533   0.880  1.00  0.00    -0.368 OA
ATOM     14  H   UNL     1       4.614   2.876   1.785  1.00  0.00     0.213 HD
ENDBRANCH   8  13
ENDBRANCH   7   8
ENDBRANCH   1   7
BRANCH   4  15
ATOM     15  N   UNL     1      -0.618  -0.937  -1.694  1.00  0.00    -0.326 N 
ATOM     16  C   UNL     1      -1.654  -0.164  -2.207  1.00  0.00     0.230 C 
ATOM     17  H   UNL     1      -0.810  -1.921  -1.538  1.00  0.00     0.169 HD
ATOM     18  O   UNL     1      -1.584   1.029  -2.495  1.00  0.00    -0.274 OA
BRANCH  16  19
ATOM     19  C   UNL     1      -2.921  -0.970  -2.462  1.00  0.00     0.158 C 
BRANCH  19  20
ATOM     20  C   UNL     1      -4.139  -0.301  -1.915  1.00  0.00     0.075 A 
ATOM     21  N   UNL     1      -4.723  -0.789  -0.812  1.00  0.00    -0.172 NA
ATOM     22  C   UNL     1      -4.850   0.814  -2.437  1.00  0.00    -0.009 A 
ATOM     23  N   UNL     1      -5.793   0.018  -0.587  1.00  0.00    -0.240 N 
ATOM     24  C   UNL     1      -5.903   0.982  -1.562  1.00  0.00     0.118 A 
ATOM     25  C   UNL     1      -4.532   1.639  -3.630  1.00  0.00     0.048 C 
BRANCH  23  26
ATOM     26  C   UNL     1      -6.635  -0.191   0.538  1.00  0.00     0.071 A 
ATOM     27  C   UNL     1      -7.752   0.616   0.774  1.00  0.00     0.048 A 
ATOM     28  C   UNL     1      -6.341  -1.221   1.438  1.00  0.00     0.088 A 
ATOM     29  C   UNL     1      -8.522   0.355   1.901  1.00  0.00     0.116 A 
ATOM     30  C   UNL     1      -7.174  -1.396   2.528  1.00  0.00     0.214 A 
ATOM     31  N   UNL     1      -8.258  -0.632   2.784  1.00  0.00    -0.228 NA
ATOM     32  F   UNL     1      -6.890  -2.378   3.398  1.00  0.00    -0.185 F 
ENDBRANCH  23  26
ENDBRANCH  19  20
ENDBRANCH  16  19
ENDBRANCH   4  15
TORSDOF 10
