REMARK SMILES C[C@@H](O)[C@@H]1CCc2cccc(-c3ccnc(NC(=O)O)c3)c2O1
REMARK SMILES IDX 4 1 5 2 6 3 7 4 8 5 9 6 10 7 11 8 22 9 23 10 2 11 1 12 3 13
REMARK SMILES IDX 12 15 13 16 21 17 14 18 16 19 15 20 17 21 18 22 19 24 20 25
REMARK H PARENT 3 14 17 23 20 26
ROOT
ATOM      1  C   UNL     1      -1.773   0.556   1.304  1.00  0.00     0.202 C 
ATOM      2  C   UNL     1      -2.458   1.893   1.033  1.00  0.00     0.053 C 
ATOM      3  C   UNL     1      -2.781   2.081  -0.438  1.00  0.00     0.043 C 
ATOM      4  C   UNL     1      -1.646   1.619  -1.304  1.00  0.00    -0.005 A 
ATOM      5  C   UNL     1      -1.629   1.987  -2.656  1.00  0.00     0.007 A 
ATOM      6  C   UNL     1      -0.599   1.563  -3.491  1.00  0.00     0.001 A 
ATOM      7  C   UNL     1       0.421   0.761  -2.982  1.00  0.00     0.012 A 
ATOM      8  C   UNL     1       0.429   0.364  -1.633  1.00  0.00     0.024 A 
ATOM      9  C   UNL     1      -0.627   0.798  -0.799  1.00  0.00     0.130 A 
ATOM     10  O   UNL     1      -0.584   0.393   0.511  1.00  0.00    -0.487 OA
ENDROOT
BRANCH   1  11
ATOM     11  C   UNL     1      -2.647  -0.722   1.222  1.00  0.00     0.152 C 
ATOM     12  C   UNL     1      -3.679  -0.788   2.342  1.00  0.00     0.042 C 
BRANCH  11  13
ATOM     13  O   UNL     1      -3.347  -0.823  -0.017  1.00  0.00    -0.390 OA
ATOM     14  H   UNL     1      -3.637  -1.746  -0.112  1.00  0.00     0.211 HD
ENDBRANCH  11  13
ENDBRANCH   1  11
BRANCH   8  15
ATOM     15  C   UNL     1       1.524  -0.489  -1.137  1.00  0.00    -0.009 A 
ATOM     16  C   UNL     1       1.751  -1.757  -1.677  1.00  0.00     0.029 A 
ATOM     17  C   UNL     1       2.376  -0.054  -0.113  1.00  0.00     0.056 A 
ATOM     18  C   UNL     1       2.795  -2.513  -1.178  1.00  0.00     0.114 A 
ATOM     19  C   UNL     1       3.403  -0.882   0.332  1.00  0.00     0.135 A 
ATOM     20  N   UNL     1       3.618  -2.099  -0.193  1.00  0.00    -0.239 NA
BRANCH  19  21
ATOM     21  N   UNL     1       4.216  -0.398   1.356  1.00  0.00    -0.275 N 
ATOM     22  C   UNL     1       5.258  -1.047   1.920  1.00  0.00     0.410 C 
ATOM     23  H   UNL     1       4.034   0.516   1.735  1.00  0.00     0.175 HD
ATOM     24  O   UNL     1       5.750  -2.140   1.720  1.00  0.00    -0.224 OA
BRANCH  22  25
ATOM     25  O   UNL     1       5.791  -0.258   2.874  1.00  0.00    -0.465 OA
ATOM     26  H   UNL     1       6.523  -0.821   3.205  1.00  0.00     0.298 HD
ENDBRANCH  22  25
ENDBRANCH  19  21
ENDBRANCH   8  15
TORSDOF 5
