MODEL        7USER    Run = 7USERUSER    Estimated Free Energy of Binding    =  -8.90 kcal/mol  [=(1)+(2)+(3)-(4)]USERUSER    (1) Final Intermolecular Energy     = -11.89 kcal/molUSER        vdW + Hbond + desolv Energy     = -11.75 kcal/molUSER        Electrostatic Energy            =  -0.13 kcal/molUSER        Moving Ligand-Fixed Receptor    = -11.89 kcal/molUSER        Moving Ligand-Moving Receptor   =  +0.00 kcal/molUSER    (2) Final Total Internal Energy     =  -1.60 kcal/molUSER    (3) Torsional Free Energy           =  +2.98 kcal/molUSER    (4) Unbound System's Energy         =  -1.60 kcal/molUSERUSERREMARK SMILES CCCO[C@@H](O)Cc1ccc(NC(=O)Cc2nn(-c3ccnc(F)c3)cc2C)cc1REMARK SMILES IDX 8 1 9 2 10 3 11 4 29 5 30 6 7 7 5 8 4 9 3 10 2 11 1 12 6 13REMARK SMILES IDX 12 15 13 16 14 18 15 19 16 20 17 21 27 22 18 23 26 24 28 25REMARK SMILES IDX 19 26 20 27 25 28 21 29 23 30 22 31 24 32REMARK H PARENT 6 14 12 17USER                              x       y       z     vdW  Elec       q    TypeUSER                           _______ _______ _______ _____ _____    ______ ____ROOTATOM      1  C   UNL     1      38.787  48.075  15.895 -0.43 +0.02    -0.043 A  ATOM      2  C   UNL     1      38.984  47.252  17.011 -0.36 -0.00    +0.006 A  ATOM      3  C   UNL     1      38.243  46.075  17.175 -0.37 -0.01    +0.026 A  ATOM      4  C   UNL     1      37.292  45.700  16.226 -0.33 -0.02    +0.041 A  ATOM      5  C   UNL     1      37.097  46.522  15.107 -0.38 -0.01    +0.026 A  ATOM      6  C   UNL     1      37.835  47.699  14.942 -0.49 -0.00    +0.006 A  ENDROOTBRANCH   1   7ATOM      7  C   UNL     1      39.606  49.333  15.717 -0.44 -0.05    +0.097 C  BRANCH   7   8ATOM      8  C   UNL     1      41.120  49.065  15.721 -0.46 -0.03    +0.250 C  BRANCH   8   9ATOM      9  O   UNL     1      41.624  49.122  14.389 -0.42 +0.03    -0.353 OA BRANCH   9  10ATOM     10  C   UNL     1      42.470  50.248  14.170 -0.57 -0.03    +0.163 C  BRANCH  10  11ATOM     11  C   UNL     1      42.943  50.212  12.721 -0.73 -0.01    +0.025 C  ATOM     12  C   UNL     1      43.679  51.481  12.326 -0.58 -0.00    +0.006 C  ENDBRANCH  10  11ENDBRANCH   9  10ENDBRANCH   8   9BRANCH   8  13ATOM     13  O   UNL     1      41.783  50.084  16.456 -0.91 -0.03    -0.368 OA ATOM     14  H   UNL     1      41.180  50.843  16.421 -0.34 -0.08    +0.213 HD ENDBRANCH   8  13ENDBRANCH   7   8ENDBRANCH   1   7BRANCH   4  15ATOM     15  N   UNL     1      36.501  44.534  16.314 -0.13 +0.12    -0.326 N  ATOM     16  C   UNL     1      35.262  44.301  15.728 -0.24 -0.11    +0.230 C  ATOM     17  H   UNL     1      36.907  43.776  16.852 +0.11 -0.05    +0.169 HD ATOM     18  O   UNL     1      34.648  45.090  15.012 -0.22 +0.18    -0.274 OA BRANCH  16  19ATOM     19  C   UNL     1      34.736  42.898  15.998 -0.27 -0.07    +0.158 C  BRANCH  19  20ATOM     20  C   UNL     1      34.560  42.629  17.456 -0.35 -0.03    +0.075 A  ATOM     21  N   UNL     1      35.596  42.795  18.290 -0.25 +0.04    -0.172 NA ATOM     22  C   UNL     1      33.408  42.150  18.138 -0.39 +0.00    -0.009 A  ATOM     23  N   UNL     1      35.123  42.461  19.519 -0.27 +0.02    -0.240 N  ATOM     24  C   UNL     1      33.811  42.051  19.453 -0.24 +0.00    +0.118 A  ATOM     25  C   UNL     1      32.063  41.848  17.585 -0.37 -0.01    +0.048 C  BRANCH  23  26ATOM     26  C   UNL     1      35.956  42.552  20.666 -0.42 +0.00    +0.071 A  ATOM     27  C   UNL     1      36.194  41.445  21.486 -0.50 +0.00    +0.048 A  ATOM     28  C   UNL     1      36.548  43.777  20.993 -0.36 +0.00    +0.088 A  ATOM     29  C   UNL     1      37.013  41.615  22.595 -0.43 +0.01    +0.116 A  ATOM     30  C   UNL     1      37.348  43.837  22.120 -0.25 +0.02    +0.214 A  ATOM     31  N   UNL     1      37.595  42.786  22.931 -0.24 -0.02    -0.228 NA ATOM     32  F   UNL     1      37.912  45.012  22.441 -0.12 -0.02    -0.185 F  ENDBRANCH  23  26ENDBRANCH  19  20ENDBRANCH  16  19ENDBRANCH   4  15TORSDOF 10TERENDMDL