MODEL        5USER    Run = 5USERUSER    Estimated Free Energy of Binding    =  -8.83 kcal/mol  [=(1)+(2)+(3)-(4)]USERUSER    (1) Final Intermolecular Energy     = -10.92 kcal/molUSER        vdW + Hbond + desolv Energy     = -10.54 kcal/molUSER        Electrostatic Energy            =  -0.38 kcal/molUSER        Moving Ligand-Fixed Receptor    = -10.92 kcal/molUSER        Moving Ligand-Moving Receptor   =  +0.00 kcal/molUSER    (2) Final Total Internal Energy     =  -1.24 kcal/molUSER    (3) Torsional Free Energy           =  +2.09 kcal/molUSER    (4) Unbound System's Energy         =  -1.24 kcal/molUSERUSERREMARK SMILES COc1ccc(O)c(C(=O)c2ccc(C(=O)N[C@H]3CCN[C@H](O)C3)cc2)c1FREMARK SMILES IDX 11 1 12 2 13 3 14 4 25 5 26 6 9 7 10 8 8 9 3 10 4 11 27 12REMARK SMILES IDX 5 13 6 14 28 15 2 16 1 17 7 18 15 20 17 21 16 22 18 24 19 25REMARK SMILES IDX 24 26 20 27 22 28 21 29 23 31REMARK H PARENT 7 19 17 23 21 30 23 32USER                              x       y       z     vdW  Elec       q    TypeUSER                           _______ _______ _______ _____ _____    ______ ____ROOTATOM      1  C   UNL     1      42.090  46.681  19.827 -0.42 +0.00    +0.023 A  ATOM      2  C   UNL     1      41.396  45.525  19.456 -0.42 +0.00    +0.013 A  ATOM      3  C   UNL     1      40.822  45.436  18.183 -0.45 -0.00    +0.014 A  ATOM      4  C   UNL     1      40.959  46.490  17.269 -0.41 -0.00    +0.039 A  ATOM      5  C   UNL     1      41.659  47.644  17.642 -0.37 -0.00    +0.014 A  ATOM      6  C   UNL     1      42.232  47.733  18.913 -0.38 +0.00    +0.013 A  ENDROOTBRANCH   1   7ATOM      7  C   UNL     1      42.747  46.806  21.150 -0.30 +0.05    +0.199 C  ATOM      8  O   UNL     1      43.939  46.510  21.249 -0.40 -0.20    -0.288 OA BRANCH   7   9ATOM      9  C   UNL     1      42.029  47.214  22.377 -0.16 +0.01    +0.104 A  ATOM     10  C   UNL     1      40.139  47.038  23.908 -0.19 +0.01    +0.155 A  ATOM     11  C   UNL     1      40.715  48.012  24.726 -0.26 +0.01    +0.053 A  ATOM     12  C   UNL     1      40.801  46.652  22.733 -0.11 +0.02    +0.179 A  ATOM     13  C   UNL     1      41.927  48.604  24.362 -0.34 +0.01    +0.051 A  ATOM     14  C   UNL     1      42.569  48.217  23.189 -0.29 +0.03    +0.130 A  ATOM     15  F   UNL     1      40.219  45.744  21.934 -0.07 -0.01    -0.202 F  BRANCH  10  16ATOM     16  O   UNL     1      38.950  46.401  24.149 -0.11 -0.05    -0.494 OA ATOM     17  C   UNL     1      38.077  46.989  25.105 -0.22 +0.03    +0.278 C  ENDBRANCH  10  16BRANCH  14  18ATOM     18  O   UNL     1      43.735  48.870  22.889 -0.56 -0.15    -0.507 OA ATOM     19  H   UNL     1      44.049  48.541  22.016 -0.46 +0.02    +0.293 HD ENDBRANCH  14  18ENDBRANCH   7   9ENDBRANCH   1   7BRANCH   4  20ATOM     20  C   UNL     1      40.331  46.343  15.926 -0.30 -0.02    +0.251 C  ATOM     21  N   UNL     1      39.017  46.760  15.814 -0.17 +0.10    -0.349 N  ATOM     22  O   UNL     1      40.983  45.906  14.985 -0.40 -0.03    -0.269 OA ATOM     23  H   UNL     1      38.648  47.355  16.544 +0.11 -0.07    +0.164 HD BRANCH  21  24ATOM     24  C   UNL     1      38.350  46.798  14.513 -0.45 -0.03    +0.087 C  ATOM     25  C   UNL     1      37.377  45.621  14.365 -0.44 -0.02    +0.040 C  ATOM     26  C   UNL     1      37.669  48.158  14.298 -0.55 -0.04    +0.073 C  ATOM     27  C   UNL     1      35.932  46.057  14.558 -0.41 -0.06    +0.085 C  ATOM     28  C   UNL     1      36.519  48.080  13.296 -0.49 -0.10    +0.184 C  ATOM     29  N   UNL     1      35.517  47.085  13.615 -0.26 +0.22    -0.292 NA ATOM     30  H   UNL     1      35.201  46.684  12.734 -0.03 -0.09    +0.125 HD BRANCH  28  31ATOM     31  O   UNL     1      36.985  47.824  11.986 -0.97 +0.09    -0.379 OA ATOM     32  H   UNL     1      36.571  48.461  11.384 -0.26 -0.10    +0.212 HD ENDBRANCH  28  31ENDBRANCH  21  24ENDBRANCH   4  20TORSDOF 7TERENDMDL