MODEL        10USER    Run = 10USERUSER    Estimated Free Energy of Binding    =  -7.65 kcal/mol  [=(1)+(2)+(3)-(4)]USERUSER    (1) Final Intermolecular Energy     =  -8.55 kcal/molUSER        vdW + Hbond + desolv Energy     =  -8.48 kcal/molUSER        Electrostatic Energy            =  -0.07 kcal/molUSER        Moving Ligand-Fixed Receptor    =  -8.55 kcal/molUSER        Moving Ligand-Moving Receptor   =  +0.00 kcal/molUSER    (2) Final Total Internal Energy     =  -0.98 kcal/molUSER    (3) Torsional Free Energy           =  +0.89 kcal/molUSER    (4) Unbound System's Energy         =  -0.98 kcal/molUSERUSERREMARK SMILES COc1cc(O)c2nc(-c3ccc4[nH]ccc4n3)c(=O)[nH]c2c1REMARK SMILES IDX 3 1 4 2 5 3 7 4 8 5 9 6 19 7 20 8 21 9 22 10 23 11 2 13 1 14REMARK SMILES IDX 6 15 10 17 11 18 18 19 12 20 17 21 13 22 16 23 14 24 15 25REMARK H PARENT 21 12 6 16 14 26USER                              x       y       z     vdW  Elec       q    TypeUSER                           _______ _______ _______ _____ _____    ______ ____ROOTATOM      1  C   UNL     1      41.826  45.950  20.504 -0.29 +0.02    +0.124 A  ATOM      2  C   UNL     1      40.604  45.273  20.499 -0.31 +0.01    +0.095 A  ATOM      3  C   UNL     1      39.743  45.429  19.416 -0.32 -0.00    +0.147 A  ATOM      4  C   UNL     1      40.066  46.242  18.327 -0.38 -0.01    +0.129 A  ATOM      5  N   UNL     1      39.139  46.362  17.270 -0.27 +0.05    -0.235 NA ATOM      6  C   UNL     1      39.455  47.138  16.262 -0.36 -0.04    +0.155 A  ATOM      7  C   UNL     1      40.818  47.840  16.158 -0.27 -0.04    +0.276 A  ATOM      8  O   UNL     1      41.189  48.418  15.149 -0.44 +0.02    -0.267 OA ATOM      9  N   UNL     1      41.632  47.721  17.260 -0.17 +0.03    -0.318 N  ATOM     10  C   UNL     1      41.288  46.915  18.346 -0.47 -0.00    +0.075 A  ATOM     11  C   UNL     1      42.166  46.773  19.423 -0.44 +0.01    +0.075 A  ATOM     12  H   UNL     1      42.531  48.180  17.211 -0.36 +0.02    +0.170 HD ENDROOTBRANCH   1  13ATOM     13  O   UNL     1      42.769  45.895  21.493 -0.07 -0.15    -0.497 OA ATOM     14  C   UNL     1      43.184  47.136  22.053 -0.23 +0.07    +0.278 C  ENDBRANCH   1  13BRANCH   3  15ATOM     15  O   UNL     1      38.543  44.768  19.429 -0.10 +0.03    -0.505 OA ATOM     16  H   UNL     1      38.068  45.120  18.647 +0.18 -0.04    +0.293 HD ENDBRANCH   3  15BRANCH   6  17ATOM     17  C   UNL     1      38.481  47.346  15.163 -0.39 -0.04    +0.095 A  ATOM     18  C   UNL     1      37.991  48.632  14.940 -0.49 -0.02    +0.033 A  ATOM     19  N   UNL     1      38.200  46.261  14.406 -0.24 +0.08    -0.244 NA ATOM     20  C   UNL     1      37.109  48.858  13.886 -0.47 -0.02    +0.030 A  ATOM     21  C   UNL     1      37.338  46.490  13.389 -0.44 -0.03    +0.089 A  ATOM     22  C   UNL     1      36.793  47.741  13.114 -0.57 -0.03    +0.064 A  ATOM     23  C   UNL     1      36.829  45.579  12.434 -0.53 -0.02    +0.048 A  ATOM     24  N   UNL     1      35.974  47.590  12.020 -0.34 +0.20    -0.360 N  ATOM     25  C   UNL     1      35.989  46.284  11.599 -0.39 -0.04    +0.085 A  ATOM     26  H   UNL     1      35.440  48.334  11.591 -0.30 -0.12    +0.166 HD ENDBRANCH   6  17TORSDOF 3TERENDMDL