MODEL        4USER    Run = 4USERUSER    Estimated Free Energy of Binding    =  -8.94 kcal/mol  [=(1)+(2)+(3)-(4)]USERUSER    (1) Final Intermolecular Energy     = -10.43 kcal/molUSER        vdW + Hbond + desolv Energy     = -10.27 kcal/molUSER        Electrostatic Energy            =  -0.16 kcal/molUSER        Moving Ligand-Fixed Receptor    = -10.43 kcal/molUSER        Moving Ligand-Moving Receptor   =  +0.00 kcal/molUSER    (2) Final Total Internal Energy     =  -1.36 kcal/molUSER    (3) Torsional Free Energy           =  +1.49 kcal/molUSER    (4) Unbound System's Energy         =  -1.36 kcal/molUSERUSERREMARK SMILES C[C@@H](O)[C@@H]1CCc2cccc(-c3ccnc(NC(=O)O)c3)c2O1REMARK SMILES IDX 4 1 5 2 6 3 7 4 8 5 9 6 10 7 11 8 22 9 23 10 2 11 1 12 3 13REMARK SMILES IDX 12 15 13 16 21 17 14 18 16 19 15 20 17 21 18 22 19 24 20 25REMARK H PARENT 3 14 17 23 20 26USER                              x       y       z     vdW  Elec       q    TypeUSER                           _______ _______ _______ _____ _____    ______ ____ROOTATOM      1  C   UNL     1      35.965  45.694  17.193 -0.27 -0.11    +0.202 C  ATOM      2  C   UNL     1      34.579  45.856  16.574 -0.31 -0.05    +0.053 C  ATOM      3  C   UNL     1      34.593  45.620  15.075 -0.36 -0.04    +0.043 C  ATOM      4  C   UNL     1      35.790  46.263  14.438 -0.42 +0.00    -0.005 A  ATOM      5  C   UNL     1      35.819  46.416  13.045 -0.56 -0.00    +0.007 A  ATOM      6  C   UNL     1      36.920  46.994  12.420 -0.67 -0.00    +0.001 A  ATOM      7  C   UNL     1      38.006  47.420  13.183 -0.46 -0.00    +0.012 A  ATOM      8  C   UNL     1      38.015  47.272  14.582 -0.45 -0.01    +0.024 A  ATOM      9  C   UNL     1      36.891  46.677  15.201 -0.30 -0.08    +0.130 A  ATOM     10  O   UNL     1      36.935  46.552  16.566 -0.11 +0.30    -0.487 OA ENDROOTBRANCH   1  11ATOM     11  C   UNL     1      36.527  44.255  17.316 -0.28 -0.05    +0.152 C  ATOM     12  C   UNL     1      35.492  43.198  16.951 -0.43 -0.01    +0.042 C  BRANCH  11  13ATOM     13  O   UNL     1      37.670  44.045  16.487 -0.15 +0.10    -0.390 OA ATOM     14  H   UNL     1      37.985  44.919  16.202 +0.14 -0.06    +0.211 HD ENDBRANCH  11  13ENDBRANCH   1  11BRANCH   8  15ATOM     15  C   UNL     1      39.186  47.731  15.350 -0.51 +0.00    -0.009 A  ATOM     16  C   UNL     1      39.559  47.101  16.540 -0.46 -0.01    +0.029 A  ATOM     17  C   UNL     1      39.966  48.808  14.910 -0.51 -0.02    +0.056 A  ATOM     18  C   UNL     1      40.669  47.569  17.218 -0.44 -0.02    +0.114 A  ATOM     19  C   UNL     1      41.068  49.217  15.656 -0.52 -0.02    +0.135 A  ATOM     20  N   UNL     1      41.423  48.606  16.798 -0.87 +0.00    -0.239 NA BRANCH  19  21ATOM     21  N   UNL     1      41.804  50.297  15.172 -0.46 +0.04    -0.275 N  ATOM     22  C   UNL     1      42.521  50.323  14.027 -0.35 -0.08    +0.410 C  ATOM     23  H   UNL     1      41.826  51.152  15.702 -0.37 -0.05    +0.175 HD ATOM     24  O   UNL     1      42.718  49.492  13.163 -0.58 +0.04    -0.224 OA BRANCH  22  25ATOM     25  O   UNL     1      43.092  51.537  13.904 -0.20 +0.13    -0.465 OA ATOM     26  H   UNL     1      44.042  51.300  13.841 -0.37 -0.15    +0.298 HD ENDBRANCH  22  25ENDBRANCH  19  21ENDBRANCH   8  15TORSDOF 5TERENDMDL