REMARK SMILES COc1ccc(O)c(C(=O)c2ccc(C(=O)N[C@H]3CCN[C@H](O)C3)cc2)c1F
REMARK SMILES IDX 11 1 12 2 13 3 14 4 25 5 26 6 9 7 10 8 8 9 3 10 4 11 27 12
REMARK SMILES IDX 5 13 6 14 28 15 2 16 1 17 7 18 15 20 17 21 16 22 18 24 19 25
REMARK SMILES IDX 24 26 20 27 22 28 21 29 23 31
REMARK H PARENT 7 19 17 23 21 30 23 32
ROOT
ATOM      1  C   UNL     1       1.799  -0.004   1.129  1.00  0.00     0.023 A 
ATOM      2  C   UNL     1       1.622   0.581  -0.129  1.00  0.00     0.013 A 
ATOM      3  C   UNL     1       0.373   0.518  -0.756  1.00  0.00     0.014 A 
ATOM      4  C   UNL     1      -0.709  -0.107  -0.121  1.00  0.00     0.039 A 
ATOM      5  C   UNL     1      -0.530  -0.687   1.141  1.00  0.00     0.014 A 
ATOM      6  C   UNL     1       0.718  -0.625   1.768  1.00  0.00     0.013 A 
ENDROOT
BRANCH   1   7
ATOM      7  C   UNL     1       3.092   0.070   1.849  1.00  0.00     0.199 C 
ATOM      8  O   UNL     1       3.082   0.273   3.064  1.00  0.00    -0.288 OA
BRANCH   7   9
ATOM      9  C   UNL     1       4.404  -0.029   1.173  1.00  0.00     0.104 A 
ATOM     10  C   UNL     1       5.839  -0.903  -0.595  1.00  0.00     0.155 A 
ATOM     11  C   UNL     1       6.912  -0.170  -0.082  1.00  0.00     0.053 A 
ATOM     12  C   UNL     1       4.593  -0.830   0.045  1.00  0.00     0.179 A 
ATOM     13  C   UNL     1       6.742   0.608   1.066  1.00  0.00     0.051 A 
ATOM     14  C   UNL     1       5.501   0.665   1.695  1.00  0.00     0.130 A 
ATOM     15  F   UNL     1       3.579  -1.570  -0.433  1.00  0.00    -0.202 F 
BRANCH  10  16
ATOM     16  O   UNL     1       5.887  -1.713  -1.698  1.00  0.00    -0.494 OA
ATOM     17  C   UNL     1       7.138  -1.836  -2.364  1.00  0.00     0.278 C 
ENDBRANCH  10  16
BRANCH  14  18
ATOM     18  O   UNL     1       5.429   1.425   2.832  1.00  0.00    -0.507 OA
ATOM     19  H   UNL     1       4.583   1.207   3.287  1.00  0.00     0.293 HD
ENDBRANCH  14  18
ENDBRANCH   7   9
ENDBRANCH   1   7
BRANCH   4  20
ATOM     20  C   UNL     1      -2.018  -0.144  -0.831  1.00  0.00     0.251 C 
ATOM     21  N   UNL     1      -3.146  -0.216  -0.035  1.00  0.00    -0.349 N 
ATOM     22  O   UNL     1      -2.058  -0.078  -2.054  1.00  0.00    -0.269 OA
ATOM     23  H   UNL     1      -3.046   0.012   0.945  1.00  0.00     0.164 HD
BRANCH  21  24
ATOM     24  C   UNL     1      -4.484  -0.111  -0.617  1.00  0.00     0.087 C 
ATOM     25  C   UNL     1      -5.523  -0.798   0.279  1.00  0.00     0.040 C 
ATOM     26  C   UNL     1      -4.831   1.357  -0.906  1.00  0.00     0.073 C 
ATOM     27  C   UNL     1      -6.336   0.213   1.075  1.00  0.00     0.085 C 
ATOM     28  C   UNL     1      -6.338   1.600  -0.951  1.00  0.00     0.184 C 
ATOM     29  N   UNL     1      -7.048   1.162   0.232  1.00  0.00    -0.292 NA
ATOM     30  H   UNL     1      -7.946   0.793  -0.077  1.00  0.00     0.125 HD
BRANCH  28  31
ATOM     31  O   UNL     1      -6.933   0.977  -2.072  1.00  0.00    -0.379 OA
ATOM     32  H   UNL     1      -6.651   0.050  -2.092  1.00  0.00     0.212 HD
ENDBRANCH  28  31
ENDBRANCH  21  24
ENDBRANCH   4  20
TORSDOF 7
