MODEL        1USER    Run = 1USERUSER    Estimated Free Energy of Binding    =  -9.15 kcal/mol  [=(1)+(2)+(3)-(4)]USERUSER    (1) Final Intermolecular Energy     = -10.34 kcal/molUSER        vdW + Hbond + desolv Energy     =  -9.98 kcal/molUSER        Electrostatic Energy            =  -0.36 kcal/molUSER        Moving Ligand-Fixed Receptor    = -10.34 kcal/molUSER        Moving Ligand-Moving Receptor   =  +0.00 kcal/molUSER    (2) Final Total Internal Energy     =  -0.34 kcal/molUSER    (3) Torsional Free Energy           =  +1.19 kcal/molUSER    (4) Unbound System's Energy         =  -0.34 kcal/molUSERUSERREMARK SMILES O=c1[nH]c2cc(Cl)ccc2nc1-c1ccc(CCO)cc1REMARK SMILES IDX 17 1 16 2 13 3 14 4 21 5 15 6 20 7 12 8 2 9 3 10 4 11 11 12REMARK SMILES IDX 5 13 10 14 6 15 9 16 8 17 1 18 7 20 18 21 19 22REMARK H PARENT 3 19 19 23USER                              x       y       z     vdW  Elec       q    TypeUSER                           _______ _______ _______ _____ _____    ______ ____ROOTATOM      1  C   UNL     1      43.418  46.228  21.998 -0.29 +0.02    +0.063 C  ENDROOTBRANCH   1   2ATOM      2  C   UNL     1      42.632  46.489  20.732 -0.34 -0.01    -0.046 A  ATOM      3  C   UNL     1      41.152  46.997  18.388 -0.51 -0.00    +0.006 A  ATOM      4  C   UNL     1      42.397  47.603  18.582 -0.50 +0.00    +0.011 A  ATOM      5  C   UNL     1      40.660  46.119  19.363 -0.41 +0.00    +0.011 A  ATOM      6  C   UNL     1      43.128  47.355  19.749 -0.44 +0.00    +0.004 A  ATOM      7  C   UNL     1      41.393  45.872  20.527 -0.36 +0.00    +0.004 A  BRANCH   3   8ATOM      8  C   UNL     1      40.342  47.216  17.154 -0.41 -0.02    +0.136 A  ATOM      9  C   UNL     1      40.604  48.455  16.275 -0.33 -0.05    +0.274 A  ATOM     10  N   UNL     1      39.844  48.551  15.134 -0.29 +0.11    -0.319 N  ATOM     11  C   UNL     1      38.859  47.614  14.821 -0.45 -0.02    +0.069 A  ATOM     12  N   UNL     1      39.410  46.350  16.855 -0.26 +0.05    -0.240 NA ATOM     13  C   UNL     1      38.095  47.767  13.665 -0.47 -0.02    +0.049 A  ATOM     14  C   UNL     1      38.653  46.533  15.689 -0.35 -0.03    +0.088 A  ATOM     15  C   UNL     1      37.112  46.823  13.374 -0.51 -0.02    +0.043 A  ATOM     16  C   UNL     1      37.663  45.598  15.379 -0.34 -0.01    +0.032 A  ATOM     17  C   UNL     1      36.891  45.741  14.224 -0.40 -0.01    +0.023 A  ATOM     18  O   UNL     1      41.421  49.313  16.571 -1.08 -0.00    -0.267 OA ATOM     19  H   UNL     1      40.004  49.360  14.550 -0.03 -0.08    +0.170 HD ATOM     20  Cl  UNL     1      36.160  46.996  11.950 -0.91 +0.04    -0.084 Cl ENDBRANCH   3   8ENDBRANCH   1   2BRANCH   1  21ATOM     21  C   UNL     1      44.351  47.384  22.360 -0.28 +0.07    +0.161 C  BRANCH  21  22ATOM     22  O   UNL     1      45.475  47.411  21.485 -0.70 -0.49    -0.396 OA ATOM     23  H   UNL     1      45.417  48.238  20.977 -0.32 +0.11    +0.210 HD ENDBRANCH  21  22ENDBRANCH   1  21TORSDOF 4TERENDMDL