REMARK SMILES COc1cc(O)c2nc(-c3ccc4[nH]ccc4n3)c(=O)[nH]c2c1
REMARK SMILES IDX 3 1 4 2 5 3 7 4 8 5 9 6 19 7 20 8 21 9 22 10 23 11 2 13 1 14
REMARK SMILES IDX 6 15 10 17 11 18 18 19 12 20 17 21 13 22 16 23 14 24 15 25
REMARK H PARENT 21 12 6 16 14 26
ROOT
ATOM      1  C   UNL     1      -4.332   0.542   0.106  1.00  0.00     0.124 A 
ATOM      2  C   UNL     1      -3.930  -0.726   0.530  1.00  0.00     0.095 A 
ATOM      3  C   UNL     1      -2.571  -1.018   0.613  1.00  0.00     0.147 A 
ATOM      4  C   UNL     1      -1.592  -0.076   0.288  1.00  0.00     0.129 A 
ATOM      5  N   UNL     1      -0.234  -0.447   0.385  1.00  0.00    -0.235 NA
ATOM      6  C   UNL     1       0.670   0.447   0.065  1.00  0.00     0.155 A 
ATOM      7  C   UNL     1       0.303   1.888  -0.322  1.00  0.00     0.276 A 
ATOM      8  O   UNL     1       1.136   2.772  -0.449  1.00  0.00    -0.267 OA
ATOM      9  N   UNL     1      -1.042   2.143  -0.453  1.00  0.00    -0.318 N 
ATOM     10  C   UNL     1      -2.007   1.186  -0.137  1.00  0.00     0.075 A 
ATOM     11  C   UNL     1      -3.365   1.499  -0.228  1.00  0.00     0.075 A 
ATOM     12  H   UNL     1      -1.302   3.085  -0.711  1.00  0.00     0.170 HD
ENDROOT
BRANCH   1  13
ATOM     13  O   UNL     1      -5.624   0.972  -0.025  1.00  0.00    -0.497 OA
ATOM     14  C   UNL     1      -6.647   0.035   0.292  1.00  0.00     0.278 C 
ENDBRANCH   1  13
BRANCH   3  15
ATOM     15  O   UNL     1      -2.191  -2.270   1.020  1.00  0.00    -0.505 OA
ATOM     16  H   UNL     1      -1.212  -2.253   0.962  1.00  0.00     0.293 HD
ENDBRANCH   3  15
BRANCH   6  17
ATOM     17  C   UNL     1       2.106   0.078   0.087  1.00  0.00     0.095 A 
ATOM     18  C   UNL     1       2.564  -0.761   1.103  1.00  0.00     0.033 A 
ATOM     19  N   UNL     1       2.852   0.536  -0.943  1.00  0.00    -0.244 NA
ATOM     20  C   UNL     1       3.900  -1.156   1.118  1.00  0.00     0.030 A 
ATOM     21  C   UNL     1       4.149   0.152  -0.916  1.00  0.00     0.089 A 
ATOM     22  C   UNL     1       4.684  -0.669   0.073  1.00  0.00     0.064 A 
ATOM     23  C   UNL     1       5.189   0.468  -1.822  1.00  0.00     0.048 A 
ATOM     24  N   UNL     1       6.014  -0.844  -0.227  1.00  0.00    -0.360 N 
ATOM     25  C   UNL     1       6.331  -0.160  -1.374  1.00  0.00     0.085 A 
ATOM     26  H   UNL     1       6.662  -1.396   0.319  1.00  0.00     0.166 HD
ENDBRANCH   6  17
TORSDOF 3
