MODEL        3USER    Run = 3USERUSER    Estimated Free Energy of Binding    = -12.60 kcal/mol  [=(1)+(2)+(3)-(4)]USERUSER    (1) Final Intermolecular Energy     = -14.99 kcal/molUSER        vdW + Hbond + desolv Energy     = -14.86 kcal/molUSER        Electrostatic Energy            =  -0.13 kcal/molUSER        Moving Ligand-Fixed Receptor    = -14.99 kcal/molUSER        Moving Ligand-Moving Receptor   =  +0.00 kcal/molUSER    (2) Final Total Internal Energy     =  -2.49 kcal/molUSER    (3) Torsional Free Energy           =  +2.39 kcal/molUSER    (4) Unbound System's Energy         =  -2.49 kcal/molUSERUSERREMARK SMILES N#Cc1cnc(-c2ccc(CNCc3ccc(-c4csnn4)cc3)cc2)c(-c2ccccc2)c1REMARK SMILES IDX 11 1 10 2 7 3 8 4 26 5 9 6 25 7 6 8 3 9 4 10 34 11 5 12REMARK SMILES IDX 27 13 2 14 1 15 28 16 29 17 33 18 30 19 32 20 31 21 12 22REMARK SMILES IDX 13 24 14 25 15 26 24 27 16 28 23 29 17 30 18 31 19 32 22 33REMARK SMILES IDX 20 34 21 35REMARK H PARENT 12 23USER                              x       y       z     vdW  Elec       q    TypeUSER                           _______ _______ _______ _____ _____    ______ ____ROOTATOM      1  C   UNL     1      36.026  43.525  20.396 -0.40 -0.00    +0.117 C  ENDROOTBRANCH   1   2ATOM      2  C   UNL     1      35.167  44.012  19.252 -0.36 +0.01    -0.034 A  ATOM      3  C   UNL     1      33.575  44.906  17.077 -0.33 -0.00    +0.001 A  ATOM      4  C   UNL     1      34.230  45.817  17.925 -0.45 -0.01    +0.011 A  ATOM      5  C   UNL     1      33.723  43.537  17.354 -0.31 -0.00    +0.011 A  ATOM      6  C   UNL     1      35.020  45.379  18.993 -0.27 -0.00    +0.006 A  ATOM      7  C   UNL     1      34.514  43.096  18.420 -0.36 -0.00    +0.006 A  BRANCH   3   8ATOM      8  C   UNL     1      32.749  45.394  15.954 -0.25 -0.06    +0.078 A  ATOM      9  C   UNL     1      30.962  46.218  14.010 -0.53 -0.04    +0.071 A  ATOM     10  C   UNL     1      30.556  45.789  15.258 -0.37 -0.06    +0.131 A  ATOM     11  C   UNL     1      32.329  46.241  13.741 -0.14 -0.03    +0.032 A  ATOM     12  N   UNL     1      31.411  45.388  16.226 -0.71 +0.09    -0.254 NA ATOM     13  C   UNL     1      33.262  45.831  14.714 -0.16 -0.01    +0.009 A  BRANCH   9  14ATOM     14  C   UNL     1      30.004  46.632  13.036 -0.57 -0.06    +0.101 C  ATOM     15  N   UNL     1      29.225  46.968  12.245 -0.70 +0.10    -0.192 NA ENDBRANCH   9  14BRANCH  13  16ATOM     16  C   UNL     1      34.699  45.916  14.399 -0.30 +0.01    -0.016 A  ATOM     17  C   UNL     1      35.609  44.995  14.946 -0.32 -0.00    +0.009 A  ATOM     18  C   UNL     1      35.195  46.904  13.534 -0.40 -0.01    +0.009 A  ATOM     19  C   UNL     1      36.972  45.067  14.646 -0.39 -0.00    +0.001 A  ATOM     20  C   UNL     1      36.558  46.978  13.235 -0.59 -0.00    +0.001 A  ATOM     21  C   UNL     1      37.446  46.060  13.792 -0.45 -0.00    +0.000 A  ENDBRANCH  13  16ENDBRANCH   3   8ENDBRANCH   1   2BRANCH   1  22ATOM     22  N   UNL     1      37.368  43.191  19.921 -0.09 +0.02    -0.309 NA ATOM     23  H   UNL     1      37.372  43.258  18.905 +0.08 -0.01    +0.123 HD BRANCH  22  24ATOM     24  C   UNL     1      38.386  44.093  20.460 -0.30 -0.00    +0.117 C  BRANCH  24  25ATOM     25  C   UNL     1      38.923  45.070  19.440 -0.37 +0.00    -0.034 A  ATOM     26  C   UNL     1      40.148  45.718  19.644 -0.40 -0.00    +0.006 A  ATOM     27  C   UNL     1      38.196  45.360  18.280 -0.38 -0.00    +0.006 A  ATOM     28  C   UNL     1      40.639  46.629  18.702 -0.45 -0.00    +0.011 A  ATOM     29  C   UNL     1      38.685  46.270  17.339 -0.40 -0.00    +0.011 A  ATOM     30  C   UNL     1      39.917  46.912  17.534 -0.47 -0.00    +0.003 A  BRANCH  30  31ATOM     31  C   UNL     1      40.401  47.856  16.531 -0.45 -0.02    +0.105 A  ATOM     32  C   UNL     1      39.915  47.950  15.237 -0.45 -0.03    +0.118 A  ATOM     33  N   UNL     1      41.406  48.773  16.832 -0.99 +0.00    -0.138 NA ATOM     34  S   UNL     1      40.782  49.204  14.449 -0.79 +0.01    -0.020 S  ATOM     35  N   UNL     1      41.703  49.544  15.801 -1.04 -0.00    -0.091 NA ENDBRANCH  30  31ENDBRANCH  24  25ENDBRANCH  22  24ENDBRANCH   1  22TORSDOF 8TERENDMDL