MODEL        5USER    Run = 5USERUSER    Estimated Free Energy of Binding    = -13.41 kcal/mol  [=(1)+(2)+(3)-(4)]USERUSER    (1) Final Intermolecular Energy     = -15.20 kcal/molUSER        vdW + Hbond + desolv Energy     = -15.07 kcal/molUSER        Electrostatic Energy            =  -0.14 kcal/molUSER        Moving Ligand-Fixed Receptor    = -15.20 kcal/molUSER        Moving Ligand-Moving Receptor   =  +0.00 kcal/molUSER    (2) Final Total Internal Energy     =  -2.72 kcal/molUSER    (3) Torsional Free Energy           =  +1.79 kcal/molUSER    (4) Unbound System's Energy         =  -2.72 kcal/molUSERUSERREMARK SMILES Oc1nc2ccccc2n1C1CCN(Cc2ccc(-c3nc4ccccc4nc3-c3ccccc3)cc2)CC1REMARK SMILES IDX 11 1 12 2 13 3 14 4 38 5 39 6 10 7 2 8 3 9 4 10 9 11 5 12REMARK SMILES IDX 8 13 6 14 7 15 1 16 15 18 16 19 17 20 37 21 18 22 36 23REMARK SMILES IDX 19 24 20 25 21 26 29 27 22 28 28 29 23 30 27 31 24 32 26 33REMARK SMILES IDX 25 34 30 35 31 36 35 37 32 38 34 39 33 40REMARK H PARENT 1 17USER                              x       y       z     vdW  Elec       q    TypeUSER                           _______ _______ _______ _____ _____    ______ ____ROOTATOM      1  C   UNL     1      38.524  47.263  15.298 -0.45 -0.04    +0.095 C  ATOM      2  C   UNL     1      37.531  48.424  15.128 -0.56 -0.03    +0.041 C  ATOM      3  C   UNL     1      36.943  48.468  13.717 -0.56 -0.05    +0.087 C  ATOM      4  N   UNL     1      36.549  47.154  13.199 -0.36 +0.15    -0.299 NA ATOM      5  C   UNL     1      37.656  46.184  13.203 -0.43 -0.03    +0.087 C  ATOM      6  C   UNL     1      38.912  46.640  13.952 -0.36 -0.01    +0.041 C  ENDROOTBRANCH   1   7ATOM      7  N   UNL     1      39.676  47.628  16.109 -0.27 +0.08    -0.291 N  ATOM      8  C   UNL     1      40.469  48.729  15.946 -0.33 -0.07    +0.295 A  ATOM      9  N   UNL     1      41.429  48.812  16.824 -0.95 -0.00    -0.195 NA ATOM     10  C   UNL     1      41.256  47.706  17.621 -0.45 -0.01    +0.092 A  ATOM     11  C   UNL     1      40.162  46.943  17.204 -0.45 -0.01    +0.072 A  ATOM     12  C   UNL     1      42.002  47.291  18.736 -0.51 +0.00    +0.031 A  ATOM     13  C   UNL     1      39.770  45.769  17.862 -0.43 -0.00    +0.029 A  ATOM     14  C   UNL     1      41.626  46.119  19.404 -0.45 +0.00    +0.002 A  ATOM     15  C   UNL     1      40.528  45.374  18.972 -0.45 +0.00    +0.002 A  BRANCH   8  16ATOM     16  O   UNL     1      40.301  49.644  15.013 -0.19 +0.22    -0.480 OA ATOM     17  H   UNL     1      39.510  50.110  15.340 -0.21 -0.24    +0.296 HD ENDBRANCH   8  16ENDBRANCH   1   7BRANCH   4  18ATOM     18  C   UNL     1      35.339  46.598  13.828 -0.44 -0.09    +0.120 C  BRANCH  18  19ATOM     19  C   UNL     1      35.589  45.952  15.173 -0.35 +0.03    -0.034 A  ATOM     20  C   UNL     1      35.399  46.671  16.358 -0.13 -0.01    +0.006 A  ATOM     21  C   UNL     1      36.032  44.625  15.253 -0.35 -0.00    +0.006 A  ATOM     22  C   UNL     1      35.629  46.065  17.599 -0.35 -0.01    +0.011 A  ATOM     23  C   UNL     1      36.259  44.023  16.493 -0.35 -0.00    +0.011 A  ATOM     24  C   UNL     1      36.046  44.727  17.689 -0.32 -0.00    +0.002 A  BRANCH  24  25ATOM     25  C   UNL     1      36.264  44.102  19.005 -0.30 -0.02    +0.097 A  ATOM     26  N   UNL     1      37.440  44.462  19.596 -0.22 +0.02    -0.244 NA ATOM     27  C   UNL     1      35.385  43.200  19.625 -0.35 -0.01    +0.097 A  ATOM     28  C   UNL     1      37.740  43.893  20.776 -0.31 -0.00    +0.089 A  ATOM     29  N   UNL     1      35.704  42.618  20.817 -0.30 -0.01    -0.244 NA ATOM     30  C   UNL     1      38.933  44.220  21.410 -0.30 +0.00    +0.030 A  ATOM     31  C   UNL     1      36.870  42.965  21.388 -0.38 +0.00    +0.089 A  ATOM     32  C   UNL     1      39.286  43.650  22.635 -0.27 +0.00    +0.002 A  ATOM     33  C   UNL     1      37.230  42.402  22.607 -0.44 +0.00    +0.030 A  ATOM     34  C   UNL     1      38.429  42.737  23.235 -0.31 +0.00    +0.002 A  BRANCH  27  35ATOM     35  C   UNL     1      34.064  42.803  19.103 -0.40 -0.00    +0.002 A  ATOM     36  C   UNL     1      32.914  43.532  19.455 -0.43 -0.00    +0.010 A  ATOM     37  C   UNL     1      33.906  41.718  18.222 -0.40 -0.00    +0.010 A  ATOM     38  C   UNL     1      31.652  43.176  18.969 -0.29 -0.00    +0.001 A  ATOM     39  C   UNL     1      32.645  41.358  17.738 -0.38 -0.00    +0.001 A  ATOM     40  C   UNL     1      31.519  42.085  18.113 -0.30 -0.00    +0.000 A  ENDBRANCH  27  35ENDBRANCH  24  25ENDBRANCH  18  19ENDBRANCH   4  18TORSDOF 6TERENDMDL