MODEL        8USER    Run = 8USERUSER    Estimated Free Energy of Binding    =  -6.92 kcal/mol  [=(1)+(2)+(3)-(4)]USERUSER    (1) Final Intermolecular Energy     = -11.39 kcal/molUSER        vdW + Hbond + desolv Energy     = -11.34 kcal/molUSER        Electrostatic Energy            =  -0.20 kcal/molUSER        Moving Ligand-Fixed Receptor    = -11.53 kcal/molUSER        Moving Ligand-Moving Receptor   =  +0.14 kcal/molUSER    (2) Final Total Internal Energy     =  -1.80 kcal/molUSER    (3) Torsional Free Energy           =  +4.47 kcal/molUSER    (4) Unbound System's Energy         =  -1.80 kcal/molUSERUSERREMARK SMILES COc1ccc(O)c(C(=O)c2ccc(NC[C@@H]3CCCNC[C@@H]3NC(=O)c3ccncc3)cc2)c1FREMARK SMILES IDX 16 1 15 2 14 4 11 5 12 6 34 7 13 8 33 9 9 10 10 11 8 12 3 13REMARK SMILES IDX 4 14 35 15 5 16 6 17 36 18 2 19 1 20 7 21 17 23 18 24 23 26REMARK SMILES IDX 22 27 21 28 20 30 19 31 24 33 25 34 26 36 27 37 28 38 32 39REMARK SMILES IDX 29 40 31 41 30 42REMARK H PARENT 15 3 7 22 21 29 24 35REMARK Flexibility Score:   99.900USER                              x       y       z     vdW  Elec       q    TypeUSER                           _______ _______ _______ _____ _____    ______ ____ROOTATOM      1  C   UNL     1      39.140  47.392  24.846 -0.29 +0.01    +0.118 C  ENDROOTBRANCH   1   2ATOM      2  N   UNL     1      39.851  46.248  24.268 -0.04 -0.03    -0.385 N  ATOM      3  H   UNL     1      40.705  46.014  24.765 +0.06 +0.01    +0.160 HD BRANCH   2   4ATOM      4  C   UNL     1      39.923  46.025  22.896 -0.25 +0.00    +0.034 A  ATOM      5  C   UNL     1      40.230  45.500  20.131 -0.38 +0.00    +0.023 A  ATOM      6  C   UNL     1      39.010  45.260  20.767 -0.34 +0.00    +0.014 A  ATOM      7  C   UNL     1      41.316  45.949  20.884 -0.32 +0.00    +0.014 A  ATOM      8  C   UNL     1      38.865  45.513  22.136 -0.32 +0.00    +0.026 A  ATOM      9  C   UNL     1      41.156  46.201  22.253 -0.23 +0.00    +0.026 A  BRANCH   5  10ATOM     10  C   UNL     1      40.349  45.186  18.687 -0.37 -0.00    +0.199 C  ATOM     11  O   UNL     1      40.666  44.045  18.347 -0.28 -0.01    -0.288 OA BRANCH  10  12ATOM     12  C   UNL     1      40.160  46.192  17.619 -0.40 -0.01    +0.104 A  ATOM     13  C   UNL     1      40.740  48.296  16.529 -0.42 -0.03    +0.155 A  ATOM     14  C   UNL     1      39.764  48.059  15.560 -0.50 -0.02    +0.053 A  ATOM     15  C   UNL     1      40.923  47.359  17.559 -0.38 -0.02    +0.179 A  ATOM     16  C   UNL     1      38.971  46.911  15.630 -0.41 -0.02    +0.051 A  ATOM     17  C   UNL     1      39.160  45.994  16.660 -0.31 -0.03    +0.130 A  ATOM     18  F   UNL     1      41.835  47.619  18.509 -0.20 +0.00    -0.202 F  BRANCH  13  19ATOM     19  O   UNL     1      41.562  49.390  16.576 -0.84 -0.04    -0.494 OA ATOM     20  C   UNL     1      41.411  50.363  15.550 -0.45 -0.06    +0.278 C  ENDBRANCH  13  19BRANCH  17  21ATOM     21  O   UNL     1      38.319  44.913  16.674 -0.04 +0.12    -0.507 OA ATOM     22  H   UNL     1      38.754  44.199  17.193 +0.20 -0.05    +0.293 HD ENDBRANCH  17  21ENDBRANCH  10  12ENDBRANCH   5  10ENDBRANCH   2   4ENDBRANCH   1   2BRANCH   1  23ATOM     23  C   UNL     1      40.100  48.556  25.195 -0.32 +0.00    +0.032 C  BRANCH  23  24ATOM     24  C   UNL     1      41.469  48.334  24.521 -0.36 +0.00    +0.009 CG0ATOM     25  G   UNL     1      42.629  49.258  24.892 +0.00 +0.00    +0.000 G0 ENDBRANCH  23  24BRANCH  23  26ATOM     26  C   UNL     1      40.142  48.779  26.724 -0.26 +0.01    +0.101 C  BRANCH  26  27ATOM     27  C   UNL     1      41.413  48.163  27.354 -0.19 +0.01    +0.106 C  BRANCH  27  28ATOM     28  N   UNL     1      42.593  49.037  27.358 -0.07 -0.00    -0.315 NA ATOM     29  H   UNL     1      42.258  50.003  27.401 -0.44 -0.02    +0.122 HD BRANCH  28  30ATOM     30  C   UNL     1      43.410  48.900  26.151 -0.22 +0.00    +0.081 C  BRANCH  30  31ATOM     31  C   UNL     1      42.629  49.258  24.893 -0.39 +0.00    +0.016 CG0ATOM     32  G   UNL     1      41.468  48.336  24.520 +0.00 +0.00    +0.000 G0 ENDBRANCH  30  31ENDBRANCH  28  30ENDBRANCH  27  28ENDBRANCH  26  27BRANCH  26  33ATOM     33  N   UNL     1      38.959  48.267  27.412 -0.10 +0.01    -0.348 N  ATOM     34  C   UNL     1      37.691  48.748  27.191 -0.20 -0.00    +0.251 C  ATOM     35  H   UNL     1      39.153  47.609  28.157 -0.32 -0.03    +0.164 HD ATOM     36  O   UNL     1      37.448  49.652  26.400 -0.20 -0.03    -0.269 OA BRANCH  34  37ATOM     37  C   UNL     1      36.592  48.133  27.982 -0.29 -0.01    +0.042 A  ATOM     38  C   UNL     1      36.559  46.741  28.088 -0.31 -0.01    +0.034 A  ATOM     39  C   UNL     1      35.624  48.893  28.638 -0.29 -0.00    +0.034 A  ATOM     40  C   UNL     1      35.543  46.167  28.827 -0.21 -0.03    +0.112 A  ATOM     41  C   UNL     1      34.649  48.221  29.354 -0.32 -0.01    +0.112 A  ATOM     42  N   UNL     1      34.584  46.878  29.458 -0.32 +0.05    -0.265 NA ENDBRANCH  34  37ENDBRANCH  26  33ENDBRANCH  23  26ENDBRANCH   1  23TORSDOF 9TERENDMDL