MODEL        8USER    Run = 8USERUSER    Estimated Free Energy of Binding    =  -5.72 kcal/mol  [=(1)+(2)+(3)-(4)]USERUSER    (1) Final Intermolecular Energy     = -10.20 kcal/molUSER        vdW + Hbond + desolv Energy     = -10.64 kcal/molUSER        Electrostatic Energy            =  -0.02 kcal/molUSER        Moving Ligand-Fixed Receptor    = -10.66 kcal/molUSER        Moving Ligand-Moving Receptor   =  +0.47 kcal/molUSER    (2) Final Total Internal Energy     =  -2.78 kcal/molUSER    (3) Torsional Free Energy           =  +4.47 kcal/molUSER    (4) Unbound System's Energy         =  -2.78 kcal/molUSERUSERREMARK SMILES COc1ccc(O)c(C(=O)c2ccc(CO[C@@H]3CCCNC[C@@H]3NC(=O)c3ccncc3)cc2)c1FREMARK SMILES IDX 16 1 15 2 14 3 11 4 12 5 34 6 13 7 33 8 9 9 10 10 8 11 3 12REMARK SMILES IDX 4 13 35 14 5 15 6 16 36 17 2 18 1 19 7 20 17 22 18 23 23 25REMARK SMILES IDX 22 26 21 27 20 29 19 30 24 32 25 33 26 35 27 36 28 37 32 38REMARK SMILES IDX 29 39 31 40 30 41REMARK H PARENT 7 21 21 28 24 34REMARK Flexibility Score:   99.900USER                              x       y       z     vdW  Elec       q    TypeUSER                           _______ _______ _______ _____ _____    ______ ____ROOTATOM      1  O   UNL     1      38.791  45.105  23.856 -0.11 -0.03    -0.371 OA ENDROOTBRANCH   1   2ATOM      2  C   UNL     1      38.201  44.330  22.815 -0.27 +0.01    +0.196 C  BRANCH   2   3ATOM      3  C   UNL     1      38.838  44.730  21.510 -0.33 -0.00    -0.022 A  ATOM      4  C   UNL     1      40.022  45.445  19.064 -0.43 -0.00    +0.023 A  ATOM      5  C   UNL     1      38.729  44.913  19.086 -0.38 -0.00    +0.012 A  ATOM      6  C   UNL     1      40.709  45.650  20.265 -0.37 +0.00    +0.012 A  ATOM      7  C   UNL     1      38.146  44.553  20.303 -0.36 -0.00    +0.007 A  ATOM      8  C   UNL     1      40.123  45.289  21.480 -0.31 +0.00    +0.007 A  BRANCH   4   9ATOM      9  C   UNL     1      40.669  45.874  17.801 -0.40 -0.01    +0.199 C  ATOM     10  O   UNL     1      41.830  45.526  17.574 -0.23 -0.00    -0.288 OA BRANCH   9  11ATOM     11  C   UNL     1      40.014  46.758  16.814 -0.41 -0.02    +0.104 A  ATOM     12  C   UNL     1      38.219  47.250  15.238 -0.33 -0.07    +0.155 A  ATOM     13  C   UNL     1      38.805  48.487  14.959 -0.49 -0.03    +0.053 A  ATOM     14  C   UNL     1      38.836  46.392  16.160 -0.29 -0.05    +0.179 A  ATOM     15  C   UNL     1      40.002  48.850  15.583 -0.54 -0.02    +0.051 A  ATOM     16  C   UNL     1      40.607  47.985  16.492 -0.45 -0.02    +0.130 A  ATOM     17  F   UNL     1      38.283  45.191  16.392 -0.07 +0.05    -0.202 F  BRANCH  12  18ATOM     18  O   UNL     1      37.061  46.779  14.679 -0.07 +0.28    -0.494 OA ATOM     19  C   UNL     1      36.673  47.324  13.424 -0.42 -0.14    +0.278 C  ENDBRANCH  12  18BRANCH  16  20ATOM     20  O   UNL     1      41.792  48.404  17.033 -0.58 -0.02    -0.507 OA ATOM     21  H   UNL     1      42.358  47.610  17.172 -0.35 -0.06    +0.293 HD ENDBRANCH  16  20ENDBRANCH   9  11ENDBRANCH   4   9ENDBRANCH   2   3ENDBRANCH   1   2BRANCH   1  22ATOM     22  C   UNL     1      37.827  45.835  24.647 -0.18 +0.02    +0.142 C  BRANCH  22  23ATOM     23  C   UNL     1      38.449  47.226  24.830 -0.37 +0.00    +0.035 CG0ATOM     24  G   UNL     1      37.650  48.312  25.542 +0.00 +0.00    +0.000 G0 ENDBRANCH  22  23BRANCH  22  25ATOM     25  C   UNL     1      37.530  45.048  25.946 -0.29 -0.00    +0.125 C  BRANCH  25  26ATOM     26  C   UNL     1      36.947  45.980  27.037 -0.32 -0.02    +0.108 C  BRANCH  26  27ATOM     27  N   UNL     1      37.857  46.966  27.616 -0.10 +0.05    -0.315 NA ATOM     28  H   UNL     1      38.813  46.623  27.509 -0.01 -0.01    +0.122 HD BRANCH  27  29ATOM     29  C   UNL     1      37.727  48.307  27.064 -0.29 -0.00    +0.081 C  BRANCH  29  30ATOM     30  C   UNL     1      37.655  48.311  25.544 -0.45 +0.00    +0.018 CG0ATOM     31  G   UNL     1      38.450  47.223  24.831 +0.00 +0.00    +0.000 G0 ENDBRANCH  29  30ENDBRANCH  27  29ENDBRANCH  26  27ENDBRANCH  25  26BRANCH  25  32ATOM     32  N   UNL     1      38.703  44.273  26.378 -0.05 +0.01    -0.345 N  ATOM     33  C   UNL     1      38.621  43.368  27.416 -0.19 -0.02    +0.251 C  ATOM     34  H   UNL     1      39.344  44.031  25.632 +0.07 +0.00    +0.164 HD ATOM     35  O   UNL     1      37.625  43.220  28.112 -0.27 +0.06    -0.269 OA BRANCH  33  36ATOM     36  C   UNL     1      39.820  42.517  27.642 -0.24 -0.00    +0.042 A  ATOM     37  C   UNL     1      41.077  43.064  27.383 -0.14 -0.00    +0.034 A  ATOM     38  C   UNL     1      39.719  41.193  28.067 -0.30 -0.00    +0.034 A  ATOM     39  C   UNL     1      42.188  42.263  27.579 -0.09 -0.01    +0.112 A  ATOM     40  C   UNL     1      40.891  40.474  28.229 -0.17 -0.01    +0.112 A  ATOM     41  N   UNL     1      42.120  40.982  28.000 -0.07 +0.05    -0.265 NA ENDBRANCH  33  36ENDBRANCH  25  32ENDBRANCH  22  25ENDBRANCH   1  22TORSDOF 9TERENDMDL