MODEL        5USER    Run = 5USERUSER    Estimated Free Energy of Binding    =  -6.80 kcal/mol  [=(1)+(2)+(3)-(4)]USERUSER    (1) Final Intermolecular Energy     = -11.27 kcal/molUSER        vdW + Hbond + desolv Energy     = -11.35 kcal/molUSER        Electrostatic Energy            =  -0.33 kcal/molUSER        Moving Ligand-Fixed Receptor    = -11.68 kcal/molUSER        Moving Ligand-Moving Receptor   =  +0.41 kcal/molUSER    (2) Final Total Internal Energy     =  -3.12 kcal/molUSER    (3) Torsional Free Energy           =  +4.47 kcal/molUSER    (4) Unbound System's Energy         =  -3.12 kcal/molUSERUSERREMARK SMILES COc1ccc(O)c(C(=O)c2ccc(C(=O)O[C@@H]3CCCNC[C@H]3NC(=O)c3ccncc3)cc2)c1FREMARK SMILES IDX 17 1 15 2 16 3 14 4 11 5 12 6 35 7 13 8 34 9 9 10 10 11 8 12REMARK SMILES IDX 3 13 4 14 36 15 5 16 6 17 37 18 2 19 1 20 7 21 18 23 24 25REMARK SMILES IDX 23 26 22 27 21 29 20 30 19 31 25 33 26 34 27 36 28 37 29 38REMARK SMILES IDX 33 39 30 40 32 41 31 42REMARK H PARENT 7 22 22 28 25 35REMARK Flexibility Score:   99.900USER                              x       y       z     vdW  Elec       q    TypeUSER                           _______ _______ _______ _____ _____    ______ ____ROOTATOM      1  O   UNL     1      38.998  46.909  16.210 -0.14 +0.15    -0.457 OA ENDROOTBRANCH   1   2ATOM      2  C   UNL     1      40.328  46.732  16.003 -0.27 -0.04    +0.338 C  ATOM      3  O   UNL     1      40.893  46.621  14.924 -0.32 -0.01    -0.246 OA BRANCH   2   4ATOM      4  C   UNL     1      41.040  46.737  17.304 -0.40 -0.01    +0.060 A  ATOM      5  C   UNL     1      42.431  46.808  19.742 -0.45 +0.00    +0.023 A  ATOM      6  C   UNL     1      41.609  45.716  19.432 -0.40 +0.00    +0.013 A  ATOM      7  C   UNL     1      42.556  47.860  18.824 -0.45 +0.00    +0.013 A  ATOM      8  C   UNL     1      40.916  45.681  18.217 -0.47 -0.00    +0.016 A  ATOM      9  C   UNL     1      41.872  47.821  17.606 -0.23 -0.00    +0.016 A  BRANCH   5  10ATOM     10  C   UNL     1      43.169  46.908  21.031 -0.31 +0.07    +0.199 C  ATOM     11  O   UNL     1      44.391  47.013  21.053 -0.64 -0.25    -0.288 OA BRANCH  10  12ATOM     12  C   UNL     1      42.448  46.877  22.310 -0.23 +0.02    +0.104 A  ATOM     13  C   UNL     1      41.089  45.639  23.890 -0.08 +0.01    +0.155 A  ATOM     14  C   UNL     1      41.016  46.780  24.699 -0.14 +0.00    +0.053 A  ATOM     15  C   UNL     1      41.805  45.702  22.689 -0.12 +0.02    +0.179 A  ATOM     16  C   UNL     1      41.676  47.958  24.324 -0.26 +0.01    +0.051 A  ATOM     17  C   UNL     1      42.398  48.001  23.133 -0.26 +0.02    +0.130 A  ATOM     18  F   UNL     1      41.909  44.604  21.922 -0.05 -0.03    -0.202 F  BRANCH  13  19ATOM     19  O   UNL     1      40.529  44.423  24.181 +0.02 -0.02    -0.494 OA ATOM     20  C   UNL     1      41.412  43.360  24.517 -0.10 -0.00    +0.278 C  ENDBRANCH  13  19BRANCH  17  21ATOM     21  O   UNL     1      43.062  49.139  22.773 -0.62 -0.19    -0.507 OA ATOM     22  H   UNL     1      43.676  48.950  22.045 -0.43 +0.00    +0.293 HD ENDBRANCH  17  21ENDBRANCH  10  12ENDBRANCH   5  10ENDBRANCH   2   4ENDBRANCH   1   2BRANCH   1  23ATOM     23  C   UNL     1      38.103  46.329  15.224 -0.31 -0.07    +0.200 CG0ATOM     24  G   UNL     1      37.942  47.356  14.104 +0.00 +0.00    +0.000 G0 BRANCH  23  25ATOM     25  C   UNL     1      36.792  45.974  15.955 -0.33 -0.07    +0.137 C  BRANCH  25  26ATOM     26  C   UNL     1      35.881  44.989  15.196 -0.34 -0.06    +0.109 C  BRANCH  26  27ATOM     27  N   UNL     1      34.993  45.620  14.217 -0.11 +0.21    -0.315 NA ATOM     28  H   UNL     1      34.059  45.674  14.623 +0.05 -0.11    +0.122 HD BRANCH  27  29ATOM     29  C   UNL     1      35.383  46.959  13.766 -0.41 -0.06    +0.081 C  BRANCH  29  30ATOM     30  C   UNL     1      36.772  47.134  13.137 -0.66 -0.01    +0.019 C  BRANCH  30  31ATOM     31  C   UNL     1      37.939  47.357  14.107 -0.53 -0.02    +0.049 CG0ATOM     32  G   UNL     1      38.100  46.327  15.224 +0.00 +0.00    +0.000 G0 ENDBRANCH  30  31ENDBRANCH  29  30ENDBRANCH  27  29ENDBRANCH  26  27ENDBRANCH  25  26BRANCH  25  33ATOM     33  N   UNL     1      37.112  45.444  17.287 -0.13 +0.12    -0.344 N  ATOM     34  C   UNL     1      36.191  44.767  18.048 -0.22 -0.08    +0.251 C  ATOM     35  H   UNL     1      38.095  45.321  17.487 +0.10 -0.04    +0.164 HD ATOM     36  O   UNL     1      35.027  44.589  17.715 -0.17 +0.11    -0.269 OA BRANCH  34  37ATOM     37  C   UNL     1      36.687  44.228  19.336 -0.34 -0.01    +0.042 A  ATOM     38  C   UNL     1      37.897  44.704  19.837 -0.32 -0.00    +0.034 A  ATOM     39  C   UNL     1      35.989  43.237  20.024 -0.41 -0.00    +0.034 A  ATOM     40  C   UNL     1      38.351  44.180  21.033 -0.28 +0.00    +0.112 A  ATOM     41  C   UNL     1      36.532  42.776  21.209 -0.38 +0.00    +0.112 A  ATOM     42  N   UNL     1      37.693  43.230  21.731 -0.20 -0.01    -0.265 NA ENDBRANCH  34  37ENDBRANCH  25  33ENDBRANCH  23  25ENDBRANCH   1  23TORSDOF 9TERENDMDL