MODEL        2USER    Run = 2USERUSER    Estimated Free Energy of Binding    = -12.68 kcal/mol  [=(1)+(2)+(3)-(4)]USERUSER    (1) Final Intermolecular Energy     = -14.47 kcal/molUSER        vdW + Hbond + desolv Energy     = -14.18 kcal/molUSER        Electrostatic Energy            =  -0.28 kcal/molUSER        Moving Ligand-Fixed Receptor    = -14.47 kcal/molUSER        Moving Ligand-Moving Receptor   =  +0.00 kcal/molUSER    (2) Final Total Internal Energy     =  -1.80 kcal/molUSER    (3) Torsional Free Energy           =  +1.79 kcal/molUSER    (4) Unbound System's Energy         =  -1.80 kcal/molUSERUSERREMARK SMILES Cn1ccc2ccc3c4[nH]c5c(CCCN[C@H]6CC[C@H](O)CC6)cccc5c4c4c(c3c21)C(=O)NC4=OREMARK SMILES IDX 15 1 14 2 13 3 12 4 2 5 3 6 32 7 4 8 31 9 5 10 30 11 8 12REMARK SMILES IDX 6 13 29 14 33 15 7 16 9 17 28 18 36 19 35 20 10 21 27 22REMARK SMILES IDX 11 23 26 24 25 25 24 26 1 27 34 28 37 29 16 32 17 34 23 35REMARK SMILES IDX 18 36 22 37 19 38 20 39 21 40REMARK H PARENT 35 30 10 31 16 33 21 41USER                              x       y       z     vdW  Elec       q    TypeUSER                           _______ _______ _______ _____ _____    ______ ____ROOTATOM      1  C   UNL     1      36.014  41.975  20.388 -0.45 -0.00    +0.081 C  ENDROOTBRANCH   1   2ATOM      2  C   UNL     1      36.475  42.955  21.471 -0.47 +0.00    +0.020 C  BRANCH   2   3ATOM      3  C   UNL     1      37.609  42.400  22.340 -0.46 +0.00    +0.039 C  BRANCH   3   4ATOM      4  C   UNL     1      38.915  43.142  22.198 -0.23 -0.00    -0.024 A  ATOM      5  N   UNL     1      39.672  47.848  14.952 -0.23 +0.10    -0.350 N  ATOM      6  C   UNL     1      38.731  48.283  14.048 -0.39 -0.03    +0.086 A  ATOM      7  C   UNL     1      39.058  47.269  16.056 -0.42 -0.02    +0.057 A  ATOM      8  C   UNL     1      37.515  47.799  14.447 -0.50 -0.02    +0.028 A  ATOM      9  C   UNL     1      39.530  46.801  17.339 -0.44 -0.00    +0.022 A  ATOM     10  C   UNL     1      37.718  47.095  15.662 -0.42 -0.00    +0.000 A  ATOM     11  C   UNL     1      40.746  47.083  17.982 -0.46 -0.01    +0.063 A  ATOM     12  C   UNL     1      38.632  45.948  18.052 -0.38 -0.00    +0.009 A  ATOM     13  C   UNL     1      36.846  46.333  16.456 -0.37 -0.01    +0.011 A  ATOM     14  C   UNL     1      41.136  46.453  19.170 -0.40 +0.00    +0.063 A  ATOM     15  C   UNL     1      41.770  48.114  17.737 -0.28 -0.01    +0.259 C  ATOM     16  C   UNL     1      37.318  45.722  17.613 -0.34 -0.00    +0.012 A  ATOM     17  C   UNL     1      39.063  45.316  19.261 -0.37 -0.00    +0.055 A  ATOM     18  C   UNL     1      40.323  45.531  19.834 -0.39 +0.00    +0.022 A  ATOM     19  C   UNL     1      42.436  46.993  19.562 -0.37 +0.04    +0.259 C  ATOM     20  N   UNL     1      42.793  47.875  18.596 -0.35 -0.01    -0.288 N  ATOM     21  N   UNL     1      38.414  44.426  20.089 -0.14 +0.01    -0.354 N  ATOM     22  C   UNL     1      40.409  44.722  21.017 -0.32 +0.00    +0.008 A  ATOM     23  C   UNL     1      39.199  44.040  21.148 -0.24 +0.00    +0.050 A  ATOM     24  C   UNL     1      41.401  44.498  21.994 -0.26 +0.00    +0.011 A  ATOM     25  C   UNL     1      41.153  43.616  23.051 -0.24 +0.00    +0.001 A  ATOM     26  C   UNL     1      39.934  42.954  23.148 -0.26 +0.00    +0.006 A  ATOM     27  C   UNL     1      41.073  47.800  14.585 -0.20 -0.01    +0.149 C  ATOM     28  O   UNL     1      41.688  49.073  16.998 -0.95 -0.04    -0.269 OA ATOM     29  O   UNL     1      43.062  46.763  20.576 -0.31 -0.09    -0.269 OA ATOM     30  H   UNL     1      43.554  48.524  18.724 -0.40 -0.01    +0.173 HD ATOM     31  H   UNL     1      37.482  44.075  19.931 +0.11 -0.01    +0.167 HD ENDBRANCH   3   4ENDBRANCH   2   3ENDBRANCH   1   2BRANCH   1  32ATOM     32  N   UNL     1      36.047  42.645  19.087 -0.12 +0.04    -0.314 NA ATOM     33  H   UNL     1      36.537  43.536  19.165 +0.09 -0.02    +0.122 HD BRANCH  32  34ATOM     34  C   UNL     1      34.707  42.858  18.521 -0.40 -0.01    +0.053 C  ATOM     35  C   UNL     1      34.000  44.103  19.096 -0.45 -0.00    +0.021 C  ATOM     36  C   UNL     1      34.873  42.942  16.990 -0.45 -0.01    +0.021 C  ATOM     37  C   UNL     1      34.210  45.344  18.230 -0.47 -0.02    +0.033 C  ATOM     38  C   UNL     1      33.706  43.682  16.350 -0.37 -0.02    +0.033 C  ATOM     39  C   UNL     1      33.648  45.139  16.819 -0.31 -0.08    +0.114 C  BRANCH  39  40ATOM     40  O   UNL     1      32.283  45.554  16.778 -0.42 +0.20    -0.393 OA ATOM     41  H   UNL     1      32.265  46.474  16.462 -0.33 -0.27    +0.210 HD ENDBRANCH  39  40ENDBRANCH  32  34ENDBRANCH   1  32TORSDOF 6TERENDMDL