MODEL        2USER    Run = 2USERUSER    Estimated Free Energy of Binding    =  -8.14 kcal/mol  [=(1)+(2)+(3)-(4)]USERUSER    (1) Final Intermolecular Energy     = -12.62 kcal/molUSER        vdW + Hbond + desolv Energy     = -12.50 kcal/molUSER        Electrostatic Energy            =  -0.22 kcal/molUSER        Moving Ligand-Fixed Receptor    = -12.72 kcal/molUSER        Moving Ligand-Moving Receptor   =  +0.11 kcal/molUSER    (2) Final Total Internal Energy     =  -2.12 kcal/molUSER    (3) Torsional Free Energy           =  +4.47 kcal/molUSER    (4) Unbound System's Energy         =  -2.12 kcal/molUSERUSERREMARK SMILES COc1ccc(O)c(C(=O)c2ccc(/C=C/[C@@H]3CCCNC[C@H]3NC(=O)c3ccncc3)cc2)c1FREMARK SMILES IDX 16 1 15 2 14 3 11 4 12 5 34 6 13 7 33 8 9 9 10 10 8 11 3 12REMARK SMILES IDX 4 13 35 14 5 15 6 16 36 17 2 18 1 19 7 20 17 22 18 23 23 25REMARK SMILES IDX 22 26 21 27 20 29 19 30 24 32 25 33 26 35 27 36 28 37 32 38REMARK SMILES IDX 29 39 31 40 30 41REMARK H PARENT 7 21 21 28 24 34REMARK Flexibility Score:   99.900USER                              x       y       z     vdW  Elec       q    TypeUSER                           _______ _______ _______ _____ _____    ______ ____ROOTATOM      1  C   UNL     1      35.409  44.308  19.179 -0.43 +0.00    -0.021 C  ENDROOTBRANCH   1   2ATOM      2  C   UNL     1      36.491  43.572  19.479 -0.43 -0.00    +0.004 C  BRANCH   2   3ATOM      3  C   UNL     1      36.931  43.305  20.854 -0.40 -0.00    -0.026 A  ATOM      4  C   UNL     1      37.770  42.874  23.498 -0.35 +0.00    +0.023 A  ATOM      5  C   UNL     1      38.170  44.029  22.819 -0.32 +0.00    +0.013 A  ATOM      6  C   UNL     1      36.922  41.954  22.875 -0.49 +0.00    +0.013 A  ATOM      7  C   UNL     1      37.745  44.242  21.502 -0.37 +0.00    +0.009 A  ATOM      8  C   UNL     1      36.513  42.166  21.557 -0.51 +0.00    +0.009 A  BRANCH   4   9ATOM      9  C   UNL     1      38.173  42.630  24.900 -0.21 +0.01    +0.199 C  ATOM     10  O   UNL     1      39.370  42.654  25.187 -0.14 -0.01    -0.288 OA BRANCH   9  11ATOM     11  C   UNL     1      37.202  42.305  25.969 -0.30 -0.01    +0.104 A  ATOM     12  C   UNL     1      35.176  42.792  27.236 -0.43 -0.03    +0.155 A  ATOM     13  C   UNL     1      35.389  41.649  28.009 -0.44 -0.02    +0.053 A  ATOM     14  C   UNL     1      36.090  43.111  26.221 -0.29 -0.02    +0.179 A  ATOM     15  C   UNL     1      36.514  40.851  27.784 -0.46 -0.02    +0.051 A  ATOM     16  C   UNL     1      37.419  41.186  26.782 -0.28 -0.02    +0.130 A  ATOM     17  F   UNL     1      35.896  44.233  25.510 -0.07 -0.00    -0.202 F  BRANCH  12  18ATOM     18  O   UNL     1      34.125  43.658  27.374 -0.23 +0.06    -0.494 OA ATOM     19  C   UNL     1      34.016  44.360  28.606 -0.43 -0.04    +0.278 C  ENDBRANCH  12  18BRANCH  16  20ATOM     20  O   UNL     1      38.509  40.367  26.650 -0.09 +0.01    -0.507 OA ATOM     21  H   UNL     1      39.295  40.937  26.482 +0.10 -0.01    +0.293 HD ENDBRANCH  16  20ENDBRANCH   9  11ENDBRANCH   4   9ENDBRANCH   2   3ENDBRANCH   1   2BRANCH   1  22ATOM     22  C   UNL     1      35.400  45.605  18.374 -0.35 -0.01    +0.035 C  BRANCH  22  23ATOM     23  C   UNL     1      33.942  46.107  18.354 -0.59 -0.01    +0.011 CG0ATOM     24  G   UNL     1      32.869  45.191  17.775 +0.00 +0.00    +0.000 G0 ENDBRANCH  22  23BRANCH  22  25ATOM     25  C   UNL     1      36.081  45.562  16.973 -0.33 -0.05    +0.103 C  BRANCH  25  26ATOM     26  C   UNL     1      35.062  45.887  15.842 -0.32 -0.10    +0.106 C  BRANCH  26  27ATOM     27  N   UNL     1      33.990  44.932  15.587 -0.12 +0.22    -0.315 NA ATOM     28  H   UNL     1      34.313  43.991  15.819 +0.08 -0.06    +0.122 HD BRANCH  27  29ATOM     29  C   UNL     1      32.732  45.218  16.260 -0.33 -0.06    +0.081 C  BRANCH  29  30ATOM     30  C   UNL     1      32.869  45.192  17.775 -0.32 -0.01    +0.016 CG0ATOM     31  G   UNL     1      33.942  46.107  18.354 +0.00 +0.00    +0.000 G0 ENDBRANCH  29  30ENDBRANCH  27  29ENDBRANCH  26  27ENDBRANCH  25  26BRANCH  25  32ATOM     32  N   UNL     1      37.191  46.522  16.888 -0.15 +0.19    -0.347 N  ATOM     33  C   UNL     1      38.365  46.219  16.235 -0.28 -0.08    +0.251 C  ATOM     34  H   UNL     1      37.005  47.479  17.154 +0.14 -0.13    +0.164 HD ATOM     35  O   UNL     1      38.579  45.146  15.686 -0.15 +0.07    -0.269 OA BRANCH  33  36ATOM     36  C   UNL     1      39.386  47.296  16.195 -0.45 -0.01    +0.042 A  ATOM     37  C   UNL     1      39.417  48.239  15.168 -0.52 -0.01    +0.034 A  ATOM     38  C   UNL     1      40.310  47.374  17.235 -0.48 -0.01    +0.034 A  ATOM     39  C   UNL     1      40.398  49.211  15.216 -0.50 -0.04    +0.112 A  ATOM     40  C   UNL     1      41.253  48.382  17.189 -0.35 -0.01    +0.112 A  ATOM     41  N   UNL     1      41.323  49.296  16.196 -0.92 +0.01    -0.265 NA ENDBRANCH  33  36ENDBRANCH  25  32ENDBRANCH  22  25ENDBRANCH   1  22TORSDOF 9TERENDMDL