MODEL        8USER    Run = 8USERUSER    Estimated Free Energy of Binding    =  -7.89 kcal/mol  [=(1)+(2)+(3)-(4)]USERUSER    (1) Final Intermolecular Energy     = -12.07 kcal/molUSER        vdW + Hbond + desolv Energy     = -12.01 kcal/molUSER        Electrostatic Energy            =  -0.41 kcal/molUSER        Moving Ligand-Fixed Receptor    = -12.42 kcal/molUSER        Moving Ligand-Moving Receptor   =  +0.35 kcal/molUSER    (2) Final Total Internal Energy     =  -2.80 kcal/molUSER    (3) Torsional Free Energy           =  +4.18 kcal/molUSER    (4) Unbound System's Energy         =  -2.80 kcal/molUSERUSERREMARK SMILES COc1ccc(O)c(C(=O)c2ccc(C(=O)N[C@@H]3CCCNC[C@H]3NC(=O)c3ccncc3)cc2)c1FREMARK SMILES IDX 15 1 16 2 17 3 14 5 11 6 12 7 35 8 13 9 34 10 9 11 10 12REMARK SMILES IDX 8 13 3 14 4 15 36 16 5 17 6 18 37 19 2 20 1 21 7 22 18 24REMARK SMILES IDX 19 25 24 27 23 28 22 29 21 31 20 32 25 34 26 35 27 37 28 38REMARK SMILES IDX 29 39 33 40 30 41 32 42 31 43REMARK H PARENT 17 4 7 23 22 30 25 36REMARK Flexibility Score:   88.900USER                              x       y       z     vdW  Elec       q    TypeUSER                           _______ _______ _______ _____ _____    ______ ____ROOTATOM      1  C   UNL     1      37.917  45.139  17.912 -0.26 -0.05    +0.251 C  ATOM      2  O   UNL     1      37.351  45.869  17.106 -0.24 +0.10    -0.269 OA ATOM      3  N   UNL     1      37.370  43.962  18.382 -0.08 +0.06    -0.347 N  ATOM      4  H   UNL     1      37.798  43.529  19.189 +0.11 -0.01    +0.164 HD ENDROOTBRANCH   1   5ATOM      5  C   UNL     1      39.228  45.537  18.497 -0.40 -0.00    +0.039 A  ATOM      6  C   UNL     1      41.658  46.422  19.580 -0.43 +0.00    +0.023 A  ATOM      7  C   UNL     1      41.073  47.113  18.514 -0.44 -0.00    +0.013 A  ATOM      8  C   UNL     1      41.029  45.287  20.104 -0.38 +0.00    +0.013 A  ATOM      9  C   UNL     1      39.868  46.665  17.967 -0.44 -0.00    +0.014 A  ATOM     10  C   UNL     1      39.819  44.838  19.556 -0.39 -0.00    +0.014 A  BRANCH   6  11ATOM     11  C   UNL     1      42.891  46.981  20.176 -0.37 +0.05    +0.199 C  ATOM     12  O   UNL     1      43.799  47.321  19.416 -0.38 -0.13    -0.288 OA BRANCH  11  13ATOM     13  C   UNL     1      43.085  47.202  21.628 -0.30 +0.02    +0.104 A  ATOM     14  C   UNL     1      42.231  47.375  23.908 -0.16 +0.02    +0.155 A  ATOM     15  C   UNL     1      43.525  47.621  24.375 -0.18 +0.01    +0.053 A  ATOM     16  C   UNL     1      42.024  47.165  22.534 -0.15 +0.03    +0.179 A  ATOM     17  C   UNL     1      44.599  47.634  23.482 -0.22 +0.01    +0.051 A  ATOM     18  C   UNL     1      44.380  47.412  22.124 -0.24 +0.06    +0.130 A  ATOM     19  F   UNL     1      40.780  46.893  22.107 +0.03 -0.02    -0.202 F  BRANCH  14  20ATOM     20  O   UNL     1      41.105  47.323  24.686 -0.02 -0.05    -0.494 OA ATOM     21  C   UNL     1      40.276  48.481  24.708 -0.22 +0.04    +0.278 C  ENDBRANCH  14  20BRANCH  18  22ATOM     22  O   UNL     1      45.495  47.412  21.329 -0.60 -0.70    -0.507 OA ATOM     23  H   UNL     1      45.367  48.108  20.641 -0.25 +0.20    +0.293 HD ENDBRANCH  18  22ENDBRANCH  11  13ENDBRANCH   6  11ENDBRANCH   1   5BRANCH   3  24ATOM     24  C   UNL     1      35.974  43.612  18.093 -0.30 -0.03    +0.106 C  BRANCH  24  25ATOM     25  C   UNL     1      35.425  42.708  19.205 -0.46 -0.00    +0.028 CG0ATOM     26  G   UNL     1      33.913  42.814  19.464 +0.00 +0.00    +0.000 G0 ENDBRANCH  24  25BRANCH  24  27ATOM     27  C   UNL     1      35.851  43.003  16.667 -0.39 -0.04    +0.118 C  BRANCH  27  28ATOM     28  C   UNL     1      34.427  42.543  16.274 -0.34 -0.05    +0.108 C  BRANCH  28  29ATOM     29  N   UNL     1      33.307  43.116  17.027 -0.12 +0.12    -0.315 NA ATOM     30  H   UNL     1      33.462  44.111  17.174 +0.10 -0.05    +0.122 HD BRANCH  29  31ATOM     31  C   UNL     1      32.990  42.475  18.298 -0.37 -0.02    +0.081 C  BRANCH  31  32ATOM     32  C   UNL     1      33.916  42.811  19.464 -0.46 -0.00    +0.017 CG0ATOM     33  G   UNL     1      35.428  42.706  19.205 +0.00 +0.00    +0.000 G0 ENDBRANCH  31  32ENDBRANCH  29  31ENDBRANCH  28  29ENDBRANCH  27  28BRANCH  27  34ATOM     34  N   UNL     1      36.397  43.935  15.671 -0.17 +0.12    -0.346 N  ATOM     35  C   UNL     1      35.612  44.895  15.077 -0.21 -0.13    +0.251 C  ATOM     36  H   UNL     1      37.399  44.038  15.641 +0.10 -0.05    +0.164 HD ATOM     37  O   UNL     1      34.404  44.991  15.254 -0.22 +0.18    -0.269 OA BRANCH  35  38ATOM     38  C   UNL     1      36.311  45.867  14.201 -0.39 -0.02    +0.042 A  ATOM     39  C   UNL     1      35.580  46.490  13.188 -0.51 -0.02    +0.034 A  ATOM     40  C   UNL     1      37.670  46.149  14.345 -0.40 -0.01    +0.034 A  ATOM     41  C   UNL     1      36.237  47.391  12.374 -0.59 -0.06    +0.112 A  ATOM     42  C   UNL     1      38.235  47.066  13.477 -0.35 -0.03    +0.112 A  ATOM     43  N   UNL     1      37.546  47.696  12.498 -0.93 +0.03    -0.265 NA ENDBRANCH  35  38ENDBRANCH  27  34ENDBRANCH  24  27ENDBRANCH   3  24TORSDOF 8TERENDMDL