MODEL        5USER    Run = 5USERUSER    Estimated Free Energy of Binding    = -12.44 kcal/mol  [=(1)+(2)+(3)-(4)]USERUSER    (1) Final Intermolecular Energy     = -14.23 kcal/molUSER        vdW + Hbond + desolv Energy     = -14.11 kcal/molUSER        Electrostatic Energy            =  -0.12 kcal/molUSER        Moving Ligand-Fixed Receptor    = -14.23 kcal/molUSER        Moving Ligand-Moving Receptor   =  +0.00 kcal/molUSER    (2) Final Total Internal Energy     =  -1.82 kcal/molUSER    (3) Torsional Free Energy           =  +1.79 kcal/molUSER    (4) Unbound System's Energy         =  -1.82 kcal/molUSERUSERREMARK SMILES Oc1nc2ccccc2n1C1CCN(Cc2ccc(-c3cc4ccccc4nc3-c3ccccc3)cc2)CC1REMARK SMILES IDX 11 1 12 2 13 3 14 4 38 5 39 6 10 7 2 8 3 9 4 10 9 11 5 12REMARK SMILES IDX 8 13 6 14 7 15 1 16 15 18 16 19 17 20 37 21 18 22 36 23REMARK SMILES IDX 19 24 20 25 21 26 29 27 22 28 28 29 23 30 27 31 24 32 26 33REMARK SMILES IDX 25 34 30 35 31 36 35 37 32 38 34 39 33 40REMARK H PARENT 1 17USER                              x       y       z     vdW  Elec       q    TypeUSER                           _______ _______ _______ _____ _____    ______ ____ROOTATOM      1  C   UNL     1      30.646  39.843  17.479 -0.33 -0.00    +0.095 C  ATOM      2  C   UNL     1      32.083  40.026  17.988 -0.48 -0.01    +0.041 C  ATOM      3  C   UNL     1      32.387  41.412  18.548 -0.39 -0.01    +0.087 C  ATOM      4  N   UNL     1      31.901  42.515  17.715 -0.11 +0.07    -0.299 NA ATOM      5  C   UNL     1      30.452  42.417  17.520 -0.25 -0.02    +0.087 C  ATOM      6  C   UNL     1      29.986  41.103  16.897 -0.36 -0.01    +0.041 C  ENDROOTBRANCH   1   7ATOM      7  N   UNL     1      29.787  39.071  18.374 -0.19 -0.06    -0.291 N  ATOM      8  C   UNL     1      30.147  37.854  18.903 -0.20 +0.11    +0.295 A  ATOM      9  N   UNL     1      29.230  37.316  19.655 -0.24 -0.04    -0.195 NA ATOM     10  C   UNL     1      28.205  38.224  19.633 -0.24 +0.01    +0.092 A  ATOM     11  C   UNL     1      28.520  39.343  18.849 -0.23 +0.01    +0.072 A  ATOM     12  C   UNL     1      26.959  38.145  20.278 -0.27 -0.01    +0.031 A  ATOM     13  C   UNL     1      27.613  40.400  18.702 -0.17 -0.00    +0.029 A  ATOM     14  C   UNL     1      26.050  39.195  20.129 -0.28 -0.00    +0.002 A  ATOM     15  C   UNL     1      26.377  40.304  19.354 -0.24 -0.00    +0.002 A  BRANCH   8  16ATOM     16  O   UNL     1      31.300  37.251  18.696 -0.80 -0.19    -0.480 OA ATOM     17  H   UNL     1      31.611  37.125  19.610 +0.22 +0.08    +0.296 HD ENDBRANCH   8  16ENDBRANCH   1   7BRANCH   4  18ATOM     18  C   UNL     1      32.664  42.645  16.462 -0.18 -0.06    +0.120 C  BRANCH  18  19ATOM     19  C   UNL     1      33.971  43.389  16.634 -0.33 +0.01    -0.034 A  ATOM     20  C   UNL     1      34.016  44.622  17.296 -0.31 -0.00    +0.006 A  ATOM     21  C   UNL     1      35.162  42.850  16.129 -0.42 -0.00    +0.006 A  ATOM     22  C   UNL     1      35.227  45.302  17.448 -0.34 -0.00    +0.009 A  ATOM     23  C   UNL     1      36.370  43.537  16.274 -0.40 -0.00    +0.009 A  ATOM     24  C   UNL     1      36.420  44.774  16.931 -0.32 +0.01    -0.016 A  BRANCH  24  25ATOM     25  C   UNL     1      37.694  45.490  17.091 -0.36 -0.00    +0.009 A  ATOM     26  C   UNL     1      38.428  45.325  18.275 -0.38 -0.00    +0.021 A  ATOM     27  C   UNL     1      38.257  46.317  16.104 -0.34 -0.03    +0.079 A  ATOM     28  C   UNL     1      39.668  45.952  18.447 -0.44 -0.00    +0.001 A  ATOM     29  N   UNL     1      39.470  46.923  16.254 -0.27 +0.06    -0.247 NA ATOM     30  C   UNL     1      40.420  45.797  19.625 -0.40 +0.00    +0.010 A  ATOM     31  C   UNL     1      40.153  46.748  17.395 -0.44 -0.01    +0.071 A  ATOM     32  C   UNL     1      41.654  46.431  19.762 -0.42 +0.00    +0.001 A  ATOM     33  C   UNL     1      41.386  47.367  17.555 -0.42 -0.00    +0.029 A  ATOM     34  C   UNL     1      42.139  47.218  18.723 -0.55 +0.00    +0.002 A  BRANCH  27  35ATOM     35  C   UNL     1      37.607  46.622  14.815 -0.41 -0.00    +0.001 A  ATOM     36  C   UNL     1      37.401  45.607  13.864 -0.44 -0.00    +0.010 A  ATOM     37  C   UNL     1      37.196  47.924  14.484 -0.51 -0.01    +0.010 A  ATOM     38  C   UNL     1      36.785  45.879  12.640 -0.58 -0.00    +0.001 A  ATOM     39  C   UNL     1      36.580  48.199  13.260 -0.58 -0.00    +0.001 A  ATOM     40  C   UNL     1      36.371  47.174  12.339 -0.70 -0.00    +0.000 A  ENDBRANCH  27  35ENDBRANCH  24  25ENDBRANCH  18  19ENDBRANCH   4  18TORSDOF 6TERENDMDL