MODEL        4USER    Run = 4USERUSER    Estimated Free Energy of Binding    =  -7.09 kcal/mol  [=(1)+(2)+(3)-(4)]USERUSER    (1) Final Intermolecular Energy     = -11.57 kcal/molUSER        vdW + Hbond + desolv Energy     = -12.22 kcal/molUSER        Electrostatic Energy            =  -0.29 kcal/molUSER        Moving Ligand-Fixed Receptor    = -12.51 kcal/molUSER        Moving Ligand-Moving Receptor   =  +0.94 kcal/molUSER    (2) Final Total Internal Energy     =  -2.78 kcal/molUSER    (3) Torsional Free Energy           =  +4.47 kcal/molUSER    (4) Unbound System's Energy         =  -2.78 kcal/molUSERUSERREMARK SMILES COc1ccc(O)c(C(=O)c2ccc(CN[C@@H]3CCCNC[C@H]3NC(=O)c3ccncc3)cc2)c1FREMARK SMILES IDX 16 1 15 3 14 4 11 5 12 6 34 7 13 8 33 9 9 10 10 11 8 12 3 13REMARK SMILES IDX 4 14 35 15 5 16 6 17 36 18 2 19 1 20 7 21 17 23 18 24 23 26REMARK SMILES IDX 22 27 21 28 20 30 19 31 24 33 25 34 26 36 27 37 28 38 32 39REMARK SMILES IDX 29 40 31 41 30 42REMARK H PARENT 16 2 7 22 21 29 24 35REMARK Flexibility Score:   99.900USER                              x       y       z     vdW  Elec       q    TypeUSER                           _______ _______ _______ _____ _____    ______ ____ROOTATOM      1  N   UNL     1      37.706  43.971  17.733 -0.06 +0.06    -0.308 NA ATOM      2  H   UNL     1      37.271  43.564  16.903 +0.07 -0.03    +0.123 HD ENDROOTBRANCH   1   3ATOM      3  C   UNL     1      38.820  44.822  17.310 -0.17 -0.02    +0.117 C  BRANCH   3   4ATOM      4  C   UNL     1      39.737  45.225  18.439 -0.41 +0.00    -0.034 A  ATOM      5  C   UNL     1      41.442  45.955  20.554 -0.35 +0.00    +0.023 A  ATOM      6  C   UNL     1      40.492  44.944  20.737 -0.34 +0.00    +0.012 A  ATOM      7  C   UNL     1      41.521  46.616  19.323 -0.45 +0.00    +0.012 A  ATOM      8  C   UNL     1      39.652  44.578  19.682 -0.37 -0.00    +0.006 A  ATOM      9  C   UNL     1      40.678  46.249  18.271 -0.49 -0.00    +0.006 A  BRANCH   5  10ATOM     10  C   UNL     1      42.327  46.407  21.654 -0.24 +0.04    +0.199 C  ATOM     11  O   UNL     1      43.543  46.233  21.552 -0.23 -0.14    -0.288 OA BRANCH  10  12ATOM     12  C   UNL     1      41.834  47.118  22.853 -0.20 +0.01    +0.104 A  ATOM     13  C   UNL     1      40.337  47.302  24.769 -0.16 +0.01    +0.155 A  ATOM     14  C   UNL     1      40.930  48.518  25.112 -0.29 +0.01    +0.053 A  ATOM     15  C   UNL     1      40.801  46.608  23.641 -0.13 +0.02    +0.179 A  ATOM     16  C   UNL     1      41.989  49.021  24.350 -0.36 +0.01    +0.051 A  ATOM     17  C   UNL     1      42.445  48.317  23.239 -0.29 +0.03    +0.130 A  ATOM     18  F   UNL     1      40.249  45.420  23.343 -0.02 -0.01    -0.202 F  BRANCH  13  19ATOM     19  O   UNL     1      39.312  46.701  25.450 -0.02 -0.03    -0.494 OA ATOM     20  C   UNL     1      38.029  47.307  25.364 -0.24 +0.02    +0.278 C  ENDBRANCH  13  19BRANCH  17  21ATOM     21  O   UNL     1      43.509  48.860  22.569 -0.48 -0.12    -0.507 OA ATOM     22  H   UNL     1      43.600  48.382  21.713 -0.41 -0.00    +0.293 HD ENDBRANCH  17  21ENDBRANCH  10  12ENDBRANCH   5  10ENDBRANCH   3   4ENDBRANCH   1   3BRANCH   1  23ATOM     23  C   UNL     1      36.657  44.696  18.502 -0.35 -0.02    +0.077 C  BRANCH  23  24ATOM     24  C   UNL     1      36.422  43.912  19.800 -0.44 -0.00    +0.022 CG0ATOM     25  G   UNL     1      35.401  42.779  19.702 +0.00 +0.00    +0.000 G0 ENDBRANCH  23  24BRANCH  23  26ATOM     26  C   UNL     1      35.372  44.853  17.629 -0.30 -0.05    +0.113 C  BRANCH  26  27ATOM     27  C   UNL     1      34.182  45.408  18.450 -0.43 -0.05    +0.107 C  BRANCH  27  28ATOM     28  N   UNL     1      33.780  44.709  19.666 -0.10 +0.09    -0.315 NA ATOM     29  H   UNL     1      32.799  44.920  19.862 -0.20 -0.03    +0.122 HD BRANCH  28  30ATOM     30  C   UNL     1      33.956  43.265  19.703 -0.40 -0.00    +0.081 C  BRANCH  30  31ATOM     31  C   UNL     1      35.400  42.772  19.701 -0.49 -0.00    +0.017 CG0ATOM     32  G   UNL     1      36.416  43.910  19.789 +0.00 +0.00    +0.000 G0 ENDBRANCH  30  31ENDBRANCH  28  30ENDBRANCH  27  28ENDBRANCH  26  27BRANCH  26  33ATOM     33  N   UNL     1      35.654  45.756  16.495 -0.12 +0.24    -0.346 N  ATOM     34  C   UNL     1      36.214  45.289  15.326 -0.24 -0.13    +0.251 C  ATOM     35  H   UNL     1      35.341  46.712  16.572 +0.06 -0.20    +0.164 HD ATOM     36  O   UNL     1      36.600  44.136  15.178 -0.28 +0.10    -0.269 OA BRANCH  34  37ATOM     37  C   UNL     1      36.369  46.270  14.220 -0.41 -0.02    +0.042 A  ATOM     38  C   UNL     1      36.852  47.541  14.533 -0.45 -0.02    +0.034 A  ATOM     39  C   UNL     1      36.079  45.948  12.894 -0.51 -0.02    +0.034 A  ATOM     40  C   UNL     1      36.997  48.453  13.506 -0.45 -0.05    +0.112 A  ATOM     41  C   UNL     1      36.262  46.932  11.938 -0.58 -0.05    +0.112 A  ATOM     42  N   UNL     1      36.703  48.177  12.216 -0.89 +0.08    -0.265 NA ENDBRANCH  34  37ENDBRANCH  26  33ENDBRANCH  23  26ENDBRANCH   1  23TORSDOF 9TERENDMDL