MODEL        3USER    Run = 3USERUSER    Estimated Free Energy of Binding    = -11.71 kcal/mol  [=(1)+(2)+(3)-(4)]USERUSER    (1) Final Intermolecular Energy     = -13.50 kcal/molUSER        vdW + Hbond + desolv Energy     = -13.29 kcal/molUSER        Electrostatic Energy            =  -0.22 kcal/molUSER        Moving Ligand-Fixed Receptor    = -13.50 kcal/molUSER        Moving Ligand-Moving Receptor   =  +0.00 kcal/molUSER    (2) Final Total Internal Energy     =  -1.81 kcal/molUSER    (3) Torsional Free Energy           =  +1.79 kcal/molUSER    (4) Unbound System's Energy         =  -1.81 kcal/molUSERUSERREMARK SMILES Oc1nc2ccccc2n1C1CCN(Cc2ccc(-c3nc4ccccc4nc3-c3ccccc3)cc2)CC1REMARK SMILES IDX 11 1 12 2 13 3 14 4 38 5 39 6 10 7 2 8 3 9 4 10 9 11 5 12REMARK SMILES IDX 8 13 6 14 7 15 1 16 15 18 16 19 17 20 37 21 18 22 36 23REMARK SMILES IDX 19 24 20 25 21 26 29 27 22 28 28 29 23 30 27 31 24 32 26 33REMARK SMILES IDX 25 34 30 35 31 36 35 37 32 38 34 39 33 40REMARK H PARENT 1 17USER                              x       y       z     vdW  Elec       q    TypeUSER                           _______ _______ _______ _____ _____    ______ ____ROOTATOM      1  C   UNL     1      28.628  41.873  16.743 -0.24 -0.02    +0.095 C  ATOM      2  C   UNL     1      29.974  41.208  16.410 -0.40 -0.01    +0.041 C  ATOM      3  C   UNL     1      30.911  42.160  15.667 -0.23 -0.05    +0.087 C  ATOM      4  N   UNL     1      30.942  43.515  16.224 -0.13 +0.12    -0.299 NA ATOM      5  C   UNL     1      29.609  44.139  16.282 -0.29 -0.03    +0.087 C  ATOM      6  C   UNL     1      28.440  43.193  15.987 -0.27 -0.02    +0.041 C  ENDROOTBRANCH   1   7ATOM      7  N   UNL     1      27.502  40.965  16.587 -0.11 +0.02    -0.291 N  ATOM      8  C   UNL     1      27.136  40.311  15.444 -0.02 +0.01    +0.295 A  ATOM      9  N   UNL     1      26.088  39.550  15.594 -0.80 -0.07    -0.195 NA ATOM     10  C   UNL     1      25.746  39.700  16.916 -0.30 +0.01    +0.092 A  ATOM     11  C   UNL     1      26.615  40.577  17.571 -0.21 +0.00    +0.072 A  ATOM     12  C   UNL     1      24.696  39.106  17.633 -0.32 -0.00    +0.031 A  ATOM     13  C   UNL     1      26.484  40.888  18.932 -0.22 -0.00    +0.029 A  ATOM     14  C   UNL     1      24.549  39.407  18.993 -0.35 -0.00    +0.002 A  ATOM     15  C   UNL     1      25.430  40.283  19.628 -0.28 -0.00    +0.002 A  BRANCH   8  16ATOM     16  O   UNL     1      27.765  40.407  14.290 -0.21 +0.28    -0.480 OA ATOM     17  H   UNL     1      27.081  40.823  13.733 +0.00 -0.42    +0.296 HD ENDBRANCH   8  16ENDBRANCH   1   7BRANCH   4  18ATOM     18  C   UNL     1      31.646  43.619  17.514 -0.26 -0.03    +0.120 C  BRANCH  18  19ATOM     19  C   UNL     1      33.071  44.112  17.396 -0.29 +0.01    -0.034 A  ATOM     20  C   UNL     1      33.438  45.367  17.897 -0.38 -0.00    +0.006 A  ATOM     21  C   UNL     1      34.045  43.327  16.767 -0.35 -0.00    +0.006 A  ATOM     22  C   UNL     1      34.759  45.814  17.788 -0.41 -0.01    +0.011 A  ATOM     23  C   UNL     1      35.364  43.776  16.661 -0.35 -0.00    +0.011 A  ATOM     24  C   UNL     1      35.749  45.022  17.184 -0.32 -0.00    +0.002 A  BRANCH  24  25ATOM     25  C   UNL     1      37.137  45.503  17.096 -0.29 -0.04    +0.097 A  ATOM     26  N   UNL     1      37.835  45.385  18.263 -0.22 +0.05    -0.244 NA ATOM     27  C   UNL     1      37.727  46.060  15.950 -0.31 -0.04    +0.097 A  ATOM     28  C   UNL     1      39.095  45.853  18.283 -0.36 -0.01    +0.089 A  ATOM     29  N   UNL     1      39.003  46.543  15.983 -0.23 +0.07    -0.244 NA ATOM     30  C   UNL     1      39.840  45.764  19.453 -0.38 -0.00    +0.030 A  ATOM     31  C   UNL     1      39.680  46.437  17.139 -0.40 -0.02    +0.089 A  ATOM     32  C   UNL     1      41.150  46.241  19.518 -0.43 +0.00    +0.002 A  ATOM     33  C   UNL     1      40.985  46.909  17.213 -0.44 -0.00    +0.030 A  ATOM     34  C   UNL     1      41.725  46.816  18.392 -0.52 -0.00    +0.002 A  BRANCH  27  35ATOM     35  C   UNL     1      37.083  46.167  14.628 -0.40 -0.00    +0.002 A  ATOM     36  C   UNL     1      37.149  45.097  13.717 -0.43 -0.00    +0.010 A  ATOM     37  C   UNL     1      36.362  47.311  14.241 -0.44 -0.01    +0.010 A  ATOM     38  C   UNL     1      36.543  45.176  12.460 -0.52 -0.00    +0.001 A  ATOM     39  C   UNL     1      35.758  47.393  12.983 -0.56 -0.00    +0.001 A  ATOM     40  C   UNL     1      35.851  46.327  12.092 -0.61 -0.00    +0.000 A  ENDBRANCH  27  35ENDBRANCH  24  25ENDBRANCH  18  19ENDBRANCH   4  18TORSDOF 6TERENDMDL