MODEL        10USER    Run = 10USERUSER    Estimated Free Energy of Binding    =  -6.33 kcal/mol  [=(1)+(2)+(3)-(4)]USERUSER    (1) Final Intermolecular Energy     = -10.80 kcal/molUSER        vdW + Hbond + desolv Energy     = -11.49 kcal/molUSER        Electrostatic Energy            =  +0.01 kcal/molUSER        Moving Ligand-Fixed Receptor    = -11.47 kcal/molUSER        Moving Ligand-Moving Receptor   =  +0.67 kcal/molUSER    (2) Final Total Internal Energy     =  -3.15 kcal/molUSER    (3) Torsional Free Energy           =  +4.47 kcal/molUSER    (4) Unbound System's Energy         =  -3.15 kcal/molUSERUSERREMARK SMILES COc1ccc(O)c(C(=O)c2ccc(CN[C@@H]3CCCNC[C@H]3NC(=O)c3ccncc3)cc2)c1FREMARK SMILES IDX 16 1 15 3 14 4 11 5 12 6 34 7 13 8 33 9 9 10 10 11 8 12 3 13REMARK SMILES IDX 4 14 35 15 5 16 6 17 36 18 2 19 1 20 7 21 17 23 18 24 23 26REMARK SMILES IDX 22 27 21 28 20 30 19 31 24 33 25 34 26 36 27 37 28 38 32 39REMARK SMILES IDX 29 40 31 41 30 42REMARK H PARENT 16 2 7 22 21 29 24 35REMARK Flexibility Score:   99.900USER                              x       y       z     vdW  Elec       q    TypeUSER                           _______ _______ _______ _____ _____    ______ ____ROOTATOM      1  N   UNL     1      40.591  44.276  20.349 -0.16 -0.02    -0.308 NA ATOM      2  H   UNL     1      40.047  43.790  19.633 +0.07 +0.00    +0.123 HD ENDROOTBRANCH   1   3ATOM      3  C   UNL     1      41.511  45.206  19.689 -0.34 +0.01    +0.117 C  BRANCH   3   4ATOM      4  C   UNL     1      40.904  45.919  18.506 -0.46 +0.00    -0.034 A  ATOM      5  C   UNL     1      39.755  47.235  16.302 -0.48 -0.01    +0.023 A  ATOM      6  C   UNL     1      39.324  45.952  16.653 -0.39 -0.00    +0.012 A  ATOM      7  C   UNL     1      40.777  47.848  17.035 -0.52 -0.00    +0.012 A  ATOM      8  C   UNL     1      39.890  45.305  17.754 -0.36 -0.00    +0.006 A  ATOM      9  C   UNL     1      41.343  47.197  18.134 -0.52 -0.00    +0.006 A  BRANCH   5  10ATOM     10  C   UNL     1      39.215  47.947  15.119 -0.43 -0.07    +0.199 C  ATOM     11  O   UNL     1      39.725  49.017  14.780 -0.34 +0.13    -0.288 OA BRANCH  10  12ATOM     12  C   UNL     1      38.125  47.410  14.276 -0.41 -0.04    +0.104 A  ATOM     13  C   UNL     1      37.087  45.599  13.015 -0.38 -0.05    +0.155 A  ATOM     14  C   UNL     1      36.034  46.448  12.669 -0.57 -0.03    +0.053 A  ATOM     15  C   UNL     1      38.123  46.089  13.824 -0.26 -0.05    +0.179 A  ATOM     16  C   UNL     1      36.007  47.762  13.145 -0.45 -0.03    +0.051 A  ATOM     17  C   UNL     1      37.037  48.231  13.955 -0.45 -0.08    +0.130 A  ATOM     18  F   UNL     1      39.111  45.252  14.183 -0.08 +0.04    -0.202 F  BRANCH  13  19ATOM     19  O   UNL     1      37.210  44.291  12.629 -0.15 +0.15    -0.494 OA ATOM     20  C   UNL     1      37.112  44.010  11.239 -0.25 -0.08    +0.278 C  ENDBRANCH  13  19BRANCH  17  21ATOM     21  O   UNL     1      36.917  49.518  14.408 -0.20 +0.46    -0.507 OA ATOM     22  H   UNL     1      37.822  49.903  14.462 -0.33 -0.30    +0.293 HD ENDBRANCH  17  21ENDBRANCH  10  12ENDBRANCH   5  10ENDBRANCH   3   4ENDBRANCH   1   3BRANCH   1  23ATOM     23  C   UNL     1      39.641  44.937  21.287 -0.33 +0.00    +0.077 C  BRANCH  23  24ATOM     24  C   UNL     1      40.254  44.849  22.691 -0.25 +0.00    +0.022 CG0ATOM     25  G   UNL     1      39.808  43.647  23.523 +0.00 +0.00    +0.000 G0 ENDBRANCH  23  24BRANCH  23  26ATOM     26  C   UNL     1      38.235  44.268  21.178 -0.34 +0.00    +0.113 C  BRANCH  26  27ATOM     27  C   UNL     1      37.295  44.713  22.325 -0.23 +0.01    +0.107 C  BRANCH  27  28ATOM     28  N   UNL     1      37.302  43.956  23.573 -0.17 -0.04    -0.315 NA ATOM     29  H   UNL     1      37.008  42.996  23.381 +0.07 +0.01    +0.122 HD BRANCH  28  30ATOM     30  C   UNL     1      38.545  43.914  24.328 -0.23 +0.00    +0.081 C  BRANCH  30  31ATOM     31  C   UNL     1      39.807  43.642  23.513 -0.25 +0.00    +0.017 CG0ATOM     32  G   UNL     1      40.253  44.849  22.689 +0.00 +0.00    +0.000 G0 ENDBRANCH  30  31ENDBRANCH  28  30ENDBRANCH  27  28ENDBRANCH  26  27BRANCH  26  33ATOM     33  N   UNL     1      37.625  44.611  19.878 -0.15 +0.02    -0.346 N  ATOM     34  C   UNL     1      36.522  43.937  19.400 -0.26 -0.03    +0.251 C  ATOM     35  H   UNL     1      37.990  45.416  19.389 +0.09 -0.01    +0.164 HD ATOM     36  O   UNL     1      36.035  42.962  19.960 -0.28 +0.02    -0.269 OA BRANCH  34  37ATOM     37  C   UNL     1      35.939  44.427  18.124 -0.30 -0.01    +0.042 A  ATOM     38  C   UNL     1      36.328  43.799  16.941 -0.32 -0.01    +0.034 A  ATOM     39  C   UNL     1      35.003  45.461  18.082 -0.37 -0.02    +0.034 A  ATOM     40  C   UNL     1      35.786  44.253  15.754 -0.29 -0.05    +0.112 A  ATOM     41  C   UNL     1      34.517  45.840  16.842 -0.24 -0.11    +0.112 A  ATOM     42  N   UNL     1      34.895  45.266  15.681 -0.16 +0.19    -0.265 NA ENDBRANCH  34  37ENDBRANCH  26  33ENDBRANCH  23  26ENDBRANCH   1  23TORSDOF 9TERENDMDL