MODEL        5USER    Run = 5USERUSER    Estimated Free Energy of Binding    =  -6.57 kcal/mol  [=(1)+(2)+(3)-(4)]USERUSER    (1) Final Intermolecular Energy     = -11.05 kcal/molUSER        vdW + Hbond + desolv Energy     = -11.81 kcal/molUSER        Electrostatic Energy            =  -0.34 kcal/molUSER        Moving Ligand-Fixed Receptor    = -12.15 kcal/molUSER        Moving Ligand-Moving Receptor   =  +1.10 kcal/molUSER    (2) Final Total Internal Energy     =  -2.43 kcal/molUSER    (3) Torsional Free Energy           =  +4.47 kcal/molUSER    (4) Unbound System's Energy         =  -2.43 kcal/molUSERUSERREMARK SMILES COc1ccc(O)c(C(=O)c2ccc(C(=O)O[C@@H]3CCCNC[C@H]3NC(=O)c3ccncc3)cc2)c1FREMARK SMILES IDX 17 1 15 2 16 3 14 4 11 5 12 6 35 7 13 8 34 9 9 10 10 11 8 12REMARK SMILES IDX 3 13 4 14 36 15 5 16 6 17 37 18 2 19 1 20 7 21 18 23 24 25REMARK SMILES IDX 23 26 22 27 21 29 20 30 19 31 25 33 26 34 27 36 28 37 29 38REMARK SMILES IDX 33 39 30 40 32 41 31 42REMARK H PARENT 7 22 22 28 25 35REMARK Flexibility Score:   99.900USER                              x       y       z     vdW  Elec       q    TypeUSER                           _______ _______ _______ _____ _____    ______ ____ROOTATOM      1  O   UNL     1      38.828  46.440  16.155 -0.12 +0.14    -0.457 OA ENDROOTBRANCH   1   2ATOM      2  C   UNL     1      40.143  46.124  16.032 -0.16 -0.04    +0.338 C  ATOM      3  O   UNL     1      40.728  45.811  15.005 -0.41 -0.01    -0.246 OA BRANCH   2   4ATOM      4  C   UNL     1      40.813  46.258  17.349 -0.41 -0.00    +0.060 A  ATOM      5  C   UNL     1      42.116  46.579  19.815 -0.43 +0.00    +0.023 A  ATOM      6  C   UNL     1      41.472  45.371  19.510 -0.39 +0.00    +0.013 A  ATOM      7  C   UNL     1      42.108  47.621  18.877 -0.39 +0.00    +0.013 A  ATOM      8  C   UNL     1      40.823  45.212  18.281 -0.44 +0.00    +0.016 A  ATOM      9  C   UNL     1      41.468  47.459  17.645 -0.43 -0.00    +0.016 A  BRANCH   5  10ATOM     10  C   UNL     1      42.798  46.810  21.118 -0.30 +0.05    +0.199 C  ATOM     11  O   UNL     1      44.021  46.861  21.189 -0.46 -0.19    -0.288 OA BRANCH  10  12ATOM     12  C   UNL     1      42.019  46.978  22.350 -0.20 +0.01    +0.104 A  ATOM     13  C   UNL     1      40.386  46.084  23.905 -0.12 +0.01    +0.155 A  ATOM     14  C   UNL     1      40.471  47.267  24.651 -0.20 +0.00    +0.053 A  ATOM     15  C   UNL     1      41.162  45.954  22.748 -0.13 +0.02    +0.179 A  ATOM     16  C   UNL     1      41.344  48.291  24.259 -0.31 +0.01    +0.051 A  ATOM     17  C   UNL     1      42.123  48.140  23.114 -0.21 +0.02    +0.130 A  ATOM     18  F   UNL     1      41.113  44.812  22.043 -0.03 -0.02    -0.202 F  BRANCH  13  19ATOM     19  O   UNL     1      39.609  45.001  24.220 +0.01 -0.02    -0.494 OA ATOM     20  C   UNL     1      40.276  43.827  24.667 -0.08 +0.00    +0.278 C  ENDBRANCH  13  19BRANCH  17  21ATOM     21  O   UNL     1      42.992  49.124  22.739 -0.66 -0.18    -0.507 OA ATOM     22  H   UNL     1      43.552  48.815  22.010 -0.42 +0.00    +0.293 HD ENDBRANCH  17  21ENDBRANCH  10  12ENDBRANCH   5  10ENDBRANCH   2   4ENDBRANCH   1   2BRANCH   1  23ATOM     23  C   UNL     1      37.951  46.002  15.084 -0.30 -0.07    +0.200 CG0ATOM     24  G   UNL     1      38.402  46.720  13.812 +0.00 +0.00    +0.000 G0 BRANCH  23  25ATOM     25  C   UNL     1      36.507  46.326  15.518 -0.34 -0.09    +0.137 C  BRANCH  25  26ATOM     26  C   UNL     1      35.431  45.995  14.465 -0.39 -0.08    +0.109 C  BRANCH  26  27ATOM     27  N   UNL     1      35.533  46.778  13.232 -0.30 +0.21    -0.315 NA ATOM     28  H   UNL     1      34.590  46.940  12.878 -0.28 -0.11    +0.122 HD BRANCH  27  29ATOM     29  C   UNL     1      36.217  48.070  13.346 -0.43 -0.05    +0.081 C  BRANCH  29  30ATOM     30  C   UNL     1      37.744  48.068  13.503 -0.55 -0.01    +0.019 C  BRANCH  30  31ATOM     31  C   UNL     1      38.400  46.717  13.810 -0.46 -0.01    +0.049 CG0ATOM     32  G   UNL     1      37.939  46.013  15.086 +0.00 +0.00    +0.000 G0 ENDBRANCH  30  31ENDBRANCH  29  30ENDBRANCH  27  29ENDBRANCH  26  27ENDBRANCH  25  26BRANCH  25  33ATOM     33  N   UNL     1      36.215  45.627  16.777 -0.12 +0.19    -0.344 N  ATOM     34  C   UNL     1      36.479  44.291  16.953 -0.22 -0.08    +0.251 C  ATOM     35  H   UNL     1      36.110  46.216  17.593 +0.10 -0.09    +0.164 HD ATOM     36  O   UNL     1      36.927  43.562  16.079 -0.28 +0.08    -0.269 OA BRANCH  34  37ATOM     37  C   UNL     1      36.199  43.749  18.303 -0.29 -0.01    +0.042 A  ATOM     38  C   UNL     1      37.098  44.021  19.332 -0.33 -0.00    +0.034 A  ATOM     39  C   UNL     1      35.084  42.949  18.546 -0.35 -0.01    +0.034 A  ATOM     40  C   UNL     1      36.828  43.496  20.582 -0.33 -0.00    +0.112 A  ATOM     41  C   UNL     1      34.907  42.468  19.830 -0.35 -0.00    +0.112 A  ATOM     42  N   UNL     1      35.750  42.729  20.853 -0.28 -0.01    -0.265 NA ENDBRANCH  34  37ENDBRANCH  25  33ENDBRANCH  23  25ENDBRANCH   1  23TORSDOF 9TERENDMDL