MODEL        7USER    Run = 7USERUSER    Estimated Free Energy of Binding    = -12.23 kcal/mol  [=(1)+(2)+(3)-(4)]USERUSER    (1) Final Intermolecular Energy     = -14.02 kcal/molUSER        vdW + Hbond + desolv Energy     = -13.92 kcal/molUSER        Electrostatic Energy            =  -0.11 kcal/molUSER        Moving Ligand-Fixed Receptor    = -14.02 kcal/molUSER        Moving Ligand-Moving Receptor   =  +0.00 kcal/molUSER    (2) Final Total Internal Energy     =  -1.20 kcal/molUSER    (3) Torsional Free Energy           =  +1.79 kcal/molUSER    (4) Unbound System's Energy         =  -1.20 kcal/molUSERUSERREMARK SMILES Cn1ccc2ccc3c4[nH]c5c(CCCN[C@H]6CC[C@H](O)CC6)cccc5c4c4c(c3c21)C(=O)NC4=OREMARK SMILES IDX 15 1 14 2 13 3 12 4 2 5 3 6 32 7 4 8 31 9 5 10 30 11 8 12REMARK SMILES IDX 6 13 29 14 33 15 7 16 9 17 28 18 36 19 35 20 10 21 27 22REMARK SMILES IDX 11 23 26 24 25 25 24 26 1 27 34 28 37 29 16 32 17 34 23 35REMARK SMILES IDX 18 36 22 37 19 38 20 39 21 40REMARK H PARENT 35 30 10 31 16 33 21 41USER                              x       y       z     vdW  Elec       q    TypeUSER                           _______ _______ _______ _____ _____    ______ ____ROOTATOM      1  C   UNL     1      39.368  48.606  15.745 -0.52 -0.04    +0.081 C  ENDROOTBRANCH   1   2ATOM      2  C   UNL     1      40.646  47.776  15.892 -0.59 -0.00    +0.020 C  BRANCH   2   3ATOM      3  C   UNL     1      41.413  48.079  17.184 -0.53 -0.00    +0.039 C  BRANCH   3   4ATOM      4  C   UNL     1      41.102  47.137  18.322 -0.49 +0.00    -0.024 A  ATOM      5  N   UNL     1      32.954  44.169  18.484 -0.13 +0.08    -0.350 N  ATOM      6  C   UNL     1      31.973  44.156  17.520 -0.22 -0.02    +0.086 A  ATOM      7  C   UNL     1      34.163  44.592  17.943 -0.30 -0.02    +0.057 A  ATOM      8  C   UNL     1      32.472  44.774  16.406 -0.31 -0.01    +0.028 A  ATOM      9  C   UNL     1      35.521  44.646  18.436 -0.34 -0.01    +0.022 A  ATOM     10  C   UNL     1      33.819  45.123  16.686 -0.33 -0.00    +0.000 A  ATOM     11  C   UNL     1      36.080  43.981  19.538 -0.35 -0.01    +0.063 A  ATOM     12  C   UNL     1      36.413  45.478  17.690 -0.34 -0.00    +0.009 A  ATOM     13  C   UNL     1      34.768  45.845  15.944 -0.29 -0.01    +0.011 A  ATOM     14  C   UNL     1      37.384  44.228  19.986 -0.33 -0.00    +0.063 A  ATOM     15  C   UNL     1      35.602  42.847  20.347 -0.32 -0.00    +0.259 C  ATOM     16  C   UNL     1      36.038  46.063  16.471 -0.36 -0.01    +0.012 A  ATOM     17  C   UNL     1      37.737  45.714  18.179 -0.25 -0.01    +0.055 A  ATOM     18  C   UNL     1      38.245  45.119  19.341 -0.33 -0.00    +0.022 A  ATOM     19  C   UNL     1      37.639  43.358  21.132 -0.23 +0.00    +0.259 C  ATOM     20  N   UNL     1      36.494  42.667  21.353 -0.27 -0.01    -0.288 N  ATOM     21  N   UNL     1      38.750  46.503  17.679 -0.18 +0.09    -0.354 N  ATOM     22  C   UNL     1      39.585  45.600  19.528 -0.39 -0.00    +0.008 A  ATOM     23  C   UNL     1      39.871  46.467  18.473 -0.36 -0.01    +0.050 A  ATOM     24  C   UNL     1      40.588  45.385  20.495 -0.36 +0.00    +0.011 A  ATOM     25  C   UNL     1      41.822  46.032  20.376 -0.38 +0.00    +0.001 A  ATOM     26  C   UNL     1      42.071  46.889  19.310 -0.49 +0.00    +0.006 A  ATOM     27  C   UNL     1      32.611  44.013  19.882 -0.40 -0.01    +0.149 C  ATOM     28  O   UNL     1      34.658  42.121  20.112 -0.43 -0.02    -0.269 OA ATOM     29  O   UNL     1      38.680  43.216  21.741 -0.17 -0.01    -0.269 OA ATOM     30  H   UNL     1      36.466  41.865  21.963 +0.11 +0.01    +0.173 HD ATOM     31  H   UNL     1      38.677  47.064  16.845 +0.10 -0.06    +0.167 HD ENDBRANCH   3   4ENDBRANCH   2   3ENDBRANCH   1   2BRANCH   1  32ATOM     32  N   UNL     1      38.896  48.523  14.361 -0.28 +0.14    -0.314 NA ATOM     33  H   UNL     1      38.711  49.457  13.998 -0.39 -0.09    +0.122 HD BRANCH  32  34ATOM     34  C   UNL     1      37.699  47.682  14.217 -0.55 -0.03    +0.053 C  ATOM     35  C   UNL     1      36.788  48.123  13.052 -0.66 -0.01    +0.021 C  ATOM     36  C   UNL     1      38.187  46.228  14.050 -0.47 -0.01    +0.021 C  ATOM     37  C   UNL     1      37.084  47.363  11.761 -0.54 -0.01    +0.033 C  ATOM     38  C   UNL     1      37.134  45.368  13.365 -0.52 -0.01    +0.033 C  ATOM     39  C   UNL     1      36.861  45.856  11.939 -0.58 -0.04    +0.114 C  BRANCH  39  40ATOM     40  O   UNL     1      35.509  45.527  11.619 -0.04 +0.19    -0.393 OA ATOM     41  H   UNL     1      35.006  46.359  11.578 -0.14 -0.16    +0.210 HD ENDBRANCH  39  40ENDBRANCH  32  34ENDBRANCH   1  32TORSDOF 6TERENDMDL