MODEL        2USER    Run = 2USERUSER    Estimated Free Energy of Binding    =  -7.44 kcal/mol  [=(1)+(2)+(3)-(4)]USERUSER    (1) Final Intermolecular Energy     = -11.91 kcal/molUSER        vdW + Hbond + desolv Energy     = -11.99 kcal/molUSER        Electrostatic Energy            =  -0.30 kcal/molUSER        Moving Ligand-Fixed Receptor    = -12.29 kcal/molUSER        Moving Ligand-Moving Receptor   =  +0.38 kcal/molUSER    (2) Final Total Internal Energy     =  -2.03 kcal/molUSER    (3) Torsional Free Energy           =  +4.47 kcal/molUSER    (4) Unbound System's Energy         =  -2.03 kcal/molUSERUSERREMARK SMILES COc1ccc(O)c(C(=O)c2ccc(NC[C@@H]3CCCNC[C@@H]3NC(=O)c3ccncc3)cc2)c1FREMARK SMILES IDX 16 1 15 2 14 4 11 5 12 6 34 7 13 8 33 9 9 10 10 11 8 12 3 13REMARK SMILES IDX 4 14 35 15 5 16 6 17 36 18 2 19 1 20 7 21 17 23 18 24 23 26REMARK SMILES IDX 22 27 21 28 20 30 19 31 24 33 25 34 26 36 27 37 28 38 32 39REMARK SMILES IDX 29 40 31 41 30 42REMARK H PARENT 15 3 7 22 21 29 24 35REMARK Flexibility Score:   99.900USER                              x       y       z     vdW  Elec       q    TypeUSER                           _______ _______ _______ _____ _____    ______ ____ROOTATOM      1  C   UNL     1      38.212  46.417  16.642 -0.37 -0.04    +0.118 C  ENDROOTBRANCH   1   2ATOM      2  N   UNL     1      39.458  45.698  16.920 -0.11 +0.06    -0.385 N  ATOM      3  H   UNL     1      39.392  44.699  16.751 +0.14 -0.02    +0.160 HD BRANCH   2   4ATOM      4  C   UNL     1      40.296  46.031  17.981 -0.45 -0.00    +0.034 A  ATOM      5  C   UNL     1      42.036  46.534  20.156 -0.39 +0.00    +0.023 A  ATOM      6  C   UNL     1      42.053  47.360  19.030 -0.46 +0.00    +0.014 A  ATOM      7  C   UNL     1      41.193  45.423  20.176 -0.38 +0.00    +0.014 A  ATOM      8  C   UNL     1      41.196  47.102  17.952 -0.51 -0.00    +0.026 A  ATOM      9  C   UNL     1      40.339  45.178  19.093 -0.43 -0.00    +0.026 A  BRANCH   5  10ATOM     10  C   UNL     1      42.984  46.824  21.258 -0.30 +0.06    +0.199 C  ATOM     11  O   UNL     1      44.167  46.504  21.131 -0.46 -0.26    -0.288 OA BRANCH  10  12ATOM     12  C   UNL     1      42.574  47.433  22.542 -0.25 +0.02    +0.104 A  ATOM     13  C   UNL     1      40.930  47.822  24.302 -0.21 +0.02    +0.155 A  ATOM     14  C   UNL     1      41.857  48.606  24.991 -0.30 +0.01    +0.053 A  ATOM     15  C   UNL     1      41.297  47.248  23.075 -0.12 +0.02    +0.179 A  ATOM     16  C   UNL     1      43.126  48.826  24.451 -0.33 +0.01    +0.051 A  ATOM     17  C   UNL     1      43.474  48.256  23.230 -0.27 +0.03    +0.130 A  ATOM     18  F   UNL     1      40.382  46.531  22.402 -0.05 -0.02    -0.202 F  BRANCH  13  19ATOM     19  O   UNL     1      39.654  47.551  24.721 -0.07 -0.05    -0.494 OA ATOM     20  C   UNL     1      38.626  48.438  24.297 -0.29 +0.04    +0.278 C  ENDBRANCH  13  19BRANCH  17  21ATOM     21  O   UNL     1      44.725  48.549  22.756 -0.12 -0.14    -0.507 OA ATOM     22  H   UNL     1      44.695  48.501  21.773 -0.43 +0.03    +0.293 HD ENDBRANCH  17  21ENDBRANCH  10  12ENDBRANCH   5  10ENDBRANCH   2   4ENDBRANCH   1   2BRANCH   1  23ATOM     23  C   UNL     1      37.944  46.548  15.122 -0.44 -0.01    +0.032 C  BRANCH  23  24ATOM     24  C   UNL     1      37.322  47.924  14.810 -0.57 -0.01    +0.009 CG0ATOM     25  G   UNL     1      37.202  48.361  13.350 +0.00 +0.00    +0.000 G0 ENDBRANCH  23  24BRANCH  23  26ATOM     26  C   UNL     1      37.144  45.327  14.610 -0.38 -0.04    +0.101 C  BRANCH  26  27ATOM     27  C   UNL     1      36.595  45.564  13.183 -0.49 -0.04    +0.106 C  BRANCH  27  28ATOM     28  N   UNL     1      35.521  46.561  13.086 -0.31 +0.20    -0.315 NA ATOM     29  H   UNL     1      34.827  46.198  12.429 -0.19 -0.09    +0.122 HD BRANCH  28  30ATOM     30  C   UNL     1      35.986  47.854  12.581 -0.58 -0.04    +0.081 C  BRANCH  30  31ATOM     31  C   UNL     1      37.199  48.361  13.350 -0.50 -0.01    +0.016 CG0ATOM     32  G   UNL     1      37.322  47.919  14.808 +0.00 +0.00    +0.000 G0 ENDBRANCH  30  31ENDBRANCH  28  30ENDBRANCH  27  28ENDBRANCH  26  27BRANCH  26  33ATOM     33  N   UNL     1      36.048  44.946  15.498 -0.11 +0.17    -0.348 N  ATOM     34  C   UNL     1      36.000  43.745  16.164 -0.28 -0.09    +0.251 C  ATOM     35  H   UNL     1      35.260  45.582  15.496 +0.12 -0.12    +0.164 HD ATOM     36  O   UNL     1      36.873  42.891  16.065 -0.30 +0.08    -0.269 OA BRANCH  34  37ATOM     37  C   UNL     1      34.808  43.499  17.019 -0.32 -0.02    +0.042 A  ATOM     38  C   UNL     1      34.352  42.186  17.146 -0.39 -0.01    +0.034 A  ATOM     39  C   UNL     1      34.157  44.521  17.711 -0.30 -0.01    +0.034 A  ATOM     40  C   UNL     1      33.248  41.953  17.944 -0.32 -0.03    +0.112 A  ATOM     41  C   UNL     1      33.061  44.182  18.484 -0.29 -0.03    +0.112 A  ATOM     42  N   UNL     1      32.590  42.925  18.611 -0.18 +0.04    -0.265 NA ENDBRANCH  34  37ENDBRANCH  26  33ENDBRANCH  23  26ENDBRANCH   1  23TORSDOF 9TERENDMDL