MODEL        2USER    Run = 2USERUSER    Estimated Free Energy of Binding    = -12.30 kcal/mol  [=(1)+(2)+(3)-(4)]USERUSER    (1) Final Intermolecular Energy     = -14.09 kcal/molUSER        vdW + Hbond + desolv Energy     = -13.85 kcal/molUSER        Electrostatic Energy            =  -0.25 kcal/molUSER        Moving Ligand-Fixed Receptor    = -14.09 kcal/molUSER        Moving Ligand-Moving Receptor   =  +0.00 kcal/molUSER    (2) Final Total Internal Energy     =  -2.03 kcal/molUSER    (3) Torsional Free Energy           =  +1.79 kcal/molUSER    (4) Unbound System's Energy         =  -2.03 kcal/molUSERUSERREMARK SMILES Oc1nc2ccccc2n1C1CCN(Cc2ccc(-c3cc4ccccc4nc3-c3ccccc3)cc2)CC1REMARK SMILES IDX 11 1 12 2 13 3 14 4 38 5 39 6 10 7 2 8 3 9 4 10 9 11 5 12REMARK SMILES IDX 8 13 6 14 7 15 1 16 15 18 16 19 17 20 37 21 18 22 36 23REMARK SMILES IDX 19 24 20 25 21 26 29 27 22 28 28 29 23 30 27 31 24 32 26 33REMARK SMILES IDX 25 34 30 35 31 36 35 37 32 38 34 39 33 40REMARK H PARENT 1 17USER                              x       y       z     vdW  Elec       q    TypeUSER                           _______ _______ _______ _____ _____    ______ ____ROOTATOM      1  C   UNL     1      26.031  41.541  17.067 -0.25 -0.01    +0.095 C  ATOM      2  C   UNL     1      27.560  41.576  17.206 -0.23 -0.01    +0.041 C  ATOM      3  C   UNL     1      28.119  42.892  17.737 -0.19 -0.01    +0.087 C  ATOM      4  N   UNL     1      27.546  44.085  17.109 -0.11 +0.04    -0.299 NA ATOM      5  C   UNL     1      26.092  44.113  17.282 -0.39 -0.00    +0.087 C  ATOM      6  C   UNL     1      25.367  42.886  16.733 -0.35 -0.00    +0.041 C  ENDROOTBRANCH   1   7ATOM      7  N   UNL     1      25.353  40.776  18.112 -0.11 +0.02    -0.291 N  ATOM      8  C   UNL     1      24.951  39.472  17.952 -0.14 -0.04    +0.295 A  ATOM      9  N   UNL     1      24.339  38.980  18.992 -0.27 +0.10    -0.195 NA ATOM     10  C   UNL     1      24.338  40.007  19.896 -0.28 -0.03    +0.092 A  ATOM     11  C   UNL     1      24.973  41.148  19.386 -0.27 -0.01    +0.072 A  ATOM     12  C   UNL     1      23.800  40.023  21.195 -0.35 -0.01    +0.031 A  ATOM     13  C   UNL     1      25.094  42.312  20.155 -0.45 -0.01    +0.029 A  ATOM     14  C   UNL     1      23.914  41.184  21.962 -0.55 -0.00    +0.002 A  ATOM     15  C   UNL     1      24.554  42.308  21.447 -0.61 -0.00    +0.002 A  BRANCH   8  16ATOM     16  O   UNL     1      25.144  38.749  16.868 -0.76 -0.06    -0.480 OA ATOM     17  H   UNL     1      24.253  38.377  16.730 -0.23 -0.15    +0.296 HD ENDBRANCH   8  16ENDBRANCH   1   7BRANCH   4  18ATOM     18  C   UNL     1      27.984  44.244  15.712 -0.24 -0.06    +0.120 C  BRANCH  18  19ATOM     19  C   UNL     1      29.462  44.542  15.581 -0.28 +0.02    -0.034 A  ATOM     20  C   UNL     1      30.406  43.508  15.543 -0.31 -0.00    +0.006 A  ATOM     21  C   UNL     1      29.910  45.868  15.495 -0.34 -0.00    +0.006 A  ATOM     22  C   UNL     1      31.769  43.795  15.423 -0.36 -0.00    +0.009 A  ATOM     23  C   UNL     1      31.274  46.152  15.385 -0.44 -0.01    +0.009 A  ATOM     24  C   UNL     1      32.223  45.121  15.352 -0.38 +0.01    -0.016 A  BRANCH  24  25ATOM     25  C   UNL     1      33.656  45.422  15.227 -0.28 -0.01    +0.009 A  ATOM     26  C   UNL     1      34.095  46.231  14.168 -0.19 -0.02    +0.021 A  ATOM     27  C   UNL     1      34.632  44.975  16.133 -0.26 -0.05    +0.079 A  ATOM     28  C   UNL     1      35.445  46.579  14.039 -0.45 -0.00    +0.001 A  ATOM     29  N   UNL     1      35.948  45.318  16.027 -0.17 +0.14    -0.247 NA ATOM     30  C   UNL     1      35.905  47.391  12.988 -0.59 -0.01    +0.010 A  ATOM     31  C   UNL     1      36.343  46.095  15.007 -0.34 -0.04    +0.071 A  ATOM     32  C   UNL     1      37.255  47.723  12.892 -0.52 -0.00    +0.001 A  ATOM     33  C   UNL     1      37.683  46.442  14.891 -0.39 -0.01    +0.029 A  ATOM     34  C   UNL     1      38.147  47.248  13.847 -0.49 -0.00    +0.002 A  BRANCH  27  35ATOM     35  C   UNL     1      34.349  44.096  17.283 -0.30 -0.00    +0.001 A  ATOM     36  C   UNL     1      34.568  42.710  17.191 -0.40 -0.00    +0.010 A  ATOM     37  C   UNL     1      33.835  44.600  18.490 -0.38 -0.00    +0.010 A  ATOM     38  C   UNL     1      34.307  41.864  18.272 -0.40 -0.00    +0.001 A  ATOM     39  C   UNL     1      33.573  43.756  19.573 -0.43 -0.00    +0.001 A  ATOM     40  C   UNL     1      33.813  42.388  19.464 -0.39 +0.00    +0.000 A  ENDBRANCH  27  35ENDBRANCH  24  25ENDBRANCH  18  19ENDBRANCH   4  18TORSDOF 6TERENDMDL