MODEL        10USER    Run = 10USERUSER    Estimated Free Energy of Binding    =  -5.81 kcal/mol  [=(1)+(2)+(3)-(4)]USERUSER    (1) Final Intermolecular Energy     = -10.28 kcal/molUSER        vdW + Hbond + desolv Energy     = -10.52 kcal/molUSER        Electrostatic Energy            =  -0.16 kcal/molUSER        Moving Ligand-Fixed Receptor    = -10.68 kcal/molUSER        Moving Ligand-Moving Receptor   =  +0.40 kcal/molUSER    (2) Final Total Internal Energy     =  -3.09 kcal/molUSER    (3) Torsional Free Energy           =  +4.47 kcal/molUSER    (4) Unbound System's Energy         =  -3.09 kcal/molUSERUSERREMARK SMILES COc1ccc(O)c(C(=O)c2ccc(CO[C@@H]3CCCNC[C@@H]3NC(=O)c3ccncc3)cc2)c1FREMARK SMILES IDX 16 1 15 2 14 3 11 4 12 5 34 6 13 7 33 8 9 9 10 10 8 11 3 12REMARK SMILES IDX 4 13 35 14 5 15 6 16 36 17 2 18 1 19 7 20 17 22 18 23 23 25REMARK SMILES IDX 22 26 21 27 20 29 19 30 24 32 25 33 26 35 27 36 28 37 32 38REMARK SMILES IDX 29 39 31 40 30 41REMARK H PARENT 7 21 21 28 24 34REMARK Flexibility Score:   99.900USER                              x       y       z     vdW  Elec       q    TypeUSER                           _______ _______ _______ _____ _____    ______ ____ROOTATOM      1  O   UNL     1      32.932  44.105  19.046 -0.23 +0.06    -0.371 OA ENDROOTBRANCH   1   2ATOM      2  C   UNL     1      33.238  45.490  18.904 -0.18 -0.08    +0.196 C  BRANCH   2   3ATOM      3  C   UNL     1      34.412  45.620  17.969 -0.42 +0.01    -0.022 A  ATOM      4  C   UNL     1      36.614  45.887  16.243 -0.35 -0.01    +0.023 A  ATOM      5  C   UNL     1      36.818  45.692  17.613 -0.34 -0.00    +0.012 A  ATOM      6  C   UNL     1      35.312  45.916  15.733 -0.34 -0.01    +0.012 A  ATOM      7  C   UNL     1      35.722  45.566  18.468 -0.16 -0.00    +0.007 A  ATOM      8  C   UNL     1      34.217  45.789  16.591 -0.22 -0.01    +0.007 A  BRANCH   4   9ATOM      9  C   UNL     1      37.746  45.992  15.292 -0.29 -0.08    +0.199 C  ATOM     10  O   UNL     1      37.842  45.164  14.382 -0.25 +0.09    -0.288 OA BRANCH   9  11ATOM     11  C   UNL     1      38.814  47.006  15.410 -0.37 -0.04    +0.104 A  ATOM     12  C   UNL     1      40.591  48.109  16.664 -0.41 -0.03    +0.155 A  ATOM     13  C   UNL     1      40.842  48.943  15.571 -0.58 -0.01    +0.053 A  ATOM     14  C   UNL     1      39.571  47.151  16.574 -0.34 -0.05    +0.179 A  ATOM     15  C   UNL     1      40.067  48.830  14.414 -0.41 -0.02    +0.051 A  ATOM     16  C   UNL     1      39.053  47.878  14.341 -0.38 -0.04    +0.130 A  ATOM     17  F   UNL     1      39.317  46.379  17.643 -0.13 +0.04    -0.202 F  BRANCH  12  18ATOM     18  O   UNL     1      41.270  48.137  17.852 -0.29 +0.04    -0.494 OA ATOM     19  C   UNL     1      41.740  46.897  18.366 -0.37 -0.01    +0.278 C  ENDBRANCH  12  18BRANCH  16  20ATOM     20  O   UNL     1      38.323  47.855  13.183 -0.49 +0.08    -0.507 OA ATOM     21  H   UNL     1      37.895  46.970  13.114 +0.23 -0.08    +0.293 HD ENDBRANCH  16  20ENDBRANCH   9  11ENDBRANCH   4   9ENDBRANCH   2   3ENDBRANCH   1   2BRANCH   1  22ATOM     22  C   UNL     1      33.062  43.359  17.816 -0.28 -0.04    +0.142 C  BRANCH  22  23ATOM     23  C   UNL     1      31.623  42.976  17.441 -0.33 -0.01    +0.035 CG0ATOM     24  G   UNL     1      30.814  42.099  18.390 +0.00 +0.00    +0.000 G0 ENDBRANCH  22  23BRANCH  22  25ATOM     25  C   UNL     1      34.042  42.182  18.032 -0.38 -0.03    +0.125 C  BRANCH  25  26ATOM     26  C   UNL     1      33.399  40.838  17.607 -0.15 -0.05    +0.108 C  BRANCH  26  27ATOM     27  N   UNL     1      32.444  40.243  18.539 -0.37 +0.01    -0.315 NA ATOM     28  H   UNL     1      32.722  40.494  19.489 +0.07 +0.04    +0.122 HD BRANCH  27  29ATOM     29  C   UNL     1      31.055  40.604  18.296 -0.34 -0.01    +0.081 C  BRANCH  29  30ATOM     30  C   UNL     1      30.814  42.104  18.392 +0.01 -0.00    +0.018 CG0ATOM     31  G   UNL     1      31.622  42.976  17.438 +0.00 +0.00    +0.000 G0 ENDBRANCH  29  30ENDBRANCH  27  29ENDBRANCH  26  27ENDBRANCH  25  26BRANCH  25  32ATOM     32  N   UNL     1      34.584  42.186  19.398 -0.19 +0.02    -0.345 N  ATOM     33  C   UNL     1      35.860  42.641  19.662 -0.30 -0.02    +0.251 C  ATOM     34  H   UNL     1      33.897  42.357  20.122 +0.10 +0.03    +0.164 HD ATOM     35  O   UNL     1      36.659  42.967  18.794 +0.01 +0.04    -0.269 OA BRANCH  33  36ATOM     36  C   UNL     1      36.229  42.764  21.098 -0.43 +0.00    +0.042 A  ATOM     37  C   UNL     1      36.114  41.636  21.910 -0.49 +0.00    +0.034 A  ATOM     38  C   UNL     1      36.649  43.973  21.654 -0.31 +0.00    +0.034 A  ATOM     39  C   UNL     1      36.442  41.761  23.248 -0.37 +0.00    +0.112 A  ATOM     40  C   UNL     1      36.951  43.994  23.004 -0.21 +0.02    +0.112 A  ATOM     41  N   UNL     1      36.862  42.915  23.809 -0.23 -0.02    -0.265 NA ENDBRANCH  33  36ENDBRANCH  25  32ENDBRANCH  22  25ENDBRANCH   1  22TORSDOF 9TERENDMDL