MODEL        6USER    Run = 6USERUSER    Estimated Free Energy of Binding    =  -7.27 kcal/mol  [=(1)+(2)+(3)-(4)]USERUSER    (1) Final Intermolecular Energy     = -11.75 kcal/molUSER        vdW + Hbond + desolv Energy     = -12.44 kcal/molUSER        Electrostatic Energy            =  -0.27 kcal/molUSER        Moving Ligand-Fixed Receptor    = -12.71 kcal/molUSER        Moving Ligand-Moving Receptor   =  +0.96 kcal/molUSER    (2) Final Total Internal Energy     =  -2.36 kcal/molUSER    (3) Torsional Free Energy           =  +4.47 kcal/molUSER    (4) Unbound System's Energy         =  -2.36 kcal/molUSERUSERREMARK SMILES COc1ccc(O)c(C(=O)c2ccc(/C=C/[C@@H]3CCCNC[C@H]3NC(=O)c3ccncc3)cc2)c1FREMARK SMILES IDX 16 1 15 2 14 3 11 4 12 5 34 6 13 7 33 8 9 9 10 10 8 11 3 12REMARK SMILES IDX 4 13 35 14 5 15 6 16 36 17 2 18 1 19 7 20 17 22 18 23 23 25REMARK SMILES IDX 22 26 21 27 20 29 19 30 24 32 25 33 26 35 27 36 28 37 32 38REMARK SMILES IDX 29 39 31 40 30 41REMARK H PARENT 7 21 21 28 24 34REMARK Flexibility Score:   99.900USER                              x       y       z     vdW  Elec       q    TypeUSER                           _______ _______ _______ _____ _____    ______ ____ROOTATOM      1  C   UNL     1      39.240  43.343  24.087 -0.26 -0.00    -0.021 C  ENDROOTBRANCH   1   2ATOM      2  C   UNL     1      38.775  43.349  22.828 -0.34 +0.00    +0.004 C  BRANCH   2   3ATOM      3  C   UNL     1      39.367  44.153  21.751 -0.27 -0.00    -0.026 A  ATOM      4  C   UNL     1      40.542  45.624  19.669 -0.40 +0.00    +0.023 A  ATOM      5  C   UNL     1      41.282  44.641  20.333 -0.35 +0.00    +0.013 A  ATOM      6  C   UNL     1      39.206  45.846  20.014 -0.25 -0.00    +0.013 A  ATOM      7  C   UNL     1      40.691  43.907  21.367 -0.27 +0.00    +0.009 A  ATOM      8  C   UNL     1      38.626  45.119  21.056 -0.33 +0.00    +0.009 A  BRANCH   4   9ATOM      9  C   UNL     1      41.122  46.398  18.550 -0.42 -0.00    +0.199 C  ATOM     10  O   UNL     1      42.274  46.823  18.656 -0.40 -0.02    -0.288 OA BRANCH   9  11ATOM     11  C   UNL     1      40.363  46.732  17.324 -0.42 -0.01    +0.104 A  ATOM     12  C   UNL     1      38.595  46.260  15.712 -0.29 -0.05    +0.155 A  ATOM     13  C   UNL     1      38.950  47.403  14.994 -0.45 -0.02    +0.053 A  ATOM     14  C   UNL     1      39.310  45.933  16.874 -0.28 -0.04    +0.179 A  ATOM     15  C   UNL     1      40.021  48.194  15.421 -0.52 -0.01    +0.051 A  ATOM     16  C   UNL     1      40.728  47.851  16.568 -0.43 -0.02    +0.130 A  ATOM     17  F   UNL     1      38.984  44.810  17.534 -0.08 +0.03    -0.202 F  BRANCH  12  18ATOM     18  O   UNL     1      37.581  45.401  15.383 -0.06 +0.18    -0.494 OA ATOM     19  C   UNL     1      36.253  45.816  15.674 -0.22 -0.17    +0.278 C  ENDBRANCH  12  18BRANCH  16  20ATOM     20  O   UNL     1      41.781  48.663  16.898 -0.66 -0.05    -0.507 OA ATOM     21  H   UNL     1      42.553  48.086  17.102 -0.31 +0.01    +0.293 HD ENDBRANCH  16  20ENDBRANCH   9  11ENDBRANCH   4   9ENDBRANCH   2   3ENDBRANCH   1   2BRANCH   1  22ATOM     22  C   UNL     1      38.807  44.283  25.209 -0.20 +0.00    +0.035 C  BRANCH  22  23ATOM     23  C   UNL     1      39.698  43.965  26.426 -0.18 -0.00    +0.011 CG0ATOM     24  G   UNL     1      39.387  42.718  27.246 +0.00 +0.00    +0.000 G0 ENDBRANCH  22  23BRANCH  22  25ATOM     25  C   UNL     1      37.281  44.332  25.529 -0.31 -0.00    +0.103 C  BRANCH  25  26ATOM     26  C   UNL     1      36.866  43.163  26.469 -0.35 -0.01    +0.106 C  BRANCH  26  27ATOM     27  N   UNL     1      37.085  43.323  27.902 -0.17 +0.08    -0.315 NA ATOM     28  H   UNL     1      36.346  42.836  28.412 -0.40 -0.06    +0.122 HD BRANCH  27  29ATOM     29  C   UNL     1      38.393  42.905  28.380 -0.33 -0.01    +0.081 C  BRANCH  29  30ATOM     30  C   UNL     1      39.387  42.710  27.245 -0.29 -0.00    +0.016 CG0ATOM     31  G   UNL     1      39.698  43.955  26.422 +0.00 +0.00    +0.000 G0 ENDBRANCH  29  30ENDBRANCH  27  29ENDBRANCH  26  27ENDBRANCH  25  26BRANCH  25  32ATOM     32  N   UNL     1      36.911  45.601  26.172 -0.16 +0.04    -0.347 N  ATOM     33  C   UNL     1      37.316  46.817  25.668 -0.22 +0.01    +0.251 C  ATOM     34  H   UNL     1      36.193  45.574  26.884 -0.36 -0.06    +0.164 HD ATOM     35  O   UNL     1      38.007  46.938  24.665 -0.63 -0.05    -0.269 OA BRANCH  33  36ATOM     36  C   UNL     1      36.836  48.018  26.396 -0.38 -0.00    +0.042 A  ATOM     37  C   UNL     1      36.722  48.037  27.786 -0.30 -0.01    +0.034 A  ATOM     38  C   UNL     1      36.529  49.161  25.659 -0.47 -0.00    +0.034 A  ATOM     39  C   UNL     1      36.274  49.202  28.378 -0.23 -0.01    +0.112 A  ATOM     40  C   UNL     1      36.086  50.274  26.347 -0.31 +0.00    +0.112 A  ATOM     41  N   UNL     1      35.943  50.316  27.690 -0.14 -0.02    -0.265 NA ENDBRANCH  33  36ENDBRANCH  25  32ENDBRANCH  22  25ENDBRANCH   1  22TORSDOF 9TERENDMDL