REMARK SMILES NC[C@@H](O)[C@H]1C(=O)Nc2ccc3ncnc(-c4ccc(F)cc4)c3c21
REMARK SMILES IDX 3 1 2 2 1 3 4 6 5 8 6 9 25 10 8 11 24 12 9 13 16 14 12 15
REMARK SMILES IDX 10 16 15 17 11 18 13 19 14 20 7 21 17 23 18 24 23 25 19 26
REMARK SMILES IDX 22 27 20 28 21 29
REMARK H PARENT 1 4 1 5 4 7 8 22
ROOT
ATOM      1  C   UNL     1       0.900  -1.192  -0.901  1.00  0.00     0.145 C 
ENDROOT
BRANCH   1   2
ATOM      2  C   UNL     1       1.728  -1.551  -2.170  1.00  0.00     0.110 C 
BRANCH   2   3
ATOM      3  N   UNL     1       3.026  -2.126  -1.817  1.00  0.00    -0.328 NA
ATOM      4  H   UNL     1       3.493  -2.500  -2.659  1.00  0.00     0.118 HD
ATOM      5  H   UNL     1       3.657  -1.405  -1.439  1.00  0.00     0.118 HD
ENDBRANCH   2   3
ENDBRANCH   1   2
BRANCH   1   6
ATOM      6  O   UNL     1       1.045  -2.298   0.025  1.00  0.00    -0.391 OA
ATOM      7  H   UNL     1       1.978  -2.579  -0.084  1.00  0.00     0.211 HD
ENDBRANCH   1   6
BRANCH   1   8
ATOM      8  C   UNL     1       1.234   0.132  -0.158  1.00  0.00     0.141 C 
ATOM      9  C   UNL     1       2.581   0.726  -0.622  1.00  0.00     0.234 C 
ATOM     10  C   UNL     1       0.282   1.259  -0.524  1.00  0.00     0.002 A 
ATOM     11  N   UNL     1       2.319   1.812  -1.427  1.00  0.00    -0.325 N 
ATOM     12  C   UNL     1      -1.062   1.536  -0.143  1.00  0.00     0.033 A 
ATOM     13  C   UNL     1       0.984   2.160  -1.338  1.00  0.00     0.046 A 
ATOM     14  C   UNL     1      -1.907   0.847   0.762  1.00  0.00     0.082 A 
ATOM     15  C   UNL     1      -1.658   2.675  -0.708  1.00  0.00     0.075 A 
ATOM     16  C   UNL     1       0.409   3.268  -1.888  1.00  0.00     0.029 A 
ATOM     17  N   UNL     1      -3.156   1.266   1.076  1.00  0.00    -0.236 NA
ATOM     18  C   UNL     1      -0.932   3.495  -1.575  1.00  0.00     0.031 A 
ATOM     19  N   UNL     1      -2.910   3.052  -0.454  1.00  0.00    -0.236 NA
ATOM     20  C   UNL     1      -3.599   2.346   0.440  1.00  0.00     0.223 A 
ATOM     21  O   UNL     1       3.692   0.327  -0.314  1.00  0.00    -0.274 OA
ATOM     22  H   UNL     1       3.043   2.391  -1.840  1.00  0.00     0.169 HD
BRANCH  14  23
ATOM     23  C   UNL     1      -1.585  -0.412   1.439  1.00  0.00     0.001 A 
ATOM     24  C   UNL     1      -2.133  -1.619   0.943  1.00  0.00     0.013 A 
ATOM     25  C   UNL     1      -0.804  -0.449   2.619  1.00  0.00     0.013 A 
ATOM     26  C   UNL     1      -1.871  -2.835   1.582  1.00  0.00     0.040 A 
ATOM     27  C   UNL     1      -0.547  -1.667   3.256  1.00  0.00     0.040 A 
ATOM     28  C   UNL     1      -1.069  -2.848   2.733  1.00  0.00     0.123 A 
ATOM     29  F   UNL     1      -0.801  -4.022   3.359  1.00  0.00    -0.207 F 
ENDBRANCH  14  23
ENDBRANCH   1   8
TORSDOF 5
