REMARK SMILES COc1ccc(-c2cnc3[nH]occ(-c4ccc5[nH]ncc5c4)ncc3c2)cc1
REMARK SMILES IDX 7 1 8 2 9 3 10 4 11 5 12 6 13 7 14 8 24 9 25 10 26 11 27 12
REMARK SMILES IDX 6 14 3 15 4 16 29 17 5 18 28 19 2 20 1 21 15 22 16 23 23 24
REMARK SMILES IDX 17 25 22 26 18 27 21 28 19 29 20 30
REMARK H PARENT 11 13 19 31
ROOT
ATOM      1  C   UNL     1      -2.420  -0.977  -0.023  1.00  0.00     0.001 A 
ATOM      2  C   UNL     1      -2.278  -2.087  -0.856  1.00  0.00     0.122 A 
ATOM      3  N   UNL     1      -1.140  -2.803  -1.024  1.00  0.00    -0.235 NA
ATOM      4  C   UNL     1      -0.048  -2.382  -0.332  1.00  0.00     0.168 A 
ATOM      5  N   UNL     1       1.174  -3.009  -0.651  1.00  0.00    -0.204 N 
ATOM      6  O   UNL     1       1.929  -2.279  -1.574  1.00  0.00    -0.386 OA
ATOM      7  C   UNL     1       2.878  -1.481  -0.996  1.00  0.00     0.255 A 
ATOM      8  C   UNL     1       2.990  -0.836   0.188  1.00  0.00     0.108 A 
ATOM      9  N   UNL     1       2.334  -0.637   1.349  1.00  0.00    -0.252 NA
ATOM     10  C   UNL     1       1.064  -0.992   1.578  1.00  0.00     0.124 A 
ATOM     11  C   UNL     1      -0.085  -1.319   0.562  1.00  0.00     0.039 A 
ATOM     12  C   UNL     1      -1.283  -0.610   0.702  1.00  0.00     0.024 A 
ATOM     13  H   UNL     1       0.858  -3.836  -1.145  1.00  0.00     0.211 HD
ENDROOT
BRANCH   1  14
ATOM     14  C   UNL     1      -3.691  -0.248   0.099  1.00  0.00    -0.017 A 
ATOM     15  C   UNL     1      -6.141   1.159   0.329  1.00  0.00     0.118 A 
ATOM     16  C   UNL     1      -4.947   1.843   0.102  1.00  0.00     0.047 A 
ATOM     17  C   UNL     1      -6.114  -0.230   0.444  1.00  0.00     0.047 A 
ATOM     18  C   UNL     1      -3.737   1.150  -0.010  1.00  0.00     0.012 A 
ATOM     19  C   UNL     1      -4.901  -0.923   0.330  1.00  0.00     0.012 A 
BRANCH  15  20
ATOM     20  O   UNL     1      -7.251   1.953   0.419  1.00  0.00    -0.497 OA
ATOM     21  C   UNL     1      -8.485   1.300   0.689  1.00  0.00     0.278 C 
ENDBRANCH  15  20
ENDBRANCH   1  14
BRANCH   8  22
ATOM     22  C   UNL     1       4.308  -0.126   0.243  1.00  0.00     0.004 A 
ATOM     23  C   UNL     1       5.443  -0.786   0.736  1.00  0.00     0.013 A 
ATOM     24  C   UNL     1       4.409   1.200  -0.218  1.00  0.00     0.022 A 
ATOM     25  C   UNL     1       6.696  -0.163   0.778  1.00  0.00     0.029 A 
ATOM     26  C   UNL     1       5.659   1.839  -0.184  1.00  0.00     0.020 A 
ATOM     27  C   UNL     1       6.763   1.152   0.306  1.00  0.00     0.065 A 
ATOM     28  C   UNL     1       6.164   3.110  -0.537  1.00  0.00     0.143 A 
ATOM     29  N   UNL     1       7.804   2.035   0.215  1.00  0.00    -0.278 N 
ATOM     30  N   UNL     1       7.476   3.233  -0.306  1.00  0.00    -0.183 NA
ATOM     31  H   UNL     1       8.764   1.877   0.492  1.00  0.00     0.190 HD
ENDBRANCH   8  22
TORSDOF 3
