REMARK SMILES COc1cc(-c2cc(NS(=O)(=O)[C@@H]3C[C@H]3NC(C)=O)cc(-c3nccs3)c2)ccn1
REMARK SMILES IDX 9 1 8 3 6 4 7 5 27 6 21 7 20 8 5 9 3 10 4 11 30 12 29 13
REMARK SMILES IDX 28 14 2 15 1 16 22 17 23 18 26 19 24 20 25 21 10 22 11 23
REMARK SMILES IDX 12 24 13 25 14 26 15 27 16 28 17 29 18 31 19 32
REMARK H PARENT 9 2 16 30
ROOT
ATOM      1  N   UNL     1       1.446  -1.194   1.896  1.00  0.00    -0.283 N 
ATOM      2  H   UNL     1       1.628  -1.863   2.646  1.00  0.00     0.180 HD
ENDROOT
BRANCH   1   3
ATOM      3  C   UNL     1       0.104  -1.181   1.392  1.00  0.00     0.050 A 
ATOM      4  C   UNL     1      -1.641  -0.331  -0.082  1.00  0.00    -0.015 A 
ATOM      5  C   UNL     1      -0.350  -0.246   0.461  1.00  0.00     0.035 A 
ATOM      6  C   UNL     1      -2.461  -1.398   0.319  1.00  0.00     0.020 A 
ATOM      7  C   UNL     1      -2.022  -2.378   1.226  1.00  0.00     0.013 A 
ATOM      8  C   UNL     1      -0.720  -2.259   1.739  1.00  0.00     0.038 A 
BRANCH   4   9
ATOM      9  C   UNL     1      -2.120   0.665  -1.054  1.00  0.00    -0.011 A 
ATOM     10  C   UNL     1      -3.716   2.306  -1.780  1.00  0.00     0.213 A 
ATOM     11  C   UNL     1      -3.305   1.377  -0.836  1.00  0.00     0.077 A 
ATOM     12  N   UNL     1      -3.038   2.573  -2.915  1.00  0.00    -0.222 NA
ATOM     13  C   UNL     1      -1.901   1.877  -3.115  1.00  0.00     0.116 A 
ATOM     14  C   UNL     1      -1.408   0.931  -2.229  1.00  0.00     0.029 A 
BRANCH  10  15
ATOM     15  O   UNL     1      -4.891   2.977  -1.502  1.00  0.00    -0.481 OA
ATOM     16  C   UNL     1      -5.253   3.910  -2.514  1.00  0.00     0.280 C 
ENDBRANCH  10  15
ENDBRANCH   4   9
BRANCH   7  17
ATOM     17  C   UNL     1      -2.943  -3.480   1.579  1.00  0.00     0.123 A 
ATOM     18  N   UNL     1      -4.150  -3.619   1.058  1.00  0.00    -0.245 NA
ATOM     19  S   UNL     1      -2.528  -4.703   2.727  1.00  0.00    -0.122 S 
ATOM     20  C   UNL     1      -4.779  -4.732   1.577  1.00  0.00     0.123 A 
ATOM     21  C   UNL     1      -4.051  -5.447   2.499  1.00  0.00     0.087 A 
ENDBRANCH   7  17
ENDBRANCH   1   3
BRANCH   1  22
ATOM     22  S   UNL     1       2.264   0.240   2.243  1.00  0.00     0.237 S 
ATOM     23  O   UNL     1       3.385  -0.148   3.074  1.00  0.00    -0.206 OA
ATOM     24  O   UNL     1       1.307   1.215   2.719  1.00  0.00    -0.206 OA
BRANCH  22  25
ATOM     25  C   UNL     1       2.958   0.931   0.717  1.00  0.00     0.154 C 
ATOM     26  C   UNL     1       3.126  -0.031  -0.425  1.00  0.00     0.050 C 
ATOM     27  C   UNL     1       4.328   0.401   0.370  1.00  0.00     0.103 C 
BRANCH  27  28
ATOM     28  N   UNL     1       5.321   1.254  -0.220  1.00  0.00    -0.352 N 
ATOM     29  C   UNL     1       6.167   0.803  -1.214  1.00  0.00     0.217 C 
ATOM     30  H   UNL     1       5.582   2.094   0.286  1.00  0.00     0.163 HD
ATOM     31  C   UNL     1       7.236   1.791  -1.597  1.00  0.00     0.114 C 
ATOM     32  O   UNL     1       6.081  -0.301  -1.741  1.00  0.00    -0.275 OA
ENDBRANCH  27  28
ENDBRANCH  22  25
ENDBRANCH   1  22
TORSDOF 7
