MODEL        5USER    Run = 5USERUSER    Estimated Free Energy of Binding    =  -9.76 kcal/mol  [=(1)+(2)+(3)-(4)]USERUSER    (1) Final Intermolecular Energy     = -11.55 kcal/molUSER        vdW + Hbond + desolv Energy     = -11.00 kcal/molUSER        Electrostatic Energy            =  -0.55 kcal/molUSER        Moving Ligand-Fixed Receptor    = -11.55 kcal/molUSER        Moving Ligand-Moving Receptor   =  +0.00 kcal/molUSER    (2) Final Total Internal Energy     =  -0.78 kcal/molUSER    (3) Torsional Free Energy           =  +1.79 kcal/molUSER    (4) Unbound System's Energy         =  -0.78 kcal/molUSERUSERREMARK SMILES C[C@H]1CC(c2ccc(C(=O)c3cccc(C(=O)O)c3)cc2O)=CCN1REMARK SMILES IDX 11 1 12 2 13 3 14 4 15 5 19 6 9 7 10 8 8 9 5 10 6 11 21 12REMARK SMILES IDX 7 13 20 14 4 15 2 16 3 17 25 18 24 19 23 20 1 21 22 23 16 25REMARK SMILES IDX 17 26 18 27REMARK H PARENT 25 22 22 24 18 28USER                              x       y       z     vdW  Elec       q    TypeUSER                           _______ _______ _______ _____ _____    ______ ____ROOTATOM      1  C   UNL     1      31.908  41.878  18.707 -0.32 -0.00    +0.023 A  ATOM      2  C   UNL     1      31.112  41.903  17.554 -0.29 -0.00    +0.012 A  ATOM      3  C   UNL     1      30.487  40.735  17.115 -0.35 -0.00    +0.002 A  ATOM      4  C   UNL     1      30.646  39.547  17.831 -0.35 +0.00    +0.016 A  ATOM      5  C   UNL     1      31.424  39.521  18.996 -0.38 +0.01    +0.060 A  ATOM      6  C   UNL     1      32.051  40.693  19.438 -0.31 +0.00    +0.027 A  ENDROOTBRANCH   1   7ATOM      7  C   UNL     1      32.569  43.105  19.216 -0.32 -0.01    +0.193 C  ATOM      8  O   UNL     1      32.358  43.458  20.372 -0.81 -0.04    -0.289 OA BRANCH   7   9ATOM      9  C   UNL     1      33.474  43.918  18.363 -0.33 -0.01    +0.026 A  ATOM     10  C   UNL     1      35.198  45.528  16.816 -0.32 -0.01    +0.019 A  ATOM     11  C   UNL     1      35.014  44.167  16.514 -0.32 -0.01    +0.013 A  ATOM     12  C   UNL     1      34.516  46.058  17.924 -0.37 -0.09    +0.123 A  ATOM     13  C   UNL     1      34.165  43.363  17.282 -0.33 -0.00    +0.013 A  ATOM     14  C   UNL     1      33.663  45.263  18.695 -0.41 -0.02    +0.059 A  BRANCH  10  15ATOM     15  C   UNL     1      36.122  46.327  15.984 -0.41 +0.03    -0.038 C  ATOM     16  C   UNL     1      36.572  47.698  13.908 -0.55 -0.03    +0.055 C  ATOM     17  C   UNL     1      35.797  46.509  14.520 -0.44 -0.04    +0.054 C  ATOM     18  N   UNL     1      38.001  47.629  14.260 -0.27 +0.13    -0.310 NA ATOM     19  C   UNL     1      38.178  47.737  15.710 -0.45 -0.06    +0.109 C  ATOM     20  C   UNL     1      37.218  46.906  16.511 -0.36 +0.00    -0.007 C  ATOM     21  C   UNL     1      36.431  47.705  12.387 -0.74 -0.01    +0.024 C  ATOM     22  H   UNL     1      38.361  46.719  13.969 +0.09 -0.04    +0.123 HD ENDBRANCH  10  15BRANCH  12  23ATOM     23  O   UNL     1      34.665  47.379  18.250 -0.65 +0.51    -0.507 OA ATOM     24  H   UNL     1      34.183  47.925  17.606 -0.29 -0.72    +0.293 HD ENDBRANCH  12  23ENDBRANCH   7   9ENDBRANCH   1   7BRANCH   5  25ATOM     25  C   UNL     1      31.553  38.237  19.725 -0.30 +0.07    +0.335 C  ATOM     26  O   UNL     1      31.264  37.139  19.286 -0.85 -0.09    -0.246 OA BRANCH  25  27ATOM     27  O   UNL     1      32.044  38.389  20.966 -0.76 -0.14    -0.478 OA ATOM     28  H   UNL     1      31.563  37.722  21.499 +0.19 +0.03    +0.297 HD ENDBRANCH  25  27ENDBRANCH   5  25TORSDOF 6TERENDMDL