REMARK SMILES C[C@H]1CC(c2ccc(C(=O)c3cccc(C(=O)O)c3)cc2O)=CCN1
REMARK SMILES IDX 11 1 12 2 13 3 14 4 15 5 19 6 9 7 10 8 8 9 5 10 6 11 21 12
REMARK SMILES IDX 7 13 20 14 4 15 2 16 3 17 25 18 24 19 23 20 1 21 22 23 16 25
REMARK SMILES IDX 17 26 18 27
REMARK H PARENT 25 22 22 24 18 28
ROOT
ATOM      1  C   UNL     1       3.736   0.740   0.088  1.00  0.00     0.023 A 
ATOM      2  C   UNL     1       3.765  -0.256   1.073  1.00  0.00     0.012 A 
ATOM      3  C   UNL     1       4.925  -1.007   1.269  1.00  0.00     0.002 A 
ATOM      4  C   UNL     1       6.058  -0.756   0.493  1.00  0.00     0.016 A 
ATOM      5  C   UNL     1       6.041   0.253  -0.479  1.00  0.00     0.060 A 
ATOM      6  C   UNL     1       4.878   1.007  -0.676  1.00  0.00     0.027 A 
ENDROOT
BRANCH   1   7
ATOM      7  C   UNL     1       2.528   1.572  -0.134  1.00  0.00     0.193 C 
ATOM      8  O   UNL     1       2.666   2.766  -0.386  1.00  0.00    -0.289 OA
BRANCH   7   9
ATOM      9  C   UNL     1       1.159   1.002  -0.055  1.00  0.00     0.026 A 
ATOM     10  C   UNL     1      -1.478   0.010   0.097  1.00  0.00     0.019 A 
ATOM     11  C   UNL     1      -0.424  -0.803  -0.355  1.00  0.00     0.013 A 
ATOM     12  C   UNL     1      -1.184   1.338   0.450  1.00  0.00     0.123 A 
ATOM     13  C   UNL     1       0.884  -0.314  -0.438  1.00  0.00     0.013 A 
ATOM     14  C   UNL     1       0.120   1.834   0.373  1.00  0.00     0.059 A 
BRANCH  10  15
ATOM     15  C   UNL     1      -2.844  -0.551   0.146  1.00  0.00    -0.038 C 
ATOM     16  C   UNL     1      -5.177  -0.725  -0.813  1.00  0.00     0.055 C 
ATOM     17  C   UNL     1      -3.950   0.184  -0.575  1.00  0.00     0.054 C 
ATOM     18  N   UNL     1      -5.555  -1.430   0.424  1.00  0.00    -0.310 NA
ATOM     19  C   UNL     1      -4.475  -2.318   0.859  1.00  0.00     0.109 C 
ATOM     20  C   UNL     1      -3.107  -1.703   0.793  1.00  0.00    -0.007 C 
ATOM     21  C   UNL     1      -6.367   0.097  -1.304  1.00  0.00     0.024 C 
ATOM     22  H   UNL     1      -5.702  -0.736   1.158  1.00  0.00     0.123 HD
ENDBRANCH  10  15
BRANCH  12  23
ATOM     23  O   UNL     1      -2.181   2.162   0.898  1.00  0.00    -0.507 OA
ATOM     24  H   UNL     1      -1.813   3.044   1.075  1.00  0.00     0.293 HD
ENDBRANCH  12  23
ENDBRANCH   7   9
ENDBRANCH   1   7
BRANCH   5  25
ATOM     25  C   UNL     1       7.274   0.486  -1.269  1.00  0.00     0.335 C 
ATOM     26  O   UNL     1       8.327  -0.109  -1.134  1.00  0.00    -0.246 OA
BRANCH  25  27
ATOM     27  O   UNL     1       7.125   1.448  -2.195  1.00  0.00    -0.478 OA
ATOM     28  H   UNL     1       8.002   1.501  -2.630  1.00  0.00     0.297 HD
ENDBRANCH  25  27
ENDBRANCH   5  25
TORSDOF 6
