REMARK SMILES Cc1cc2c(c3c(-c4ccc(F)cc4)ncnc13)[C@@H](CCN)C(=O)N2
REMARK SMILES IDX 20 1 19 2 2 3 3 4 18 5 4 6 17 7 6 8 5 9 25 10 16 11 7 12
REMARK SMILES IDX 23 13 15 14 1 15 24 17 8 18 9 19 14 20 10 21 13 22 11 23
REMARK SMILES IDX 12 24 21 25 22 26
REMARK H PARENT 25 16 22 27 22 28
ROOT
ATOM      1  C   UNL     1      -0.945  -1.767   0.782  1.00  0.00     0.033 C 
ENDROOT
BRANCH   1   2
ATOM      2  C   UNL     1      -0.972  -0.994  -0.545  1.00  0.00     0.113 C 
ATOM      3  C   UNL     1      -1.782   3.184  -0.151  1.00  0.00    -0.023 A 
ATOM      4  C   UNL     1      -2.668   2.271  -0.732  1.00  0.00     0.032 A 
ATOM      5  C   UNL     1      -0.503   2.793   0.293  1.00  0.00     0.078 A 
ATOM      6  C   UNL     1      -2.264   0.963  -0.816  1.00  0.00     0.046 A 
ATOM      7  N   UNL     1       0.271   3.740   0.835  1.00  0.00    -0.236 NA
ATOM      8  C   UNL     1      -0.076   1.449   0.153  1.00  0.00     0.033 A 
ATOM      9  C   UNL     1      -1.019   0.519  -0.367  1.00  0.00    -0.000 A 
ATOM     10  N   UNL     1      -3.006  -0.077  -1.335  1.00  0.00    -0.325 N 
ATOM     11  C   UNL     1       1.492   3.397   1.243  1.00  0.00     0.223 A 
ATOM     12  C   UNL     1       1.264   1.230   0.561  1.00  0.00     0.082 A 
ATOM     13  C   UNL     1      -2.333  -1.279  -1.232  1.00  0.00     0.232 C 
ATOM     14  N   UNL     1       2.032   2.189   1.131  1.00  0.00    -0.236 NA
ATOM     15  C   UNL     1      -2.216   4.624  -0.015  1.00  0.00     0.047 C 
ATOM     16  H   UNL     1      -3.935  -0.010  -1.724  1.00  0.00     0.169 HD
ATOM     17  O   UNL     1      -2.790  -2.356  -1.580  1.00  0.00    -0.274 OA
BRANCH  12  18
ATOM     18  C   UNL     1       2.038  -0.006   0.353  1.00  0.00     0.001 A 
ATOM     19  C   UNL     1       2.600  -0.688   1.451  1.00  0.00     0.013 A 
ATOM     20  C   UNL     1       2.345  -0.465  -0.940  1.00  0.00     0.013 A 
ATOM     21  C   UNL     1       3.415  -1.807   1.262  1.00  0.00     0.040 A 
ATOM     22  C   UNL     1       3.151  -1.591  -1.130  1.00  0.00     0.040 A 
ATOM     23  C   UNL     1       3.678  -2.251  -0.027  1.00  0.00     0.123 A 
ATOM     24  F   UNL     1       4.459  -3.324  -0.208  1.00  0.00    -0.207 F 
ENDBRANCH  12  18
ENDBRANCH   1   2
BRANCH   1  25
ATOM     25  C   UNL     1      -0.278  -3.146   0.698  1.00  0.00     0.079 C 
BRANCH  25  26
ATOM     26  N   UNL     1      -0.644  -3.919  -0.475  1.00  0.00    -0.330 NA
ATOM     27  H   UNL     1      -0.439  -4.906  -0.329  1.00  0.00     0.118 HD
ATOM     28  H   UNL     1      -1.649  -3.851  -0.669  1.00  0.00     0.118 HD
ENDBRANCH  25  26
ENDBRANCH   1  25
TORSDOF 4
