REMARK SMILES CC(=O)N[C@H]1C[C@@H]1S(=O)(=O)Nc1cc(-c2ccncc2)cc(-c2nc(F)cs2)c1
REMARK SMILES IDX 8 1 9 2 10 3 7 4 5 5 6 6 4 7 2 8 1 9 3 10 11 12 12 14 13 15
REMARK SMILES IDX 29 16 14 17 22 18 21 19 15 20 16 21 20 22 17 23 19 24 18 25
REMARK SMILES IDX 23 26 24 27 28 28 25 29 27 30 26 31
REMARK H PARENT 4 11 11 13
ROOT
ATOM      1  S   UNL     1       2.364  -2.415   1.711  1.00  0.00     0.237 S 
ATOM      2  O   UNL     1       3.489  -2.886   2.490  1.00  0.00    -0.206 OA
ATOM      3  O   UNL     1       1.422  -3.357   1.147  1.00  0.00    -0.206 OA
ENDROOT
BRANCH   1   4
ATOM      4  C   UNL     1       3.077  -1.421   0.374  1.00  0.00     0.154 C 
ATOM      5  C   UNL     1       2.288  -1.409  -0.908  1.00  0.00     0.103 C 
ATOM      6  C   UNL     1       3.543  -2.239  -0.800  1.00  0.00     0.050 C 
BRANCH   5   7
ATOM      7  N   UNL     1       2.276  -0.243  -1.751  1.00  0.00    -0.352 N 
ATOM      8  C   UNL     1       1.114   0.268  -2.296  1.00  0.00     0.217 C 
ATOM      9  C   UNL     1       1.338   1.457  -3.191  1.00  0.00     0.114 C 
ATOM     10  O   UNL     1      -0.005  -0.194  -2.096  1.00  0.00    -0.275 OA
ATOM     11  H   UNL     1       3.161   0.109  -2.097  1.00  0.00     0.163 HD
ENDBRANCH   5   7
ENDBRANCH   1   4
BRANCH   1  12
ATOM     12  N   UNL     1       1.496  -1.367   2.736  1.00  0.00    -0.283 N 
ATOM     13  H   UNL     1       1.132  -1.940   3.501  1.00  0.00     0.180 HD
BRANCH  12  14
ATOM     14  C   UNL     1       0.481  -0.586   2.100  1.00  0.00     0.050 A 
ATOM     15  C   UNL     1      -0.758  -1.139   1.785  1.00  0.00     0.035 A 
ATOM     16  C   UNL     1       0.794   0.724   1.731  1.00  0.00     0.038 A 
ATOM     17  C   UNL     1      -1.711  -0.380   1.095  1.00  0.00    -0.016 A 
ATOM     18  C   UNL     1      -0.136   1.509   1.038  1.00  0.00     0.013 A 
ATOM     19  C   UNL     1      -1.387   0.942   0.740  1.00  0.00     0.020 A 
BRANCH  17  20
ATOM     20  C   UNL     1      -3.003  -0.963   0.712  1.00  0.00    -0.015 A 
ATOM     21  C   UNL     1      -3.916  -1.403   1.675  1.00  0.00     0.029 A 
ATOM     22  C   UNL     1      -3.352  -1.100  -0.635  1.00  0.00     0.029 A 
ATOM     23  C   UNL     1      -5.121  -1.945   1.255  1.00  0.00     0.111 A 
ATOM     24  C   UNL     1      -4.579  -1.659  -0.956  1.00  0.00     0.111 A 
ATOM     25  N   UNL     1      -5.474  -2.083  -0.040  1.00  0.00    -0.265 NA
ENDBRANCH  17  20
BRANCH  18  26
ATOM     26  C   UNL     1       0.141   2.892   0.605  1.00  0.00     0.126 A 
ATOM     27  N   UNL     1      -0.795   3.770   0.298  1.00  0.00    -0.208 NA
ATOM     28  S   UNL     1       1.759   3.474   0.404  1.00  0.00    -0.119 S 
ATOM     29  C   UNL     1      -0.220   4.957  -0.084  1.00  0.00     0.224 A 
ATOM     30  C   UNL     1       1.152   4.994  -0.090  1.00  0.00     0.127 A 
ATOM     31  F   UNL     1      -0.959   6.018  -0.437  1.00  0.00    -0.184 F 
ENDBRANCH  18  26
ENDBRANCH  12  14
ENDBRANCH   1  12
TORSDOF 6
