MODEL        4USER    Run = 4USERUSER    Estimated Free Energy of Binding    =  -8.25 kcal/mol  [=(1)+(2)+(3)-(4)]USERUSER    (1) Final Intermolecular Energy     =  -9.44 kcal/molUSER        vdW + Hbond + desolv Energy     =  -9.39 kcal/molUSER        Electrostatic Energy            =  -0.04 kcal/molUSER        Moving Ligand-Fixed Receptor    =  -9.44 kcal/molUSER        Moving Ligand-Moving Receptor   =  +0.00 kcal/molUSER    (2) Final Total Internal Energy     =  -2.00 kcal/molUSER    (3) Torsional Free Energy           =  +1.19 kcal/molUSER    (4) Unbound System's Energy         =  -2.00 kcal/molUSERUSERREMARK SMILES NCC[C@H]1C(=O)Nc2ccc3ncnc(-c4ccc(Cl)cc4)c3c21REMARK SMILES IDX 3 1 2 2 1 3 4 6 5 7 24 8 7 9 23 10 8 11 15 12 11 13 9 14REMARK SMILES IDX 14 15 10 16 12 17 13 18 6 19 16 21 17 22 22 23 18 24 21 25REMARK SMILES IDX 19 26 20 27REMARK H PARENT 1 4 1 5 7 20USER                              x       y       z     vdW  Elec       q    TypeUSER                           _______ _______ _______ _____ _____    ______ ____ROOTATOM      1  C   UNL     1      39.132  47.385  17.204 -0.35 -0.01    +0.033 C  ENDROOTBRANCH   1   2ATOM      2  C   UNL     1      40.134  48.063  16.262 -0.55 -0.02    +0.079 C  BRANCH   2   3ATOM      3  N   UNL     1      41.429  48.334  16.860 -0.66 +0.01    -0.330 NA ATOM      4  H   UNL     1      41.405  48.151  17.861 +0.03 -0.01    +0.118 HD ATOM      5  H   UNL     1      42.156  47.726  16.466 -0.46 -0.02    +0.118 HD ENDBRANCH   2   3ENDBRANCH   1   2BRANCH   1   6ATOM      6  C   UNL     1      39.328  45.868  17.353 -0.41 -0.02    +0.113 C  ATOM      7  C   UNL     1      40.676  45.634  18.087 -0.36 -0.01    +0.232 C  ATOM      8  C   UNL     1      38.334  45.216  18.305 -0.39 +0.00    -0.000 A  ATOM      9  N   UNL     1      40.394  44.997  19.280 -0.21 -0.00    -0.325 N  ATOM     10  C   UNL     1      36.925  45.022  18.227 -0.32 -0.01    +0.033 A  ATOM     11  C   UNL     1      39.041  44.770  19.425 -0.36 -0.00    +0.046 A  ATOM     12  C   UNL     1      36.027  45.297  17.166 -0.28 -0.04    +0.082 A  ATOM     13  C   UNL     1      36.293  44.470  19.365 -0.30 -0.01    +0.075 A  ATOM     14  C   UNL     1      38.435  44.192  20.512 -0.32 -0.00    +0.029 A  ATOM     15  N   UNL     1      34.685  45.137  17.273 -0.17 +0.14    -0.236 NA ATOM     16  C   UNL     1      37.050  44.070  20.467 -0.38 -0.00    +0.031 A  ATOM     17  N   UNL     1      34.976  44.289  19.466 -0.24 +0.04    -0.236 NA ATOM     18  C   UNL     1      34.230  44.645  18.421 -0.21 -0.08    +0.223 A  ATOM     19  O   UNL     1      41.793  45.982  17.738 -0.25 +0.01    -0.274 OA ATOM     20  H   UNL     1      41.112  44.762  19.950 +0.10 +0.02    +0.169 HD BRANCH  12  21ATOM     21  C   UNL     1      36.407  45.703  15.803 -0.36 -0.00    +0.001 A  ATOM     22  C   UNL     1      36.395  47.062  15.435 -0.35 -0.01    +0.012 A  ATOM     23  C   UNL     1      36.670  44.750  14.804 -0.38 -0.00    +0.012 A  ATOM     24  C   UNL     1      36.668  47.456  14.122 -0.48 -0.01    +0.021 A  ATOM     25  C   UNL     1      36.953  45.142  13.492 -0.45 -0.01    +0.021 A  ATOM     26  C   UNL     1      36.951  46.493  13.157 -0.52 -0.02    +0.041 A  ATOM     27  Cl  UNL     1      37.294  46.976  11.542 -0.77 +0.02    -0.084 Cl ENDBRANCH  12  21ENDBRANCH   1   6TORSDOF 4TERENDMDL