MODEL        6USER    Run = 6USERUSER    Estimated Free Energy of Binding    = -10.14 kcal/mol  [=(1)+(2)+(3)-(4)]USERUSER    (1) Final Intermolecular Energy     = -12.22 kcal/molUSER        vdW + Hbond + desolv Energy     = -11.97 kcal/molUSER        Electrostatic Energy            =  -0.26 kcal/molUSER        Moving Ligand-Fixed Receptor    = -12.22 kcal/molUSER        Moving Ligand-Moving Receptor   =  +0.00 kcal/molUSER    (2) Final Total Internal Energy     =  -1.42 kcal/molUSER    (3) Torsional Free Energy           =  +2.09 kcal/molUSER    (4) Unbound System's Energy         =  -1.42 kcal/molUSERUSERREMARK SMILES COc1cc(-c2cc(NS(=O)(=O)[C@@H]3C[C@H]3NC(C)=O)cc(-c3nccs3)c2)ccn1REMARK SMILES IDX 9 1 8 3 6 4 7 5 27 6 21 7 20 8 5 9 3 10 4 11 30 12 29 13REMARK SMILES IDX 28 14 2 15 1 16 22 17 23 18 26 19 24 20 25 21 10 22 11 23REMARK SMILES IDX 12 24 13 25 14 26 15 27 16 28 17 29 18 31 19 32REMARK H PARENT 9 2 16 30USER                              x       y       z     vdW  Elec       q    TypeUSER                           _______ _______ _______ _____ _____    ______ ____ROOTATOM      1  N   UNL     1      34.050  42.145  16.782 -0.23 +0.14    -0.283 N  ATOM      2  H   UNL     1      33.740  41.865  15.850 -0.46 -0.14    +0.180 HD ENDROOTBRANCH   1   3ATOM      3  C   UNL     1      35.073  43.150  16.816 -0.37 -0.02    +0.050 A  ATOM      4  C   UNL     1      36.231  45.084  15.891 -0.34 +0.01    -0.015 A  ATOM      5  C   UNL     1      35.287  44.052  15.774 -0.32 -0.02    +0.035 A  ATOM      6  C   UNL     1      36.942  45.200  17.096 -0.33 -0.01    +0.020 A  ATOM      7  C   UNL     1      36.723  44.332  18.179 -0.33 -0.00    +0.013 A  ATOM      8  C   UNL     1      35.764  43.318  18.022 -0.30 -0.01    +0.038 A  BRANCH   4   9ATOM      9  C   UNL     1      36.464  46.025  14.784 -0.39 +0.01    -0.011 A  ATOM     10  C   UNL     1      37.759  47.737  13.707 -0.36 -0.08    +0.213 A  ATOM     11  C   UNL     1      37.582  46.867  14.772 -0.37 -0.04    +0.077 A  ATOM     12  N   UNL     1      36.910  47.829  12.664 -1.00 +0.07    -0.222 NA ATOM     13  C   UNL     1      35.835  47.017  12.689 -0.53 -0.07    +0.116 A  ATOM     14  C   UNL     1      35.573  46.112  13.707 -0.42 -0.02    +0.029 A  BRANCH  10  15ATOM     15  O   UNL     1      38.885  48.537  13.755 -0.24 +0.16    -0.481 OA ATOM     16  C   UNL     1      39.525  48.521  15.026 -0.38 -0.11    +0.280 C  ENDBRANCH  10  15ENDBRANCH   4   9BRANCH   7  17ATOM     17  C   UNL     1      37.500  44.538  19.421 -0.27 -0.01    +0.123 A  ATOM     18  N   UNL     1      38.671  45.150  19.457 -0.24 +0.01    -0.245 NA ATOM     19  S   UNL     1      36.950  43.983  20.962 -0.50 -0.00    -0.122 S  ATOM     20  C   UNL     1      39.160  45.191  20.746 -0.28 +0.00    +0.123 A  ATOM     21  C   UNL     1      38.361  44.606  21.701 -0.30 +0.00    +0.087 A  ENDBRANCH   7  17ENDBRANCH   1   3BRANCH   1  22ATOM     22  S   UNL     1      32.703  42.233  17.794 -0.36 -0.07    +0.237 S  ATOM     23  O   UNL     1      33.087  43.126  18.868 -0.31 +0.03    -0.206 OA ATOM     24  O   UNL     1      32.257  40.889  18.089 -0.34 +0.04    -0.206 OA BRANCH  22  25ATOM     25  C   UNL     1      31.331  43.029  16.916 -0.25 -0.05    +0.154 C  ATOM     26  C   UNL     1      30.469  42.124  16.082 -0.37 -0.02    +0.050 C  ATOM     27  C   UNL     1      31.476  43.021  15.414 -0.33 -0.06    +0.103 C  BRANCH  27  28ATOM     28  N   UNL     1      31.042  44.139  14.625 -0.16 +0.25    -0.352 N  ATOM     29  C   UNL     1      31.116  45.434  15.099 -0.36 -0.13    +0.217 C  ATOM     30  H   UNL     1      30.428  43.952  13.839 -0.30 -0.22    +0.163 HD ATOM     31  C   UNL     1      30.475  46.451  14.193 -0.49 -0.06    +0.114 C  ATOM     32  O   UNL     1      31.640  45.748  16.162 -0.72 +0.13    -0.275 OA ENDBRANCH  27  28ENDBRANCH  22  25ENDBRANCH   1  22TORSDOF 7TERENDMDL