REMARK SMILES CC(=O)N[C@]1(O)C[C@H]1S(=O)(=O)Nc1cc(-c2ccncc2)cc(-c2nccs2)c1
REMARK SMILES IDX 9 1 10 2 11 3 8 4 5 5 7 6 4 7 2 8 1 9 3 10 6 12 12 14 13 16
REMARK SMILES IDX 14 17 29 18 15 19 23 20 22 21 16 22 17 23 21 24 18 25 20 26
REMARK SMILES IDX 19 27 24 28 25 29 28 30 26 31 27 32
REMARK H PARENT 4 11 6 13 12 15
ROOT
ATOM      1  S   UNL     1       0.775  -1.959  -3.014  1.00  0.00     0.240 S 
ATOM      2  O   UNL     1       0.491  -3.184  -2.294  1.00  0.00    -0.206 OA
ATOM      3  O   UNL     1       1.100  -1.994  -4.424  1.00  0.00    -0.206 OA
ENDROOT
BRANCH   1   4
ATOM      4  C   UNL     1       2.192  -1.179  -2.232  1.00  0.00     0.186 C 
ATOM      5  C   UNL     1       2.471  -1.508  -0.794  1.00  0.00     0.158 C 
ATOM      6  C   UNL     1       3.308  -2.126  -1.890  1.00  0.00     0.086 C 
BRANCH   5   7
ATOM      7  N   UNL     1       3.104  -0.600   0.107  1.00  0.00    -0.327 N 
ATOM      8  C   UNL     1       2.876   0.758   0.110  1.00  0.00     0.219 C 
ATOM      9  C   UNL     1       3.464   1.469   1.300  1.00  0.00     0.114 C 
ATOM     10  O   UNL     1       2.290   1.369  -0.779  1.00  0.00    -0.275 OA
ATOM     11  H   UNL     1       3.414  -1.027   0.973  1.00  0.00     0.166 HD
ENDBRANCH   5   7
BRANCH   5  12
ATOM     12  O   UNL     1       1.688  -2.460  -0.066  1.00  0.00    -0.369 OA
ATOM     13  H   UNL     1       1.164  -3.055  -0.645  1.00  0.00     0.213 HD
ENDBRANCH   5  12
ENDBRANCH   1   4
BRANCH   1  14
ATOM     14  N   UNL     1      -0.540  -0.905  -2.881  1.00  0.00    -0.283 N 
ATOM     15  H   UNL     1      -0.477  -0.163  -3.579  1.00  0.00     0.180 HD
BRANCH  14  16
ATOM     16  C   UNL     1      -0.982  -0.510  -1.582  1.00  0.00     0.050 A 
ATOM     17  C   UNL     1      -0.971   0.845  -1.250  1.00  0.00     0.035 A 
ATOM     18  C   UNL     1      -1.467  -1.444  -0.669  1.00  0.00     0.038 A 
ATOM     19  C   UNL     1      -1.419   1.286   0.006  1.00  0.00    -0.016 A 
ATOM     20  C   UNL     1      -1.912  -1.052   0.604  1.00  0.00     0.013 A 
ATOM     21  C   UNL     1      -1.872   0.317   0.923  1.00  0.00     0.020 A 
BRANCH  19  22
ATOM     22  C   UNL     1      -1.427   2.720   0.355  1.00  0.00    -0.015 A 
ATOM     23  C   UNL     1      -2.552   3.319   0.938  1.00  0.00     0.029 A 
ATOM     24  C   UNL     1      -0.318   3.539   0.112  1.00  0.00     0.029 A 
ATOM     25  C   UNL     1      -2.517   4.670   1.250  1.00  0.00     0.111 A 
ATOM     26  C   UNL     1      -0.375   4.880   0.459  1.00  0.00     0.111 A 
ATOM     27  N   UNL     1      -1.450   5.464   1.026  1.00  0.00    -0.265 NA
ENDBRANCH  19  22
BRANCH  20  28
ATOM     28  C   UNL     1      -2.397  -2.093   1.535  1.00  0.00     0.123 A 
ATOM     29  N   UNL     1      -2.276  -3.389   1.313  1.00  0.00    -0.245 NA
ATOM     30  S   UNL     1      -3.206  -1.705   3.013  1.00  0.00    -0.122 S 
ATOM     31  C   UNL     1      -2.831  -4.115   2.346  1.00  0.00     0.123 A 
ATOM     32  C   UNL     1      -3.384  -3.370   3.362  1.00  0.00     0.087 A 
ENDBRANCH  20  28
ENDBRANCH  14  16
ENDBRANCH   1  14
TORSDOF 7
