REMARK SMILES Oc1cc(-c2cnc3[nH]occ(-c4ccc5[nH]ncc5c4)ncc3c2)ccc1F
REMARK SMILES IDX 5 1 6 2 7 3 8 4 9 5 10 6 11 7 12 8 22 9 23 10 24 11 25 12
REMARK SMILES IDX 4 14 2 15 3 16 28 17 27 18 26 19 29 20 1 21 13 23 14 24
REMARK SMILES IDX 21 25 15 26 20 27 16 28 19 29 17 30 18 31
REMARK H PARENT 9 13 1 22 17 32
ROOT
ATOM      1  C   UNL     1       2.609   0.613   0.280  1.00  0.00     0.001 A 
ATOM      2  C   UNL     1       2.303   1.920   0.647  1.00  0.00     0.122 A 
ATOM      3  N   UNL     1       1.355   2.283   1.545  1.00  0.00    -0.235 NA
ATOM      4  C   UNL     1       0.629   1.290   2.131  1.00  0.00     0.168 A 
ATOM      5  N   UNL     1      -0.339   1.742   3.030  1.00  0.00    -0.204 N 
ATOM      6  O   UNL     1      -1.380   0.964   3.517  1.00  0.00    -0.386 OA
ATOM      7  C   UNL     1      -2.190   0.573   2.474  1.00  0.00     0.255 A 
ATOM      8  C   UNL     1      -2.064  -0.613   1.839  1.00  0.00     0.108 A 
ATOM      9  N   UNL     1      -1.173  -1.633   1.947  1.00  0.00    -0.252 NA
ATOM     10  C   UNL     1       0.046  -1.294   2.428  1.00  0.00     0.124 A 
ATOM     11  C   UNL     1       0.867  -0.060   1.841  1.00  0.00     0.039 A 
ATOM     12  C   UNL     1       1.858  -0.383   0.903  1.00  0.00     0.024 A 
ATOM     13  H   UNL     1      -0.529   2.725   2.916  1.00  0.00     0.211 HD
ENDROOT
BRANCH   1  14
ATOM     14  C   UNL     1       3.648   0.300  -0.712  1.00  0.00    -0.013 A 
ATOM     15  C   UNL     1       5.926   0.526  -1.539  1.00  0.00     0.151 A 
ATOM     16  C   UNL     1       4.947   0.829  -0.591  1.00  0.00     0.058 A 
ATOM     17  C   UNL     1       5.624  -0.302  -2.615  1.00  0.00     0.164 A 
ATOM     18  C   UNL     1       4.351  -0.840  -2.754  1.00  0.00     0.044 A 
ATOM     19  C   UNL     1       3.368  -0.541  -1.806  1.00  0.00     0.012 A 
ATOM     20  F   UNL     1       6.559  -0.596  -3.531  1.00  0.00    -0.203 F 
BRANCH  15  21
ATOM     21  O   UNL     1       7.190   1.035  -1.422  1.00  0.00    -0.505 OA
ATOM     22  H   UNL     1       7.251   1.526  -0.587  1.00  0.00     0.293 HD
ENDBRANCH  15  21
ENDBRANCH   1  14
BRANCH   8  23
ATOM     23  C   UNL     1      -3.157  -0.890   0.874  1.00  0.00     0.004 A 
ATOM     24  C   UNL     1      -4.197  -1.765   1.218  1.00  0.00     0.013 A 
ATOM     25  C   UNL     1      -3.154  -0.260  -0.384  1.00  0.00     0.022 A 
ATOM     26  C   UNL     1      -5.255  -2.031   0.341  1.00  0.00     0.029 A 
ATOM     27  C   UNL     1      -4.209  -0.515  -1.276  1.00  0.00     0.020 A 
ATOM     28  C   UNL     1      -5.226  -1.384  -0.897  1.00  0.00     0.065 A 
ATOM     29  C   UNL     1      -4.565  -0.103  -2.579  1.00  0.00     0.143 A 
ATOM     30  N   UNL     1      -6.078  -1.425  -1.967  1.00  0.00    -0.278 N 
ATOM     31  N   UNL     1      -5.711  -0.647  -3.004  1.00  0.00    -0.183 NA
ATOM     32  H   UNL     1      -6.930  -1.964  -2.049  1.00  0.00     0.190 HD
ENDBRANCH   8  23
TORSDOF 3
