MODEL        10USER    Run = 10USERUSER    Estimated Free Energy of Binding    =  -9.80 kcal/mol  [=(1)+(2)+(3)-(4)]USERUSER    (1) Final Intermolecular Energy     = -11.88 kcal/molUSER        vdW + Hbond + desolv Energy     = -11.68 kcal/molUSER        Electrostatic Energy            =  -0.20 kcal/molUSER        Moving Ligand-Fixed Receptor    = -11.88 kcal/molUSER        Moving Ligand-Moving Receptor   =  +0.00 kcal/molUSER    (2) Final Total Internal Energy     =  -1.36 kcal/molUSER    (3) Torsional Free Energy           =  +2.09 kcal/molUSER    (4) Unbound System's Energy         =  -1.36 kcal/molUSERUSERREMARK SMILES CC(=O)N[C@]1(O)C[C@H]1S(=O)(=O)Nc1cc(-c2ccncc2)cc(-c2nccs2)c1REMARK SMILES IDX 9 1 10 2 11 3 8 4 5 5 7 6 4 7 2 8 1 9 3 10 6 12 12 14 13 16REMARK SMILES IDX 14 17 29 18 15 19 23 20 22 21 16 22 17 23 21 24 18 25 20 26REMARK SMILES IDX 19 27 24 28 25 29 28 30 26 31 27 32REMARK H PARENT 4 11 6 13 12 15USER                              x       y       z     vdW  Elec       q    TypeUSER                           _______ _______ _______ _____ _____    ______ ____ROOTATOM      1  S   UNL     1      33.302  42.069  17.701 -0.40 -0.08    +0.240 S  ATOM      2  O   UNL     1      33.829  42.221  19.042 -0.35 +0.02    -0.206 OA ATOM      3  O   UNL     1      32.298  42.982  17.198 -0.22 +0.07    -0.206 OA ENDROOTBRANCH   1   4ATOM      4  C   UNL     1      32.547  40.443  17.589 -0.26 -0.06    +0.186 C  ATOM      5  C   UNL     1      31.794  39.934  18.783 -0.36 +0.01    +0.158 C  ATOM      6  C   UNL     1      31.044  40.459  17.580 -0.36 -0.01    +0.086 C  BRANCH   5   7ATOM      7  N   UNL     1      31.674  38.548  19.100 -0.24 -0.06    -0.327 N  ATOM      8  C   UNL     1      31.706  38.051  20.384 -0.39 +0.05    +0.219 C  ATOM      9  C   UNL     1      31.317  36.599  20.482 -0.36 +0.02    +0.114 C  ATOM     10  O   UNL     1      32.055  38.691  21.371 -1.08 -0.09    -0.275 OA ATOM     11  H   UNL     1      31.185  38.005  18.397 +0.11 +0.04    +0.166 HD ENDBRANCH   5   7BRANCH   5  12ATOM     12  O   UNL     1      31.611  40.727  19.961 -0.24 -0.05    -0.369 OA ATOM     13  H   UNL     1      31.973  41.635  19.878 +0.12 +0.03    +0.213 HD ENDBRANCH   5  12ENDBRANCH   1   4BRANCH   1  14ATOM     14  N   UNL     1      34.569  42.134  16.583 -0.26 +0.14    -0.283 N  ATOM     15  H   UNL     1      34.971  41.207  16.441 -0.45 -0.15    +0.180 HD BRANCH  14  16ATOM     16  C   UNL     1      35.498  43.217  16.652 -0.38 -0.02    +0.050 A  ATOM     17  C   UNL     1      35.643  44.051  15.543 -0.31 -0.01    +0.035 A  ATOM     18  C   UNL     1      36.217  43.479  17.816 -0.24 -0.01    +0.038 A  ATOM     19  C   UNL     1      36.525  45.144  15.569 -0.35 +0.01    -0.016 A  ATOM     20  C   UNL     1      37.121  44.552  17.885 -0.33 -0.00    +0.013 A  ATOM     21  C   UNL     1      37.265  45.366  16.747 -0.34 -0.01    +0.020 A  BRANCH  19  22ATOM     22  C   UNL     1      36.667  46.040  14.406 -0.40 +0.01    -0.015 A  ATOM     23  C   UNL     1      36.589  45.548  13.096 -0.49 -0.01    +0.029 A  ATOM     24  C   UNL     1      36.892  47.413  14.562 -0.45 -0.02    +0.029 A  ATOM     25  C   UNL     1      36.729  46.425  12.031 -0.57 -0.04    +0.111 A  ATOM     26  C   UNL     1      37.018  48.213  13.437 -0.48 -0.05    +0.111 A  ATOM     27  N   UNL     1      36.939  47.750  12.173 -1.03 +0.07    -0.265 NA ENDBRANCH  19  22BRANCH  20  28ATOM     28  C   UNL     1      37.869  44.766  19.142 -0.28 -0.01    +0.123 A  ATOM     29  N   UNL     1      39.012  45.423  19.212 -0.25 +0.02    -0.245 NA ATOM     30  S   UNL     1      37.321  44.144  20.659 -0.47 +0.00    -0.122 S  ATOM     31  C   UNL     1      39.480  45.451  20.509 -0.28 +0.00    +0.123 A  ATOM     32  C   UNL     1      38.692  44.808  21.436 -0.30 +0.00    +0.087 A  ENDBRANCH  20  28ENDBRANCH  14  16ENDBRANCH   1  14TORSDOF 7TERENDMDL