MODEL        6USER    Run = 6USERUSER    Estimated Free Energy of Binding    = -10.24 kcal/mol  [=(1)+(2)+(3)-(4)]USERUSER    (1) Final Intermolecular Energy     = -11.43 kcal/molUSER        vdW + Hbond + desolv Energy     = -11.37 kcal/molUSER        Electrostatic Energy            =  -0.06 kcal/molUSER        Moving Ligand-Fixed Receptor    = -11.43 kcal/molUSER        Moving Ligand-Moving Receptor   =  +0.00 kcal/molUSER    (2) Final Total Internal Energy     =  -0.67 kcal/molUSER    (3) Torsional Free Energy           =  +1.19 kcal/molUSER    (4) Unbound System's Energy         =  -0.67 kcal/molUSERUSERREMARK SMILES NCC[C@@H]1C(=O)Nc2ccc3ncnc(-c4ccc(F)cc4)c3c21REMARK SMILES IDX 3 1 2 2 1 3 4 6 5 7 24 8 7 9 23 10 8 11 15 12 11 13 9 14REMARK SMILES IDX 14 15 10 16 12 17 13 18 6 19 16 21 17 22 22 23 18 24 21 25REMARK SMILES IDX 19 26 20 27REMARK H PARENT 1 4 1 5 7 20USER                              x       y       z     vdW  Elec       q    TypeUSER                           _______ _______ _______ _____ _____    ______ ____ROOTATOM      1  C   UNL     1      36.197  46.600  17.051 -0.28 -0.03    +0.033 C  ENDROOTBRANCH   1   2ATOM      2  C   UNL     1      35.074  46.135  17.988 -0.41 -0.05    +0.079 C  BRANCH   2   3ATOM      3  N   UNL     1      34.301  47.213  18.576 -0.83 +0.26    -0.330 NA ATOM      4  H   UNL     1      33.542  47.512  17.954 -0.49 -0.20    +0.118 HD ATOM      5  H   UNL     1      33.864  46.905  19.444 -0.51 -0.06    +0.118 HD ENDBRANCH   2   3ENDBRANCH   1   2BRANCH   1   6ATOM      6  C   UNL     1      37.384  45.630  16.957 -0.34 -0.04    +0.113 C  ATOM      7  C   UNL     1      37.279  44.633  18.142 -0.25 -0.05    +0.232 C  ATOM      8  C   UNL     1      38.731  46.290  17.222 -0.41 +0.00    -0.000 A  ATOM      9  N   UNL     1      38.397  44.806  18.934 -0.18 +0.03    -0.325 N  ATOM     10  C   UNL     1      39.473  47.267  16.499 -0.45 -0.01    +0.033 A  ATOM     11  C   UNL     1      39.233  45.778  18.423 -0.39 -0.01    +0.046 A  ATOM     12  C   UNL     1      39.217  47.850  15.234 -0.46 -0.03    +0.082 A  ATOM     13  C   UNL     1      40.655  47.749  17.108 -0.47 -0.01    +0.075 A  ATOM     14  C   UNL     1      40.404  46.211  18.991 -0.42 -0.00    +0.029 A  ATOM     15  N   UNL     1      39.978  48.841  14.709 -0.36 +0.08    -0.236 NA ATOM     16  C   UNL     1      41.092  47.217  18.321 -0.47 -0.00    +0.031 A  ATOM     17  N   UNL     1      41.421  48.707  16.585 -0.90 +0.00    -0.236 NA ATOM     18  C   UNL     1      41.039  49.222  15.416 -0.45 -0.04    +0.223 A  ATOM     19  O   UNL     1      36.366  43.863  18.397 -0.19 +0.06    -0.274 OA ATOM     20  H   UNL     1      38.541  44.285  19.786 +0.10 -0.01    +0.169 HD BRANCH  12  21ATOM     21  C   UNL     1      38.173  47.425  14.287 -0.49 -0.00    +0.001 A  ATOM     22  C   UNL     1      37.302  48.372  13.714 -0.54 -0.01    +0.013 A  ATOM     23  C   UNL     1      38.097  46.095  13.835 -0.40 -0.00    +0.013 A  ATOM     24  C   UNL     1      36.367  47.998  12.747 -0.59 -0.02    +0.040 A  ATOM     25  C   UNL     1      37.155  45.717  12.874 -0.47 -0.01    +0.040 A  ATOM     26  C   UNL     1      36.300  46.672  12.339 -0.57 -0.06    +0.123 A  ATOM     27  F   UNL     1      35.404  46.312  11.411 -0.13 +0.13    -0.207 F  ENDBRANCH  12  21ENDBRANCH   1   6TORSDOF 4TERENDMDL