MODEL        5USER    Run = 5USERUSER    Estimated Free Energy of Binding    =  -7.80 kcal/mol  [=(1)+(2)+(3)-(4)]USERUSER    (1) Final Intermolecular Energy     =  -9.29 kcal/molUSER        vdW + Hbond + desolv Energy     =  -9.26 kcal/molUSER        Electrostatic Energy            =  -0.02 kcal/molUSER        Moving Ligand-Fixed Receptor    =  -9.29 kcal/molUSER        Moving Ligand-Moving Receptor   =  +0.00 kcal/molUSER    (2) Final Total Internal Energy     =  -2.67 kcal/molUSER    (3) Torsional Free Energy           =  +1.49 kcal/molUSER    (4) Unbound System's Energy         =  -2.67 kcal/molUSERUSERREMARK SMILES NC[C@@H](O)[C@H]1C(=O)Nc2ccc3ncnc(-c4ccc(F)cc4)c3c21REMARK SMILES IDX 3 1 2 2 1 3 4 6 5 8 6 9 25 10 8 11 24 12 9 13 16 14 12 15REMARK SMILES IDX 10 16 15 17 11 18 13 19 14 20 7 21 17 23 18 24 23 25 19 26REMARK SMILES IDX 22 27 20 28 21 29REMARK H PARENT 1 4 1 5 4 7 8 22USER                              x       y       z     vdW  Elec       q    TypeUSER                           _______ _______ _______ _____ _____    ______ ____ROOTATOM      1  C   UNL     1      35.345  44.415  15.951 -0.30 -0.07    +0.145 C  ENDROOTBRANCH   1   2ATOM      2  C   UNL     1      35.753  42.945  16.261 -0.44 -0.04    +0.110 C  BRANCH   2   3ATOM      3  N   UNL     1      34.581  42.103  16.500 -0.21 +0.17    -0.328 NA ATOM      4  H   UNL     1      33.917  42.183  15.713 -0.47 -0.07    +0.118 HD ATOM      5  H   UNL     1      34.846  41.109  16.548 -0.52 -0.10    +0.118 HD ENDBRANCH   2   3ENDBRANCH   1   2BRANCH   1   6ATOM      6  O   UNL     1      33.974  44.383  15.481 -0.11 +0.22    -0.391 OA ATOM      7  H   UNL     1      33.465  44.058  16.254 +0.15 -0.10    +0.211 HD ENDBRANCH   1   6BRANCH   1   8ATOM      8  C   UNL     1      35.460  45.465  17.092 -0.30 -0.08    +0.141 C  ATOM      9  C   UNL     1      34.327  45.311  18.129 -0.31 -0.12    +0.234 C  ATOM     10  C   UNL     1      36.682  45.239  17.967 -0.34 -0.00    +0.002 A  ATOM     11  N   UNL     1      34.855  44.736  19.263 -0.19 +0.09    -0.325 N  ATOM     12  C   UNL     1      38.066  45.503  17.761 -0.36 -0.01    +0.033 A  ATOM     13  C   UNL     1      36.236  44.734  19.197 -0.28 -0.01    +0.046 A  ATOM     14  C   UNL     1      38.716  46.125  16.666 -0.35 -0.02    +0.082 A  ATOM     15  C   UNL     1      38.942  45.131  18.794 -0.36 -0.01    +0.075 A  ATOM     16  C   UNL     1      37.083  44.372  20.203 -0.35 -0.00    +0.029 A  ATOM     17  N   UNL     1      40.049  46.367  16.635 -0.27 +0.03    -0.236 NA ATOM     18  C   UNL     1      38.446  44.560  19.968 -0.34 -0.00    +0.031 A  ATOM     19  N   UNL     1      40.261  45.305  18.737 -0.28 +0.01    -0.236 NA ATOM     20  C   UNL     1      40.757  45.932  17.672 -0.31 -0.01    +0.223 A  ATOM     21  O   UNL     1      33.166  45.658  17.989 -0.29 +0.15    -0.274 OA ATOM     22  H   UNL     1      34.315  44.551  20.102 -0.03 -0.04    +0.169 HD BRANCH  14  23ATOM     23  C   UNL     1      38.072  46.545  15.419 -0.40 -0.00    +0.001 A  ATOM     24  C   UNL     1      37.562  47.862  15.319 -0.47 -0.01    +0.013 A  ATOM     25  C   UNL     1      37.878  45.652  14.339 -0.40 -0.00    +0.013 A  ATOM     26  C   UNL     1      36.914  48.287  14.154 -0.50 -0.03    +0.040 A  ATOM     27  C   UNL     1      37.227  46.081  13.178 -0.48 -0.01    +0.040 A  ATOM     28  C   UNL     1      36.761  47.390  13.086 -0.52 -0.05    +0.123 A  ATOM     29  F   UNL     1      36.141  47.792  11.948 -0.25 +0.11    -0.207 F  ENDBRANCH  14  23ENDBRANCH   1   8TORSDOF 5TERENDMDL