MODEL        2USER    Run = 2USERUSER    Estimated Free Energy of Binding    =  -9.99 kcal/mol  [=(1)+(2)+(3)-(4)]USERUSER    (1) Final Intermolecular Energy     = -10.89 kcal/molUSER        vdW + Hbond + desolv Energy     = -10.78 kcal/molUSER        Electrostatic Energy            =  -0.10 kcal/molUSER        Moving Ligand-Fixed Receptor    = -10.89 kcal/molUSER        Moving Ligand-Moving Receptor   =  +0.00 kcal/molUSER    (2) Final Total Internal Energy     =  -0.56 kcal/molUSER    (3) Torsional Free Energy           =  +0.89 kcal/molUSER    (4) Unbound System's Energy         =  -0.56 kcal/molUSERUSERREMARK SMILES COc1ccc(-c2cnc3[nH]occ(-c4ccc5[nH]ncc5c4)ncc3c2)cc1REMARK SMILES IDX 7 1 8 2 9 3 10 4 11 5 12 6 13 7 14 8 24 9 25 10 26 11 27 12REMARK SMILES IDX 6 14 3 15 4 16 29 17 5 18 28 19 2 20 1 21 15 22 16 23 23 24REMARK SMILES IDX 17 25 22 26 18 27 21 28 19 29 20 30REMARK H PARENT 11 13 19 31USER                              x       y       z     vdW  Elec       q    TypeUSER                           _______ _______ _______ _____ _____    ______ ____ROOTATOM      1  C   UNL     1      32.750  41.924  17.764 -0.37 -0.00    +0.001 A  ATOM      2  C   UNL     1      31.843  42.984  17.796 -0.22 -0.03    +0.122 A  ATOM      3  N   UNL     1      32.087  44.240  17.352 -0.22 +0.06    -0.235 NA ATOM      4  C   UNL     1      33.329  44.480  16.854 -0.20 -0.08    +0.168 A  ATOM      5  N   UNL     1      33.639  45.826  16.569 -0.12 +0.23    -0.204 N  ATOM      6  O   UNL     1      34.333  46.451  17.610 -0.26 +0.42    -0.386 OA ATOM      7  C   UNL     1      35.690  46.454  17.439 -0.07 -0.20    +0.255 A  ATOM      8  C   UNL     1      36.576  45.640  16.821 -0.28 -0.05    +0.108 A  ATOM      9  N   UNL     1      36.640  44.507  16.093 -0.19 +0.09    -0.252 NA ATOM     10  C   UNL     1      35.620  43.661  15.907 -0.31 -0.05    +0.124 A  ATOM     11  C   UNL     1      34.296  43.490  16.730 -0.33 -0.02    +0.039 A  ATOM     12  C   UNL     1      33.998  42.207  17.202 -0.40 -0.01    +0.024 A  ATOM     13  H   UNL     1      32.719  46.251  16.556 -0.33 -0.28    +0.211 HD ENDROOTBRANCH   1  14ATOM     14  C   UNL     1      32.410  40.588  18.274 -0.41 +0.00    -0.017 A  ATOM     15  C   UNL     1      31.749  38.012  19.255 -0.42 +0.02    +0.118 A  ATOM     16  C   UNL     1      31.358  39.158  19.946 -0.39 +0.01    +0.047 A  ATOM     17  C   UNL     1      32.474  38.149  18.072 -0.28 +0.00    +0.047 A  ATOM     18  C   UNL     1      31.685  40.430  19.464 -0.33 +0.00    +0.012 A  ATOM     19  C   UNL     1      32.800  39.424  17.590 -0.31 -0.00    +0.012 A  BRANCH  15  20ATOM     20  O   UNL     1      31.367  36.833  19.833 -0.44 -0.16    -0.497 OA ATOM     21  C   UNL     1      30.976  36.887  21.199 -0.31 +0.03    +0.278 C  ENDBRANCH  15  20ENDBRANCH   1  14BRANCH   8  22ATOM     22  C   UNL     1      37.955  46.206  16.968 -0.38 -0.00    +0.004 A  ATOM     23  C   UNL     1      38.914  45.533  17.739 -0.40 -0.00    +0.013 A  ATOM     24  C   UNL     1      38.293  47.407  16.315 -0.38 -0.01    +0.022 A  ATOM     25  C   UNL     1      40.220  46.018  17.877 -0.45 -0.00    +0.029 A  ATOM     26  C   UNL     1      39.599  47.907  16.443 -0.46 -0.01    +0.020 A  ATOM     27  C   UNL     1      40.524  47.210  17.210 -0.47 -0.01    +0.065 A  ATOM     28  C   UNL     1      40.310  49.031  15.969 -0.44 -0.04    +0.143 A  ATOM     29  N   UNL     1      41.675  47.947  17.141 -0.20 +0.02    -0.278 N  ATOM     30  N   UNL     1      41.582  49.056  16.383 -0.96 -0.01    -0.183 NA ATOM     31  H   UNL     1      42.558  47.743  17.591 -0.43 -0.02    +0.190 HD ENDBRANCH   8  22TORSDOF 3TERENDMDL