MODEL        3USER    Run = 3USERUSER    Estimated Free Energy of Binding    = -10.25 kcal/mol  [=(1)+(2)+(3)-(4)]USERUSER    (1) Final Intermolecular Energy     = -12.04 kcal/molUSER        vdW + Hbond + desolv Energy     = -11.81 kcal/molUSER        Electrostatic Energy            =  -0.23 kcal/molUSER        Moving Ligand-Fixed Receptor    = -12.04 kcal/molUSER        Moving Ligand-Moving Receptor   =  +0.00 kcal/molUSER    (2) Final Total Internal Energy     =  -1.18 kcal/molUSER    (3) Torsional Free Energy           =  +1.79 kcal/molUSER    (4) Unbound System's Energy         =  -1.18 kcal/molUSERUSERREMARK SMILES CC(=O)N[C@H]1C[C@@H]1S(=O)(=O)Nc1cc(-c2ccncc2)cc(-c2nc(F)cs2)c1REMARK SMILES IDX 8 1 9 2 10 3 7 4 5 5 6 6 4 7 2 8 1 9 3 10 11 12 12 14 13 15REMARK SMILES IDX 29 16 14 17 22 18 21 19 15 20 16 21 20 22 17 23 19 24 18 25REMARK SMILES IDX 23 26 24 27 28 28 25 29 27 30 26 31REMARK H PARENT 4 11 11 13USER                              x       y       z     vdW  Elec       q    TypeUSER                           _______ _______ _______ _____ _____    ______ ____ROOTATOM      1  S   UNL     1      32.758  42.478  17.171 -0.33 -0.09    +0.237 S  ATOM      2  O   UNL     1      32.408  41.179  17.704 -0.32 +0.06    -0.206 OA ATOM      3  O   UNL     1      32.883  43.618  18.053 -0.22 +0.05    -0.206 OA ENDROOTBRANCH   1   4ATOM      4  C   UNL     1      31.510  42.842  15.910 -0.27 -0.08    +0.154 C  ATOM      5  C   UNL     1      31.251  44.305  15.666 -0.35 -0.05    +0.103 C  ATOM      6  C   UNL     1      30.267  43.486  16.462 -0.31 -0.02    +0.050 C  BRANCH   5   7ATOM      7  N   UNL     1      30.889  44.778  14.356 -0.18 +0.28    -0.352 N  ATOM      8  C   UNL     1      30.740  46.120  14.065 -0.46 -0.13    +0.217 C  ATOM      9  C   UNL     1      30.303  46.387  12.650 -0.60 -0.08    +0.114 C  ATOM     10  O   UNL     1      30.928  47.027  14.870 -0.86 +0.12    -0.275 OA ATOM     11  H   UNL     1      30.562  44.102  13.675 -0.31 -0.21    +0.163 HD ENDBRANCH   5   7ENDBRANCH   1   4BRANCH   1  12ATOM     12  N   UNL     1      34.254  42.269  16.382 -0.21 +0.14    -0.283 N  ATOM     13  H   UNL     1      34.647  41.390  16.728 -0.44 -0.12    +0.180 HD BRANCH  12  14ATOM     14  C   UNL     1      35.166  43.364  16.493 -0.37 -0.02    +0.050 A  ATOM     15  C   UNL     1      35.326  44.273  15.450 -0.25 -0.02    +0.035 A  ATOM     16  C   UNL     1      35.951  43.452  17.645 -0.29 -0.01    +0.038 A  ATOM     17  C   UNL     1      36.279  45.294  15.548 -0.35 +0.01    -0.016 A  ATOM     18  C   UNL     1      36.915  44.460  17.774 -0.33 -0.00    +0.013 A  ATOM     19  C   UNL     1      37.055  45.378  16.719 -0.34 -0.01    +0.020 A  BRANCH  17  20ATOM     20  C   UNL     1      36.495  46.230  14.438 -0.41 +0.01    -0.015 A  ATOM     21  C   UNL     1      36.211  45.870  13.117 -0.50 -0.01    +0.029 A  ATOM     22  C   UNL     1      37.001  47.512  14.675 -0.45 -0.02    +0.029 A  ATOM     23  C   UNL     1      36.434  46.795  12.109 -0.59 -0.05    +0.111 A  ATOM     24  C   UNL     1      37.195  48.365  13.600 -0.45 -0.05    +0.111 A  ATOM     25  N   UNL     1      36.920  48.036  12.321 -0.98 +0.06    -0.265 NA ENDBRANCH  17  20BRANCH  18  26ATOM     26  C   UNL     1      37.786  44.595  18.956 -0.28 -0.02    +0.126 A  ATOM     27  N   UNL     1      37.386  44.383  20.196 -0.26 +0.01    -0.208 NA ATOM     28  S   UNL     1      39.433  45.110  18.817 -0.51 +0.01    -0.119 S  ATOM     29  C   UNL     1      38.421  44.608  21.070 -0.22 +0.00    +0.224 A  ATOM     30  C   UNL     1      39.610  45.007  20.514 -0.28 +0.00    +0.127 A  ATOM     31  F   UNL     1      38.274  44.451  22.393 -0.09 -0.01    -0.184 F  ENDBRANCH  18  26ENDBRANCH  12  14ENDBRANCH   1  12TORSDOF 6TERENDMDL