MODEL        8USER    Run = 8USERUSER    Estimated Free Energy of Binding    = -10.19 kcal/mol  [=(1)+(2)+(3)-(4)]USERUSER    (1) Final Intermolecular Energy     = -11.08 kcal/molUSER        vdW + Hbond + desolv Energy     = -10.75 kcal/molUSER        Electrostatic Energy            =  -0.34 kcal/molUSER        Moving Ligand-Fixed Receptor    = -11.08 kcal/molUSER        Moving Ligand-Moving Receptor   =  +0.00 kcal/molUSER    (2) Final Total Internal Energy     =  -0.62 kcal/molUSER    (3) Torsional Free Energy           =  +0.89 kcal/molUSER    (4) Unbound System's Energy         =  -0.62 kcal/molUSERUSERREMARK SMILES Oc1cc(-c2cnc3[nH]occ(-c4ccc5[nH]ncc5c4)ncc3c2)ccc1FREMARK SMILES IDX 5 1 6 2 7 3 8 4 9 5 10 6 11 7 12 8 22 9 23 10 24 11 25 12REMARK SMILES IDX 4 14 2 15 3 16 28 17 27 18 26 19 29 20 1 21 13 23 14 24REMARK SMILES IDX 21 25 15 26 20 27 16 28 19 29 17 30 18 31REMARK H PARENT 9 13 1 22 17 32USER                              x       y       z     vdW  Elec       q    TypeUSER                           _______ _______ _______ _____ _____    ______ ____ROOTATOM      1  C   UNL     1      39.562  47.286  16.335 -0.49 -0.00    +0.001 A  ATOM      2  C   UNL     1      40.341  48.436  16.422 -0.42 -0.03    +0.122 A  ATOM      3  N   UNL     1      41.437  48.585  17.204 -0.78 +0.00    -0.235 NA ATOM      4  C   UNL     1      41.804  47.530  17.983 -0.34 -0.01    +0.168 A  ATOM      5  N   UNL     1      42.931  47.765  18.774 -0.46 -0.01    -0.204 N  ATOM      6  O   UNL     1      43.315  46.972  19.846 -0.30 -0.15    -0.386 OA ATOM      7  C   UNL     1      42.336  47.001  20.815 -0.13 +0.04    +0.255 A  ATOM      8  C   UNL     1      41.367  46.065  20.920 -0.26 +0.01    +0.108 A  ATOM      9  N   UNL     1      41.034  44.986  20.165 -0.22 -0.02    -0.252 NA ATOM     10  C   UNL     1      41.406  45.046  18.865 -0.26 +0.01    +0.124 A  ATOM     11  C   UNL     1      41.095  46.321  17.961 -0.47 -0.00    +0.039 A  ATOM     12  C   UNL     1      39.967  46.218  17.135 -0.45 -0.00    +0.024 A  ATOM     13  H   UNL     1      43.143  48.748  18.844 -0.36 -0.02    +0.211 HD ENDROOTBRANCH   1  14ATOM     14  C   UNL     1      38.378  47.204  15.467 -0.44 +0.01    -0.013 A  ATOM     15  C   UNL     1      37.331  47.442  13.282 -0.44 -0.05    +0.151 A  ATOM     16  C   UNL     1      38.462  47.522  14.098 -0.45 -0.02    +0.058 A  ATOM     17  C   UNL     1      36.110  47.049  13.818 -0.37 -0.11    +0.164 A  ATOM     18  C   UNL     1      36.003  46.726  15.165 -0.32 -0.04    +0.044 A  ATOM     19  C   UNL     1      37.132  46.802  15.985 -0.39 -0.01    +0.012 A  ATOM     20  F   UNL     1      35.019  46.971  13.041 -0.16 +0.16    -0.203 F  BRANCH  15  21ATOM     21  O   UNL     1      37.410  47.746  11.951 -0.80 +0.03    -0.505 OA ATOM     22  H   UNL     1      36.561  48.122  11.668 -0.06 -0.12    +0.293 HD ENDBRANCH  15  21ENDBRANCH   1  14BRANCH   8  23ATOM     23  C   UNL     1      40.538  46.203  22.143 -0.21 +0.00    +0.004 A  ATOM     24  C   UNL     1      40.884  47.138  23.129 -0.18 +0.00    +0.013 A  ATOM     25  C   UNL     1      39.393  45.401  22.304 -0.30 +0.00    +0.022 A  ATOM     26  C   UNL     1      40.112  47.310  24.283 -0.26 +0.00    +0.029 A  ATOM     27  C   UNL     1      38.606  45.562  23.457 -0.30 +0.00    +0.020 A  ATOM     28  C   UNL     1      38.978  46.503  24.410 -0.25 +0.01    +0.065 A  ATOM     29  C   UNL     1      37.430  44.979  23.978 -0.10 +0.02    +0.143 A  ATOM     30  N   UNL     1      38.031  46.410  25.393 -0.16 -0.02    -0.278 N  ATOM     31  N   UNL     1      37.067  45.499  25.156 -0.69 -0.02    -0.183 NA ATOM     32  H   UNL     1      37.987  46.944  26.251 +0.09 -0.00    +0.190 HD ENDBRANCH   8  23TORSDOF 3TERENDMDL