MODEL        6USER    Run = 6USERUSER    Estimated Free Energy of Binding    =  -8.54 kcal/mol  [=(1)+(2)+(3)-(4)]USERUSER    (1) Final Intermolecular Energy     =  -9.74 kcal/molUSER        vdW + Hbond + desolv Energy     =  -9.65 kcal/molUSER        Electrostatic Energy            =  -0.09 kcal/molUSER        Moving Ligand-Fixed Receptor    =  -9.74 kcal/molUSER        Moving Ligand-Moving Receptor   =  +0.00 kcal/molUSER    (2) Final Total Internal Energy     =  -1.48 kcal/molUSER    (3) Torsional Free Energy           =  +1.19 kcal/molUSER    (4) Unbound System's Energy         =  -1.48 kcal/molUSERUSERREMARK SMILES Cc1cc2c(c3c(-c4ccc(F)cc4)ncnc13)[C@@H](CCN)C(=O)N2REMARK SMILES IDX 20 1 19 2 2 3 3 4 18 5 4 6 17 7 6 8 5 9 25 10 16 11 7 12REMARK SMILES IDX 23 13 15 14 1 15 24 17 8 18 9 19 14 20 10 21 13 22 11 23REMARK SMILES IDX 12 24 21 25 22 26REMARK H PARENT 25 16 22 27 22 28USER                              x       y       z     vdW  Elec       q    TypeUSER                           _______ _______ _______ _____ _____    ______ ____ROOTATOM      1  C   UNL     1      41.039  46.191  17.085 -0.37 -0.00    +0.033 C  ENDROOTBRANCH   1   2ATOM      2  C   UNL     1      39.882  47.197  16.994 -0.46 -0.03    +0.113 C  ATOM      3  C   UNL     1      37.308  46.643  13.627 -0.48 +0.01    -0.023 A  ATOM      4  C   UNL     1      38.169  47.735  13.777 -0.49 -0.01    +0.032 A  ATOM      5  C   UNL     1      37.176  45.662  14.630 -0.34 -0.03    +0.078 A  ATOM      6  C   UNL     1      38.919  47.797  14.924 -0.48 -0.02    +0.046 A  ATOM      7  N   UNL     1      36.327  44.655  14.392 -0.22 +0.10    -0.236 NA ATOM      8  C   UNL     1      37.917  45.764  15.834 -0.34 -0.01    +0.033 A  ATOM      9  C   UNL     1      38.846  46.838  15.935 -0.44 +0.00    -0.000 A  ATOM     10  N   UNL     1      39.832  48.781  15.236 -0.29 +0.13    -0.325 N  ATOM     11  C   UNL     1      36.172  43.728  15.336 -0.22 -0.08    +0.223 A  ATOM     12  C   UNL     1      37.610  44.755  16.781 -0.29 -0.02    +0.082 A  ATOM     13  C   UNL     1      40.454  48.529  16.443 -0.40 -0.05    +0.232 C  ATOM     14  N   UNL     1      36.768  43.726  16.522 -0.22 +0.07    -0.236 NA ATOM     15  C   UNL     1      36.497  46.532  12.358 -0.70 -0.02    +0.047 C  ATOM     16  H   UNL     1      40.062  49.583  14.667 -0.08 -0.09    +0.169 HD ATOM     17  O   UNL     1      41.333  49.227  16.924 -0.90 +0.00    -0.274 OA BRANCH  12  18ATOM     18  C   UNL     1      38.071  44.716  18.180 -0.37 -0.00    +0.001 A  ATOM     19  C   UNL     1      39.412  44.401  18.480 -0.35 -0.00    +0.013 A  ATOM     20  C   UNL     1      37.169  44.861  19.248 -0.23 -0.00    +0.013 A  ATOM     21  C   UNL     1      39.840  44.267  19.803 -0.23 +0.00    +0.040 A  ATOM     22  C   UNL     1      37.599  44.739  20.573 -0.23 -0.00    +0.040 A  ATOM     23  C   UNL     1      38.930  44.443  20.837 -0.27 +0.00    +0.123 A  ATOM     24  F   UNL     1      39.341  44.315  22.105 -0.04 -0.01    -0.207 F  ENDBRANCH  12  18ENDBRANCH   1   2BRANCH   1  25ATOM     25  C   UNL     1      41.902  46.331  18.346 -0.45 +0.00    +0.079 C  BRANCH  25  26ATOM     26  N   UNL     1      42.622  47.588  18.444 -0.32 -0.00    -0.330 NA ATOM     27  H   UNL     1      42.952  47.881  17.526 -0.47 -0.01    +0.118 HD ATOM     28  H   UNL     1      42.017  48.339  18.794 +0.02 -0.00    +0.118 HD ENDBRANCH  25  26ENDBRANCH   1  25TORSDOF 4TERENDMDL