REMARK SMILES COc1cc(F)c(O)c(C(=O)c2ccc(C(=O)NC3CCN(C(=O)c4ccncc4)CC3)cc2)c1
REMARK SMILES IDX 12 1 13 2 14 3 15 4 33 5 34 6 10 7 11 8 9 9 3 10 4 11 35 12
REMARK SMILES IDX 5 13 7 14 6 15 2 16 1 17 8 18 16 20 18 21 17 22 19 24 20 25
REMARK SMILES IDX 32 26 21 27 31 28 22 29 23 30 24 31 25 32 26 33 30 34 27 35
REMARK SMILES IDX 29 36 28 37
REMARK H PARENT 8 19 18 23
ROOT
ATOM      1  C   UNL     1      -3.461  -0.522  -1.418  1.00  0.00     0.023 A 
ATOM      2  C   UNL     1      -2.257  -0.903  -2.030  1.00  0.00     0.013 A 
ATOM      3  C   UNL     1      -1.045  -0.306  -1.661  1.00  0.00     0.014 A 
ATOM      4  C   UNL     1      -1.025   0.676  -0.665  1.00  0.00     0.039 A 
ATOM      5  C   UNL     1      -2.231   1.076  -0.072  1.00  0.00     0.014 A 
ATOM      6  C   UNL     1      -3.442   0.486  -0.449  1.00  0.00     0.013 A 
ENDROOT
BRANCH   1   7
ATOM      7  C   UNL     1      -4.724  -1.173  -1.872  1.00  0.00     0.196 C 
ATOM      8  O   UNL     1      -4.750  -1.802  -2.929  1.00  0.00    -0.288 OA
BRANCH   7   9
ATOM      9  C   UNL     1      -5.982  -1.055  -1.102  1.00  0.00     0.071 A 
ATOM     10  C   UNL     1      -8.334  -0.427  -1.106  1.00  0.00     0.122 A 
ATOM     11  C   UNL     1      -8.425  -0.786   0.239  1.00  0.00     0.089 A 
ATOM     12  C   UNL     1      -7.112  -0.569  -1.773  1.00  0.00     0.062 A 
ATOM     13  C   UNL     1      -7.301  -1.289   0.893  1.00  0.00     0.169 A 
ATOM     14  C   UNL     1      -6.081  -1.434   0.236  1.00  0.00     0.162 A 
ATOM     15  F   UNL     1      -7.387  -1.636   2.186  1.00  0.00    -0.203 F 
BRANCH  10  16
ATOM     16  O   UNL     1      -9.346   0.072  -1.875  1.00  0.00    -0.497 OA
ATOM     17  C   UNL     1     -10.612   0.244  -1.251  1.00  0.00     0.278 C 
ENDBRANCH  10  16
BRANCH  14  18
ATOM     18  O   UNL     1      -5.011  -1.954   0.910  1.00  0.00    -0.504 OA
ATOM     19  H   UNL     1      -5.312  -2.194   1.802  1.00  0.00     0.293 HD
ENDBRANCH  14  18
ENDBRANCH   7   9
ENDBRANCH   1   7
BRANCH   4  20
ATOM     20  C   UNL     1       0.229   1.345  -0.213  1.00  0.00     0.251 C 
ATOM     21  N   UNL     1       1.420   0.687  -0.460  1.00  0.00    -0.349 N 
ATOM     22  O   UNL     1       0.169   2.413   0.383  1.00  0.00    -0.269 OA
ATOM     23  H   UNL     1       1.379  -0.289  -0.733  1.00  0.00     0.164 HD
BRANCH  21  24
ATOM     24  C   UNL     1       2.674   1.179   0.108  1.00  0.00     0.085 C 
ATOM     25  C   UNL     1       2.833   0.731   1.571  1.00  0.00     0.046 C 
ATOM     26  C   UNL     1       3.857   0.762  -0.774  1.00  0.00     0.046 C 
ATOM     27  C   UNL     1       3.810  -0.429   1.704  1.00  0.00     0.122 C 
ATOM     28  C   UNL     1       5.165   0.808   0.009  1.00  0.00     0.122 C 
ATOM     29  N   UNL     1       5.127  -0.083   1.172  1.00  0.00    -0.338 N 
ATOM     30  C   UNL     1       6.216  -0.838   1.607  1.00  0.00     0.253 C 
ATOM     31  O   UNL     1       6.095  -1.856   2.280  1.00  0.00    -0.269 OA
BRANCH  30  32
ATOM     32  C   UNL     1       7.585  -0.395   1.259  1.00  0.00     0.043 A 
ATOM     33  C   UNL     1       7.984   0.926   1.454  1.00  0.00     0.034 A 
ATOM     34  C   UNL     1       8.502  -1.341   0.804  1.00  0.00     0.034 A 
ATOM     35  C   UNL     1       9.290   1.257   1.138  1.00  0.00     0.112 A 
ATOM     36  C   UNL     1       9.783  -0.909   0.517  1.00  0.00     0.112 A 
ATOM     37  N   UNL     1      10.193   0.372   0.662  1.00  0.00    -0.265 NA
ENDBRANCH  30  32
ENDBRANCH  21  24
ENDBRANCH   4  20
TORSDOF 7
