REMARK SMILES COc1ccc(O)c(C(=O)c2ccc(C(=O)N[C@@H]3CCCN(C(=O)c4ccncc4)CC3)cc2)c1F
REMARK SMILES IDX 18 1 17 3 15 4 16 5 14 7 11 8 12 9 34 10 13 11 33 12 9 13
REMARK SMILES IDX 10 14 8 15 3 16 4 17 35 18 5 19 6 20 36 21 2 22 1 23 7 24
REMARK SMILES IDX 32 26 31 27 22 28 21 29 20 30 19 31 23 33 24 34 25 35 26 36
REMARK SMILES IDX 30 37 27 38 29 39 28 40
REMARK H PARENT 17 6 7 25
REMARK Flexibility Score:  124.900
ROOT
ATOM      1  C   UNL     1      -2.773  -2.327   0.833  1.00  0.00     0.084 CG0
ATOM      2  G   UNL     1      -3.298  -2.365  -0.610  1.00  0.00     0.000 G0
ENDROOT
BRANCH   1   3
ATOM      3  N   UNL     1      -1.310  -2.233   0.851  1.00  0.00    -0.349 N 
ATOM      4  C   UNL     1      -0.615  -1.122   0.421  1.00  0.00     0.251 C 
ATOM      5  O   UNL     1      -1.146  -0.089   0.033  1.00  0.00    -0.269 OA
ATOM      6  H   UNL     1      -0.801  -3.102   0.953  1.00  0.00     0.164 HD
BRANCH   4   7
ATOM      7  C   UNL     1       0.868  -1.237   0.414  1.00  0.00     0.039 A 
ATOM      8  C   UNL     1       3.669  -1.361   0.356  1.00  0.00     0.023 A 
ATOM      9  C   UNL     1       2.982  -0.600  -0.597  1.00  0.00     0.013 A 
ATOM     10  C   UNL     1       2.950  -2.078   1.323  1.00  0.00     0.013 A 
ATOM     11  C   UNL     1       1.587  -0.527  -0.556  1.00  0.00     0.014 A 
ATOM     12  C   UNL     1       1.554  -2.010   1.359  1.00  0.00     0.014 A 
BRANCH   8  13
ATOM     13  C   UNL     1       5.146  -1.491   0.343  1.00  0.00     0.199 C 
ATOM     14  O   UNL     1       5.650  -2.572   0.657  1.00  0.00    -0.288 OA
BRANCH  13  15
ATOM     15  C   UNL     1       6.056  -0.406  -0.083  1.00  0.00     0.104 A 
ATOM     16  C   UNL     1       6.630   1.958  -0.269  1.00  0.00     0.155 A 
ATOM     17  C   UNL     1       7.808   1.616  -0.936  1.00  0.00     0.053 A 
ATOM     18  C   UNL     1       5.768   0.938   0.161  1.00  0.00     0.179 A 
ATOM     19  C   UNL     1       8.126   0.272  -1.152  1.00  0.00     0.051 A 
ATOM     20  C   UNL     1       7.263  -0.730  -0.715  1.00  0.00     0.130 A 
ATOM     21  F   UNL     1       4.659   1.276   0.839  1.00  0.00    -0.202 F 
BRANCH  16  22
ATOM     22  O   UNL     1       6.221   3.233   0.015  1.00  0.00    -0.494 OA
ATOM     23  C   UNL     1       7.064   4.299  -0.404  1.00  0.00     0.278 C 
ENDBRANCH  16  22
BRANCH  20  24
ATOM     24  O   UNL     1       7.664  -2.020  -0.936  1.00  0.00    -0.507 OA
ATOM     25  H   UNL     1       7.098  -2.609  -0.384  1.00  0.00     0.293 HD
ENDBRANCH  20  24
ENDBRANCH  13  15
ENDBRANCH   8  13
ENDBRANCH   4   7
ENDBRANCH   1   3
BRANCH   1  26
ATOM     26  C   UNL     1      -3.423  -1.288   1.773  1.00  0.00     0.046 C 
BRANCH  26  27
ATOM     27  C   UNL     1      -4.210  -0.163   1.093  1.00  0.00     0.122 C 
BRANCH  27  28
ATOM     28  N   UNL     1      -5.401  -0.566   0.327  1.00  0.00    -0.339 N 
BRANCH  28  29
ATOM     29  C   UNL     1      -5.718  -1.984   0.210  1.00  0.00     0.120 C 
BRANCH  29  30
ATOM     30  C   UNL     1      -4.780  -2.721  -0.744  1.00  0.00     0.024 C 
BRANCH  30  31
ATOM     31  C   UNL     1      -3.298  -2.365  -0.610  1.00  0.00     0.027 CG0
ATOM     32  G   UNL     1      -2.773  -2.327   0.833  1.00  0.00     0.000 G0
ENDBRANCH  30  31
ENDBRANCH  29  30
ENDBRANCH  28  29
BRANCH  28  33
ATOM     33  C   UNL     1      -6.036   0.305  -0.567  1.00  0.00     0.253 C 
ATOM     34  O   UNL     1      -6.835  -0.057  -1.427  1.00  0.00    -0.269 OA
BRANCH  33  35
ATOM     35  C   UNL     1      -5.731   1.746  -0.491  1.00  0.00     0.043 A 
ATOM     36  C   UNL     1      -5.137   2.366  -1.587  1.00  0.00     0.034 A 
ATOM     37  C   UNL     1      -6.085   2.483   0.636  1.00  0.00     0.034 A 
ATOM     38  C   UNL     1      -4.884   3.720  -1.490  1.00  0.00     0.112 A 
ATOM     39  C   UNL     1      -5.791   3.833   0.630  1.00  0.00     0.112 A 
ATOM     40  N   UNL     1      -5.192   4.465  -0.404  1.00  0.00    -0.265 NA
ENDBRANCH  33  35
ENDBRANCH  28  33
ENDBRANCH  27  28
ENDBRANCH  26  27
ENDBRANCH   1  26
TORSDOF 8
