REMARK SMILES CSc1nc2c([nH]1)CN(C(=O)[C@@H](Cc1ccc(F)cc1)NC(=O)c1ccncc1)C[C@@H]2O
REMARK SMILES IDX 10 1 11 2 9 3 3 4 4 5 7 6 5 7 6 8 31 9 8 10 30 11 2 13 1 14
REMARK SMILES IDX 32 15 12 17 13 18 14 19 15 20 20 21 16 22 19 23 17 24 18 25
REMARK SMILES IDX 21 26 22 27 23 29 24 30 25 31 29 32 26 33 28 34 27 35
REMARK H PARENT 7 12 32 16 21 28
ROOT
ATOM      1  C   UNL     1       0.177  -0.923  -0.808  1.00  0.00     0.245 C 
ATOM      2  O   UNL     1      -0.524  -0.926  -1.830  1.00  0.00    -0.272 OA
ENDROOT
BRANCH   1   3
ATOM      3  N   UNL     1       1.548  -0.716  -0.876  1.00  0.00    -0.332 N 
ATOM      4  C   UNL     1       5.420   1.259   0.331  1.00  0.00     0.165 A 
ATOM      5  N   UNL     1       5.050   1.495  -0.909  1.00  0.00    -0.225 NA
ATOM      6  N   UNL     1       4.588   0.367   0.961  1.00  0.00    -0.335 N 
ATOM      7  C   UNL     1       3.957   0.680  -1.105  1.00  0.00     0.095 A 
ATOM      8  C   UNL     1       3.627  -0.000   0.051  1.00  0.00     0.061 A 
ATOM      9  C   UNL     1       3.159   0.568  -2.364  1.00  0.00     0.184 C 
ATOM     10  C   UNL     1       2.483  -0.924   0.248  1.00  0.00     0.175 C 
ATOM     11  C   UNL     1       2.168  -0.625  -2.222  1.00  0.00     0.158 C 
ATOM     12  H   UNL     1       4.690   0.065   1.920  1.00  0.00     0.168 HD
BRANCH   4  13
ATOM     13  S   UNL     1       6.743   1.954   1.188  1.00  0.00    -0.092 SA
ATOM     14  C   UNL     1       7.265   3.204  -0.004  1.00  0.00     0.094 C 
ENDBRANCH   4  13
BRANCH   9  15
ATOM     15  O   UNL     1       3.989   0.344  -3.500  1.00  0.00    -0.385 OA
ATOM     16  H   UNL     1       4.081   1.214  -3.949  1.00  0.00     0.211 HD
ENDBRANCH   9  15
ENDBRANCH   1   3
BRANCH   1  17
ATOM     17  C   UNL     1      -0.498  -1.114   0.568  1.00  0.00     0.176 C 
BRANCH  17  18
ATOM     18  C   UNL     1      -0.579   0.200   1.376  1.00  0.00     0.070 C 
BRANCH  18  19
ATOM     19  C   UNL     1      -1.549   1.234   0.843  1.00  0.00    -0.045 A 
ATOM     20  C   UNL     1      -2.838   1.340   1.398  1.00  0.00     0.007 A 
ATOM     21  C   UNL     1      -1.173   2.102  -0.197  1.00  0.00     0.007 A 
ATOM     22  C   UNL     1      -3.736   2.290   0.913  1.00  0.00     0.039 A 
ATOM     23  C   UNL     1      -2.075   3.051  -0.679  1.00  0.00     0.039 A 
ATOM     24  C   UNL     1      -3.347   3.138  -0.121  1.00  0.00     0.123 A 
ATOM     25  F   UNL     1      -4.210   4.053  -0.583  1.00  0.00    -0.207 F 
ENDBRANCH  18  19
ENDBRANCH  17  18
BRANCH  17  26
ATOM     26  N   UNL     1      -1.819  -1.695   0.311  1.00  0.00    -0.340 N 
ATOM     27  C   UNL     1      -2.608  -2.220   1.300  1.00  0.00     0.252 C 
ATOM     28  H   UNL     1      -2.158  -1.577  -0.644  1.00  0.00     0.164 HD
ATOM     29  O   UNL     1      -2.220  -2.377   2.455  1.00  0.00    -0.269 OA
BRANCH  27  30
ATOM     30  C   UNL     1      -3.987  -2.615   0.908  1.00  0.00     0.042 A 
ATOM     31  C   UNL     1      -4.663  -2.004  -0.152  1.00  0.00     0.034 A 
ATOM     32  C   UNL     1      -4.621  -3.612   1.653  1.00  0.00     0.034 A 
ATOM     33  C   UNL     1      -5.943  -2.443  -0.435  1.00  0.00     0.112 A 
ATOM     34  C   UNL     1      -5.901  -3.981   1.287  1.00  0.00     0.112 A 
ATOM     35  N   UNL     1      -6.574  -3.418   0.259  1.00  0.00    -0.265 NA
ENDBRANCH  27  30
ENDBRANCH  17  26
ENDBRANCH   1  17
TORSDOF 8
