MODEL        4USER    Run = 4USERUSER    Estimated Free Energy of Binding    =  -9.29 kcal/mol  [=(1)+(2)+(3)-(4)]USERUSER    (1) Final Intermolecular Energy     = -11.67 kcal/molUSER        vdW + Hbond + desolv Energy     = -11.52 kcal/molUSER        Electrostatic Energy            =  -0.15 kcal/molUSER        Moving Ligand-Fixed Receptor    = -11.67 kcal/molUSER        Moving Ligand-Moving Receptor   =  +0.00 kcal/molUSER    (2) Final Total Internal Energy     =  -0.69 kcal/molUSER    (3) Torsional Free Energy           =  +2.39 kcal/molUSER    (4) Unbound System's Energy         =  -0.69 kcal/molUSERUSERREMARK SMILES NCCCNC(=O)c1cccc(-c2nnc(-c3ccc(F)cc3)nc2N)c1REMARK SMILES IDX 5 1 6 2 7 3 4 5 3 6 2 7 1 8 8 11 9 12 27 13 10 14 12 15REMARK SMILES IDX 11 16 13 17 14 18 25 19 15 20 24 21 16 22 26 23 17 26 18 27REMARK SMILES IDX 23 28 19 29 22 30 20 31 21 32REMARK H PARENT 5 4 1 9 1 10 26 24 26 25USER                              x       y       z     vdW  Elec       q    TypeUSER                           _______ _______ _______ _____ _____    ______ ____ROOTATOM      1  N   UNL     1      41.157  49.960  14.023 -0.27 +0.11    -0.352 N  ATOM      2  C   UNL     1      40.797  49.259  15.158 -0.49 -0.06    +0.251 C  ATOM      3  O   UNL     1      41.458  49.259  16.189 -1.06 -0.00    -0.269 OA ATOM      4  H   UNL     1      40.756  49.660  13.144 +0.11 -0.05    +0.163 HD ENDROOTBRANCH   1   5ATOM      5  C   UNL     1      42.419  50.671  13.975 -0.60 -0.03    +0.117 C  BRANCH   5   6ATOM      6  C   UNL     1      43.211  50.362  12.708 -0.62 -0.01    +0.036 C  BRANCH   6   7ATOM      7  C   UNL     1      43.570  51.628  11.932 -0.46 -0.04    +0.079 C  BRANCH   7   8ATOM      8  N   UNL     1      42.958  51.625  10.606 -0.32 +0.18    -0.330 NA ATOM      9  H   UNL     1      41.963  51.831  10.680 -0.31 -0.09    +0.118 HD ATOM     10  H   UNL     1      43.023  50.692  10.200 -0.53 -0.07    +0.118 HD ENDBRANCH   7   8ENDBRANCH   6   7ENDBRANCH   5   6ENDBRANCH   1   5BRANCH   2  11ATOM     11  C   UNL     1      39.556  48.439  15.062 -0.52 -0.01    +0.040 A  ATOM     12  C   UNL     1      38.739  48.468  13.927 -0.39 -0.01    +0.014 A  ATOM     13  C   UNL     1      39.196  47.640  16.158 -0.46 -0.01    +0.024 A  ATOM     14  C   UNL     1      37.585  47.686  13.884 -0.54 -0.00    +0.002 A  ATOM     15  C   UNL     1      38.042  46.833  16.129 -0.40 -0.00    +0.007 A  ATOM     16  C   UNL     1      37.245  46.879  14.972 -0.41 -0.01    +0.010 A  BRANCH  15  17ATOM     17  C   UNL     1      37.682  46.000  17.290 -0.27 -0.05    +0.135 A  ATOM     18  N   UNL     1      38.719  45.465  17.970 -0.31 +0.02    -0.144 NA ATOM     19  C   UNL     1      36.380  45.722  17.719 -0.22 -0.07    +0.154 A  ATOM     20  N   UNL     1      38.471  44.697  19.069 -0.31 +0.01    -0.129 NA ATOM     21  N   UNL     1      36.122  44.974  18.808 -0.21 +0.05    -0.207 NA ATOM     22  C   UNL     1      37.195  44.482  19.460 -0.22 -0.02    +0.183 A  BRANCH  19  23ATOM     23  N   UNL     1      35.236  46.203  17.068 -0.13 +0.34    -0.382 N  ATOM     24  H   UNL     1      35.153  47.210  17.156 -0.06 -0.24    +0.158 HD ATOM     25  H   UNL     1      35.290  45.908  16.096 +0.11 -0.14    +0.158 HD ENDBRANCH  19  23BRANCH  22  26ATOM     26  C   UNL     1      36.965  43.655  20.662 -0.39 -0.00    +0.021 A  ATOM     27  C   UNL     1      36.389  42.370  20.573 -0.46 -0.00    +0.015 A  ATOM     28  C   UNL     1      37.315  44.116  21.949 -0.38 +0.00    +0.015 A  ATOM     29  C   UNL     1      36.171  41.586  21.711 -0.53 +0.00    +0.040 A  ATOM     30  C   UNL     1      37.098  43.335  23.089 -0.34 +0.00    +0.040 A  ATOM     31  C   UNL     1      36.528  42.078  22.958 -0.38 +0.01    +0.123 A  ATOM     32  F   UNL     1      36.320  41.328  24.050 -0.13 +0.02    -0.207 F  ENDBRANCH  22  26ENDBRANCH  15  17ENDBRANCH   2  11TORSDOF 8TERENDMDL