REMARK SMILES CSc1ncc2c(n1)CN(C(=O)[C@@H](Cc1ccc(C(C)(C)C)cc1)NC(=O)c1ccncc1)C[C@H]2O
REMARK SMILES IDX 13 1 11 2 12 3 10 4 3 5 4 6 8 7 5 8 7 9 6 10 9 11 35 12
REMARK SMILES IDX 34 13 2 14 1 15 36 16 14 18 15 19 16 20 24 21 17 22 23 23
REMARK SMILES IDX 18 24 19 25 20 26 21 27 22 28 25 29 26 30 27 32 28 33 29 34
REMARK SMILES IDX 33 35 30 36 32 37 31 38
REMARK H PARENT 36 17 25 31
ROOT
ATOM      1  C   UNL     1       0.249  -1.183  -1.328  1.00  0.00     0.176 C 
ENDROOT
BRANCH   1   2
ATOM      2  C   UNL     1       1.688  -1.735  -1.568  1.00  0.00     0.245 C 
ATOM      3  O   UNL     1       1.905  -2.949  -1.474  1.00  0.00    -0.272 OA
BRANCH   2   4
ATOM      4  N   UNL     1       2.704  -0.884  -1.978  1.00  0.00    -0.332 N 
ATOM      5  C   UNL     1       7.344  -0.375  -0.883  1.00  0.00     0.187 A 
ATOM      6  N   UNL     1       7.144   0.815  -0.295  1.00  0.00    -0.231 NA
ATOM      7  N   UNL     1       6.383  -1.107  -1.470  1.00  0.00    -0.225 NA
ATOM      8  C   UNL     1       5.887   1.290  -0.310  1.00  0.00     0.122 A 
ATOM      9  C   UNL     1       5.130  -0.606  -1.466  1.00  0.00     0.070 A 
ATOM     10  C   UNL     1       4.831   0.626  -0.894  1.00  0.00     0.024 A 
ATOM     11  C   UNL     1       4.056  -1.424  -2.171  1.00  0.00     0.176 C 
ATOM     12  C   UNL     1       3.435   1.182  -0.894  1.00  0.00     0.167 C 
ATOM     13  C   UNL     1       2.633   0.578  -2.064  1.00  0.00     0.156 C 
BRANCH   5  14
ATOM     14  S   UNL     1       8.993  -1.020  -0.956  1.00  0.00    -0.090 SA
ATOM     15  C   UNL     1       9.582  -0.498   0.673  1.00  0.00     0.094 C 
ENDBRANCH   5  14
BRANCH  12  16
ATOM     16  O   UNL     1       2.799   0.870   0.356  1.00  0.00    -0.386 OA
ATOM     17  H   UNL     1       3.374   0.247   0.839  1.00  0.00     0.211 HD
ENDBRANCH  12  16
ENDBRANCH   2   4
ENDBRANCH   1   2
BRANCH   1  18
ATOM     18  C   UNL     1      -0.661  -2.334  -0.825  1.00  0.00     0.070 C 
BRANCH  18  19
ATOM     19  C   UNL     1      -2.068  -1.922  -0.455  1.00  0.00    -0.045 A 
ATOM     20  C   UNL     1      -2.980  -1.526  -1.432  1.00  0.00     0.004 A 
ATOM     21  C   UNL     1      -2.472  -1.900   0.884  1.00  0.00     0.004 A 
ATOM     22  C   UNL     1      -4.263  -1.098  -1.074  1.00  0.00     0.004 A 
ATOM     23  C   UNL     1      -3.755  -1.468   1.240  1.00  0.00     0.004 A 
ATOM     24  C   UNL     1      -4.678  -1.046   0.271  1.00  0.00    -0.043 A 
BRANCH  24  25
ATOM     25  C   UNL     1      -6.087  -0.544   0.627  1.00  0.00    -0.013 C 
ATOM     26  C   UNL     1      -6.348  -0.443   2.148  1.00  0.00     0.016 C 
ATOM     27  C   UNL     1      -7.139  -1.508   0.040  1.00  0.00     0.016 C 
ATOM     28  C   UNL     1      -6.307   0.867   0.036  1.00  0.00     0.016 C 
ENDBRANCH  24  25
ENDBRANCH  18  19
ENDBRANCH   1  18
BRANCH   1  29
ATOM     29  N   UNL     1       0.213  -0.053  -0.394  1.00  0.00    -0.340 N 
ATOM     30  C   UNL     1      -0.554   1.065  -0.647  1.00  0.00     0.252 C 
ATOM     31  H   UNL     1       0.884  -0.037   0.365  1.00  0.00     0.164 HD
ATOM     32  O   UNL     1      -1.125   1.256  -1.717  1.00  0.00    -0.269 OA
BRANCH  30  33
ATOM     33  C   UNL     1      -0.613   2.102   0.416  1.00  0.00     0.042 A 
ATOM     34  C   UNL     1      -0.386   1.805   1.760  1.00  0.00     0.034 A 
ATOM     35  C   UNL     1      -0.947   3.405   0.047  1.00  0.00     0.034 A 
ATOM     36  C   UNL     1      -0.481   2.838   2.676  1.00  0.00     0.112 A 
ATOM     37  C   UNL     1      -1.020   4.366   1.038  1.00  0.00     0.112 A 
ATOM     38  N   UNL     1      -0.789   4.112   2.343  1.00  0.00    -0.265 NA
ENDBRANCH  30  33
ENDBRANCH   1  29
TORSDOF 9
