MODEL        6USER    Run = 6USERUSER    Estimated Free Energy of Binding    =  -9.74 kcal/mol  [=(1)+(2)+(3)-(4)]USERUSER    (1) Final Intermolecular Energy     = -12.12 kcal/molUSER        vdW + Hbond + desolv Energy     = -11.98 kcal/molUSER        Electrostatic Energy            =  -0.14 kcal/molUSER        Moving Ligand-Fixed Receptor    = -12.12 kcal/molUSER        Moving Ligand-Moving Receptor   =  +0.00 kcal/molUSER    (2) Final Total Internal Energy     =  -1.71 kcal/molUSER    (3) Torsional Free Energy           =  +2.39 kcal/molUSER    (4) Unbound System's Energy         =  -1.71 kcal/molUSERUSERREMARK SMILES CSc1nc2c([nH]1)CN(C(=O)[C@@H](Cc1ccc(F)cc1)NC(=O)c1ccncc1)C[C@@H]2OREMARK SMILES IDX 10 1 11 2 9 3 3 4 4 5 7 6 5 7 6 8 31 9 8 10 30 11 2 13 1 14REMARK SMILES IDX 32 15 12 17 13 18 14 19 15 20 20 21 16 22 19 23 17 24 18 25REMARK SMILES IDX 21 26 22 27 23 29 24 30 25 31 29 32 26 33 28 34 27 35REMARK H PARENT 7 12 32 16 21 28USER                              x       y       z     vdW  Elec       q    TypeUSER                           _______ _______ _______ _____ _____    ______ ____ROOTATOM      1  C   UNL     1      38.416  44.609  18.055 -0.25 -0.04    +0.245 C  ATOM      2  O   UNL     1      38.930  43.665  18.672 -0.07 +0.02    -0.272 OA ENDROOTBRANCH   1   3ATOM      3  N   UNL     1      39.044  45.844  17.976 -0.21 +0.06    -0.332 N  ATOM      4  C   UNL     1      41.005  49.269  15.791 -0.49 -0.03    +0.165 A  ATOM      5  N   UNL     1      41.803  48.613  16.605 -0.66 -0.03    -0.225 NA ATOM      6  N   UNL     1      39.708  48.826  15.865 -0.27 +0.14    -0.335 N  ATOM      7  C   UNL     1      40.973  47.738  17.272 -0.45 -0.01    +0.095 A  ATOM      8  C   UNL     1      39.677  47.824  16.803 -0.37 -0.02    +0.061 A  ATOM      9  C   UNL     1      41.390  46.758  18.321 -0.45 -0.01    +0.184 C  ATOM     10  C   UNL     1      38.516  47.007  17.234 -0.20 -0.07    +0.175 C  ATOM     11  C   UNL     1      40.113  46.141  18.963 -0.37 -0.01    +0.158 C  ATOM     12  H   UNL     1      38.945  49.189  15.310 -0.05 -0.11    +0.168 HD BRANCH   4  13ATOM     13  S   UNL     1      41.425  50.523  14.686 -0.67 +0.03    -0.092 SA ATOM     14  C   UNL     1      42.500  49.605  13.565 -0.57 -0.01    +0.094 C  ENDBRANCH   4  13BRANCH   9  15ATOM     15  O   UNL     1      42.168  47.374  19.343 -0.32 -0.02    -0.385 OA ATOM     16  H   UNL     1      42.515  48.210  18.959 +0.02 -0.00    +0.211 HD ENDBRANCH   9  15ENDBRANCH   1   3BRANCH   1  17ATOM     17  C   UNL     1      37.070  44.390  17.329 -0.28 -0.05    +0.176 C  BRANCH  17  18ATOM     18  C   UNL     1      35.873  44.974  18.111 -0.35 -0.02    +0.070 C  BRANCH  18  19ATOM     19  C   UNL     1      34.763  43.994  18.430 -0.30 +0.01    -0.045 A  ATOM     20  C   UNL     1      33.662  44.407  19.203 -0.42 -0.00    +0.007 A  ATOM     21  C   UNL     1      34.813  42.673  17.952 -0.38 -0.00    +0.007 A  ATOM     22  C   UNL     1      32.636  43.511  19.500 -0.41 -0.00    +0.039 A  ATOM     23  C   UNL     1      33.784  41.779  18.252 -0.39 -0.01    +0.039 A  ATOM     24  C   UNL     1      32.705  42.205  19.021 -0.30 -0.01    +0.123 A  ATOM     25  F   UNL     1      31.716  41.346  19.304 -0.07 -0.00    -0.207 F  ENDBRANCH  18  19ENDBRANCH  17  18BRANCH  17  26ATOM     26  N   UNL     1      37.211  44.984  15.996 -0.12 +0.12    -0.340 N  ATOM     27  C   UNL     1      36.140  45.275  15.193 -0.24 -0.13    +0.252 C  ATOM     28  H   UNL     1      38.160  45.270  15.755 +0.11 -0.05    +0.164 HD ATOM     29  O   UNL     1      34.990  44.936  15.460 -0.22 +0.16    -0.269 OA BRANCH  27  30ATOM     30  C   UNL     1      36.433  46.029  13.945 -0.42 -0.02    +0.042 A  ATOM     31  C   UNL     1      36.670  45.386  12.727 -0.50 -0.01    +0.034 A  ATOM     32  C   UNL     1      36.498  47.422  14.019 -0.47 -0.02    +0.034 A  ATOM     33  C   UNL     1      36.935  46.178  11.625 -0.50 -0.04    +0.112 A  ATOM     34  C   UNL     1      36.767  48.122  12.859 -0.45 -0.04    +0.112 A  ATOM     35  N   UNL     1      36.986  47.529  11.665 -0.88 +0.08    -0.265 NA ENDBRANCH  27  30ENDBRANCH  17  26ENDBRANCH   1  17TORSDOF 8TERENDMDL