MODEL        4USER    Run = 4USERUSER    Estimated Free Energy of Binding    =  -7.54 kcal/mol  [=(1)+(2)+(3)-(4)]USERUSER    (1) Final Intermolecular Energy     = -11.72 kcal/molUSER        vdW + Hbond + desolv Energy     = -11.55 kcal/molUSER        Electrostatic Energy            =  -0.41 kcal/molUSER        Moving Ligand-Fixed Receptor    = -11.96 kcal/molUSER        Moving Ligand-Moving Receptor   =  +0.24 kcal/molUSER    (2) Final Total Internal Energy     =  -1.62 kcal/molUSER    (3) Torsional Free Energy           =  +4.18 kcal/molUSER    (4) Unbound System's Energy         =  -1.62 kcal/molUSERUSERREMARK SMILES COc1ccc(O)c(C(=O)c2ccc(C(=O)N[C@@H]3CCCN(C(=O)c4ccncc4)CC3)cc2)c1FREMARK SMILES IDX 18 1 17 3 15 4 16 5 14 7 11 8 12 9 34 10 13 11 33 12 9 13REMARK SMILES IDX 10 14 8 15 3 16 4 17 35 18 5 19 6 20 36 21 2 22 1 23 7 24REMARK SMILES IDX 32 26 31 27 22 28 21 29 20 30 19 31 23 33 24 34 25 35 26 36REMARK SMILES IDX 30 37 27 38 29 39 28 40REMARK H PARENT 17 6 7 25REMARK Flexibility Score:  124.900USER                              x       y       z     vdW  Elec       q    TypeUSER                           _______ _______ _______ _____ _____    ______ ____ROOTATOM      1  C   UNL     1      32.919  43.460  17.511 -0.31 -0.03    +0.084 CG0ATOM      2  G   UNL     1      33.240  44.478  18.617 +0.00 +0.00    +0.000 G0 ENDROOTBRANCH   1   3ATOM      3  N   UNL     1      31.852  42.550  17.938 -0.09 +0.07    -0.349 N  ATOM      4  C   UNL     1      32.048  41.204  18.167 -0.27 -0.04    +0.251 C  ATOM      5  O   UNL     1      33.135  40.647  18.090 -0.34 +0.06    -0.269 OA ATOM      6  H   UNL     1      30.901  42.879  17.820 +0.10 -0.03    +0.164 HD BRANCH   4   7ATOM      7  C   UNL     1      30.833  40.410  18.495 -0.28 -0.00    +0.039 A  ATOM      8  C   UNL     1      28.528  38.900  19.013 -0.28 +0.00    +0.023 A  ATOM      9  C   UNL     1      28.641  39.616  17.816 -0.27 +0.00    +0.013 A  ATOM     10  C   UNL     1      29.560  38.960  19.960 -0.26 +0.00    +0.013 A  ATOM     11  C   UNL     1      29.798  40.355  17.553 -0.32 -0.00    +0.014 A  ATOM     12  C   UNL     1      30.714  39.705  19.699 -0.21 +0.00    +0.014 A  BRANCH   8  13ATOM     13  C   UNL     1      27.313  38.120  19.350 -0.13 +0.00    +0.199 C  ATOM     14  O   UNL     1      27.386  36.889  19.381 -0.06 -0.01    -0.288 OA BRANCH  13  15ATOM     15  C   UNL     1      26.020  38.740  19.711 -0.22 -0.04    +0.104 A  ATOM     16  C   UNL     1      24.678  40.254  21.076 -0.30 -0.05    +0.155 A  ATOM     17  C   UNL     1      23.535  39.869  20.372 -0.28 -0.02    +0.053 A  ATOM     18  C   UNL     1      25.915  39.690  20.729 -0.22 -0.05    +0.179 A  ATOM     19  C   UNL     1      23.634  38.948  19.325 -0.34 -0.03    +0.051 A  ATOM     20  C   UNL     1      24.869  38.401  18.989 -0.22 -0.09    +0.130 A  ATOM     21  F   UNL     1      27.015  40.098  21.384 +0.10 +0.02    -0.202 F  BRANCH  16  22ATOM     22  O   UNL     1      24.710  41.156  22.105 -0.63 +0.07    -0.494 OA ATOM     23  C   UNL     1      24.891  42.526  21.768 -0.40 -0.08    +0.278 C  ENDBRANCH  16  22BRANCH  20  24ATOM     24  O   UNL     1      24.885  37.533  17.931 -0.40 +0.17    -0.507 OA ATOM     25  H   UNL     1      25.168  36.651  18.270 -0.26 -0.22    +0.293 HD ENDBRANCH  20  24ENDBRANCH  13  15ENDBRANCH   8  13ENDBRANCH   4   7ENDBRANCH   1   3BRANCH   1  26ATOM     26  C   UNL     1      32.648  44.037  16.105 -0.36 -0.02    +0.046 C  BRANCH  26  27ATOM     27  C   UNL     1      33.661  45.066  15.592 -0.29 -0.09    +0.122 C  BRANCH  27  28ATOM     28  N   UNL     1      35.066  44.853  15.977 -0.10 +0.20    -0.339 N  BRANCH  28  29ATOM     29  C   UNL     1      35.444  45.005  17.377 -0.30 -0.06    +0.120 C  BRANCH  29  30ATOM     30  C   UNL     1      34.298  45.519  18.245 -0.49 -0.01    +0.024 C  BRANCH  30  31ATOM     31  C   UNL     1      33.240  44.479  18.617 -0.44 -0.01    +0.027 CG0ATOM     32  G   UNL     1      32.922  43.460  17.512 +0.00 +0.00    +0.000 G0 ENDBRANCH  30  31ENDBRANCH  29  30ENDBRANCH  28  29BRANCH  28  33ATOM     33  C   UNL     1      36.101  44.851  15.034 -0.24 -0.12    +0.253 C  ATOM     34  O   UNL     1      36.863  43.905  14.853 -0.22 +0.09    -0.269 OA BRANCH  33  35ATOM     35  C   UNL     1      36.307  46.054  14.205 -0.40 -0.02    +0.043 A  ATOM     36  C   UNL     1      36.730  47.229  14.820 -0.40 -0.02    +0.034 A  ATOM     37  C   UNL     1      36.136  45.996  12.824 -0.53 -0.02    +0.034 A  ATOM     38  C   UNL     1      36.933  48.330  14.012 -0.45 -0.07    +0.112 A  ATOM     39  C   UNL     1      36.369  47.154  12.107 -0.58 -0.05    +0.112 A  ATOM     40  N   UNL     1      36.756  48.320  12.671 -0.85 +0.08    -0.265 NA ENDBRANCH  33  35ENDBRANCH  28  33ENDBRANCH  27  28ENDBRANCH  26  27ENDBRANCH   1  26TORSDOF 8TERENDMDL