MODEL        6USER    Run = 6USERUSER    Estimated Free Energy of Binding    =  -8.81 kcal/mol  [=(1)+(2)+(3)-(4)]USERUSER    (1) Final Intermolecular Energy     = -10.90 kcal/molUSER        vdW + Hbond + desolv Energy     = -10.79 kcal/molUSER        Electrostatic Energy            =  -0.10 kcal/molUSER        Moving Ligand-Fixed Receptor    = -10.90 kcal/molUSER        Moving Ligand-Moving Receptor   =  +0.00 kcal/molUSER    (2) Final Total Internal Energy     =  -0.74 kcal/molUSER    (3) Torsional Free Energy           =  +2.09 kcal/molUSER    (4) Unbound System's Energy         =  -0.74 kcal/molUSERUSERREMARK SMILES NCCCNC(=O)c1cccc(-c2ccc(-c3ccc(F)cc3)nn2)c1REMARK SMILES IDX 5 1 6 2 7 3 4 5 3 6 2 7 1 8 8 11 9 12 26 13 10 14 12 15REMARK SMILES IDX 11 16 13 17 14 18 25 19 15 20 24 21 16 22 17 23 18 24 23 25REMARK SMILES IDX 19 26 22 27 20 28 21 29REMARK H PARENT 5 4 1 9 1 10USER                              x       y       z     vdW  Elec       q    TypeUSER                           _______ _______ _______ _____ _____    ______ ____ROOTATOM      1  N   UNL     1      39.360  47.293  16.740 -0.21 +0.11    -0.352 N  ATOM      2  C   UNL     1      39.438  46.075  17.389 -0.32 -0.04    +0.251 C  ATOM      3  O   UNL     1      40.489  45.483  17.602 -0.29 +0.01    -0.269 OA ATOM      4  H   UNL     1      38.521  47.840  16.891 +0.10 -0.09    +0.163 HD ENDROOTBRANCH   1   5ATOM      5  C   UNL     1      40.573  48.009  16.392 -0.53 -0.02    +0.117 C  BRANCH   5   6ATOM      6  C   UNL     1      40.482  48.599  14.989 -0.64 -0.01    +0.036 C  BRANCH   6   7ATOM      7  C   UNL     1      41.375  49.825  14.793 -0.69 -0.02    +0.079 C  BRANCH   7   8ATOM      8  N   UNL     1      41.803  50.438  16.044 -0.64 +0.02    -0.330 NA ATOM      9  H   UNL     1      41.028  50.946  16.469 -0.45 -0.05    +0.118 HD ATOM     10  H   UNL     1      42.535  51.126  15.875 -0.39 -0.00    +0.118 HD ENDBRANCH   7   8ENDBRANCH   6   7ENDBRANCH   5   6ENDBRANCH   1   5BRANCH   2  11ATOM     11  C   UNL     1      38.148  45.508  17.867 -0.36 -0.01    +0.040 A  ATOM     12  C   UNL     1      36.991  45.565  17.084 -0.34 -0.01    +0.014 A  ATOM     13  C   UNL     1      38.113  44.879  19.119 -0.35 -0.00    +0.024 A  ATOM     14  C   UNL     1      35.804  45.015  17.563 -0.33 -0.00    +0.002 A  ATOM     15  C   UNL     1      36.927  44.313  19.622 -0.38 -0.00    +0.003 A  ATOM     16  C   UNL     1      35.773  44.400  18.818 -0.35 -0.00    +0.010 A  BRANCH  15  17ATOM     17  C   UNL     1      36.906  43.665  20.944 -0.35 +0.00    +0.093 A  ATOM     18  C   UNL     1      36.499  42.355  21.154 -0.47 +0.00    +0.033 A  ATOM     19  N   UNL     1      37.317  44.414  21.987 -0.30 -0.01    -0.150 NA ATOM     20  C   UNL     1      36.515  41.830  22.449 -0.51 +0.00    +0.033 A  ATOM     21  N   UNL     1      37.331  43.896  23.268 -0.27 -0.02    -0.150 NA ATOM     22  C   UNL     1      36.933  42.626  23.506 -0.36 +0.01    +0.093 A  BRANCH  22  23ATOM     23  C   UNL     1      36.993  42.171  24.909 -0.41 -0.00    +0.002 A  ATOM     24  C   UNL     1      35.839  41.789  25.623 -0.34 -0.00    +0.013 A  ATOM     25  C   UNL     1      38.226  42.113  25.593 -0.25 -0.00    +0.013 A  ATOM     26  C   UNL     1      35.915  41.359  26.952 -0.55 -0.01    +0.040 A  ATOM     27  C   UNL     1      38.305  41.683  26.921 -0.36 -0.00    +0.040 A  ATOM     28  C   UNL     1      37.148  41.307  27.587 -0.42 -0.03    +0.123 A  ATOM     29  F   UNL     1      37.219  40.896  28.859 -0.04 +0.08    -0.207 F  ENDBRANCH  22  23ENDBRANCH  15  17ENDBRANCH   2  11TORSDOF 7TERENDMDL