MODEL        8USER    Run = 8USERUSER    Estimated Free Energy of Binding    =  -7.26 kcal/mol  [=(1)+(2)+(3)-(4)]USERUSER    (1) Final Intermolecular Energy     = -11.44 kcal/molUSER        vdW + Hbond + desolv Energy     = -11.87 kcal/molUSER        Electrostatic Energy            =  -0.12 kcal/molUSER        Moving Ligand-Fixed Receptor    = -11.99 kcal/molUSER        Moving Ligand-Moving Receptor   =  +0.55 kcal/molUSER    (2) Final Total Internal Energy     =  -2.97 kcal/molUSER    (3) Torsional Free Energy           =  +4.18 kcal/molUSER    (4) Unbound System's Energy         =  -2.97 kcal/molUSERUSERREMARK SMILES COc1ccc(O)c(C(=O)c2ccc(C(=O)N[C@@H]3CCCNC[C@H]3NC(=O)c3ccncc3)cc2)c1FREMARK SMILES IDX 15 1 16 2 17 3 14 5 11 6 12 7 35 8 13 9 34 10 9 11 10 12REMARK SMILES IDX 8 13 3 14 4 15 36 16 5 17 6 18 37 19 2 20 1 21 7 22 18 24REMARK SMILES IDX 19 25 24 27 23 28 22 29 21 31 20 32 25 34 26 35 27 37 28 38REMARK SMILES IDX 29 39 33 40 30 41 32 42 31 43REMARK H PARENT 17 4 7 23 22 30 25 36REMARK Flexibility Score:   88.900USER                              x       y       z     vdW  Elec       q    TypeUSER                           _______ _______ _______ _____ _____    ______ ____ROOTATOM      1  C   UNL     1      38.877  45.532  17.176 -0.27 -0.05    +0.251 C  ATOM      2  O   UNL     1      38.456  44.403  16.946 -0.14 +0.05    -0.269 OA ATOM      3  N   UNL     1      38.559  46.631  16.403 -0.17 +0.12    -0.347 N  ATOM      4  H   UNL     1      39.104  47.473  16.530 +0.11 -0.06    +0.164 HD ENDROOTBRANCH   1   5ATOM      5  C   UNL     1      39.840  45.763  18.289 -0.42 -0.00    +0.039 A  ATOM      6  C   UNL     1      41.708  46.304  20.308 -0.37 +0.00    +0.023 A  ATOM      7  C   UNL     1      42.080  46.408  18.964 -0.47 +0.00    +0.013 A  ATOM      8  C   UNL     1      40.402  45.929  20.643 -0.24 +0.00    +0.013 A  ATOM      9  C   UNL     1      41.152  46.126  17.958 -0.48 -0.00    +0.014 A  ATOM     10  C   UNL     1      39.470  45.648  19.634 -0.37 -0.00    +0.014 A  BRANCH   6  11ATOM     11  C   UNL     1      42.701  46.689  21.334 -0.28 +0.05    +0.199 C  ATOM     12  O   UNL     1      43.833  46.999  20.958 -0.41 -0.16    -0.288 OA BRANCH  11  13ATOM     13  C   UNL     1      42.408  46.771  22.784 -0.19 +0.02    +0.104 A  ATOM     14  C   UNL     1      41.760  45.755  24.907 -0.04 +0.01    +0.155 A  ATOM     15  C   UNL     1      41.877  46.996  25.538 -0.10 +0.00    +0.053 A  ATOM     16  C   UNL     1      42.031  45.654  23.531 -0.07 +0.02    +0.179 A  ATOM     17  C   UNL     1      42.281  48.116  24.807 -0.25 +0.01    +0.051 A  ATOM     18  C   UNL     1      42.557  47.999  23.447 -0.27 +0.02    +0.130 A  ATOM     19  F   UNL     1      41.949  44.447  22.948 -0.02 -0.02    -0.202 F  BRANCH  14  20ATOM     20  O   UNL     1      41.389  44.587  25.519 +0.02 -0.01    -0.494 OA ATOM     21  C   UNL     1      42.414  43.630  25.767 -0.05 -0.01    +0.278 C  ENDBRANCH  14  20BRANCH  18  22ATOM     22  O   UNL     1      42.976  49.142  22.819 -0.70 -0.19    -0.507 OA ATOM     23  H   UNL     1      43.514  48.869  22.038 -0.42 +0.01    +0.293 HD ENDBRANCH  18  22ENDBRANCH  11  13ENDBRANCH   6  11ENDBRANCH   1   5BRANCH   3  24ATOM     24  C   UNL     1      37.852  46.474  15.126 -0.39 -0.04    +0.106 C  BRANCH  24  25ATOM     25  C   UNL     1      38.209  47.635  14.190 -0.56 -0.01    +0.028 CG0ATOM     26  G   UNL     1      37.023  48.479  13.692 +0.00 +0.00    +0.000 G0 ENDBRANCH  24  25BRANCH  24  27ATOM     27  C   UNL     1      36.325  46.306  15.371 -0.35 -0.08    +0.118 C  BRANCH  27  28ATOM     28  C   UNL     1      35.507  45.885  14.126 -0.39 -0.07    +0.108 C  BRANCH  28  29ATOM     29  N   UNL     1      35.052  46.954  13.232 -0.25 +0.24    -0.315 NA ATOM     30  H   UNL     1      34.490  46.561  12.480 -0.34 -0.11    +0.122 HD BRANCH  29  31ATOM     31  C   UNL     1      36.091  47.813  12.673 -0.63 -0.04    +0.081 C  BRANCH  31  32ATOM     32  C   UNL     1      37.023  48.475  13.684 -0.62 -0.01    +0.017 CG0ATOM     33  G   UNL     1      38.208  47.636  14.191 +0.00 +0.00    +0.000 G0 ENDBRANCH  31  32ENDBRANCH  29  31ENDBRANCH  28  29ENDBRANCH  27  28BRANCH  27  34ATOM     34  N   UNL     1      36.090  45.387  16.491 -0.10 +0.19    -0.346 N  ATOM     35  C   UNL     1      35.298  45.740  17.559 -0.26 -0.15    +0.251 C  ATOM     36  H   UNL     1      36.287  44.411  16.334 +0.11 -0.06    +0.164 HD ATOM     37  O   UNL     1      34.811  46.854  17.704 -0.41 +0.30    -0.269 OA BRANCH  35  38ATOM     38  C   UNL     1      35.019  44.675  18.553 -0.34 -0.01    +0.042 A  ATOM     39  C   UNL     1      33.775  44.043  18.515 -0.33 -0.01    +0.034 A  ATOM     40  C   UNL     1      35.947  44.314  19.531 -0.36 -0.00    +0.034 A  ATOM     41  C   UNL     1      33.520  43.056  19.445 -0.33 -0.00    +0.112 A  ATOM     42  C   UNL     1      35.594  43.314  20.418 -0.33 -0.00    +0.112 A  ATOM     43  N   UNL     1      34.403  42.673  20.393 -0.39 -0.04    -0.265 NA ENDBRANCH  35  38ENDBRANCH  27  34ENDBRANCH  24  27ENDBRANCH   3  24TORSDOF 8TERENDMDL