MODEL        3USER    Run = 3USERUSER    Estimated Free Energy of Binding    = -10.65 kcal/mol  [=(1)+(2)+(3)-(4)]USERUSER    (1) Final Intermolecular Energy     = -13.34 kcal/molUSER        vdW + Hbond + desolv Energy     = -13.22 kcal/molUSER        Electrostatic Energy            =  -0.12 kcal/molUSER        Moving Ligand-Fixed Receptor    = -13.34 kcal/molUSER        Moving Ligand-Moving Receptor   =  +0.00 kcal/molUSER    (2) Final Total Internal Energy     =  -2.69 kcal/molUSER    (3) Torsional Free Energy           =  +2.68 kcal/molUSER    (4) Unbound System's Energy         =  -2.69 kcal/molUSERUSERREMARK SMILES CSc1ncc2c(n1)CN(C(=O)[C@@H](Cc1ccc(C(C)(C)C)cc1)NC(=O)c1ccncc1)C[C@H]2OREMARK SMILES IDX 13 1 11 2 12 3 10 4 3 5 4 6 8 7 5 8 7 9 6 10 9 11 35 12REMARK SMILES IDX 34 13 2 14 1 15 36 16 14 18 15 19 16 20 24 21 17 22 23 23REMARK SMILES IDX 18 24 19 25 20 26 21 27 22 28 25 29 26 30 27 32 28 33 29 34REMARK SMILES IDX 33 35 30 36 32 37 31 38REMARK H PARENT 36 17 25 31USER                              x       y       z     vdW  Elec       q    TypeUSER                           _______ _______ _______ _____ _____    ______ ____ROOTATOM      1  C   UNL     1      34.052  43.932  16.643 -0.26 -0.08    +0.176 C  ENDROOTBRANCH   1   2ATOM      2  C   UNL     1      32.692  43.306  16.208 -0.22 -0.12    +0.245 C  ATOM      3  O   UNL     1      32.426  43.187  15.006 -0.22 +0.16    -0.272 OA BRANCH   2   4ATOM      4  N   UNL     1      31.820  42.796  17.159 -0.09 +0.11    -0.332 N  ATOM      5  C   UNL     1      31.302  38.565  19.355 -0.33 +0.03    +0.187 A  ATOM      6  N   UNL     1      30.131  38.317  18.747 -0.28 -0.07    -0.231 NA ATOM      7  N   UNL     1      32.025  39.685  19.190 -0.64 -0.04    -0.225 NA ATOM      8  C   UNL     1      29.667  39.271  17.923 -0.27 +0.03    +0.122 A  ATOM      9  C   UNL     1      31.536  40.623  18.353 -0.33 -0.01    +0.070 A  ATOM     10  C   UNL     1      30.323  40.460  17.691 -0.32 -0.00    +0.024 A  ATOM     11  C   UNL     1      32.342  41.906  18.205 -0.30 -0.03    +0.176 C  ATOM     12  C   UNL     1      29.780  41.508  16.762 -0.26 -0.04    +0.167 C  ATOM     13  C   UNL     1      30.357  42.888  17.137 -0.22 -0.04    +0.156 C  BRANCH   5  14ATOM     14  S   UNL     1      31.930  37.374  20.507 -0.58 -0.02    -0.090 SA ATOM     15  C   UNL     1      32.738  36.245  19.348 -0.46 +0.02    +0.094 C  ENDBRANCH   5  14BRANCH  12  16ATOM     16  O   UNL     1      30.133  41.175  15.410 -0.27 +0.17    -0.386 OA ATOM     17  H   UNL     1      31.049  41.475  15.255 -0.40 -0.15    +0.211 HD ENDBRANCH  12  16ENDBRANCH   2   4ENDBRANCH   1   2BRANCH   1  18ATOM     18  C   UNL     1      35.055  42.796  16.973 -0.43 -0.03    +0.070 C  BRANCH  18  19ATOM     19  C   UNL     1      35.701  42.888  18.336 -0.29 +0.01    -0.045 A  ATOM     20  C   UNL     1      35.246  42.110  19.400 -0.38 -0.00    +0.004 A  ATOM     21  C   UNL     1      36.751  43.782  18.565 -0.26 -0.00    +0.004 A  ATOM     22  C   UNL     1      35.817  42.240  20.670 -0.48 +0.00    +0.004 A  ATOM     23  C   UNL     1      37.319  43.913  19.838 -0.36 -0.00    +0.004 A  ATOM     24  C   UNL     1      36.859  43.154  20.924 -0.39 -0.00    -0.043 A  BRANCH  24  25ATOM     25  C   UNL     1      37.443  43.288  22.340 -0.44 -0.00    -0.013 C  ATOM     26  C   UNL     1      38.938  42.905  22.437 -0.32 +0.00    +0.016 C  ATOM     27  C   UNL     1      36.666  42.367  23.305 -0.48 +0.00    +0.016 C  ATOM     28  C   UNL     1      37.318  44.750  22.824 -0.24 +0.00    +0.016 C  ENDBRANCH  24  25ENDBRANCH  18  19ENDBRANCH   1  18BRANCH   1  29ATOM     29  N   UNL     1      34.616  44.841  15.640 -0.11 +0.21    -0.340 N  ATOM     30  C   UNL     1      35.468  45.866  15.996 -0.23 -0.20    +0.252 C  ATOM     31  H   UNL     1      34.245  44.805  14.698 +0.11 -0.10    +0.164 HD ATOM     32  O   UNL     1      35.687  46.178  17.163 -0.27 +0.20    -0.269 OA BRANCH  30  33ATOM     33  C   UNL     1      36.076  46.656  14.894 -0.36 -0.03    +0.042 A  ATOM     34  C   UNL     1      36.960  47.709  15.132 -0.42 -0.03    +0.034 A  ATOM     35  C   UNL     1      35.711  46.348  13.583 -0.47 -0.02    +0.034 A  ATOM     36  C   UNL     1      37.459  48.394  14.038 -0.46 -0.06    +0.112 A  ATOM     37  C   UNL     1      36.262  47.095  12.559 -0.58 -0.06    +0.112 A  ATOM     38  N   UNL     1      37.132  48.107  12.758 -0.92 +0.06    -0.265 NA ENDBRANCH  30  33ENDBRANCH   1  29TORSDOF 9TERENDMDL