MODEL        7USER    Run = 7USERUSER    Estimated Free Energy of Binding    = -10.17 kcal/mol  [=(1)+(2)+(3)-(4)]USERUSER    (1) Final Intermolecular Energy     = -12.26 kcal/molUSER        vdW + Hbond + desolv Energy     = -11.93 kcal/molUSER        Electrostatic Energy            =  -0.33 kcal/molUSER        Moving Ligand-Fixed Receptor    = -12.26 kcal/molUSER        Moving Ligand-Moving Receptor   =  +0.00 kcal/molUSER    (2) Final Total Internal Energy     =  -1.11 kcal/molUSER    (3) Torsional Free Energy           =  +2.09 kcal/molUSER    (4) Unbound System's Energy         =  -1.11 kcal/molUSERUSERREMARK SMILES COc1cc(F)c(O)c(C(=O)c2ccc(C(=O)NC3CCN(C(=O)c4ccncc4)CC3)cc2)c1REMARK SMILES IDX 12 1 13 2 14 3 15 4 33 5 34 6 10 7 11 8 9 9 3 10 4 11 35 12REMARK SMILES IDX 5 13 7 14 6 15 2 16 1 17 8 18 16 20 18 21 17 22 19 24 20 25REMARK SMILES IDX 32 26 21 27 31 28 22 29 23 30 24 31 25 32 26 33 30 34 27 35REMARK SMILES IDX 29 36 28 37REMARK H PARENT 8 19 18 23USER                              x       y       z     vdW  Elec       q    TypeUSER                           _______ _______ _______ _____ _____    ______ ____ROOTATOM      1  C   UNL     1      36.610  45.340  15.480 -0.34 -0.01    +0.023 A  ATOM      2  C   UNL     1      35.751  46.164  16.223 -0.35 -0.01    +0.013 A  ATOM      3  C   UNL     1      34.725  45.615  17.002 -0.34 -0.01    +0.014 A  ATOM      4  C   UNL     1      34.554  44.227  17.053 -0.28 -0.02    +0.039 A  ATOM      5  C   UNL     1      35.395  43.404  16.290 -0.40 -0.01    +0.014 A  ATOM      6  C   UNL     1      36.412  43.956  15.504 -0.38 -0.00    +0.013 A  ENDROOTBRANCH   1   7ATOM      7  C   UNL     1      37.666  45.984  14.647 -0.32 -0.07    +0.196 C  ATOM      8  O   UNL     1      37.664  45.839  13.425 -0.29 +0.09    -0.288 OA BRANCH   7   9ATOM      9  C   UNL     1      38.762  46.774  15.252 -0.39 -0.02    +0.071 A  ATOM     10  C   UNL     1      40.414  46.957  17.030 -0.41 -0.02    +0.122 A  ATOM     11  C   UNL     1      40.849  48.169  16.492 -0.48 -0.01    +0.089 A  ATOM     12  C   UNL     1      39.374  46.261  16.403 -0.39 -0.01    +0.062 A  ATOM     13  C   UNL     1      40.248  48.660  15.334 -0.45 -0.05    +0.169 A  ATOM     14  C   UNL     1      39.213  47.973  14.703 -0.39 -0.06    +0.162 A  ATOM     15  F   UNL     1      40.666  49.824  14.814 -0.17 +0.08    -0.203 F  BRANCH  10  16ATOM     16  O   UNL     1      40.908  46.352  18.150 -0.18 +0.03    -0.497 OA ATOM     17  C   UNL     1      40.042  45.461  18.843 -0.31 -0.01    +0.278 C  ENDBRANCH  10  16BRANCH  14  18ATOM     18  O   UNL     1      38.669  48.481  13.555 -0.27 +0.14    -0.504 OA ATOM     19  H   UNL     1      38.390  49.393  13.739 -0.25 -0.18    +0.293 HD ENDBRANCH  14  18ENDBRANCH   7   9ENDBRANCH   1   7BRANCH   4  20ATOM     20  C   UNL     1      33.492  43.572  17.870 -0.20 -0.07    +0.251 C  ATOM     21  N   UNL     1      33.060  42.324  17.460 -0.13 +0.12    -0.349 N  ATOM     22  O   UNL     1      33.018  44.158  18.835 -0.27 +0.05    -0.269 OA ATOM     23  H   UNL     1      33.316  42.011  16.530 -0.30 -0.10    +0.164 HD BRANCH  21  24ATOM     24  C   UNL     1      31.901  41.694  18.090 -0.34 -0.02    +0.085 C  ATOM     25  C   UNL     1      31.280  40.629  17.169 -0.29 -0.01    +0.046 C  ATOM     26  C   UNL     1      32.282  41.139  19.468 -0.30 +0.00    +0.046 C  ATOM     27  C   UNL     1      31.654  39.219  17.603 -0.06 -0.01    +0.122 C  ATOM     28  C   UNL     1      31.289  40.074  19.921 -0.19 +0.02    +0.122 C  ATOM     29  N   UNL     1      31.235  38.953  18.978 -0.20 -0.05    -0.338 N  ATOM     30  C   UNL     1      31.100  37.620  19.364 -0.37 +0.07    +0.253 C  ATOM     31  O   UNL     1      31.461  36.682  18.661 -0.88 -0.15    -0.269 OA BRANCH  30  32ATOM     32  C   UNL     1      30.483  37.308  20.673 -0.40 +0.01    +0.043 A  ATOM     33  C   UNL     1      31.242  37.297  21.841 -0.48 +0.00    +0.034 A  ATOM     34  C   UNL     1      29.106  37.101  20.734 -0.30 -0.00    +0.034 A  ATOM     35  C   UNL     1      30.589  37.031  23.032 -0.37 +0.00    +0.112 A  ATOM     36  C   UNL     1      28.548  36.844  21.973 -0.26 -0.01    +0.112 A  ATOM     37  N   UNL     1      29.262  36.792  23.121 -0.21 -0.03    -0.265 NA ENDBRANCH  30  32ENDBRANCH  21  24ENDBRANCH   4  20TORSDOF 7TERENDMDL