MODEL        6USER    Run = 6USERUSER    Estimated Free Energy of Binding    =  -9.18 kcal/mol  [=(1)+(2)+(3)-(4)]USERUSER    (1) Final Intermolecular Energy     = -11.57 kcal/molUSER        vdW + Hbond + desolv Energy     = -11.56 kcal/molUSER        Electrostatic Energy            =  -0.00 kcal/molUSER        Moving Ligand-Fixed Receptor    = -11.57 kcal/molUSER        Moving Ligand-Moving Receptor   =  +0.00 kcal/molUSER    (2) Final Total Internal Energy     =  -1.89 kcal/molUSER    (3) Torsional Free Energy           =  +2.39 kcal/molUSER    (4) Unbound System's Energy         =  -1.89 kcal/molUSERUSERREMARK SMILES CSc1ncc2c(n1)CN(C(=O)[C@H](N)Cc1ccc(C(C)(C)C)cc1)C[C@@H]2OREMARK SMILES IDX 13 1 11 2 12 3 10 4 3 5 4 6 8 7 5 8 7 9 6 10 9 11 27 12REMARK SMILES IDX 26 13 2 14 1 15 28 16 14 18 15 21 16 22 17 23 25 24 18 25REMARK SMILES IDX 24 26 19 27 20 28 21 29 22 30 23 31REMARK H PARENT 28 17 14 19 14 20USER                              x       y       z     vdW  Elec       q    TypeUSER                           _______ _______ _______ _____ _____    ______ ____ROOTATOM      1  C   UNL     1      41.210  47.530  18.017 -0.45 -0.01    +0.145 C  ENDROOTBRANCH   1   2ATOM      2  C   UNL     1      40.797  48.166  16.660 -0.41 -0.04    +0.240 C  ATOM      3  O   UNL     1      41.428  49.126  16.205 -1.03 +0.00    -0.273 OA BRANCH   2   4ATOM      4  N   UNL     1      39.704  47.638  15.976 -0.24 +0.09    -0.332 N  ATOM      5  C   UNL     1      35.154  46.125  16.225 -0.15 -0.19    +0.187 A  ATOM      6  N   UNL     1      34.963  46.253  14.906 -0.22 +0.23    -0.231 NA ATOM      7  N   UNL     1      36.324  46.348  16.847 -0.23 +0.15    -0.225 NA ATOM      8  C   UNL     1      36.019  46.652  14.177 -0.36 -0.08    +0.122 A  ATOM      9  C   UNL     1      37.367  46.745  16.086 -0.35 -0.04    +0.070 A  ATOM     10  C   UNL     1      37.263  46.907  14.714 -0.41 -0.01    +0.024 A  ATOM     11  C   UNL     1      38.680  46.985  16.799 -0.35 -0.07    +0.176 C  ATOM     12  C   UNL     1      38.406  47.376  13.873 -0.42 -0.05    +0.167 C  ATOM     13  C   UNL     1      39.760  47.193  14.578 -0.39 -0.03    +0.156 C  BRANCH   5  14ATOM     14  S   UNL     1      33.749  45.611  17.181 -0.43 +0.07    -0.090 SA ATOM     15  C   UNL     1      34.572  45.141  18.722 -0.42 -0.04    +0.094 C  ENDBRANCH   5  14BRANCH  12  16ATOM     16  O   UNL     1      38.219  48.759  13.571 -0.36 +0.13    -0.386 OA ATOM     17  H   UNL     1      38.541  49.273  14.334 -0.33 -0.15    +0.211 HD ENDBRANCH  12  16ENDBRANCH   2   4ENDBRANCH   1   2BRANCH   1  18ATOM     18  N   UNL     1      42.548  48.050  18.409 -0.35 -0.00    -0.320 NA ATOM     19  H   UNL     1      42.654  49.001  18.058 -0.00 +0.02    +0.119 HD ATOM     20  H   UNL     1      43.256  47.484  17.927 -0.50 -0.01    +0.119 HD ENDBRANCH   1  18BRANCH   1  21ATOM     21  C   UNL     1      41.245  45.993  17.912 -0.48 -0.00    +0.064 C  BRANCH  21  22ATOM     22  C   UNL     1      40.338  45.315  18.913 -0.42 +0.00    -0.046 A  ATOM     23  C   UNL     1      40.617  45.376  20.281 -0.38 +0.00    +0.004 A  ATOM     24  C   UNL     1      39.190  44.635  18.497 -0.39 -0.00    +0.004 A  ATOM     25  C   UNL     1      39.759  44.777  21.209 -0.32 +0.00    +0.004 A  ATOM     26  C   UNL     1      38.332  44.036  19.430 -0.28 -0.00    +0.004 A  ATOM     27  C   UNL     1      38.593  44.099  20.808 -0.29 -0.00    -0.043 A  BRANCH  27  28ATOM     28  C   UNL     1      37.667  43.464  21.860 -0.43 -0.00    -0.013 C  ATOM     29  C   UNL     1      38.344  42.211  22.457 -0.34 +0.00    +0.016 C  ATOM     30  C   UNL     1      36.335  43.055  21.201 -0.48 +0.00    +0.016 C  ATOM     31  C   UNL     1      37.326  44.400  23.041 -0.37 +0.00    +0.016 C  ENDBRANCH  27  28ENDBRANCH  21  22ENDBRANCH   1  21TORSDOF 8TERENDMDL