REMARK SMILES NCCCNC(=O)c1cccc(-c2ccc(-c3ccc(F)cc3)nn2)c1
REMARK SMILES IDX 5 1 6 2 7 3 4 5 3 6 2 7 1 8 8 11 9 12 26 13 10 14 12 15
REMARK SMILES IDX 11 16 13 17 14 18 25 19 15 20 24 21 16 22 17 23 18 24 23 25
REMARK SMILES IDX 19 26 22 27 20 28 21 29
REMARK H PARENT 5 4 1 9 1 10
ROOT
ATOM      1  N   UNL     1      -4.195  -0.022  -0.240  1.00  0.00    -0.352 N 
ATOM      2  C   UNL     1      -2.951   0.490  -0.555  1.00  0.00     0.251 C 
ATOM      3  O   UNL     1      -2.681   1.685  -0.531  1.00  0.00    -0.269 OA
ATOM      4  H   UNL     1      -4.236  -1.000   0.018  1.00  0.00     0.163 HD
ENDROOT
BRANCH   1   5
ATOM      5  C   UNL     1      -5.230   0.852   0.280  1.00  0.00     0.117 C 
BRANCH   5   6
ATOM      6  C   UNL     1      -6.606   0.204   0.173  1.00  0.00     0.036 C 
BRANCH   6   7
ATOM      7  C   UNL     1      -7.721   1.056   0.779  1.00  0.00     0.079 C 
BRANCH   7   8
ATOM      8  N   UNL     1      -7.975   2.289   0.044  1.00  0.00    -0.330 NA
ATOM      9  H   UNL     1      -8.127   2.084  -0.943  1.00  0.00     0.118 HD
ATOM     10  H   UNL     1      -7.164   2.905   0.084  1.00  0.00     0.118 HD
ENDBRANCH   7   8
ENDBRANCH   6   7
ENDBRANCH   5   6
ENDBRANCH   1   5
BRANCH   2  11
ATOM     11  C   UNL     1      -1.905  -0.508  -0.905  1.00  0.00     0.040 A 
ATOM     12  C   UNL     1      -2.224  -1.700  -1.562  1.00  0.00     0.014 A 
ATOM     13  C   UNL     1      -0.570  -0.221  -0.589  1.00  0.00     0.024 A 
ATOM     14  C   UNL     1      -1.215  -2.606  -1.880  1.00  0.00     0.002 A 
ATOM     15  C   UNL     1       0.467  -1.119  -0.904  1.00  0.00     0.003 A 
ATOM     16  C   UNL     1       0.114  -2.319  -1.551  1.00  0.00     0.010 A 
BRANCH  15  17
ATOM     17  C   UNL     1       1.863  -0.806  -0.556  1.00  0.00     0.093 A 
ATOM     18  C   UNL     1       2.949  -1.133  -1.355  1.00  0.00     0.033 A 
ATOM     19  N   UNL     1       2.061  -0.158   0.611  1.00  0.00    -0.150 NA
ATOM     20  C   UNL     1       4.238  -0.792  -0.937  1.00  0.00     0.033 A 
ATOM     21  N   UNL     1       3.336   0.177   1.026  1.00  0.00    -0.150 NA
ATOM     22  C   UNL     1       4.414  -0.135   0.273  1.00  0.00     0.093 A 
BRANCH  22  23
ATOM     23  C   UNL     1       5.728   0.274   0.807  1.00  0.00     0.002 A 
ATOM     24  C   UNL     1       6.908  -0.444   0.526  1.00  0.00     0.013 A 
ATOM     25  C   UNL     1       5.844   1.410   1.637  1.00  0.00     0.013 A 
ATOM     26  C   UNL     1       8.145  -0.040   1.040  1.00  0.00     0.040 A 
ATOM     27  C   UNL     1       7.079   1.816   2.151  1.00  0.00     0.040 A 
ATOM     28  C   UNL     1       8.219   1.088   1.845  1.00  0.00     0.123 A 
ATOM     29  F   UNL     1       9.403   1.473   2.336  1.00  0.00    -0.207 F 
ENDBRANCH  22  23
ENDBRANCH  15  17
ENDBRANCH   2  11
TORSDOF 7
