
     RDKit          3D

 47 50  0  0  0  0  0  0  0  0999 V2000
    3.7148   -0.1586   -2.9989 O   0  0  0  0  0  0  0  0  0  0  0  0
    2.4307    0.3679   -2.5900 S   0  0  0  0  0  0  0  0  0  0  0  0
    1.7444    1.3648   -3.3852 O   0  0  0  0  0  0  0  0  0  0  0  0
    1.3339   -0.9015   -2.3878 N   0  0  0  0  0  0  0  0  0  0  0  0
    1.6419   -1.9794   -1.4967 C   0  0  0  0  0  0  0  0  0  0  0  0
    2.7326   -2.8065   -1.7784 C   0  0  0  0  0  0  0  0  0  0  0  0
    3.0529   -3.8448   -0.9133 C   0  0  0  0  0  0  0  0  0  0  0  0
    4.1004   -4.6328   -1.1866 F   0  0  0  0  0  0  0  0  0  0  0  0
    2.3045   -4.0813    0.2310 C   0  0  0  0  0  0  0  0  0  0  0  0
    1.2084   -3.2666    0.5142 C   0  0  0  0  0  0  0  0  0  0  0  0
    0.8551   -2.2070   -0.3435 C   0  0  0  0  0  0  0  0  0  0  0  0
   -0.3066   -1.3742   -0.0028 C   0  0  0  0  0  0  0  0  0  0  0  0
   -1.5186   -1.5094   -0.6910 C   0  0  0  0  0  0  0  0  0  0  0  0
   -2.6128   -0.6959   -0.3762 C   0  0  0  0  0  0  0  0  0  0  0  0
   -2.5339    0.2775    0.6355 C   0  0  0  0  0  0  0  0  0  0  0  0
   -3.7046    1.1229    0.9328 C   0  0  0  0  0  0  0  0  0  0  0  0
   -4.9375    0.5553    1.2771 C   0  0  0  0  0  0  0  0  0  0  0  0
   -6.0155    1.3889    1.5340 C   0  0  0  0  0  0  0  0  0  0  0  0
   -5.9569    2.7346    1.4698 N   0  0  0  0  0  0  0  0  0  0  0  0
   -4.7626    3.2689    1.1413 C   0  0  0  0  0  0  0  0  0  0  0  0
   -3.6296    2.5187    0.8674 C   0  0  0  0  0  0  0  0  0  0  0  0
   -1.3154    0.3961    1.3245 C   0  0  0  0  0  0  0  0  0  0  0  0
   -1.1894    1.3293    2.3199 O   0  0  0  0  0  0  0  0  0  0  0  0
   -0.2225   -0.4213    1.0208 C   0  0  0  0  0  0  0  0  0  0  0  0
    2.6080    1.0265   -0.9467 C   0  0  0  0  0  0  0  0  0  0  0  0
    1.7765    2.0714   -0.5297 C   0  0  0  0  0  0  0  0  0  0  0  0
    1.9437    2.6174    0.7436 C   0  0  0  0  0  0  0  0  0  0  0  0
    2.9403    2.1264    1.5887 C   0  0  0  0  0  0  0  0  0  0  0  0
    3.7781    1.0937    1.1624 C   0  0  0  0  0  0  0  0  0  0  0  0
    3.6205    0.5456   -0.1109 C   0  0  0  0  0  0  0  0  0  0  0  0
    0.3742   -0.5569   -2.3956 H   0  0  0  0  0  0  0  0  0  0  0  0
    3.3355   -2.6633   -2.6703 H   0  0  0  0  0  0  0  0  0  0  0  0
    2.5741   -4.9007    0.8903 H   0  0  0  0  0  0  0  0  0  0  0  0
    0.6201   -3.4650    1.4090 H   0  0  0  0  0  0  0  0  0  0  0  0
   -1.6225   -2.2517   -1.4811 H   0  0  0  0  0  0  0  0  0  0  0  0
   -3.5359   -0.8198   -0.9409 H   0  0  0  0  0  0  0  0  0  0  0  0
   -5.0595   -0.5198    1.3572 H   0  0  0  0  0  0  0  0  0  0  0  0
   -6.9840    0.9806    1.8080 H   0  0  0  0  0  0  0  0  0  0  0  0
   -4.7358    4.3540    1.1012 H   0  0  0  0  0  0  0  0  0  0  0  0
   -2.7015    3.0180    0.6094 H   0  0  0  0  0  0  0  0  0  0  0  0
   -0.3042    1.2583    2.7132 H   0  0  0  0  0  0  0  0  0  0  0  0
    0.7108   -0.3117    1.5680 H   0  0  0  0  0  0  0  0  0  0  0  0
    1.0066    2.4690   -1.1876 H   0  0  0  0  0  0  0  0  0  0  0  0
    1.3040    3.4341    1.0710 H   0  0  0  0  0  0  0  0  0  0  0  0
    3.0788    2.5631    2.5754 H   0  0  0  0  0  0  0  0  0  0  0  0
    4.5665    0.7279    1.8165 H   0  0  0  0  0  0  0  0  0  0  0  0
    4.2918   -0.2425   -0.4459 H   0  0  0  0  0  0  0  0  0  0  0  0
  1  2  2  0
  2  3  2  0
  2  4  1  0
  4  5  1  0
  5  6  2  0
  6  7  1  0
  7  8  1  0
  7  9  2  0
  9 10  1  0
 10 11  2  0
 11 12  1  0
 12 13  2  0
 13 14  1  0
 14 15  2  0
 15 16  1  0
 16 17  2  0
 17 18  1  0
 18 19  2  0
 19 20  1  0
 20 21  2  0
 15 22  1  0
 22 23  1  0
 22 24  2  0
  2 25  1  0
 25 26  2  0
 26 27  1  0
 27 28  2  0
 28 29  1  0
 29 30  2  0
 11  5  1  0
 24 12  1  0
 30 25  1  0
 21 16  1  0
  4 31  1  0
  6 32  1  0
  9 33  1  0
 10 34  1  0
 13 35  1  0
 14 36  1  0
 17 37  1  0
 18 38  1  0
 20 39  1  0
 21 40  1  0
 23 41  1  0
 24 42  1  0
 26 43  1  0
 27 44  1  0
 28 45  1  0
 29 46  1  0
 30 47  1  0
M  END
$$$$
