
     RDKit          3D

 48 51  0  0  0  0  0  0  0  0999 V2000
    7.1301   -1.8050    1.4934 N   0  0  0  0  0  0  0  0  0  0  0  0
    6.2350   -1.3399    0.5349 C   0  0  0  0  0  0  0  0  0  0  0  0
    5.2891   -0.3862    0.8589 C   0  0  0  0  0  0  0  0  0  0  0  0
    4.3948    0.0092   -0.1321 C   0  0  0  0  0  0  0  0  0  0  0  0
    3.3910    1.0419    0.1902 C   0  0  0  0  0  0  0  0  0  0  0  0
    3.7973    2.1078    0.6451 O   0  0  0  0  0  0  0  0  0  0  0  0
    2.0498    0.7657   -0.0410 N   0  0  0  0  0  0  0  0  0  0  0  0
    1.4933   -0.5736   -0.2686 C   0  0  0  0  0  0  0  0  0  0  0  0
    0.0780   -0.7209    0.3237 C   0  0  0  0  0  0  0  0  0  0  0  0
   -0.9047    0.2855   -0.1274 N   0  0  0  0  0  0  0  0  0  0  0  0
   -1.7671   -0.2479   -1.1984 C   0  0  0  0  0  0  0  0  0  0  0  0
   -2.9099    0.6873   -1.4932 C   0  0  0  0  0  0  0  0  0  0  0  0
   -2.7701    1.5761   -2.5593 N   0  0  0  0  0  0  0  0  0  0  0  0
   -3.8563    2.3051   -2.6715 C   0  0  0  0  0  0  0  0  0  0  0  0
   -5.1057    1.9798   -1.5508 S   0  0  0  0  0  0  0  0  0  0  0  0
   -4.1305    0.7590   -0.8310 C   0  0  0  0  0  0  0  0  0  0  0  0
   -4.6350    0.0043    0.3159 C   0  0  0  0  0  0  0  0  0  0  0  0
   -3.9588    0.0515    1.5446 C   0  0  0  0  0  0  0  0  0  0  0  0
   -4.4282   -0.6755    2.6407 C   0  0  0  0  0  0  0  0  0  0  0  0
   -5.5736   -1.4504    2.5086 C   0  0  0  0  0  0  0  0  0  0  0  0
   -6.0232   -2.1488    3.5591 F   0  0  0  0  0  0  0  0  0  0  0  0
   -6.2591   -1.5126    1.3015 C   0  0  0  0  0  0  0  0  0  0  0  0
   -5.7902   -0.7861    0.2044 C   0  0  0  0  0  0  0  0  0  0  0  0
   -0.2514    1.5531   -0.5381 C   0  0  0  0  0  0  0  0  0  0  0  0
    1.0735    1.8315    0.1914 C   0  0  0  0  0  0  0  0  0  0  0  0
    4.4845   -0.5197   -1.4154 C   0  0  0  0  0  0  0  0  0  0  0  0
    5.4602   -1.4696   -1.6366 C   0  0  0  0  0  0  0  0  0  0  0  0
    6.3219   -1.8959   -0.6863 N   0  0  0  0  0  0  0  0  0  0  0  0
    7.7566   -2.4555    1.0254 H   0  0  0  0  0  0  0  0  0  0  0  0
    7.6367   -1.0442    1.9319 H   0  0  0  0  0  0  0  0  0  0  0  0
    5.2371    0.0362    1.8561 H   0  0  0  0  0  0  0  0  0  0  0  0
    2.1495   -1.3310    0.1713 H   0  0  0  0  0  0  0  0  0  0  0  0
    1.4622   -0.7336   -1.3524 H   0  0  0  0  0  0  0  0  0  0  0  0
    0.1579   -0.6145    1.4138 H   0  0  0  0  0  0  0  0  0  0  0  0
   -0.2851   -1.7426    0.1583 H   0  0  0  0  0  0  0  0  0  0  0  0
   -2.1935   -1.2120   -0.8925 H   0  0  0  0  0  0  0  0  0  0  0  0
   -1.1909   -0.4358   -2.1134 H   0  0  0  0  0  0  0  0  0  0  0  0
   -3.9625    3.0689   -3.4305 H   0  0  0  0  0  0  0  0  0  0  0  0
   -3.0635    0.6606    1.6570 H   0  0  0  0  0  0  0  0  0  0  0  0
   -3.9083   -0.6393    3.5927 H   0  0  0  0  0  0  0  0  0  0  0  0
   -7.1515   -2.1250    1.2210 H   0  0  0  0  0  0  0  0  0  0  0  0
   -6.3294   -0.8457   -0.7387 H   0  0  0  0  0  0  0  0  0  0  0  0
   -0.9382    2.3862   -0.3501 H   0  0  0  0  0  0  0  0  0  0  0  0
   -0.0325    1.5394   -1.6146 H   0  0  0  0  0  0  0  0  0  0  0  0
    1.4936    2.7864   -0.1445 H   0  0  0  0  0  0  0  0  0  0  0  0
    0.9117    1.9048    1.2739 H   0  0  0  0  0  0  0  0  0  0  0  0
    3.8287   -0.1954   -2.2143 H   0  0  0  0  0  0  0  0  0  0  0  0
    5.5868   -1.9290   -2.6129 H   0  0  0  0  0  0  0  0  0  0  0  0
  1  2  1  0
  2  3  2  0
  3  4  1  0
  4  5  1  0
  5  6  2  0
  5  7  1  0
  7  8  1  0
  8  9  1  0
  9 10  1  0
 10 11  1  0
 11 12  1  0
 12 13  1  0
 13 14  2  0
 14 15  1  0
 15 16  1  0
 16 17  1  0
 17 18  2  0
 18 19  1  0
 19 20  2  0
 20 21  1  0
 20 22  1  0
 22 23  2  0
 10 24  1  0
 24 25  1  0
  4 26  2  0
 26 27  1  0
 27 28  2  0
 28  2  1  0
 25  7  1  0
 16 12  2  0
 23 17  1  0
  1 29  1  0
  1 30  1  0
  3 31  1  0
  8 32  1  0
  8 33  1  0
  9 34  1  0
  9 35  1  0
 11 36  1  0
 11 37  1  0
 14 38  1  0
 18 39  1  0
 19 40  1  0
 22 41  1  0
 23 42  1  0
 24 43  1  0
 24 44  1  0
 25 45  1  0
 25 46  1  0
 26 47  1  0
 27 48  1  0
M  END
$$$$
