
     RDKit          3D

 50 53  0  0  0  0  0  0  0  0999 V2000
    4.4475    2.9965    1.2761 C   0  0  0  0  0  0  0  0  0  0  0  0
    3.2374    3.0285    0.5292 O   0  0  0  0  0  0  0  0  0  0  0  0
    2.9212    1.9066   -0.1858 C   0  0  0  0  0  0  0  0  0  0  0  0
    3.6343    0.7054   -0.1851 C   0  0  0  0  0  0  0  0  0  0  0  0
    3.1943   -0.3739   -0.9582 C   0  0  0  0  0  0  0  0  0  0  0  0
    2.0280   -0.2526   -1.7187 C   0  0  0  0  0  0  0  0  0  0  0  0
    1.4753   -1.6170   -2.7160 S   0  0  0  0  0  0  0  0  0  0  0  0
    0.6767   -1.0735   -3.7947 O   0  0  0  0  0  0  0  0  0  0  0  0
    2.6180   -2.4629   -2.9855 O   0  0  0  0  0  0  0  0  0  0  0  0
    0.3957   -2.4306   -1.6999 N   0  0  0  0  0  0  0  0  0  0  0  0
    0.8375   -2.8901   -0.4163 C   0  0  0  0  0  0  0  0  0  0  0  0
    1.8379   -3.8661   -0.3502 C   0  0  0  0  0  0  0  0  0  0  0  0
    2.3069   -4.3015    0.8865 C   0  0  0  0  0  0  0  0  0  0  0  0
    3.5444   -5.4938    0.9619 Cl  0  0  0  0  0  0  0  0  0  0  0  0
    1.7839   -3.7779    2.0641 C   0  0  0  0  0  0  0  0  0  0  0  0
    0.7756   -2.8141    2.0044 C   0  0  0  0  0  0  0  0  0  0  0  0
    0.2806   -2.3571    0.7688 C   0  0  0  0  0  0  0  0  0  0  0  0
   -0.7885   -1.3474    0.7611 C   0  0  0  0  0  0  0  0  0  0  0  0
   -2.0944   -1.6816    0.3770 C   0  0  0  0  0  0  0  0  0  0  0  0
   -3.1045   -0.7133    0.3523 C   0  0  0  0  0  0  0  0  0  0  0  0
   -2.8436    0.6159    0.7189 C   0  0  0  0  0  0  0  0  0  0  0  0
   -3.9046    1.6347    0.6875 C   0  0  0  0  0  0  0  0  0  0  0  0
   -4.6676    1.8514   -0.4662 C   0  0  0  0  0  0  0  0  0  0  0  0
   -5.6551    2.8244   -0.4483 C   0  0  0  0  0  0  0  0  0  0  0  0
   -5.9370    3.5880    0.6269 N   0  0  0  0  0  0  0  0  0  0  0  0
   -5.1963    3.3695    1.7323 C   0  0  0  0  0  0  0  0  0  0  0  0
   -4.1864    2.4227    1.8097 C   0  0  0  0  0  0  0  0  0  0  0  0
   -1.5393    0.9416    1.1195 C   0  0  0  0  0  0  0  0  0  0  0  0
   -0.5287   -0.0258    1.1451 C   0  0  0  0  0  0  0  0  0  0  0  0
    1.3203    0.9503   -1.7436 C   0  0  0  0  0  0  0  0  0  0  0  0
    1.7689    2.0229   -0.9706 C   0  0  0  0  0  0  0  0  0  0  0  0
    4.4008    2.2415    2.0678 H   0  0  0  0  0  0  0  0  0  0  0  0
    5.3115    2.8333    0.6235 H   0  0  0  0  0  0  0  0  0  0  0  0
    4.5709    3.9729    1.7543 H   0  0  0  0  0  0  0  0  0  0  0  0
    4.5384    0.5766    0.4013 H   0  0  0  0  0  0  0  0  0  0  0  0
    3.7653   -1.3003   -0.9608 H   0  0  0  0  0  0  0  0  0  0  0  0
   -0.5289   -2.0033   -1.7491 H   0  0  0  0  0  0  0  0  0  0  0  0
    2.2486   -4.2951   -1.2611 H   0  0  0  0  0  0  0  0  0  0  0  0
    2.1486   -4.1188    3.0298 H   0  0  0  0  0  0  0  0  0  0  0  0
    0.3659   -2.4218    2.9344 H   0  0  0  0  0  0  0  0  0  0  0  0
   -2.3396   -2.7057    0.0992 H   0  0  0  0  0  0  0  0  0  0  0  0
   -4.1093   -1.0119    0.0574 H   0  0  0  0  0  0  0  0  0  0  0  0
   -4.4925    1.2830   -1.3739 H   0  0  0  0  0  0  0  0  0  0  0  0
   -6.2618    3.0212   -1.3278 H   0  0  0  0  0  0  0  0  0  0  0  0
   -5.4434    3.9941    2.5861 H   0  0  0  0  0  0  0  0  0  0  0  0
   -3.6392    2.2977    2.7385 H   0  0  0  0  0  0  0  0  0  0  0  0
   -1.2908    1.9629    1.4033 H   0  0  0  0  0  0  0  0  0  0  0  0
    0.4730    0.2697    1.4538 H   0  0  0  0  0  0  0  0  0  0  0  0
    0.4264    1.0637   -2.3524 H   0  0  0  0  0  0  0  0  0  0  0  0
    1.2179    2.9610   -0.9812 H   0  0  0  0  0  0  0  0  0  0  0  0
  1  2  1  0
  2  3  1  0
  3  4  2  0
  4  5  1  0
  5  6  2  0
  6  7  1  0
  7  8  2  0
  7  9  2  0
  7 10  1  0
 10 11  1  0
 11 12  2  0
 12 13  1  0
 13 14  1  0
 13 15  2  0
 15 16  1  0
 16 17  2  0
 17 18  1  0
 18 19  2  0
 19 20  1  0
 20 21  2  0
 21 22  1  0
 22 23  2  0
 23 24  1  0
 24 25  2  0
 25 26  1  0
 26 27  2  0
 21 28  1  0
 28 29  2  0
  6 30  1  0
 30 31  2  0
 31  3  1  0
 17 11  1  0
 29 18  1  0
 27 22  1  0
  1 32  1  0
  1 33  1  0
  1 34  1  0
  4 35  1  0
  5 36  1  0
 10 37  1  0
 12 38  1  0
 15 39  1  0
 16 40  1  0
 19 41  1  0
 20 42  1  0
 23 43  1  0
 24 44  1  0
 26 45  1  0
 27 46  1  0
 28 47  1  0
 29 48  1  0
 30 49  1  0
 31 50  1  0
M  END
$$$$
