
     RDKit          3D

 49 52  0  0  0  0  0  0  0  0999 V2000
    7.5821    1.0371    1.4054 N   0  0  0  0  0  0  0  0  0  0  0  0
    6.3969    0.4609    0.9371 C   0  0  0  0  0  0  0  0  0  0  0  0
    6.1381   -0.8949    1.1616 C   0  0  0  0  0  0  0  0  0  0  0  0
    5.0165   -1.5109    0.5993 C   0  0  0  0  0  0  0  0  0  0  0  0
    4.1571   -0.7738   -0.2179 C   0  0  0  0  0  0  0  0  0  0  0  0
    2.9873   -1.4527   -0.8219 C   0  0  0  0  0  0  0  0  0  0  0  0
    3.1780   -2.5163   -1.4072 O   0  0  0  0  0  0  0  0  0  0  0  0
    1.7326   -0.8649   -0.7045 N   0  0  0  0  0  0  0  0  0  0  0  0
    1.3893    0.2025    0.2444 C   0  0  0  0  0  0  0  0  0  0  0  0
   -0.0590    0.0814    0.7582 C   0  0  0  0  0  0  0  0  0  0  0  0
   -1.0998    0.0107   -0.2910 N   0  0  0  0  0  0  0  0  0  0  0  0
   -1.7597    1.3051   -0.5353 C   0  0  0  0  0  0  0  0  0  0  0  0
   -2.6532    1.6840    0.6157 C   0  0  0  0  0  0  0  0  0  0  0  0
   -2.1874    2.6357    1.5236 N   0  0  0  0  0  0  0  0  0  0  0  0
   -3.0976    2.8486    2.4457 C   0  0  0  0  0  0  0  0  0  0  0  0
   -4.5539    1.9666    2.2909 S   0  0  0  0  0  0  0  0  0  0  0  0
   -3.9382    1.2178    0.8705 C   0  0  0  0  0  0  0  0  0  0  0  0
   -4.7548    0.2419    0.1510 C   0  0  0  0  0  0  0  0  0  0  0  0
   -5.9621    0.6233   -0.4527 C   0  0  0  0  0  0  0  0  0  0  0  0
   -6.7337   -0.3118   -1.1489 C   0  0  0  0  0  0  0  0  0  0  0  0
   -6.3007   -1.6325   -1.2452 C   0  0  0  0  0  0  0  0  0  0  0  0
   -7.2490   -2.7824   -2.1038 Cl  0  0  0  0  0  0  0  0  0  0  0  0
   -5.1039   -2.0265   -0.6517 C   0  0  0  0  0  0  0  0  0  0  0  0
   -4.3338   -1.0908    0.0445 C   0  0  0  0  0  0  0  0  0  0  0  0
   -0.5685   -0.5310   -1.5618 C   0  0  0  0  0  0  0  0  0  0  0  0
    0.6043   -1.5070   -1.3789 C   0  0  0  0  0  0  0  0  0  0  0  0
    4.4519    0.5585   -0.5183 C   0  0  0  0  0  0  0  0  0  0  0  0
    5.5761    1.1648    0.0502 C   0  0  0  0  0  0  0  0  0  0  0  0
    7.9513    0.6022    2.2451 H   0  0  0  0  0  0  0  0  0  0  0  0
    7.5548    2.0494    1.4737 H   0  0  0  0  0  0  0  0  0  0  0  0
    6.8137   -1.4880    1.7726 H   0  0  0  0  0  0  0  0  0  0  0  0
    4.8241   -2.5651    0.7842 H   0  0  0  0  0  0  0  0  0  0  0  0
    2.0768    0.1805    1.0957 H   0  0  0  0  0  0  0  0  0  0  0  0
    1.5180    1.1570   -0.2784 H   0  0  0  0  0  0  0  0  0  0  0  0
   -0.1326   -0.8527    1.3311 H   0  0  0  0  0  0  0  0  0  0  0  0
   -0.2480    0.8789    1.4839 H   0  0  0  0  0  0  0  0  0  0  0  0
   -2.3866    1.2455   -1.4350 H   0  0  0  0  0  0  0  0  0  0  0  0
   -1.0210    2.0962   -0.7171 H   0  0  0  0  0  0  0  0  0  0  0  0
   -2.9428    3.5451    3.2592 H   0  0  0  0  0  0  0  0  0  0  0  0
   -6.3086    1.6529   -0.3897 H   0  0  0  0  0  0  0  0  0  0  0  0
   -7.6671   -0.0028   -1.6119 H   0  0  0  0  0  0  0  0  0  0  0  0
   -4.7635   -3.0560   -0.7242 H   0  0  0  0  0  0  0  0  0  0  0  0
   -3.4017   -1.4107    0.5074 H   0  0  0  0  0  0  0  0  0  0  0  0
   -0.2179    0.2876   -2.2060 H   0  0  0  0  0  0  0  0  0  0  0  0
   -1.3818   -1.0376   -2.0938 H   0  0  0  0  0  0  0  0  0  0  0  0
    0.9323   -1.8857   -2.3536 H   0  0  0  0  0  0  0  0  0  0  0  0
    0.3004   -2.3703   -0.7742 H   0  0  0  0  0  0  0  0  0  0  0  0
    3.8324    1.1177   -1.2136 H   0  0  0  0  0  0  0  0  0  0  0  0
    5.8132    2.1921   -0.2145 H   0  0  0  0  0  0  0  0  0  0  0  0
  1  2  1  0
  2  3  2  0
  3  4  1  0
  4  5  2  0
  5  6  1  0
  6  7  2  0
  6  8  1  0
  8  9  1  0
  9 10  1  0
 10 11  1  0
 11 12  1  0
 12 13  1  0
 13 14  1  0
 14 15  2  0
 15 16  1  0
 16 17  1  0
 17 18  1  0
 18 19  2  0
 19 20  1  0
 20 21  2  0
 21 22  1  0
 21 23  1  0
 23 24  2  0
 11 25  1  0
 25 26  1  0
  5 27  1  0
 27 28  2  0
 28  2  1  0
 26  8  1  0
 17 13  2  0
 24 18  1  0
  1 29  1  0
  1 30  1  0
  3 31  1  0
  4 32  1  0
  9 33  1  0
  9 34  1  0
 10 35  1  0
 10 36  1  0
 12 37  1  0
 12 38  1  0
 15 39  1  0
 19 40  1  0
 20 41  1  0
 23 42  1  0
 24 43  1  0
 25 44  1  0
 25 45  1  0
 26 46  1  0
 26 47  1  0
 27 48  1  0
 28 49  1  0
M  END
$$$$
