
     RDKit          3D

 54 57  0  0  0  0  0  0  0  0999 V2000
    2.9693    2.3301    2.8763 C   0  0  0  0  0  0  0  0  0  0  0  0
    3.2194    1.0152    2.2845 N   0  0  0  0  0  0  0  0  0  0  0  0
    4.3890    0.3094    2.8095 C   0  0  0  0  0  0  0  0  0  0  0  0
    2.8340    0.7883    0.9569 C   0  0  0  0  0  0  0  0  0  0  0  0
    1.9291    1.6356    0.2876 C   0  0  0  0  0  0  0  0  0  0  0  0
    1.5013    1.3916   -1.0243 C   0  0  0  0  0  0  0  0  0  0  0  0
    1.9635    0.2668   -1.6996 C   0  0  0  0  0  0  0  0  0  0  0  0
    1.4242   -0.0483   -3.3616 S   0  0  0  0  0  0  0  0  0  0  0  0
    0.9512    1.2058   -3.9106 O   0  0  0  0  0  0  0  0  0  0  0  0
    2.4548   -0.8138   -4.0293 O   0  0  0  0  0  0  0  0  0  0  0  0
    0.0477   -1.0105   -3.1473 N   0  0  0  0  0  0  0  0  0  0  0  0
    0.1604   -2.2580   -2.4499 C   0  0  0  0  0  0  0  0  0  0  0  0
    0.9277   -3.2815   -3.0133 C   0  0  0  0  0  0  0  0  0  0  0  0
    1.0718   -4.4872   -2.3395 C   0  0  0  0  0  0  0  0  0  0  0  0
    1.8083   -5.4636   -2.8838 F   0  0  0  0  0  0  0  0  0  0  0  0
    0.4627   -4.6988   -1.1110 C   0  0  0  0  0  0  0  0  0  0  0  0
   -0.3143   -3.6866   -0.5478 C   0  0  0  0  0  0  0  0  0  0  0  0
   -0.4858   -2.4530   -1.2061 C   0  0  0  0  0  0  0  0  0  0  0  0
   -1.3203   -1.4209   -0.5728 C   0  0  0  0  0  0  0  0  0  0  0  0
   -0.8792   -0.7492    0.5738 C   0  0  0  0  0  0  0  0  0  0  0  0
   -1.6584    0.2507    1.1659 C   0  0  0  0  0  0  0  0  0  0  0  0
   -2.9095    0.6030    0.6378 C   0  0  0  0  0  0  0  0  0  0  0  0
   -3.7238    1.6609    1.2574 C   0  0  0  0  0  0  0  0  0  0  0  0
   -4.2398    2.7180    0.4983 C   0  0  0  0  0  0  0  0  0  0  0  0
   -4.9944    3.6953    1.1284 C   0  0  0  0  0  0  0  0  0  0  0  0
   -5.2719    3.6949    2.4478 N   0  0  0  0  0  0  0  0  0  0  0  0
   -4.7737    2.6698    3.1684 C   0  0  0  0  0  0  0  0  0  0  0  0
   -4.0070    1.6488    2.6287 C   0  0  0  0  0  0  0  0  0  0  0  0
   -3.3578   -0.0875   -0.4990 C   0  0  0  0  0  0  0  0  0  0  0  0
   -2.5777   -1.0863   -1.0938 C   0  0  0  0  0  0  0  0  0  0  0  0
    2.8751   -0.5864   -1.0867 C   0  0  0  0  0  0  0  0  0  0  0  0
    3.2881   -0.3286    0.2277 C   0  0  0  0  0  0  0  0  0  0  0  0
    1.8962    2.5451    2.9264 H   0  0  0  0  0  0  0  0  0  0  0  0
    3.3309    2.3742    3.9101 H   0  0  0  0  0  0  0  0  0  0  0  0
    3.4797    3.1194    2.3139 H   0  0  0  0  0  0  0  0  0  0  0  0
    4.5793    0.5818    3.8538 H   0  0  0  0  0  0  0  0  0  0  0  0
    5.2885    0.5550    2.2353 H   0  0  0  0  0  0  0  0  0  0  0  0
    4.2337   -0.7743    2.8088 H   0  0  0  0  0  0  0  0  0  0  0  0
    1.5201    2.5151    0.7762 H   0  0  0  0  0  0  0  0  0  0  0  0
    0.8044    2.0802   -1.4953 H   0  0  0  0  0  0  0  0  0  0  0  0
   -0.7576   -0.4270   -2.9226 H   0  0  0  0  0  0  0  0  0  0  0  0
    1.4110   -3.1587   -3.9776 H   0  0  0  0  0  0  0  0  0  0  0  0
    0.5897   -5.6501   -0.6036 H   0  0  0  0  0  0  0  0  0  0  0  0
   -0.7986   -3.8644    0.4114 H   0  0  0  0  0  0  0  0  0  0  0  0
    0.0909   -0.9840    1.0105 H   0  0  0  0  0  0  0  0  0  0  0  0
   -1.2623    0.7663    2.0388 H   0  0  0  0  0  0  0  0  0  0  0  0
   -4.0500    2.7934   -0.5674 H   0  0  0  0  0  0  0  0  0  0  0  0
   -5.4049    4.5313    0.5690 H   0  0  0  0  0  0  0  0  0  0  0  0
   -5.0139    2.6880    4.2277 H   0  0  0  0  0  0  0  0  0  0  0  0
   -3.6482    0.8513    3.2716 H   0  0  0  0  0  0  0  0  0  0  0  0
   -4.3333    0.1378   -0.9267 H   0  0  0  0  0  0  0  0  0  0  0  0
   -2.9657   -1.6081   -1.9674 H   0  0  0  0  0  0  0  0  0  0  0  0
    3.2641   -1.4569   -1.6105 H   0  0  0  0  0  0  0  0  0  0  0  0
    3.9818   -1.0394    0.6670 H   0  0  0  0  0  0  0  0  0  0  0  0
  1  2  1  0
  2  3  1  0
  2  4  1  0
  4  5  2  0
  5  6  1  0
  6  7  2  0
  7  8  1  0
  8  9  2  0
  8 10  2  0
  8 11  1  0
 11 12  1  0
 12 13  2  0
 13 14  1  0
 14 15  1  0
 14 16  2  0
 16 17  1  0
 17 18  2  0
 18 19  1  0
 19 20  2  0
 20 21  1  0
 21 22  2  0
 22 23  1  0
 23 24  2  0
 24 25  1  0
 25 26  2  0
 26 27  1  0
 27 28  2  0
 22 29  1  0
 29 30  2  0
  7 31  1  0
 31 32  2  0
 32  4  1  0
 18 12  1  0
 30 19  1  0
 28 23  1  0
  1 33  1  0
  1 34  1  0
  1 35  1  0
  3 36  1  0
  3 37  1  0
  3 38  1  0
  5 39  1  0
  6 40  1  0
 11 41  1  0
 13 42  1  0
 16 43  1  0
 17 44  1  0
 20 45  1  0
 21 46  1  0
 24 47  1  0
 25 48  1  0
 27 49  1  0
 28 50  1  0
 29 51  1  0
 30 52  1  0
 31 53  1  0
 32 54  1  0
M  END
$$$$
