REMARK SMILES Fc1cccc(F)c1-c1n[nH]c2cc(N3CCC(Nc4nc5ccccc5s4)CC3)ccc12
REMARK SMILES IDX 9 1 10 2 11 3 12 4 13 5 14 6 31 7 32 8 33 9 8 11 2 12 3 13
REMARK SMILES IDX 4 14 6 15 5 16 1 17 7 18 15 19 16 20 30 21 17 22 29 23 18 24
REMARK SMILES IDX 19 25 20 27 21 28 28 29 22 30 27 31 23 32 26 33 24 34 25 35
REMARK H PARENT 11 10 19 26
ROOT
ATOM      1  C   UNL     1      -5.461   0.304  -1.127  1.00  0.00     0.106 A 
ATOM      2  N   UNL     1      -5.401   0.501  -2.454  1.00  0.00    -0.174 NA
ATOM      3  N   UNL     1      -4.102   0.345  -2.752  1.00  0.00    -0.277 N 
ATOM      4  C   UNL     1      -3.306   0.068  -1.677  1.00  0.00     0.068 A 
ATOM      5  C   UNL     1      -1.925  -0.157  -1.573  1.00  0.00     0.054 A 
ATOM      6  C   UNL     1      -1.365  -0.437  -0.312  1.00  0.00     0.039 A 
ATOM      7  C   UNL     1      -2.239  -0.481   0.787  1.00  0.00     0.027 A 
ATOM      8  C   UNL     1      -3.623  -0.253   0.674  1.00  0.00     0.015 A 
ATOM      9  C   UNL     1      -4.165   0.030  -0.590  1.00  0.00     0.028 A 
ATOM     10  H   UNL     1      -3.818   0.443  -3.720  1.00  0.00     0.190 HD
ENDROOT
BRANCH   1  11
ATOM     11  C   UNL     1      -6.726   0.382  -0.415  1.00  0.00     0.074 A 
ATOM     12  C   UNL     1      -7.818  -0.400  -0.798  1.00  0.00     0.135 A 
ATOM     13  C   UNL     1      -9.036  -0.324  -0.119  1.00  0.00     0.040 A 
ATOM     14  C   UNL     1      -9.180   0.543   0.962  1.00  0.00     0.006 A 
ATOM     15  C   UNL     1      -6.886   1.244   0.673  1.00  0.00     0.135 A 
ATOM     16  C   UNL     1      -8.099   1.329   1.360  1.00  0.00     0.040 A 
ATOM     17  F   UNL     1      -7.721  -1.272  -1.813  1.00  0.00    -0.206 F 
ATOM     18  F   UNL     1      -5.874   2.021   1.088  1.00  0.00    -0.206 F 
ENDBRANCH   1  11
BRANCH   6  19
ATOM     19  N   UNL     1       0.000  -0.671  -0.171  1.00  0.00    -0.371 N 
ATOM     20  C   UNL     1       0.529  -1.380   0.997  1.00  0.00     0.118 C 
ATOM     21  C   UNL     1       0.954  -0.072  -1.111  1.00  0.00     0.118 C 
ATOM     22  C   UNL     1       1.850  -2.058   0.651  1.00  0.00     0.046 C 
ATOM     23  C   UNL     1       2.277   0.220  -0.414  1.00  0.00     0.046 C 
ATOM     24  C   UNL     1       2.901  -1.060   0.149  1.00  0.00     0.085 C 
BRANCH  24  25
ATOM     25  N   UNL     1       3.818  -0.731   1.240  1.00  0.00    -0.359 N 
ATOM     26  H   UNL     1       3.389  -0.379   2.088  1.00  0.00     0.163 HD
BRANCH  25  27
ATOM     27  C   UNL     1       5.056  -0.261   0.955  1.00  0.00     0.184 A 
ATOM     28  N   UNL     1       5.640  -0.334  -0.217  1.00  0.00    -0.220 NA
ATOM     29  S   UNL     1       5.977   0.512   2.185  1.00  0.00    -0.097 S 
ATOM     30  C   UNL     1       6.898   0.242  -0.165  1.00  0.00     0.084 A 
ATOM     31  C   UNL     1       7.265   0.765   1.074  1.00  0.00     0.056 A 
ATOM     32  C   UNL     1       7.808   0.338  -1.238  1.00  0.00     0.030 A 
ATOM     33  C   UNL     1       8.509   1.383   1.282  1.00  0.00     0.021 A 
ATOM     34  C   UNL     1       9.050   0.950  -1.044  1.00  0.00     0.002 A 
ATOM     35  C   UNL     1       9.394   1.466   0.202  1.00  0.00     0.002 A 
ENDBRANCH  25  27
ENDBRANCH  24  25
ENDBRANCH   6  19
TORSDOF 4
