REMARK SMILES OC1CCN(c2ccc3c(-c4c(F)cccc4Cl)n[nH]c3c2)CC1
REMARK SMILES IDX 6 1 7 2 8 3 9 4 10 5 19 6 20 7 21 8 22 9 5 11 2 12 3 13
REMARK SMILES IDX 24 14 4 15 23 16 1 17 11 19 12 20 17 21 14 22 16 23 15 24
REMARK SMILES IDX 13 25 18 26
REMARK H PARENT 20 10 1 18
ROOT
ATOM      1  C   UNL     1      -1.154  -0.202  -0.081  1.00  0.00     0.039 A 
ATOM      2  C   UNL     1      -0.252   0.877  -0.042  1.00  0.00     0.027 A 
ATOM      3  C   UNL     1       1.143   0.710   0.032  1.00  0.00     0.015 A 
ATOM      4  C   UNL     1       1.665  -0.591   0.080  1.00  0.00     0.028 A 
ATOM      5  C   UNL     1       2.960  -1.183   0.162  1.00  0.00     0.104 A 
ATOM      6  N   UNL     1       2.884  -2.524   0.182  1.00  0.00    -0.174 NA
ATOM      7  N   UNL     1       1.566  -2.774   0.132  1.00  0.00    -0.277 N 
ATOM      8  C   UNL     1       0.780  -1.657   0.066  1.00  0.00     0.068 A 
ATOM      9  C   UNL     1      -0.613  -1.499  -0.002  1.00  0.00     0.054 A 
ATOM     10  H   UNL     1       1.262  -3.741   0.144  1.00  0.00     0.190 HD
ENDROOT
BRANCH   1  11
ATOM     11  N   UNL     1      -2.530   0.027  -0.140  1.00  0.00    -0.371 N 
ATOM     12  C   UNL     1      -5.013   0.875   0.572  1.00  0.00     0.118 C 
ATOM     13  C   UNL     1      -4.921  -0.574   0.115  1.00  0.00     0.053 C 
ATOM     14  C   UNL     1      -4.191   1.803  -0.327  1.00  0.00     0.053 C 
ATOM     15  C   UNL     1      -3.473  -1.066   0.146  1.00  0.00     0.119 C 
ATOM     16  C   UNL     1      -3.045   1.073  -1.028  1.00  0.00     0.119 C 
BRANCH  12  17
ATOM     17  O   UNL     1      -6.380   1.283   0.564  1.00  0.00    -0.393 OA
ATOM     18  H   UNL     1      -6.414   2.183   0.931  1.00  0.00     0.210 HD
ENDBRANCH  12  17
ENDBRANCH   1  11
BRANCH   5  19
ATOM     19  C   UNL     1       4.244  -0.503   0.211  1.00  0.00     0.057 A 
ATOM     20  C   UNL     1       4.705   0.166  -0.928  1.00  0.00     0.134 A 
ATOM     21  C   UNL     1       5.043  -0.486   1.363  1.00  0.00     0.053 A 
ATOM     22  C   UNL     1       5.932   0.828  -0.937  1.00  0.00     0.040 A 
ATOM     23  C   UNL     1       6.278   0.178   1.357  1.00  0.00     0.021 A 
ATOM     24  C   UNL     1       6.723   0.833   0.208  1.00  0.00     0.005 A 
ATOM     25  F   UNL     1       3.968   0.191  -2.050  1.00  0.00    -0.206 F 
ATOM     26  Cl  UNL     1       4.554  -1.228   2.848  1.00  0.00    -0.083 Cl
ENDBRANCH   5  19
TORSDOF 3
