REMARK SMILES COC(=O)NC1CCN(c2ccc3c(-c4c(F)cccc4F)n[nH]c3c2)CC1
REMARK SMILES IDX 6 1 7 2 8 3 9 4 27 5 28 6 5 7 3 8 4 9 2 11 1 12 10 13 11 14
REMARK SMILES IDX 26 15 12 16 25 17 13 18 24 19 14 20 23 21 15 23 16 24 21 25
REMARK SMILES IDX 18 26 20 27 19 28 17 29 22 30
REMARK H PARENT 5 10 24 22
ROOT
ATOM      1  C   UNL     1       4.063  -0.870  -0.059  1.00  0.00     0.089 C 
ATOM      2  C   UNL     1       3.145  -1.579   0.942  1.00  0.00     0.046 C 
ATOM      3  C   UNL     1       1.907  -0.752   1.276  1.00  0.00     0.118 C 
ATOM      4  N   UNL     1       1.150  -0.452   0.058  1.00  0.00    -0.371 N 
ATOM      5  C   UNL     1       1.885  -0.305  -1.202  1.00  0.00     0.118 C 
ATOM      6  C   UNL     1       3.316   0.144  -0.931  1.00  0.00     0.046 C 
ENDROOT
BRANCH   1   7
ATOM      7  N   UNL     1       5.182  -0.230   0.619  1.00  0.00    -0.319 N 
ATOM      8  C   UNL     1       6.356   0.050  -0.014  1.00  0.00     0.407 C 
ATOM      9  O   UNL     1       6.660  -0.311  -1.140  1.00  0.00    -0.225 OA
ATOM     10  H   UNL     1       5.035   0.286   1.475  1.00  0.00     0.167 HD
BRANCH   8  11
ATOM     11  O   UNL     1       7.124   0.811   0.804  1.00  0.00    -0.453 OA
ATOM     12  C   UNL     1       8.386   1.170   0.240  1.00  0.00     0.284 C 
ENDBRANCH   8  11
ENDBRANCH   1   7
BRANCH   4  13
ATOM     13  C   UNL     1      -0.229  -0.265   0.098  1.00  0.00     0.039 A 
ATOM     14  C   UNL     1      -1.025  -0.442  -1.047  1.00  0.00     0.027 A 
ATOM     15  C   UNL     1      -0.883   0.108   1.288  1.00  0.00     0.054 A 
ATOM     16  C   UNL     1      -2.420  -0.262  -1.046  1.00  0.00     0.015 A 
ATOM     17  C   UNL     1      -2.274   0.287   1.279  1.00  0.00     0.068 A 
ATOM     18  C   UNL     1      -3.056   0.111   0.148  1.00  0.00     0.028 A 
ATOM     19  N   UNL     1      -3.149   0.651   2.264  1.00  0.00    -0.277 N 
ATOM     20  C   UNL     1      -4.393   0.394   0.569  1.00  0.00     0.106 A 
ATOM     21  N   UNL     1      -4.430   0.718   1.872  1.00  0.00    -0.174 NA
ATOM     22  H   UNL     1      -2.934   0.868   3.230  1.00  0.00     0.190 HD
BRANCH  20  23
ATOM     23  C   UNL     1      -5.607   0.358  -0.229  1.00  0.00     0.074 A 
ATOM     24  C   UNL     1      -5.970  -0.790  -0.937  1.00  0.00     0.135 A 
ATOM     25  C   UNL     1      -6.448   1.471  -0.311  1.00  0.00     0.135 A 
ATOM     26  C   UNL     1      -7.137  -0.834  -1.702  1.00  0.00     0.040 A 
ATOM     27  C   UNL     1      -7.619   1.440  -1.073  1.00  0.00     0.040 A 
ATOM     28  C   UNL     1      -7.966   0.284  -1.770  1.00  0.00     0.006 A 
ATOM     29  F   UNL     1      -5.203  -1.891  -0.897  1.00  0.00    -0.206 F 
ATOM     30  F   UNL     1      -6.141   2.616   0.318  1.00  0.00    -0.206 F 
ENDBRANCH  20  23
ENDBRANCH   4  13
TORSDOF 4
