MODEL        8USER    Run = 8USERUSER    Estimated Free Energy of Binding    =  -8.60 kcal/mol  [=(1)+(2)+(3)-(4)]USERUSER    (1) Final Intermolecular Energy     =  -9.49 kcal/molUSER        vdW + Hbond + desolv Energy     =  -9.45 kcal/molUSER        Electrostatic Energy            =  -0.04 kcal/molUSER        Moving Ligand-Fixed Receptor    =  -9.49 kcal/molUSER        Moving Ligand-Moving Receptor   =  +0.00 kcal/molUSER    (2) Final Total Internal Energy     =  -0.71 kcal/molUSER    (3) Torsional Free Energy           =  +0.89 kcal/molUSER    (4) Unbound System's Energy         =  -0.71 kcal/molUSERUSERREMARK SMILES OC1CCN(c2ccc3c(-c4c(F)cccc4Cl)n[nH]c3c2)CC1REMARK SMILES IDX 6 1 7 2 8 3 9 4 10 5 19 6 20 7 21 8 22 9 5 11 2 12 3 13REMARK SMILES IDX 24 14 4 15 23 16 1 17 11 19 12 20 17 21 14 22 16 23 15 24REMARK SMILES IDX 13 25 18 26REMARK H PARENT 20 10 1 18USER                              x       y       z     vdW  Elec       q    TypeUSER                           _______ _______ _______ _____ _____    ______ ____ROOTATOM      1  C   UNL     1      39.208  46.847  16.688 -0.42 -0.01    +0.039 A  ATOM      2  C   UNL     1      38.738  46.035  17.737 -0.38 -0.01    +0.027 A  ATOM      3  C   UNL     1      39.501  45.739  18.881 -0.41 -0.00    +0.015 A  ATOM      4  C   UNL     1      40.796  46.267  18.983 -0.45 -0.00    +0.028 A  ATOM      5  C   UNL     1      41.864  46.213  19.927 -0.35 +0.02    +0.104 A  ATOM      6  N   UNL     1      42.924  46.923  19.508 -0.39 -0.04    -0.174 NA ATOM      7  N   UNL     1      42.541  47.401  18.314 -0.33 +0.00    -0.277 N  ATOM      8  C   UNL     1      41.274  47.047  17.942 -0.47 -0.01    +0.068 A  ATOM      9  C   UNL     1      40.521  47.342  16.794 -0.48 -0.01    +0.054 A  ATOM     10  H   UNL     1      43.198  47.973  17.795 -0.25 -0.01    +0.190 HD ENDROOTBRANCH   1  11ATOM     11  N   UNL     1      38.409  47.093  15.570 -0.15 +0.16    -0.371 N  ATOM     12  C   UNL     1      37.665  47.360  12.969 -0.51 -0.03    +0.118 C  ATOM     13  C   UNL     1      37.283  48.517  13.882 -0.59 -0.03    +0.053 C  ATOM     14  C   UNL     1      37.401  46.006  13.633 -0.49 -0.02    +0.053 C  ATOM     15  C   UNL     1      38.089  48.476  15.182 -0.50 -0.08    +0.119 C  ATOM     16  C   UNL     1      37.422  46.090  15.160 -0.36 -0.05    +0.119 C  BRANCH  12  17ATOM     17  O   UNL     1      36.919  47.456  11.756 -0.92 +0.13    -0.393 OA ATOM     18  H   UNL     1      36.784  48.401  11.575 -0.22 -0.05    +0.210 HD ENDBRANCH  12  17ENDBRANCH   1  11BRANCH   5  19ATOM     19  C   UNL     1      41.884  45.515  21.203 -0.28 +0.01    +0.057 A  ATOM     20  C   UNL     1      41.467  44.181  21.257 -0.25 +0.01    +0.134 A  ATOM     21  C   UNL     1      42.312  46.128  22.389 -0.21 +0.01    +0.053 A  ATOM     22  C   UNL     1      41.460  43.468  22.455 -0.29 +0.00    +0.040 A  ATOM     23  C   UNL     1      42.306  45.415  23.596 -0.11 +0.00    +0.021 A  ATOM     24  C   UNL     1      41.878  44.087  23.629 -0.16 +0.00    +0.005 A  ATOM     25  F   UNL     1      41.063  43.546  20.145 -0.02 -0.02    -0.206 F  ATOM     26  Cl  UNL     1      42.904  47.754  22.437 -0.46 -0.01    -0.083 Cl ENDBRANCH   5  19TORSDOF 3TERENDMDL