MODEL        6USER    Run = 6USERUSER    Estimated Free Energy of Binding    =  -8.82 kcal/mol  [=(1)+(2)+(3)-(4)]USERUSER    (1) Final Intermolecular Energy     = -10.01 kcal/molUSER        vdW + Hbond + desolv Energy     =  -9.93 kcal/molUSER        Electrostatic Energy            =  -0.08 kcal/molUSER        Moving Ligand-Fixed Receptor    = -10.01 kcal/molUSER        Moving Ligand-Moving Receptor   =  +0.00 kcal/molUSER    (2) Final Total Internal Energy     =  -0.54 kcal/molUSER    (3) Torsional Free Energy           =  +1.19 kcal/molUSER    (4) Unbound System's Energy         =  -0.54 kcal/molUSERUSERREMARK SMILES COC(=O)NC1CCN(c2ccc3c(-c4c(F)cccc4F)n[nH]c3c2)CC1REMARK SMILES IDX 6 1 7 2 8 3 9 4 27 5 28 6 5 7 3 8 4 9 2 11 1 12 10 13 11 14REMARK SMILES IDX 26 15 12 16 25 17 13 18 24 19 14 20 23 21 15 23 16 24 21 25REMARK SMILES IDX 18 26 20 27 19 28 17 29 22 30REMARK H PARENT 5 10 24 22USER                              x       y       z     vdW  Elec       q    TypeUSER                           _______ _______ _______ _____ _____    ______ ____ROOTATOM      1  C   UNL     1      40.525  45.959  17.714 -0.47 -0.01    +0.089 C  ATOM      2  C   UNL     1      41.307  45.273  18.839 -0.45 +0.00    +0.046 C  ATOM      3  C   UNL     1      40.807  45.681  20.221 -0.36 +0.01    +0.118 C  ATOM      4  N   UNL     1      39.383  45.365  20.363 -0.15 -0.00    -0.371 N  ATOM      5  C   UNL     1      38.536  45.413  19.168 -0.32 -0.01    +0.118 C  ATOM      6  C   UNL     1      39.117  46.381  18.145 -0.37 -0.01    +0.046 C  ENDROOTBRANCH   1   7ATOM      7  N   UNL     1      41.259  47.101  17.187 -0.18 +0.04    -0.319 N  ATOM      8  C   UNL     1      40.654  48.092  16.474 -0.28 -0.07    +0.407 C  ATOM      9  O   UNL     1      39.498  48.080  16.080 -0.38 +0.08    -0.225 OA ATOM     10  H   UNL     1      42.160  47.351  17.568 -0.41 -0.03    +0.167 HD BRANCH   8  11ATOM     11  O   UNL     1      41.539  49.102  16.288 -0.84 -0.03    -0.453 OA ATOM     12  C   UNL     1      41.117  50.070  15.327 -0.48 -0.08    +0.284 C  ENDBRANCH   8  11ENDBRANCH   1   7BRANCH   4  13ATOM     13  C   UNL     1      38.834  45.070  21.608 -0.33 +0.00    +0.039 A  ATOM     14  C   UNL     1      37.937  44.001  21.777 -0.35 +0.00    +0.027 A  ATOM     15  C   UNL     1      39.156  45.829  22.749 -0.29 +0.00    +0.054 A  ATOM     16  C   UNL     1      37.362  43.672  23.018 -0.36 +0.00    +0.015 A  ATOM     17  C   UNL     1      38.576  45.496  23.981 -0.25 +0.01    +0.068 A  ATOM     18  C   UNL     1      37.692  44.440  24.145 -0.30 +0.00    +0.028 A  ATOM     19  N   UNL     1      38.697  46.055  25.223 -0.11 -0.02    -0.277 N  ATOM     20  C   UNL     1      37.344  44.454  25.532 -0.26 -0.00    +0.106 A  ATOM     21  N   UNL     1      37.975  45.449  26.177 -0.19 +0.01    -0.174 NA ATOM     22  H   UNL     1      39.260  46.855  25.486 +0.09 +0.01    +0.190 HD BRANCH  20  23ATOM     23  C   UNL     1      36.445  43.556  26.236 -0.34 -0.01    +0.074 A  ATOM     24  C   UNL     1      35.699  43.996  27.332 -0.38 -0.03    +0.135 A  ATOM     25  C   UNL     1      36.300  42.224  25.837 -0.33 -0.02    +0.135 A  ATOM     26  C   UNL     1      34.830  43.140  28.010 -0.55 -0.01    +0.040 A  ATOM     27  C   UNL     1      35.433  41.357  26.508 -0.53 -0.01    +0.040 A  ATOM     28  C   UNL     1      34.694  41.816  27.597 -0.54 -0.00    +0.006 A  ATOM     29  F   UNL     1      35.796  45.264  27.762 -0.09 +0.07    -0.206 F  ATOM     30  F   UNL     1      37.012  41.729  24.813 -0.11 +0.01    -0.206 F  ENDBRANCH  20  23ENDBRANCH   4  13TORSDOF 4TERENDMDL