REMARK SMILES Nc1ccnc(-c2ccc(C(=O)NC3CCN(c4ccc5c(-c6c(F)cccc6F)n[nH]c5c4)CC3)cc2)n1
REMARK SMILES IDX 11 1 12 2 13 3 10 5 7 6 8 7 38 8 9 9 37 10 6 11 2 12 3 13
REMARK SMILES IDX 39 14 4 15 5 16 1 17 14 20 15 21 36 22 16 23 35 24 17 25
REMARK SMILES IDX 18 26 19 27 34 28 20 29 33 30 21 31 32 32 22 33 31 34 23 36
REMARK SMILES IDX 24 37 29 38 26 39 28 40 27 41 25 42 30 43
REMARK H PARENT 13 4 1 18 1 19 32 35
ROOT
ATOM      1  C   UNL     1       2.931   0.743   0.449  1.00  0.00     0.251 C 
ATOM      2  O   UNL     1       2.465   1.808   0.837  1.00  0.00    -0.269 OA
ATOM      3  N   UNL     1       2.161  -0.345   0.088  1.00  0.00    -0.349 N 
ATOM      4  H   UNL     1       2.608  -1.118  -0.388  1.00  0.00     0.164 HD
ENDROOT
BRANCH   1   5
ATOM      5  C   UNL     1       4.403   0.580   0.309  1.00  0.00     0.039 A 
ATOM      6  C   UNL     1       7.221   0.356   0.029  1.00  0.00     0.019 A 
ATOM      7  C   UNL     1       6.561   1.589  -0.137  1.00  0.00     0.013 A 
ATOM      8  C   UNL     1       6.423  -0.759   0.352  1.00  0.00     0.013 A 
ATOM      9  C   UNL     1       5.173   1.705   0.007  1.00  0.00     0.014 A 
ATOM     10  C   UNL     1       5.032  -0.654   0.494  1.00  0.00     0.014 A 
BRANCH   6  11
ATOM     11  C   UNL     1       8.687   0.240  -0.123  1.00  0.00     0.161 A 
ATOM     12  C   UNL     1      10.692   1.227  -0.644  1.00  0.00     0.127 A 
ATOM     13  C   UNL     1      11.362   0.047  -0.405  1.00  0.00     0.066 A 
ATOM     14  N   UNL     1       9.367   1.337  -0.508  1.00  0.00    -0.212 NA
ATOM     15  C   UNL     1      10.589  -1.021  -0.018  1.00  0.00     0.117 A 
ATOM     16  N   UNL     1       9.256  -0.956   0.128  1.00  0.00    -0.236 NA
BRANCH  12  17
ATOM     17  N   UNL     1      11.396   2.366  -1.048  1.00  0.00    -0.384 N 
ATOM     18  H   UNL     1      11.878   2.186  -1.924  1.00  0.00     0.158 HD
ATOM     19  H   UNL     1      12.088   2.617  -0.349  1.00  0.00     0.158 HD
ENDBRANCH  12  17
ENDBRANCH   6  11
ENDBRANCH   1   5
BRANCH   3  20
ATOM     20  C   UNL     1       0.701  -0.289   0.116  1.00  0.00     0.085 C 
ATOM     21  C   UNL     1       0.090  -1.409  -0.744  1.00  0.00     0.046 C 
ATOM     22  C   UNL     1       0.164  -0.348   1.548  1.00  0.00     0.046 C 
ATOM     23  C   UNL     1      -1.254  -1.902  -0.203  1.00  0.00     0.118 C 
ATOM     24  C   UNL     1      -1.356  -0.161   1.560  1.00  0.00     0.118 C 
ATOM     25  N   UNL     1      -1.980  -0.775   0.379  1.00  0.00    -0.371 N 
BRANCH  25  26
ATOM     26  C   UNL     1      -3.345  -0.621   0.143  1.00  0.00     0.039 A 
ATOM     27  C   UNL     1      -4.225  -0.135   1.127  1.00  0.00     0.027 A 
ATOM     28  C   UNL     1      -3.890  -0.899  -1.126  1.00  0.00     0.054 A 
ATOM     29  C   UNL     1      -5.602   0.044   0.902  1.00  0.00     0.015 A 
ATOM     30  C   UNL     1      -5.264  -0.717  -1.341  1.00  0.00     0.068 A 
ATOM     31  C   UNL     1      -6.131  -0.260  -0.362  1.00  0.00     0.028 A 
ATOM     32  N   UNL     1      -6.041  -0.898  -2.450  1.00  0.00    -0.277 N 
ATOM     33  C   UNL     1      -7.414  -0.209  -0.991  1.00  0.00     0.106 A 
ATOM     34  N   UNL     1      -7.341  -0.618  -2.269  1.00  0.00    -0.174 NA
ATOM     35  H   UNL     1      -5.744  -1.214  -3.365  1.00  0.00     0.190 HD
BRANCH  33  36
ATOM     36  C   UNL     1      -8.677   0.214  -0.410  1.00  0.00     0.074 A 
ATOM     37  C   UNL     1      -9.443   1.219  -1.006  1.00  0.00     0.135 A 
ATOM     38  C   UNL     1      -9.162  -0.370   0.762  1.00  0.00     0.135 A 
ATOM     39  C   UNL     1     -10.657   1.630  -0.450  1.00  0.00     0.040 A 
ATOM     40  C   UNL     1     -10.374   0.031   1.327  1.00  0.00     0.040 A 
ATOM     41  C   UNL     1     -11.126   1.035   0.719  1.00  0.00     0.006 A 
ATOM     42  F   UNL     1      -9.020   1.844  -2.115  1.00  0.00    -0.206 F 
ATOM     43  F   UNL     1      -8.472  -1.342   1.381  1.00  0.00    -0.206 F 
ENDBRANCH  33  36
ENDBRANCH  25  26
ENDBRANCH   3  20
TORSDOF 6
