MODEL        2USER    Run = 2USERUSER    Estimated Free Energy of Binding    = -10.66 kcal/mol  [=(1)+(2)+(3)-(4)]USERUSER    (1) Final Intermolecular Energy     = -11.86 kcal/molUSER        vdW + Hbond + desolv Energy     = -11.85 kcal/molUSER        Electrostatic Energy            =  -0.01 kcal/molUSER        Moving Ligand-Fixed Receptor    = -11.86 kcal/molUSER        Moving Ligand-Moving Receptor   =  +0.00 kcal/molUSER    (2) Final Total Internal Energy     =  -1.05 kcal/molUSER    (3) Torsional Free Energy           =  +1.19 kcal/molUSER    (4) Unbound System's Energy         =  -1.05 kcal/molUSERUSERREMARK SMILES Fc1cccc(F)c1-c1n[nH]c2cc(N3CCC(Nc4nc5ccccc5s4)CC3)ccc12REMARK SMILES IDX 9 1 10 2 11 3 12 4 13 5 14 6 31 7 32 8 33 9 8 11 2 12 3 13REMARK SMILES IDX 4 14 6 15 5 16 1 17 7 18 15 19 16 20 30 21 17 22 29 23 18 24REMARK SMILES IDX 19 25 20 27 21 28 28 29 22 30 27 31 23 32 26 33 24 34 25 35REMARK H PARENT 11 10 19 26USER                              x       y       z     vdW  Elec       q    TypeUSER                           _______ _______ _______ _____ _____    ______ ____ROOTATOM      1  C   UNL     1      39.050  46.910  15.620 -0.37 -0.03    +0.106 A  ATOM      2  N   UNL     1      40.276  47.455  15.558 -0.36 +0.03    -0.174 NA ATOM      3  N   UNL     1      40.861  47.082  16.706 -0.27 +0.03    -0.277 N  ATOM      4  C   UNL     1      40.069  46.327  17.524 -0.43 -0.01    +0.068 A  ATOM      5  C   UNL     1      40.305  45.756  18.783 -0.42 -0.00    +0.054 A  ATOM      6  C   UNL     1      39.289  45.003  19.401 -0.37 -0.00    +0.039 A  ATOM      7  C   UNL     1      38.077  44.861  18.705 -0.36 -0.00    +0.027 A  ATOM      8  C   UNL     1      37.847  45.439  17.442 -0.36 -0.00    +0.015 A  ATOM      9  C   UNL     1      38.870  46.191  16.842 -0.40 -0.01    +0.028 A  ATOM     10  H   UNL     1      41.815  47.379  16.875 -0.39 -0.04    +0.190 HD ENDROOTBRANCH   1  11ATOM     11  C   UNL     1      38.097  47.086  14.536 -0.40 -0.03    +0.074 A  ATOM     12  C   UNL     1      37.785  46.033  13.673 -0.32 -0.04    +0.135 A  ATOM     13  C   UNL     1      36.874  46.200  12.628 -0.57 -0.02    +0.040 A  ATOM     14  C   UNL     1      36.255  47.432  12.431 -0.68 -0.00    +0.006 A  ATOM     15  C   UNL     1      37.466  48.314  14.327 -0.43 -0.08    +0.135 A  ATOM     16  C   UNL     1      36.552  48.493  13.286 -0.45 -0.02    +0.040 A  ATOM     17  F   UNL     1      38.331  44.819  13.839 -0.01 +0.05    -0.206 F  ATOM     18  F   UNL     1      37.724  49.363  15.123 -0.14 +0.18    -0.206 F  ENDBRANCH   1  11BRANCH   6  19ATOM     19  N   UNL     1      39.489  44.417  20.648 -0.11 -0.01    -0.371 N  ATOM     20  C   UNL     1      38.401  44.325  21.624 -0.33 +0.00    +0.118 C  ATOM     21  C   UNL     1      40.837  44.021  21.071 -0.29 +0.01    +0.118 C  ATOM     22  C   UNL     1      38.635  43.152  22.569 -0.33 +0.00    +0.046 C  ATOM     23  C   UNL     1      40.981  44.152  22.582 -0.25 +0.00    +0.046 C  ATOM     24  C   UNL     1      39.971  43.264  23.314 -0.24 +0.00    +0.085 C  BRANCH  24  25ATOM     25  N   UNL     1      39.735  43.781  24.661 -0.03 -0.01    -0.359 N  ATOM     26  H   UNL     1      40.562  43.970  25.214 +0.06 +0.00    +0.163 HD BRANCH  25  27ATOM     27  C   UNL     1      38.633  43.389  25.345 -0.12 +0.00    +0.184 A  ATOM     28  N   UNL     1      38.474  42.216  25.911 -0.18 +0.00    -0.220 NA ATOM     29  S   UNL     1      37.312  44.475  25.527 -0.41 +0.00    -0.097 S  ATOM     30  C   UNL     1      37.236  42.143  26.527 -0.33 -0.01    +0.084 A  ATOM     31  C   UNL     1      36.449  43.289  26.425 -0.36 -0.01    +0.056 A  ATOM     32  C   UNL     1      36.727  41.031  27.228 -0.48 -0.01    +0.030 A  ATOM     33  C   UNL     1      35.171  43.368  27.001 -0.51 -0.00    +0.021 A  ATOM     34  C   UNL     1      35.455  41.095  27.805 -0.62 -0.00    +0.002 A  ATOM     35  C   UNL     1      34.688  42.251  27.692 -0.55 -0.00    +0.002 A  ENDBRANCH  25  27ENDBRANCH  24  25ENDBRANCH   6  19TORSDOF 4TERENDMDL