MODEL        4USER    Run = 4USERUSER    Estimated Free Energy of Binding    = -10.14 kcal/mol  [=(1)+(2)+(3)-(4)]USERUSER    (1) Final Intermolecular Energy     = -11.93 kcal/molUSER        vdW + Hbond + desolv Energy     = -11.40 kcal/molUSER        Electrostatic Energy            =  -0.53 kcal/molUSER        Moving Ligand-Fixed Receptor    = -11.93 kcal/molUSER        Moving Ligand-Moving Receptor   =  +0.00 kcal/molUSER    (2) Final Total Internal Energy     =  -1.24 kcal/molUSER    (3) Torsional Free Energy           =  +1.79 kcal/molUSER    (4) Unbound System's Energy         =  -1.24 kcal/molUSERUSERREMARK SMILES Nc1ccnc(-c2ccc(C(=O)NC3CCN(c4ccc5c(-c6c(F)cccc6F)n[nH]c5c4)CC3)cc2)n1REMARK SMILES IDX 11 1 12 2 13 3 10 5 7 6 8 7 38 8 9 9 37 10 6 11 2 12 3 13REMARK SMILES IDX 39 14 4 15 5 16 1 17 14 20 15 21 36 22 16 23 35 24 17 25REMARK SMILES IDX 18 26 19 27 34 28 20 29 33 30 21 31 32 32 22 33 31 34 23 36REMARK SMILES IDX 24 37 29 38 26 39 28 40 27 41 25 42 30 43REMARK H PARENT 13 4 1 18 1 19 32 35USER                              x       y       z     vdW  Elec       q    TypeUSER                           _______ _______ _______ _____ _____    ______ ____ROOTATOM      1  C   UNL     1      27.580  44.385  15.578 -0.14 -0.13    +0.251 C  ATOM      2  O   UNL     1      27.425  44.065  16.751 -0.18 +0.05    -0.269 OA ATOM      3  N   UNL     1      28.801  44.727  15.031 +0.01 +0.32    -0.349 N  ATOM      4  H   UNL     1      28.877  44.803  14.025 -0.32 -0.37    +0.164 HD ENDROOTBRANCH   1   5ATOM      5  C   UNL     1      26.421  44.383  14.645 -0.22 -0.02    +0.039 A  ATOM      6  C   UNL     1      24.181  44.303  12.900 -0.27 +0.00    +0.019 A  ATOM      7  C   UNL     1      24.442  43.260  13.810 -0.33 -0.00    +0.013 A  ATOM      8  C   UNL     1      25.074  45.393  12.902 -0.27 +0.00    +0.013 A  ATOM      9  C   UNL     1      25.541  43.299  14.677 -0.31 -0.01    +0.014 A  ATOM     10  C   UNL     1      26.180  45.439  13.763 -0.25 -0.01    +0.014 A  BRANCH   6  11ATOM     11  C   UNL     1      23.018  44.257  11.989 -0.17 +0.06    +0.161 A  ATOM     12  C   UNL     1      21.973  45.029  10.097 -0.16 -0.05    +0.127 A  ATOM     13  C   UNL     1      20.905  44.187  10.314 -0.15 -0.02    +0.066 A  ATOM     14  N   UNL     1      23.027  45.075  10.918 -0.27 -0.04    -0.212 NA ATOM     15  C   UNL     1      20.980  43.389  11.431 -0.22 -0.01    +0.117 A  ATOM     16  N   UNL     1      22.017  43.404  12.284 -0.39 -0.04    -0.236 NA BRANCH  12  17ATOM     17  N   UNL     1      21.982  45.882   8.988 -0.02 +0.50    -0.384 N  ATOM     18  H   UNL     1      22.226  45.362   8.150 -0.53 -0.34    +0.158 HD ATOM     19  H   UNL     1      22.668  46.619   9.118 -0.46 -0.32    +0.158 HD ENDBRANCH  12  17ENDBRANCH   6  11ENDBRANCH   1   5BRANCH   3  20ATOM     20  C   UNL     1      30.027  44.702  15.827 -0.34 -0.04    +0.085 C  ATOM     21  C   UNL     1      30.424  43.258  16.181 -0.33 -0.02    +0.046 C  ATOM     22  C   UNL     1      31.174  45.423  15.114 -0.49 -0.03    +0.046 C  ATOM     23  C   UNL     1      31.939  43.074  16.292 -0.30 -0.05    +0.118 C  ATOM     24  C   UNL     1      32.408  45.493  16.018 -0.30 -0.09    +0.118 C  ATOM     25  N   UNL     1      32.532  44.287  16.850 -0.07 +0.15    -0.371 N  BRANCH  25  26ATOM     26  C   UNL     1      33.527  44.201  17.822 -0.29 -0.01    +0.039 A  ATOM     27  C   UNL     1      33.316  43.557  19.054 -0.38 -0.00    +0.027 A  ATOM     28  C   UNL     1      34.815  44.716  17.578 -0.28 -0.02    +0.054 A  ATOM     29  C   UNL     1      34.313  43.444  20.040 -0.30 -0.00    +0.015 A  ATOM     30  C   UNL     1      35.803  44.599  18.567 -0.30 -0.02    +0.068 A  ATOM     31  C   UNL     1      35.584  43.983  19.789 -0.39 -0.00    +0.028 A  ATOM     32  N   UNL     1      37.111  44.993  18.595 -0.18 +0.05    -0.277 N  ATOM     33  C   UNL     1      36.832  44.069  20.482 -0.33 -0.00    +0.106 A  ATOM     34  N   UNL     1      37.753  44.705  19.738 -0.27 +0.01    -0.174 NA ATOM     35  H   UNL     1      37.627  45.467  17.864 +0.12 -0.05    +0.190 HD BRANCH  33  36ATOM     36  C   UNL     1      37.154  43.567  21.806 -0.35 +0.00    +0.074 A  ATOM     37  C   UNL     1      37.775  44.383  22.755 -0.27 +0.01    +0.135 A  ATOM     38  C   UNL     1      36.854  42.253  22.171 -0.40 +0.01    +0.135 A  ATOM     39  C   UNL     1      38.088  43.904  24.029 -0.27 +0.00    +0.040 A  ATOM     40  C   UNL     1      37.160  41.762  23.441 -0.38 +0.00    +0.040 A  ATOM     41  C   UNL     1      37.780  42.590  24.376 -0.34 +0.00    +0.006 A  ATOM     42  F   UNL     1      38.119  45.646  22.460 -0.11 -0.02    -0.206 F  ATOM     43  F   UNL     1      36.256  41.419  21.304 -0.20 -0.00    -0.206 F  ENDBRANCH  33  36ENDBRANCH  25  26ENDBRANCH   3  20TORSDOF 6TERENDMDL