REMARK SMILES CN1CCN(S(=O)(=O)c2ccc(-c3nc4cccnc4nc3-c3ccc(CN4CCC(n5c(O)nc6ncccc65)CC4)cc3)cn2)CC1
REMARK SMILES IDX 23 1 24 2 25 3 26 4 44 5 45 6 22 7 13 8 14 9 15 10 21 11
REMARK SMILES IDX 16 12 20 13 17 14 19 15 18 16 12 17 9 18 10 19 47 20 11 21
REMARK SMILES IDX 46 22 6 23 7 24 8 25 5 26 2 27 3 28 49 29 4 30 48 31 1 32
REMARK SMILES IDX 27 33 28 34 29 35 43 36 30 37 42 38 31 39 32 40 33 41 41 42
REMARK SMILES IDX 35 43 40 44 36 45 39 46 37 47 38 48 34 49
REMARK H PARENT 34 50
ROOT
ATOM      1  C   UNL     1       0.100  -3.953   0.462  1.00  0.00     0.002 A 
ATOM      2  C   UNL     1       0.967  -3.961   1.565  1.00  0.00     0.011 A 
ATOM      3  C   UNL     1       2.226  -3.357   1.492  1.00  0.00     0.006 A 
ATOM      4  C   UNL     1       2.660  -2.755   0.305  1.00  0.00    -0.034 A 
ATOM      5  C   UNL     1       1.807  -2.758  -0.805  1.00  0.00     0.006 A 
ATOM      6  C   UNL     1       0.542  -3.350  -0.727  1.00  0.00     0.011 A 
ENDROOT
BRANCH   1   7
ATOM      7  C   UNL     1      -1.231  -4.568   0.553  1.00  0.00     0.099 A 
ATOM      8  C   UNL     1      -2.436  -3.864   0.429  1.00  0.00     0.099 A 
ATOM      9  N   UNL     1      -3.626  -4.520   0.452  1.00  0.00    -0.242 NA
ATOM     10  C   UNL     1      -3.581  -5.857   0.627  1.00  0.00     0.108 A 
ATOM     11  N   UNL     1      -1.209  -5.916   0.740  1.00  0.00    -0.224 NA
ATOM     12  C   UNL     1      -4.763  -6.580   0.665  1.00  0.00     0.034 A 
ATOM     13  C   UNL     1      -2.369  -6.572   0.776  1.00  0.00     0.178 A 
ATOM     14  C   UNL     1      -4.744  -7.958   0.844  1.00  0.00     0.022 A 
ATOM     15  N   UNL     1      -2.343  -7.899   0.947  1.00  0.00    -0.235 NA
ATOM     16  C   UNL     1      -3.514  -8.568   0.979  1.00  0.00     0.114 A 
BRANCH   8  17
ATOM     17  C   UNL     1      -2.556  -2.408   0.280  1.00  0.00     0.021 A 
ATOM     18  C   UNL     1      -2.877   0.294  -0.095  1.00  0.00     0.170 A 
ATOM     19  C   UNL     1      -2.077  -0.123   0.956  1.00  0.00     0.043 A 
ATOM     20  N   UNL     1      -3.541  -0.537  -0.939  1.00  0.00    -0.243 NA
ATOM     21  C   UNL     1      -1.920  -1.496   1.138  1.00  0.00     0.015 A 
ATOM     22  C   UNL     1      -3.360  -1.861  -0.725  1.00  0.00     0.123 A 
BRANCH  18  23
ATOM     23  S   UNL     1      -3.189   2.043  -0.331  1.00  0.00     0.260 S 
ATOM     24  O   UNL     1      -3.245   2.657   0.983  1.00  0.00    -0.205 OA
ATOM     25  O   UNL     1      -2.251   2.521  -1.328  1.00  0.00    -0.205 OA
BRANCH  23  26
ATOM     26  N   UNL     1      -4.763   2.138  -0.982  1.00  0.00    -0.194 NA
ATOM     27  N   UNL     1      -7.370   3.591  -0.498  1.00  0.00    -0.304 NA
ATOM     28  C   UNL     1      -6.689   2.749   0.506  1.00  0.00     0.101 C 
ATOM     29  C   UNL     1      -6.597   3.667  -1.756  1.00  0.00     0.101 C 
ATOM     30  C   UNL     1      -5.861   1.608  -0.115  1.00  0.00     0.118 C 
ATOM     31  C   UNL     1      -5.078   3.469  -1.584  1.00  0.00     0.118 C 
ATOM     32  C   UNL     1      -7.644   4.917   0.049  1.00  0.00     0.105 C 
ENDBRANCH  23  26
ENDBRANCH  18  23
ENDBRANCH   8  17
ENDBRANCH   1   7
BRANCH   4  33
ATOM     33  C   UNL     1       4.039  -2.138   0.219  1.00  0.00     0.120 C 
BRANCH  33  34
ATOM     34  N   UNL     1       4.201  -0.927   1.039  1.00  0.00    -0.299 NA
ATOM     35  C   UNL     1       3.414   0.220   0.564  1.00  0.00     0.087 C 
ATOM     36  C   UNL     1       5.627  -0.627   1.240  1.00  0.00     0.087 C 
ATOM     37  C   UNL     1       4.131   1.062  -0.489  1.00  0.00     0.041 C 
ATOM     38  C   UNL     1       5.936   0.867   1.312  1.00  0.00     0.041 C 
ATOM     39  C   UNL     1       5.513   1.535  -0.004  1.00  0.00     0.095 C 
BRANCH  39  40
ATOM     40  N   UNL     1       5.645   2.985   0.047  1.00  0.00    -0.289 N 
ATOM     41  C   UNL     1       4.892   3.850   0.793  1.00  0.00     0.296 A 
ATOM     42  C   UNL     1       6.551   3.750  -0.652  1.00  0.00     0.091 A 
ATOM     43  N   UNL     1       5.230   5.101   0.638  1.00  0.00    -0.175 NA
ATOM     44  C   UNL     1       7.573   3.476  -1.563  1.00  0.00     0.032 A 
ATOM     45  C   UNL     1       6.261   5.058  -0.259  1.00  0.00     0.181 A 
ATOM     46  C   UNL     1       8.264   4.587  -2.042  1.00  0.00     0.022 A 
ATOM     47  N   UNL     1       6.928   6.140  -0.720  1.00  0.00    -0.235 NA
ATOM     48  C   UNL     1       7.911   5.857  -1.600  1.00  0.00     0.114 A 
BRANCH  41  49
ATOM     49  O   UNL     1       3.909   3.489   1.592  1.00  0.00    -0.480 OA
ATOM     50  H   UNL     1       3.608   4.353   1.929  1.00  0.00     0.296 HD
ENDBRANCH  41  49
ENDBRANCH  39  40
ENDBRANCH  33  34
ENDBRANCH   4  33
TORSDOF 8
