MODEL        10USER    Run = 10USERUSER    Estimated Free Energy of Binding    = -13.01 kcal/mol  [=(1)+(2)+(3)-(4)]USERUSER    (1) Final Intermolecular Energy     = -15.10 kcal/molUSER        vdW + Hbond + desolv Energy     = -14.95 kcal/molUSER        Electrostatic Energy            =  -0.15 kcal/molUSER        Moving Ligand-Fixed Receptor    = -15.10 kcal/molUSER        Moving Ligand-Moving Receptor   =  +0.00 kcal/molUSER    (2) Final Total Internal Energy     =  -2.56 kcal/molUSER    (3) Torsional Free Energy           =  +2.09 kcal/molUSER    (4) Unbound System's Energy         =  -2.56 kcal/molUSERUSERREMARK SMILES CN1CCN(C(=O)c2ccc(-c3nc4cccnc4nc3-c3ccc(CN4CCC(n5c(O)nc6ncccc65)CC4)cc3)cn2)CC1REMARK SMILES IDX 22 1 23 2 24 3 25 4 43 5 44 6 21 7 12 8 13 9 14 10 20 11REMARK SMILES IDX 15 12 19 13 16 14 18 15 17 16 11 17 8 18 9 19 46 20 10 21REMARK SMILES IDX 45 22 6 23 2 24 3 25 48 26 4 27 47 28 5 29 1 30 7 31 26 32REMARK SMILES IDX 27 33 28 34 42 35 29 36 41 37 30 38 31 39 32 40 40 41 34 42REMARK SMILES IDX 39 43 35 44 38 45 36 46 37 47 33 48REMARK H PARENT 33 49USER                              x       y       z     vdW  Elec       q    TypeUSER                           _______ _______ _______ _____ _____    ______ ____ROOTATOM      1  C   UNL     1      39.335  43.955  22.684 -0.26 +0.00    +0.002 A  ATOM      2  C   UNL     1      40.380  43.202  22.127 -0.22 +0.00    +0.011 A  ATOM      3  C   UNL     1      41.368  43.803  21.339 -0.33 +0.00    +0.006 A  ATOM      4  C   UNL     1      41.324  45.175  21.064 -0.31 -0.00    -0.034 A  ATOM      5  C   UNL     1      40.274  45.931  21.606 -0.23 +0.00    +0.006 A  ATOM      6  C   UNL     1      39.293  45.329  22.401 -0.30 +0.00    +0.011 A  ENDROOTBRANCH   1   7ATOM      7  C   UNL     1      38.307  43.305  23.513 -0.24 +0.01    +0.099 A  ATOM      8  C   UNL     1      37.098  42.784  23.031 -0.35 +0.01    +0.099 A  ATOM      9  N   UNL     1      36.250  42.125  23.865 -0.24 -0.01    -0.242 NA ATOM     10  C   UNL     1      36.611  42.037  25.162 -0.32 -0.01    +0.108 A  ATOM     11  N   UNL     1      38.642  43.220  24.830 -0.12 -0.01    -0.224 NA ATOM     12  C   UNL     1      35.782  41.382  26.062 -0.36 -0.01    +0.034 A  ATOM     13  C   UNL     1      37.810  42.594  25.663 -0.20 -0.01    +0.178 A  ATOM     14  C   UNL     1      36.129  41.289  27.404 -0.58 -0.01    +0.022 A  ATOM     15  N   UNL     1      38.147  42.513  26.954 -0.17 +0.02    -0.235 NA ATOM     16  C   UNL     1      37.315  41.869  27.798 -0.32 -0.03    +0.114 A  BRANCH   8  17ATOM     17  C   UNL     1      36.607  42.898  21.650 -0.42 +0.00    +0.021 A  ATOM     18  C   UNL     1      35.639  42.975  19.055 -0.29 -0.02    +0.128 A  ATOM     19  C   UNL     1      35.997  44.167  19.672 -0.37 -0.00    +0.035 A  ATOM     20  N   UNL     1      35.748  41.766  19.660 -0.24 +0.02    -0.250 NA ATOM     21  C   UNL     1      36.469  44.124  20.984 -0.35 +0.00    +0.014 A  ATOM     22  C   UNL     1      36.216  41.764  20.934 -0.43 -0.00    +0.122 A  BRANCH  18  23ATOM     23  C   UNL     1      35.200  43.014  17.627 -0.24 -0.08    +0.272 C  ATOM     24  N   UNL     1      31.149  43.941  16.424 -0.15 +0.11    -0.303 NA ATOM     25  C   UNL     1      32.286  44.216  15.532 -0.33 -0.06    +0.105 C  ATOM     26  C   UNL     1      31.536  43.925  17.850 -0.24 -0.02    +0.105 C  ATOM     27  C   UNL     1      33.525  43.370  15.878 -0.22 -0.07    +0.135 C  ATOM     28  C   UNL     1      33.019  44.230  18.147 -0.30 -0.04    +0.135 C  ATOM     29  N   UNL     1      33.926  43.471  17.284 -0.09 +0.12    -0.335 N  ATOM     30  C   UNL     1      30.032  44.843  16.165 -0.31 -0.03    +0.105 C  ATOM     31  O   UNL     1      36.013  42.643  16.775 -0.30 +0.09    -0.267 OA ENDBRANCH  18  23ENDBRANCH   8  17ENDBRANCH   1   7BRANCH   4  32ATOM     32  C   UNL     1      42.362  45.844  20.186 -0.15 +0.03    +0.120 C  BRANCH  32  33ATOM     33  N   UNL     1      41.902  46.284  18.865 -0.27 -0.02    -0.299 NA ATOM     34  C   UNL     1      40.718  45.603  18.352 -0.47 -0.00    +0.087 C  ATOM     35  C   UNL     1      41.973  47.726  18.644 -0.41 -0.00    +0.087 C  ATOM     36  C   UNL     1      39.533  46.521  18.063 -0.44 -0.01    +0.041 C  ATOM     37  C   UNL     1      41.405  48.098  17.278 -0.54 -0.00    +0.041 C  ATOM     38  C   UNL     1      39.912  47.749  17.219 -0.35 -0.02    +0.095 C  BRANCH  38  39ATOM     39  N   UNL     1      39.372  47.690  15.866 -0.26 +0.10    -0.289 N  ATOM     40  C   UNL     1      39.670  48.590  14.874 -0.29 -0.11    +0.296 A  ATOM     41  C   UNL     1      38.457  46.811  15.331 -0.36 -0.03    +0.091 A  ATOM     42  N   UNL     1      39.043  48.365  13.754 -0.35 +0.05    -0.175 NA ATOM     43  C   UNL     1      37.759  45.695  15.798 -0.34 -0.01    +0.032 A  ATOM     44  C   UNL     1      38.285  47.262  14.019 -0.34 -0.06    +0.181 A  ATOM     45  C   UNL     1      36.907  45.082  14.883 -0.37 -0.01    +0.022 A  ATOM     46  N   UNL     1      37.458  46.674  13.127 -0.37 +0.08    -0.235 NA ATOM     47  C   UNL     1      36.798  45.599  13.598 -0.38 -0.05    +0.114 A  BRANCH  40  48ATOM     48  O   UNL     1      40.497  49.608  15.011 -0.25 +0.19    -0.480 OA ATOM     49  H   UNL     1      39.873  50.354  15.088 -0.17 -0.25    +0.296 HD ENDBRANCH  40  48ENDBRANCH  38  39ENDBRANCH  32  33ENDBRANCH   4  32TORSDOF 7TERENDMDL