REMARK SMILES CN1CCN(C(=O)c2ccc(-c3nc4cccnc4nc3-c3ccc(CN4CCC(n5c(O)nc6ncccc65)CC4)cc3)cn2)CC1
REMARK SMILES IDX 22 1 23 2 24 3 25 4 43 5 44 6 21 7 12 8 13 9 14 10 20 11
REMARK SMILES IDX 15 12 19 13 16 14 18 15 17 16 11 17 8 18 9 19 46 20 10 21
REMARK SMILES IDX 45 22 6 23 2 24 3 25 48 26 4 27 47 28 5 29 1 30 7 31 26 32
REMARK SMILES IDX 27 33 28 34 42 35 29 36 41 37 30 38 31 39 32 40 40 41 34 42
REMARK SMILES IDX 39 43 35 44 38 45 36 46 37 47 33 48
REMARK H PARENT 33 49
ROOT
ATOM      1  C   UNL     1       0.132  -1.358   0.176  1.00  0.00     0.002 A 
ATOM      2  C   UNL     1       1.060  -1.288   1.227  1.00  0.00     0.011 A 
ATOM      3  C   UNL     1       1.873  -0.162   1.403  1.00  0.00     0.006 A 
ATOM      4  C   UNL     1       1.797   0.918   0.516  1.00  0.00    -0.034 A 
ATOM      5  C   UNL     1       0.882   0.848  -0.544  1.00  0.00     0.006 A 
ATOM      6  C   UNL     1       0.064  -0.274  -0.713  1.00  0.00     0.011 A 
ENDROOT
BRANCH   1   7
ATOM      7  C   UNL     1      -0.717  -2.549   0.009  1.00  0.00     0.099 A 
ATOM      8  C   UNL     1      -2.118  -2.535  -0.042  1.00  0.00     0.099 A 
ATOM      9  N   UNL     1      -2.810  -3.680  -0.285  1.00  0.00    -0.242 NA
ATOM     10  C   UNL     1      -2.091  -4.812  -0.433  1.00  0.00     0.108 A 
ATOM     11  N   UNL     1      -0.013  -3.707  -0.126  1.00  0.00    -0.224 NA
ATOM     12  C   UNL     1      -2.743  -6.012  -0.677  1.00  0.00     0.034 A 
ATOM     13  C   UNL     1      -0.680  -4.840  -0.345  1.00  0.00     0.178 A 
ATOM     14  C   UNL     1      -2.023  -7.191  -0.822  1.00  0.00     0.022 A 
ATOM     15  N   UNL     1       0.019  -5.972  -0.478  1.00  0.00    -0.235 NA
ATOM     16  C   UNL     1      -0.651  -7.119  -0.713  1.00  0.00     0.114 A 
BRANCH   8  17
ATOM     17  C   UNL     1      -2.971  -1.358   0.175  1.00  0.00     0.021 A 
ATOM     18  C   UNL     1      -4.670   0.809   0.486  1.00  0.00     0.128 A 
ATOM     19  C   UNL     1      -3.637   0.631   1.398  1.00  0.00     0.035 A 
ATOM     20  N   UNL     1      -4.885  -0.026  -0.561  1.00  0.00    -0.250 NA
ATOM     21  C   UNL     1      -2.794  -0.470   1.246  1.00  0.00     0.014 A 
ATOM     22  C   UNL     1      -4.041  -1.082  -0.679  1.00  0.00     0.122 A 
BRANCH  18  23
ATOM     23  C   UNL     1      -5.529   2.026   0.608  1.00  0.00     0.272 C 
ATOM     24  N   UNL     1      -9.687   2.112  -0.583  1.00  0.00    -0.303 NA
ATOM     25  C   UNL     1      -9.181   3.010   0.467  1.00  0.00     0.105 C 
ATOM     26  C   UNL     1      -8.882   0.880  -0.714  1.00  0.00     0.105 C 
ATOM     27  C   UNL     1      -7.657   3.214   0.383  1.00  0.00     0.135 C 
ATOM     28  C   UNL     1      -7.705   0.738   0.274  1.00  0.00     0.135 C 
ATOM     29  N   UNL     1      -6.901   1.959   0.359  1.00  0.00    -0.335 N 
ATOM     30  C   UNL     1     -11.107   1.828  -0.408  1.00  0.00     0.105 C 
ATOM     31  O   UNL     1      -4.977   3.075   0.951  1.00  0.00    -0.267 OA
ENDBRANCH  18  23
ENDBRANCH   8  17
ENDBRANCH   1   7
BRANCH   4  32
ATOM     32  C   UNL     1       2.690   2.133   0.665  1.00  0.00     0.120 C 
BRANCH  32  33
ATOM     33  N   UNL     1       4.086   1.962   0.249  1.00  0.00    -0.299 NA
ATOM     34  C   UNL     1       4.969   1.359   1.242  1.00  0.00     0.087 C 
ATOM     35  C   UNL     1       4.261   1.524  -1.133  1.00  0.00     0.087 C 
ATOM     36  C   UNL     1       5.630   0.058   0.795  1.00  0.00     0.041 C 
ATOM     37  C   UNL     1       5.736   1.300  -1.452  1.00  0.00     0.041 C 
ATOM     38  C   UNL     1       6.292   0.160  -0.589  1.00  0.00     0.095 C 
BRANCH  38  39
ATOM     39  N   UNL     1       7.748   0.127  -0.521  1.00  0.00    -0.289 N 
ATOM     40  C   UNL     1       8.512  -0.971  -0.826  1.00  0.00     0.296 A 
ATOM     41  C   UNL     1       8.622   1.106  -0.105  1.00  0.00     0.091 A 
ATOM     42  N   UNL     1       9.791  -0.785  -0.657  1.00  0.00    -0.175 NA
ATOM     43  C   UNL     1       8.501   2.423   0.344  1.00  0.00     0.032 A 
ATOM     44  C   UNL     1       9.878   0.502  -0.210  1.00  0.00     0.181 A 
ATOM     45  C   UNL     1       9.692   3.070   0.666  1.00  0.00     0.022 A 
ATOM     46  N   UNL     1      11.037   1.122   0.103  1.00  0.00    -0.235 NA
ATOM     47  C   UNL     1      10.896   2.391   0.531  1.00  0.00     0.114 A 
BRANCH  40  48
ATOM     48  O   UNL     1       8.031  -2.126  -1.240  1.00  0.00    -0.480 OA
ATOM     49  H   UNL     1       8.848  -2.651  -1.338  1.00  0.00     0.296 HD
ENDBRANCH  40  48
ENDBRANCH  38  39
ENDBRANCH  32  33
ENDBRANCH   4  32
TORSDOF 7
