REMARK SMILES Nc1ccc2nc(NC3CCN(CC(=O)c4ccc(-c5ccnc(N)n5)cc4)CC3)oc2c1
REMARK SMILES IDX 13 1 12 2 9 3 10 4 30 5 11 6 29 7 8 8 7 10 2 11 3 12 33 13
REMARK SMILES IDX 4 14 32 15 5 16 31 17 6 18 1 19 14 22 15 23 16 24 17 25
REMARK SMILES IDX 28 26 18 27 27 28 19 29 20 30 21 31 26 32 22 33 24 34 23 35
REMARK SMILES IDX 25 36
REMARK H PARENT 8 9 1 20 1 21 25 37 25 38
ROOT
ATOM      1  C   UNL     1      -0.894   1.513  -0.681  1.00  0.00     0.165 C 
ENDROOT
BRANCH   1   2
ATOM      2  N   UNL     1       0.574   1.656  -0.709  1.00  0.00    -0.296 NA
ATOM      3  C   UNL     1       2.487   0.220  -2.485  1.00  0.00     0.086 C 
ATOM      4  C   UNL     1       2.455   1.745  -2.357  1.00  0.00     0.040 C 
ATOM      5  C   UNL     1       1.696  -0.492  -1.380  1.00  0.00     0.040 C 
ATOM      6  C   UNL     1       1.039   2.186  -1.996  1.00  0.00     0.087 C 
ATOM      7  C   UNL     1       1.298   0.462  -0.253  1.00  0.00     0.087 C 
BRANCH   3   8
ATOM      8  N   UNL     1       3.839  -0.300  -2.653  1.00  0.00    -0.337 N 
ATOM      9  H   UNL     1       3.946  -1.048  -3.327  1.00  0.00     0.165 HD
BRANCH   8  10
ATOM     10  C   UNL     1       4.748  -0.275  -1.667  1.00  0.00     0.295 A 
ATOM     11  C   UNL     1       8.400  -1.119   0.771  1.00  0.00     0.035 A 
ATOM     12  C   UNL     1       7.771  -0.171   1.597  1.00  0.00     0.028 A 
ATOM     13  C   UNL     1       7.835  -1.456  -0.468  1.00  0.00     0.075 A 
ATOM     14  C   UNL     1       6.523   0.388   1.270  1.00  0.00     0.034 A 
ATOM     15  C   UNL     1       6.602  -0.882  -0.759  1.00  0.00     0.158 A 
ATOM     16  C   UNL     1       5.932   0.009   0.061  1.00  0.00     0.112 A 
ATOM     17  O   UNL     1       5.842  -1.069  -1.876  1.00  0.00    -0.423 OA
ATOM     18  N   UNL     1       4.749   0.376  -0.525  1.00  0.00    -0.194 NA
BRANCH  11  19
ATOM     19  N   UNL     1       9.695  -1.560   1.083  1.00  0.00    -0.399 N 
ATOM     20  H   UNL     1       9.909  -1.546   2.076  1.00  0.00     0.156 HD
ATOM     21  H   UNL     1       9.948  -2.441   0.646  1.00  0.00     0.156 HD
ENDBRANCH  11  19
ENDBRANCH   8  10
ENDBRANCH   3   8
ENDBRANCH   1   2
BRANCH   1  22
ATOM     22  C   UNL     1      -1.454   1.384   0.742  1.00  0.00     0.176 C 
ATOM     23  O   UNL     1      -0.808   1.622   1.763  1.00  0.00    -0.293 OA
BRANCH  22  24
ATOM     24  C   UNL     1      -2.876   0.942   0.896  1.00  0.00     0.019 A 
ATOM     25  C   UNL     1      -3.333   0.601   2.174  1.00  0.00     0.012 A 
ATOM     26  C   UNL     1      -3.762   0.859  -0.181  1.00  0.00     0.012 A 
ATOM     27  C   UNL     1      -4.649   0.162   2.369  1.00  0.00     0.011 A 
ATOM     28  C   UNL     1      -5.077   0.418   0.022  1.00  0.00     0.011 A 
ATOM     29  C   UNL     1      -5.549   0.047   1.296  1.00  0.00     0.000 A 
BRANCH  29  30
ATOM     30  C   UNL     1      -6.936  -0.436   1.477  1.00  0.00     0.076 A 
ATOM     31  C   UNL     1      -7.289  -1.355   2.448  1.00  0.00     0.049 A 
ATOM     32  N   UNL     1      -7.848   0.060   0.609  1.00  0.00    -0.213 NA
ATOM     33  C   UNL     1      -8.612  -1.722   2.482  1.00  0.00     0.117 A 
ATOM     34  C   UNL     1      -9.113  -0.343   0.745  1.00  0.00     0.220 A 
ATOM     35  N   UNL     1      -9.539  -1.234   1.641  1.00  0.00    -0.222 NA
BRANCH  34  36
ATOM     36  N   UNL     1     -10.043   0.159  -0.139  1.00  0.00    -0.368 N 
ATOM     37  H   UNL     1      -9.587   0.462  -0.988  1.00  0.00     0.159 HD
ATOM     38  H   UNL     1     -10.814  -0.487  -0.226  1.00  0.00     0.159 HD
ENDBRANCH  34  36
ENDBRANCH  29  30
ENDBRANCH  22  24
ENDBRANCH   1  22
TORSDOF 8
