MODEL        6USER    Run = 6USERUSER    Estimated Free Energy of Binding    = -10.68 kcal/mol  [=(1)+(2)+(3)-(4)]USERUSER    (1) Final Intermolecular Energy     = -13.06 kcal/molUSER        vdW + Hbond + desolv Energy     = -12.98 kcal/molUSER        Electrostatic Energy            =  -0.08 kcal/molUSER        Moving Ligand-Fixed Receptor    = -13.06 kcal/molUSER        Moving Ligand-Moving Receptor   =  +0.00 kcal/molUSER    (2) Final Total Internal Energy     =  -1.05 kcal/molUSER    (3) Torsional Free Energy           =  +2.39 kcal/molUSER    (4) Unbound System's Energy         =  -1.05 kcal/molUSERUSERREMARK SMILES Nc1ccc2nc(NC3CCN(CC(=O)c4ccc(-c5ccnc(N)n5)cc4)CC3)oc2c1REMARK SMILES IDX 13 1 12 2 9 3 10 4 30 5 11 6 29 7 8 8 7 10 2 11 3 12 33 13REMARK SMILES IDX 4 14 32 15 5 16 31 17 6 18 1 19 14 22 15 23 16 24 17 25REMARK SMILES IDX 28 26 18 27 27 28 19 29 20 30 21 31 26 32 22 33 24 34 23 35REMARK SMILES IDX 25 36REMARK H PARENT 8 9 1 20 1 21 25 37 25 38USER                              x       y       z     vdW  Elec       q    TypeUSER                           _______ _______ _______ _____ _____    ______ ____ROOTATOM      1  C   UNL     1      41.389  46.117  22.745 -0.18 +0.02    +0.165 C  ENDROOTBRANCH   1   2ATOM      2  N   UNL     1      40.160  45.772  23.485 -0.08 -0.02    -0.296 NA ATOM      3  C   UNL     1      39.184  46.994  26.020 -0.22 +0.00    +0.086 C  ATOM      4  C   UNL     1      38.320  46.889  24.761 -0.34 +0.01    +0.040 C  ATOM      5  C   UNL     1      40.445  46.122  25.959 -0.14 +0.00    +0.040 C  ATOM      6  C   UNL     1      39.225  46.902  23.532 -0.31 +0.01    +0.087 C  ATOM      7  C   UNL     1      40.406  45.139  24.787 -0.11 +0.00    +0.087 C  BRANCH   3   8ATOM      8  N   UNL     1      38.415  46.810  27.245 -0.11 +0.03    -0.337 N  ATOM      9  H   UNL     1      38.845  47.154  28.095 -0.29 -0.03    +0.165 HD BRANCH   8  10ATOM     10  C   UNL     1      37.544  45.803  27.404 -0.15 -0.04    +0.295 A  ATOM     11  C   UNL     1      35.537  41.823  27.052 -0.56 -0.01    +0.035 A  ATOM     12  C   UNL     1      34.662  42.456  27.952 -0.45 -0.01    +0.028 A  ATOM     13  C   UNL     1      36.693  42.484  26.613 -0.36 -0.01    +0.075 A  ATOM     14  C   UNL     1      34.851  43.789  28.358 -0.56 -0.01    +0.034 A  ATOM     15  C   UNL     1      36.849  43.800  27.037 -0.27 -0.02    +0.158 A  ATOM     16  C   UNL     1      35.974  44.468  27.876 -0.39 -0.03    +0.112 A  ATOM     17  O   UNL     1      37.864  44.657  26.729 -0.08 +0.03    -0.423 OA ATOM     18  N   UNL     1      36.424  45.744  28.090 -0.30 +0.05    -0.194 NA BRANCH  11  19ATOM     19  N   UNL     1      35.371  40.459  26.767 -0.13 +0.21    -0.399 N  ATOM     20  H   UNL     1      35.013  40.271  25.835 -0.42 -0.11    +0.156 HD ATOM     21  H   UNL     1      36.180  39.888  26.993 -0.44 -0.08    +0.156 HD ENDBRANCH  11  19ENDBRANCH   8  10ENDBRANCH   3   8ENDBRANCH   1   2BRANCH   1  22ATOM     22  C   UNL     1      41.538  45.330  21.436 -0.25 +0.02    +0.176 C  ATOM     23  O   UNL     1      41.764  44.121  21.378 -0.21 -0.03    -0.293 OA BRANCH  22  24ATOM     24  C   UNL     1      41.398  46.083  20.149 -0.38 +0.00    +0.019 A  ATOM     25  C   UNL     1      40.249  45.875  19.378 -0.41 -0.00    +0.012 A  ATOM     26  C   UNL     1      42.364  46.982  19.691 -0.46 +0.00    +0.012 A  ATOM     27  C   UNL     1      40.079  46.539  18.156 -0.45 -0.00    +0.011 A  ATOM     28  C   UNL     1      42.187  47.642  18.467 -0.51 -0.00    +0.011 A  ATOM     29  C   UNL     1      41.049  47.428  17.664 -0.53 -0.00    +0.000 A  BRANCH  29  30ATOM     30  C   UNL     1      40.899  48.122  16.366 -0.48 -0.01    +0.076 A  ATOM     31  C   UNL     1      39.936  47.775  15.437 -0.50 -0.01    +0.049 A  ATOM     32  N   UNL     1      41.788  49.113  16.124 -0.84 -0.03    -0.213 NA ATOM     33  C   UNL     1      39.931  48.498  14.270 -0.31 -0.03    +0.117 A  ATOM     34  C   UNL     1      41.681  49.771  14.968 -0.43 -0.03    +0.220 A  ATOM     35  N   UNL     1      40.794  49.495  14.011 -0.32 +0.07    -0.222 NA BRANCH  34  36ATOM     36  N   UNL     1      42.586  50.779  14.719 -0.32 +0.05    -0.368 N  ATOM     37  H   UNL     1      42.504  51.501  15.421 -0.27 -0.02    +0.159 HD ATOM     38  H   UNL     1      43.501  50.384  14.558 -0.39 -0.04    +0.159 HD ENDBRANCH  34  36ENDBRANCH  29  30ENDBRANCH  22  24ENDBRANCH   1  22TORSDOF 8TERENDMDL