MODEL        7USER    Run = 7USERUSER    Estimated Free Energy of Binding    = -10.35 kcal/mol  [=(1)+(2)+(3)-(4)]USERUSER    (1) Final Intermolecular Energy     = -12.44 kcal/molUSER        vdW + Hbond + desolv Energy     = -12.29 kcal/molUSER        Electrostatic Energy            =  -0.15 kcal/molUSER        Moving Ligand-Fixed Receptor    = -12.44 kcal/molUSER        Moving Ligand-Moving Receptor   =  +0.00 kcal/molUSER    (2) Final Total Internal Energy     =  -0.97 kcal/molUSER    (3) Torsional Free Energy           =  +2.09 kcal/molUSER    (4) Unbound System's Energy         =  -0.97 kcal/molUSERUSERREMARK SMILES Nc1nccc(-c2ccc(C(=O)CN3CCC(Nc4nc5ccccc5o4)CC3)cc2)n1REMARK SMILES IDX 11 1 12 2 10 3 7 4 8 5 31 6 9 7 30 8 6 9 2 10 3 11 32 12REMARK SMILES IDX 4 13 5 14 1 15 13 18 14 19 15 20 29 21 16 22 28 23 17 24REMARK SMILES IDX 18 25 19 27 20 28 27 29 21 30 26 31 22 32 25 33 23 34 24 35REMARK H PARENT 1 16 1 17 18 26USER                              x       y       z     vdW  Elec       q    TypeUSER                           _______ _______ _______ _____ _____    ______ ____ROOTATOM      1  C   UNL     1      34.908  43.309  19.585 -0.35 -0.02    +0.176 C  ATOM      2  O   UNL     1      33.813  43.547  20.092 -0.72 -0.01    -0.293 OA ENDROOTBRANCH   1   3ATOM      3  C   UNL     1      35.388  44.202  18.483 -0.33 -0.01    +0.019 A  ATOM      4  C   UNL     1      36.391  45.839  16.380 -0.36 -0.00    +0.000 A  ATOM      5  C   UNL     1      35.147  46.100  16.983 -0.35 -0.01    +0.011 A  ATOM      6  C   UNL     1      37.113  44.731  16.853 -0.33 -0.00    +0.011 A  ATOM      7  C   UNL     1      34.650  45.296  18.021 -0.39 -0.01    +0.012 A  ATOM      8  C   UNL     1      36.625  43.926  17.890 -0.28 -0.00    +0.012 A  BRANCH   4   9ATOM      9  C   UNL     1      36.926  46.675  15.284 -0.34 -0.05    +0.076 A  ATOM     10  C   UNL     1      36.594  47.502  13.165 -0.43 -0.11    +0.220 A  ATOM     11  N   UNL     1      37.750  48.168  13.155 -0.76 +0.05    -0.222 NA ATOM     12  N   UNL     1      36.159  46.742  14.172 -0.29 +0.14    -0.213 NA ATOM     13  C   UNL     1      38.498  48.077  14.266 -0.43 -0.05    +0.117 A  ATOM     14  C   UNL     1      38.132  47.343  15.369 -0.42 -0.02    +0.049 A  BRANCH  10  15ATOM     15  N   UNL     1      35.813  47.567  12.031 -0.31 +0.22    -0.368 N  ATOM     16  H   UNL     1      34.846  47.404  12.272 -0.12 -0.14    +0.159 HD ATOM     17  H   UNL     1      36.031  48.405  11.510 -0.32 -0.10    +0.159 HD ENDBRANCH  10  15ENDBRANCH   4   9ENDBRANCH   1   3BRANCH   1  18ATOM     18  C   UNL     1      35.814  42.145  20.009 -0.39 -0.01    +0.165 C  BRANCH  18  19ATOM     19  N   UNL     1      36.670  42.402  21.182 -0.25 -0.01    -0.296 NA ATOM     20  C   UNL     1      36.533  43.744  21.738 -0.31 +0.01    +0.087 C  ATOM     21  C   UNL     1      36.604  41.342  22.193 -0.57 +0.00    +0.087 C  ATOM     22  C   UNL     1      37.712  44.051  22.667 -0.38 +0.00    +0.040 C  ATOM     23  C   UNL     1      37.016  41.809  23.593 -0.45 +0.00    +0.040 C  ATOM     24  C   UNL     1      38.141  42.839  23.509 -0.33 +0.01    +0.086 C  BRANCH  24  25ATOM     25  N   UNL     1      38.511  43.251  24.859 -0.07 -0.01    -0.337 N  ATOM     26  H   UNL     1      39.355  42.838  25.236 +0.08 +0.00    +0.165 HD BRANCH  25  27ATOM     27  C   UNL     1      37.543  43.519  25.751 -0.11 -0.01    +0.295 A  ATOM     28  N   UNL     1      36.512  42.792  26.122 -0.26 +0.02    -0.194 NA ATOM     29  O   UNL     1      37.653  44.728  26.379 -0.08 +0.03    -0.424 OA ATOM     30  C   UNL     1      35.885  43.574  27.057 -0.39 -0.02    +0.111 A  ATOM     31  C   UNL     1      36.580  44.760  27.218 -0.30 -0.03    +0.156 A  ATOM     32  C   UNL     1      34.728  43.356  27.817 -0.59 -0.01    +0.032 A  ATOM     33  C   UNL     1      36.218  45.779  28.091 -0.33 -0.01    +0.049 A  ATOM     34  C   UNL     1      34.328  44.361  28.711 -0.64 -0.00    +0.003 A  ATOM     35  C   UNL     1      35.060  45.548  28.844 -0.40 -0.00    +0.004 A  ENDBRANCH  25  27ENDBRANCH  24  25ENDBRANCH  18  19ENDBRANCH   1  18TORSDOF 7TERENDMDL