MODEL        8USER    Run = 8USERUSER    Estimated Free Energy of Binding    =  -6.10 kcal/mol  [=(1)+(2)+(3)-(4)]USERUSER    (1) Final Intermolecular Energy     = -10.58 kcal/molUSER        vdW + Hbond + desolv Energy     = -11.24 kcal/molUSER        Electrostatic Energy            =  -0.13 kcal/molUSER        Moving Ligand-Fixed Receptor    = -11.37 kcal/molUSER        Moving Ligand-Moving Receptor   =  +0.79 kcal/molUSER    (2) Final Total Internal Energy     =  -2.87 kcal/molUSER    (3) Torsional Free Energy           =  +4.47 kcal/molUSER    (4) Unbound System's Energy         =  -2.87 kcal/molUSERUSERREMARK SMILES COc1ccc(O)c(C(=O)c2ccc(C(=O)O[C@@H]3CCON(C)C[C@H]3NC(=O)c3ccnc(C)c3)cc2)c1FREMARK SMILES IDX 17 1 15 2 16 3 14 4 11 5 12 6 37 7 13 8 36 9 9 10 10 11 8 12REMARK SMILES IDX 3 13 4 14 38 15 5 16 6 17 39 18 2 19 1 20 7 21 18 23 19 24REMARK SMILES IDX 20 25 21 26 22 27 23 28 24 29 25 31 26 33 27 34 28 36 29 37REMARK SMILES IDX 30 38 35 39 31 40 33 41 32 42 34 43REMARK H PARENT 7 22 26 35REMARK Flexibility Score:   99.900USER                              x       y       z     vdW  Elec       q    TypeUSER                           _______ _______ _______ _____ _____    ______ ____ROOTATOM      1  O   UNL     1      40.529  45.624  25.243 +0.01 -0.02    -0.456 OA ENDROOTBRANCH   1   2ATOM      2  C   UNL     1      40.440  46.752  24.500 -0.09 +0.03    +0.338 C  ATOM      3  O   UNL     1      40.292  47.883  24.930 -0.18 -0.03    -0.246 OA BRANCH   2   4ATOM      4  C   UNL     1      40.545  46.422  23.054 -0.20 +0.01    +0.060 A  ATOM      5  C   UNL     1      40.660  45.721  20.343 -0.35 +0.00    +0.023 A  ATOM      6  C   UNL     1      41.828  46.092  21.016 -0.33 +0.00    +0.013 A  ATOM      7  C   UNL     1      39.431  45.731  21.012 -0.25 +0.00    +0.013 A  ATOM      8  C   UNL     1      41.772  46.435  22.372 -0.24 +0.00    +0.016 A  ATOM      9  C   UNL     1      39.376  46.070  22.367 -0.25 +0.00    +0.016 A  BRANCH   5  10ATOM     10  C   UNL     1      40.678  45.363  18.907 -0.37 +0.00    +0.199 C  ATOM     11  O   UNL     1      40.971  44.209  18.592 -0.29 -0.02    -0.288 OA BRANCH  10  12ATOM     12  C   UNL     1      40.322  46.315  17.832 -0.41 -0.01    +0.104 A  ATOM     13  C   UNL     1      40.704  48.376  16.579 -0.40 -0.03    +0.155 A  ATOM     14  C   UNL     1      39.606  48.084  15.766 -0.49 -0.02    +0.053 A  ATOM     15  C   UNL     1      41.053  47.483  17.604 -0.38 -0.02    +0.179 A  ATOM     16  C   UNL     1      38.884  46.906  15.966 -0.40 -0.02    +0.051 A  ATOM     17  C   UNL     1      39.247  46.024  16.982 -0.33 -0.03    +0.130 A  ATOM     18  F   UNL     1      42.134  47.760  18.351 -0.23 +0.00    -0.202 F  BRANCH  13  19ATOM     19  O   UNL     1      41.495  49.488  16.471 -0.87 -0.02    -0.494 OA ATOM     20  C   UNL     1      41.533  50.142  15.210 -0.48 -0.05    +0.278 C  ENDBRANCH  13  19BRANCH  17  21ATOM     21  O   UNL     1      38.501  44.881  17.086 -0.06 +0.10    -0.507 OA ATOM     22  H   UNL     1      38.840  44.366  17.856 +0.19 -0.04    +0.293 HD ENDBRANCH  17  21ENDBRANCH  10  12ENDBRANCH   5  10ENDBRANCH   2   4ENDBRANCH   1   2BRANCH   1  23ATOM     23  C   UNL     1      39.288  44.965  25.580 -0.11 +0.00    +0.203 C  BRANCH  23  24ATOM     24  C   UNL     1      38.804  45.539  26.923 -0.20 -0.00    +0.078 C  BRANCH  24  25ATOM     25  C   UNL     1      37.430  45.078  27.408 -0.28 -0.03    +0.190 C  BRANCH  25  26ATOM     26  O   UNL     1      37.440  43.819  28.071 -0.26 +0.06    -0.299 OA BRANCH  26  27ATOM     27  N   UNL     1      37.593  42.747  27.091 -0.21 +0.03    -0.190 NA ATOM     28  C   UNL     1      37.151  41.551  27.808 -0.41 -0.04    +0.138 C  BRANCH  27  29ATOM     29  C   UNL     1      39.052  42.697  26.862 -0.23 -0.01    +0.143 CG0ATOM     30  G   UNL     1      39.449  43.415  25.550 +0.00 +0.00    +0.000 G0 ENDBRANCH  27  29ENDBRANCH  26  27ENDBRANCH  25  26ENDBRANCH  24  25ENDBRANCH  23  24BRANCH  23  31ATOM     31  C   UNL     1      39.446  43.419  25.550 -0.15 -0.00    +0.139 CG0ATOM     32  G   UNL     1      39.042  42.700  26.860 +0.00 +0.00    +0.000 G0 BRANCH  31  33ATOM     33  N   UNL     1      38.731  42.818  24.412 -0.08 -0.02    -0.344 N  ATOM     34  C   UNL     1      37.490  43.278  24.026 -0.24 +0.02    +0.251 C  ATOM     35  H   UNL     1      39.297  42.331  23.734 +0.08 +0.02    +0.164 HD ATOM     36  O   UNL     1      36.801  44.033  24.701 -0.28 -0.03    -0.269 OA BRANCH  34  37ATOM     37  C   UNL     1      36.989  42.805  22.711 -0.40 +0.00    +0.043 A  ATOM     38  C   UNL     1      36.542  41.499  22.516 -0.52 +0.00    +0.034 A  ATOM     39  C   UNL     1      37.012  43.696  21.639 -0.38 +0.00    +0.037 A  ATOM     40  C   UNL     1      36.109  41.152  21.250 -0.12 -0.00    +0.112 A  ATOM     41  C   UNL     1      36.553  43.260  20.403 -0.40 -0.00    +0.038 A  ATOM     42  N   UNL     1      36.097  42.002  20.201 -0.27 +0.01    -0.262 NA ATOM     43  C   UNL     1      36.559  44.191  19.226 -0.38 -0.01    +0.067 C  ENDBRANCH  34  37ENDBRANCH  31  33ENDBRANCH  23  31ENDBRANCH   1  23TORSDOF 9TERENDMDL