REMARK SMILES COc1ccc(O)c(C(=O)c2ccc(C(=O)O[C@@H]3CCON(C)C[C@H]3NC(=O)c3ccnc(C)c3)cc2)c1F
REMARK SMILES IDX 17 1 15 2 16 3 14 4 11 5 12 6 37 7 13 8 36 9 9 10 10 11 8 12
REMARK SMILES IDX 3 13 4 14 38 15 5 16 6 17 39 18 2 19 1 20 7 21 18 23 19 24
REMARK SMILES IDX 20 25 21 26 22 27 23 28 24 29 25 31 26 33 27 34 28 36 29 37
REMARK SMILES IDX 30 38 35 39 31 40 33 41 32 42 34 43
REMARK H PARENT 7 22 26 35
REMARK Flexibility Score:   99.900
ROOT
ATOM      1  O   UNL     1       0.717  -1.438  -0.998  1.00  0.00    -0.456 OA
ENDROOT
BRANCH   1   2
ATOM      2  C   UNL     1       0.237  -0.797  -2.089  1.00  0.00     0.338 C 
ATOM      3  O   UNL     1       0.902  -0.222  -2.933  1.00  0.00    -0.246 OA
BRANCH   2   4
ATOM      4  C   UNL     1      -1.247  -0.886  -2.123  1.00  0.00     0.060 A 
ATOM      5  C   UNL     1      -4.046  -0.958  -2.253  1.00  0.00     0.023 A 
ATOM      6  C   UNL     1      -3.392  -1.373  -1.088  1.00  0.00     0.013 A 
ATOM      7  C   UNL     1      -3.304  -0.539  -3.363  1.00  0.00     0.013 A 
ATOM      8  C   UNL     1      -1.995  -1.330  -1.021  1.00  0.00     0.016 A 
ATOM      9  C   UNL     1      -1.909  -0.493  -3.294  1.00  0.00     0.016 A 
BRANCH   5  10
ATOM     10  C   UNL     1      -5.521  -1.000  -2.366  1.00  0.00     0.199 C 
ATOM     11  O   UNL     1      -6.019  -1.468  -3.390  1.00  0.00    -0.288 OA
BRANCH  10  12
ATOM     12  C   UNL     1      -6.428  -0.542  -1.290  1.00  0.00     0.104 A 
ATOM     13  C   UNL     1      -6.934   0.881   0.628  1.00  0.00     0.155 A 
ATOM     14  C   UNL     1      -8.197   0.295   0.729  1.00  0.00     0.053 A 
ATOM     15  C   UNL     1      -6.061   0.457  -0.386  1.00  0.00     0.179 A 
ATOM     16  C   UNL     1      -8.586  -0.686  -0.186  1.00  0.00     0.051 A 
ATOM     17  C   UNL     1      -7.713  -1.091  -1.194  1.00  0.00     0.130 A 
ATOM     18  F   UNL     1      -4.865   1.058  -0.492  1.00  0.00    -0.202 F 
BRANCH  13  19
ATOM     19  O   UNL     1      -6.446   1.858   1.454  1.00  0.00    -0.494 OA
ATOM     20  C   UNL     1      -7.345   2.421   2.401  1.00  0.00     0.278 C 
ENDBRANCH  13  19
BRANCH  17  21
ATOM     21  O   UNL     1      -8.190  -2.036  -2.062  1.00  0.00    -0.507 OA
ATOM     22  H   UNL     1      -7.562  -2.095  -2.821  1.00  0.00     0.293 HD
ENDBRANCH  17  21
ENDBRANCH  10  12
ENDBRANCH   5  10
ENDBRANCH   2   4
ENDBRANCH   1   2
BRANCH   1  23
ATOM     23  C   UNL     1       2.141  -1.354  -0.766  1.00  0.00     0.203 C 
BRANCH  23  24
ATOM     24  C   UNL     1       2.560  -2.605   0.025  1.00  0.00     0.078 C 
BRANCH  24  25
ATOM     25  C   UNL     1       1.755  -2.916   1.287  1.00  0.00     0.190 C 
BRANCH  25  26
ATOM     26  O   UNL     1       1.041  -1.802   1.809  1.00  0.00    -0.299 OA
BRANCH  26  27
ATOM     27  N   UNL     1       1.982  -0.764   2.222  1.00  0.00    -0.190 NA
ATOM     28  C   UNL     1       1.481  -0.337   3.529  1.00  0.00     0.138 C 
BRANCH  27  29
ATOM     29  C   UNL     1       1.777   0.303   1.221  1.00  0.00     0.143 CG0
ATOM     30  G   UNL     1       2.523  -0.002  -0.100  1.00  0.00     0.000 G0
ENDBRANCH  27  29
ENDBRANCH  26  27
ENDBRANCH  25  26
ENDBRANCH  24  25
ENDBRANCH  23  24
BRANCH  23  31
ATOM     31  C   UNL     1       2.523  -0.002  -0.100  1.00  0.00     0.139 CG0
ATOM     32  G   UNL     1       1.777   0.303   1.221  1.00  0.00     0.000 G0
BRANCH  31  33
ATOM     33  N   UNL     1       3.976   0.113   0.111  1.00  0.00    -0.344 N 
ATOM     34  C   UNL     1       4.612   1.334   0.042  1.00  0.00     0.251 C 
ATOM     35  H   UNL     1       4.412  -0.629   0.637  1.00  0.00     0.164 HD
ATOM     36  O   UNL     1       4.095   2.349  -0.408  1.00  0.00    -0.269 OA
BRANCH  34  37
ATOM     37  C   UNL     1       6.008   1.382   0.545  1.00  0.00     0.043 A 
ATOM     38  C   UNL     1       6.426   0.628   1.640  1.00  0.00     0.034 A 
ATOM     39  C   UNL     1       6.904   2.245  -0.085  1.00  0.00     0.037 A 
ATOM     40  C   UNL     1       7.743   0.755   2.040  1.00  0.00     0.112 A 
ATOM     41  C   UNL     1       8.210   2.304   0.384  1.00  0.00     0.038 A 
ATOM     42  N   UNL     1       8.638   1.564   1.433  1.00  0.00    -0.262 NA
ATOM     43  C   UNL     1       9.204   3.218  -0.269  1.00  0.00     0.067 C 
ENDBRANCH  34  37
ENDBRANCH  31  33
ENDBRANCH  23  31
ENDBRANCH   1  23
TORSDOF 9
