MODEL        5USER    Run = 5USERUSER    Estimated Free Energy of Binding    =  -7.99 kcal/mol  [=(1)+(2)+(3)-(4)]USERUSER    (1) Final Intermolecular Energy     = -10.37 kcal/molUSER        vdW + Hbond + desolv Energy     = -10.11 kcal/molUSER        Electrostatic Energy            =  -0.26 kcal/molUSER        Moving Ligand-Fixed Receptor    = -10.37 kcal/molUSER        Moving Ligand-Moving Receptor   =  +0.00 kcal/molUSER    (2) Final Total Internal Energy     =  -2.98 kcal/molUSER    (3) Torsional Free Energy           =  +2.39 kcal/molUSER    (4) Unbound System's Energy         =  -2.98 kcal/molUSERUSERREMARK SMILES COc1ccc(O)c(C(=O)c2ccc(CN3CCN(C)C[C@@H]3n3c(O)nc4cc(F)ccc43)cc2)c1FREMARK SMILES IDX 11 1 12 2 13 3 14 4 34 5 35 6 9 7 10 8 8 9 3 10 4 11 36 12REMARK SMILES IDX 5 13 6 14 37 15 2 16 1 17 7 18 15 20 16 21 17 22 22 23 18 24REMARK SMILES IDX 21 25 19 26 20 27 23 28 24 29 33 30 26 31 32 32 27 33 31 34REMARK SMILES IDX 28 35 29 36 30 37 25 38REMARK H PARENT 7 19 25 39USER                              x       y       z     vdW  Elec       q    TypeUSER                           _______ _______ _______ _____ _____    ______ ____ROOTATOM      1  C   UNL     1      38.780  46.505  25.048 -0.25 +0.00    +0.023 A  ATOM      2  C   UNL     1      39.875  46.391  25.914 -0.16 +0.00    +0.012 A  ATOM      3  C   UNL     1      41.158  46.714  25.466 -0.12 +0.00    +0.006 A  ATOM      4  C   UNL     1      41.370  47.154  24.149 -0.19 -0.00    -0.034 A  ATOM      5  C   UNL     1      40.272  47.269  23.289 -0.14 +0.00    +0.006 A  ATOM      6  C   UNL     1      38.988  46.943  23.734 -0.33 +0.00    +0.012 A  ENDROOTBRANCH   1   7ATOM      7  C   UNL     1      37.390  46.172  25.469 -0.24 +0.01    +0.199 C  ATOM      8  O   UNL     1      36.557  47.052  25.670 -0.74 +0.01    -0.288 OA BRANCH   7   9ATOM      9  C   UNL     1      36.987  44.776  25.669 -0.28 -0.00    +0.104 A  ATOM     10  C   UNL     1      36.919  42.500  24.829 -0.29 -0.00    +0.155 A  ATOM     11  C   UNL     1      36.296  42.098  26.016 -0.41 -0.01    +0.053 A  ATOM     12  C   UNL     1      37.265  43.848  24.669 -0.23 +0.01    +0.179 A  ATOM     13  C   UNL     1      36.015  43.031  27.023 -0.43 -0.01    +0.051 A  ATOM     14  C   UNL     1      36.360  44.370  26.848 -0.30 -0.02    +0.130 A  ATOM     15  F   UNL     1      37.855  44.249  23.531 -0.08 -0.02    -0.202 F  BRANCH  10  16ATOM     16  O   UNL     1      37.229  41.681  23.778 -0.16 -0.03    -0.494 OA ATOM     17  C   UNL     1      36.517  41.875  22.564 -0.37 +0.02    +0.278 C  ENDBRANCH  10  16BRANCH  14  18ATOM     18  O   UNL     1      36.060  45.285  27.815 -0.14 +0.15    -0.507 OA ATOM     19  H   UNL     1      35.715  46.095  27.408 -0.35 -0.15    +0.293 HD ENDBRANCH  14  18ENDBRANCH   7   9ENDBRANCH   1   7BRANCH   4  20ATOM     20  C   UNL     1      42.767  47.506  23.682 -0.23 +0.02    +0.122 C  BRANCH  20  21ATOM     21  N   UNL     1      43.562  46.321  23.313 -0.06 -0.06    -0.276 NA ATOM     22  C   UNL     1      43.964  45.566  24.521 -0.05 +0.01    +0.102 C  ATOM     23  C   UNL     1      42.848  45.429  22.363 -0.17 +0.04    +0.177 C  ATOM     24  C   UNL     1      44.691  44.234  24.219 -0.07 +0.01    +0.100 C  ATOM     25  C   UNL     1      43.566  44.065  22.113 -0.18 +0.04    +0.126 C  ATOM     26  N   UNL     1      43.955  43.317  23.329 -0.10 -0.03    -0.302 NA ATOM     27  C   UNL     1      42.805  42.708  23.991 -0.18 -0.01    +0.105 C  BRANCH  23  28ATOM     28  N   UNL     1      42.638  46.130  21.094 -0.19 -0.08    -0.276 N  ATOM     29  C   UNL     1      43.495  47.002  20.479 -0.17 +0.13    +0.296 A  ATOM     30  C   UNL     1      41.543  45.993  20.260 -0.34 +0.01    +0.073 A  ATOM     31  N   UNL     1      43.044  47.452  19.339 -0.42 -0.03    -0.195 NA ATOM     32  C   UNL     1      40.362  45.240  20.333 -0.36 +0.00    +0.032 A  ATOM     33  C   UNL     1      41.827  46.837  19.183 -0.42 +0.01    +0.095 A  ATOM     34  C   UNL     1      39.459  45.370  19.273 -0.39 -0.00    +0.041 A  ATOM     35  C   UNL     1      40.911  46.955  18.130 -0.46 -0.01    +0.070 A  ATOM     36  C   UNL     1      39.735  46.212  18.199 -0.36 -0.02    +0.125 A  ATOM     37  F   UNL     1      38.844  46.307  17.202 -0.11 +0.05    -0.207 F  BRANCH  29  38ATOM     38  O   UNL     1      44.669  47.371  20.947 -0.54 -0.43    -0.480 OA ATOM     39  H   UNL     1      44.436  47.689  21.836 -0.06 +0.12    +0.296 HD ENDBRANCH  29  38ENDBRANCH  23  28ENDBRANCH  20  21ENDBRANCH   4  20TORSDOF 8TERENDMDL