MODEL        10USER    Run = 10USERUSER    Estimated Free Energy of Binding    = -10.90 kcal/mol  [=(1)+(2)+(3)-(4)]USERUSER    (1) Final Intermolecular Energy     = -13.58 kcal/molUSER        vdW + Hbond + desolv Energy     = -13.45 kcal/molUSER        Electrostatic Energy            =  -0.14 kcal/molUSER        Moving Ligand-Fixed Receptor    = -13.58 kcal/molUSER        Moving Ligand-Moving Receptor   =  +0.00 kcal/molUSER    (2) Final Total Internal Energy     =  -1.02 kcal/molUSER    (3) Torsional Free Energy           =  +2.68 kcal/molUSER    (4) Unbound System's Energy         =  -1.02 kcal/molUSERUSERREMARK SMILES COc1ccc(O)c(C(=O)c2ccc(CN3CCC(n4c(O)nc5ccccc54)CC3)cc2S(C)(=O)=O)c1FREMARK SMILES IDX 11 1 12 2 13 3 14 4 32 5 33 6 9 7 10 8 8 9 3 10 4 11 38 12REMARK SMILES IDX 5 13 6 14 39 15 2 16 1 17 7 18 34 20 35 21 36 22 37 23 15 24REMARK SMILES IDX 16 25 17 26 31 27 18 28 30 29 19 30 20 31 21 32 29 33 23 34REMARK SMILES IDX 28 35 24 36 27 37 25 38 26 39 22 40REMARK H PARENT 7 19 22 41USER                              x       y       z     vdW  Elec       q    TypeUSER                           _______ _______ _______ _____ _____    ______ ____ROOTATOM      1  C   UNL     1      40.143  47.142  24.208 -0.24 +0.00    +0.041 A  ATOM      2  C   UNL     1      39.169  46.165  23.956 -0.27 +0.00    +0.014 A  ATOM      3  C   UNL     1      39.400  45.184  22.991 -0.26 +0.00    +0.006 A  ATOM      4  C   UNL     1      40.593  45.170  22.256 -0.23 -0.00    -0.033 A  ATOM      5  C   UNL     1      41.556  46.162  22.502 -0.22 +0.00    +0.026 A  ATOM      6  C   UNL     1      41.339  47.141  23.486 -0.20 +0.01    +0.078 A  ENDROOTBRANCH   1   7ATOM      7  C   UNL     1      39.772  48.202  25.155 -0.24 +0.02    +0.201 C  ATOM      8  O   UNL     1      40.630  49.044  25.420 -0.22 -0.05    -0.288 OA BRANCH   7   9ATOM      9  C   UNL     1      38.402  48.336  25.711 -0.28 +0.01    +0.104 A  ATOM     10  C   UNL     1      36.755  47.958  27.470 -0.26 -0.02    +0.155 A  ATOM     11  C   UNL     1      35.794  48.634  26.717 -0.32 -0.01    +0.053 A  ATOM     12  C   UNL     1      38.052  47.810  26.956 -0.20 -0.01    +0.179 A  ATOM     13  C   UNL     1      36.133  49.174  25.473 -0.46 -0.00    +0.051 A  ATOM     14  C   UNL     1      37.428  49.033  24.981 -0.34 +0.01    +0.130 A  ATOM     15  F   UNL     1      38.963  47.161  27.701 -0.05 +0.02    -0.202 F  BRANCH  10  16ATOM     16  O   UNL     1      36.537  47.390  28.700 -0.09 +0.14    -0.494 OA ATOM     17  C   UNL     1      35.185  47.129  29.056 -0.29 -0.06    +0.278 C  ENDBRANCH  10  16BRANCH  14  18ATOM     18  O   UNL     1      37.672  49.602  23.759 +0.08 -0.06    -0.507 OA ATOM     19  H   UNL     1      36.856  50.077  23.477 -0.25 -0.03    +0.293 HD ENDBRANCH  14  18ENDBRANCH   7   9ENDBRANCH   1   7BRANCH   6  20ATOM     20  S   UNL     1      42.614  48.341  23.788 -0.41 +0.04    +0.176 S  ATOM     21  C   UNL     1      43.999  47.807  22.814 -0.27 +0.04    +0.163 C  ATOM     22  O   UNL     1      43.042  48.225  25.170 -0.16 -0.03    -0.224 OA ATOM     23  O   UNL     1      42.143  49.601  23.245 -0.89 -0.10    -0.224 OA ENDBRANCH   6  20BRANCH   4  24ATOM     24  C   UNL     1      40.817  44.136  21.169 -0.29 +0.01    +0.120 C  BRANCH  24  25ATOM     25  N   UNL     1      40.654  44.673  19.808 -0.20 -0.01    -0.299 NA ATOM     26  C   UNL     1      39.318  45.238  19.625 -0.39 -0.00    +0.087 C  ATOM     27  C   UNL     1      41.720  45.628  19.453 -0.38 +0.01    +0.087 C  ATOM     28  C   UNL     1      39.069  45.501  18.139 -0.45 -0.01    +0.041 C  ATOM     29  C   UNL     1      41.282  46.712  18.461 -0.55 -0.00    +0.041 C  ATOM     30  C   UNL     1      40.277  46.156  17.447 -0.47 -0.01    +0.095 C  BRANCH  30  31ATOM     31  N   UNL     1      39.877  47.148  16.457 -0.27 +0.06    -0.291 N  ATOM     32  C   UNL     1      40.510  48.333  16.195 -0.32 -0.06    +0.295 A  ATOM     33  C   UNL     1      38.789  47.080  15.614 -0.40 -0.03    +0.072 A  ATOM     34  N   UNL     1      39.906  49.052  15.290 -0.39 +0.08    -0.195 NA ATOM     35  C   UNL     1      37.794  46.117  15.393 -0.36 -0.01    +0.029 A  ATOM     36  C   UNL     1      38.823  48.291  14.919 -0.46 -0.04    +0.092 A  ATOM     37  C   UNL     1      36.803  46.424  14.450 -0.42 -0.00    +0.002 A  ATOM     38  C   UNL     1      37.818  48.580  13.981 -0.45 -0.02    +0.031 A  ATOM     39  C   UNL     1      36.809  47.637  13.760 -0.55 -0.00    +0.002 A  BRANCH  32  40ATOM     40  O   UNL     1      41.611  48.748  16.792 -0.74 -0.03    -0.480 OA ATOM     41  H   UNL     1      42.226  48.021  16.581 -0.29 -0.01    +0.296 HD ENDBRANCH  32  40ENDBRANCH  30  31ENDBRANCH  24  25ENDBRANCH   4  24TORSDOF 9TERENDMDL