REMARK SMILES COc1ccc(O)c(C(=O)c2ccc(CN3CCN(C)C[C@@H]3n3c(O)nc4cc(F)ccc43)cc2)c1F
REMARK SMILES IDX 11 1 12 2 13 3 14 4 34 5 35 6 9 7 10 8 8 9 3 10 4 11 36 12
REMARK SMILES IDX 5 13 6 14 37 15 2 16 1 17 7 18 15 20 16 21 17 22 22 23 18 24
REMARK SMILES IDX 21 25 19 26 20 27 23 28 24 29 33 30 26 31 32 32 27 33 31 34
REMARK SMILES IDX 28 35 29 36 30 37 25 38
REMARK H PARENT 7 19 25 39
ROOT
ATOM      1  C   UNL     1       2.646   1.516   1.116  1.00  0.00     0.023 A 
ATOM      2  C   UNL     1       2.178   0.374   0.454  1.00  0.00     0.012 A 
ATOM      3  C   UNL     1       0.815   0.233   0.180  1.00  0.00     0.006 A 
ATOM      4  C   UNL     1      -0.101   1.226   0.562  1.00  0.00    -0.034 A 
ATOM      5  C   UNL     1       0.372   2.367   1.221  1.00  0.00     0.006 A 
ATOM      6  C   UNL     1       1.735   2.508   1.499  1.00  0.00     0.012 A 
ENDROOT
BRANCH   1   7
ATOM      7  C   UNL     1       4.087   1.719   1.438  1.00  0.00     0.199 C 
ATOM      8  O   UNL     1       4.458   2.667   2.125  1.00  0.00    -0.288 OA
BRANCH   7   9
ATOM      9  C   UNL     1       5.102   0.793   0.926  1.00  0.00     0.104 A 
ATOM     10  C   UNL     1       6.614   0.162  -0.864  1.00  0.00     0.155 A 
ATOM     11  C   UNL     1       7.074  -0.901  -0.079  1.00  0.00     0.053 A 
ATOM     12  C   UNL     1       5.626   1.008  -0.346  1.00  0.00     0.179 A 
ATOM     13  C   UNL     1       6.548  -1.119   1.201  1.00  0.00     0.051 A 
ATOM     14  C   UNL     1       5.561  -0.272   1.702  1.00  0.00     0.130 A 
ATOM     15  F   UNL     1       5.168   2.026  -1.093  1.00  0.00    -0.202 F 
BRANCH  10  16
ATOM     16  O   UNL     1       7.046   0.461  -2.127  1.00  0.00    -0.494 OA
ATOM     17  C   UNL     1       8.061  -0.363  -2.685  1.00  0.00     0.278 C 
ENDBRANCH  10  16
BRANCH  14  18
ATOM     18  O   UNL     1       5.026  -0.501   2.937  1.00  0.00    -0.507 OA
ATOM     19  H   UNL     1       5.564  -1.153   3.414  1.00  0.00     0.293 HD
ENDBRANCH  14  18
ENDBRANCH   7   9
ENDBRANCH   1   7
BRANCH   4  20
ATOM     20  C   UNL     1      -1.574   1.060   0.251  1.00  0.00     0.122 C 
BRANCH  20  21
ATOM     21  N   UNL     1      -2.159  -0.139   0.878  1.00  0.00    -0.276 NA
ATOM     22  C   UNL     1      -2.229   0.023   2.348  1.00  0.00     0.102 C 
ATOM     23  C   UNL     1      -3.501  -0.470   0.333  1.00  0.00     0.177 C 
ATOM     24  C   UNL     1      -2.952  -1.135   3.076  1.00  0.00     0.100 C 
ATOM     25  C   UNL     1      -4.241  -1.602   1.114  1.00  0.00     0.126 C 
ATOM     26  N   UNL     1      -4.311  -1.423   2.581  1.00  0.00    -0.302 NA
ATOM     27  C   UNL     1      -5.269  -0.391   2.964  1.00  0.00     0.105 C 
BRANCH  23  28
ATOM     28  N   UNL     1      -3.382  -0.828  -1.083  1.00  0.00    -0.276 N 
ATOM     29  C   UNL     1      -2.679  -1.874  -1.615  1.00  0.00     0.296 A 
ATOM     30  C   UNL     1      -4.008  -0.190  -2.139  1.00  0.00     0.073 A 
ATOM     31  N   UNL     1      -2.779  -1.956  -2.914  1.00  0.00    -0.195 NA
ATOM     32  C   UNL     1      -4.863   0.918  -2.228  1.00  0.00     0.032 A 
ATOM     33  C   UNL     1      -3.602  -0.915  -3.263  1.00  0.00     0.095 A 
ATOM     34  C   UNL     1      -5.300   1.282  -3.506  1.00  0.00     0.041 A 
ATOM     35  C   UNL     1      -4.049  -0.535  -4.535  1.00  0.00     0.070 A 
ATOM     36  C   UNL     1      -4.896   0.566  -4.630  1.00  0.00     0.125 A 
ATOM     37  F   UNL     1      -5.338   0.947  -5.836  1.00  0.00    -0.207 F 
BRANCH  29  38
ATOM     38  O   UNL     1      -1.968  -2.742  -0.925  1.00  0.00    -0.480 OA
ATOM     39  H   UNL     1      -1.618  -3.314  -1.630  1.00  0.00     0.296 HD
ENDBRANCH  29  38
ENDBRANCH  23  28
ENDBRANCH  20  21
ENDBRANCH   4  20
TORSDOF 8
