MODEL        6USER    Run = 6USERUSER    Estimated Free Energy of Binding    =  -9.01 kcal/mol  [=(1)+(2)+(3)-(4)]USERUSER    (1) Final Intermolecular Energy     = -11.39 kcal/molUSER        vdW + Hbond + desolv Energy     = -11.17 kcal/molUSER        Electrostatic Energy            =  -0.23 kcal/molUSER        Moving Ligand-Fixed Receptor    = -11.39 kcal/molUSER        Moving Ligand-Moving Receptor   =  +0.00 kcal/molUSER    (2) Final Total Internal Energy     =  -2.16 kcal/molUSER    (3) Torsional Free Energy           =  +2.39 kcal/molUSER    (4) Unbound System's Energy         =  -2.16 kcal/molUSERUSERREMARK SMILES COc1ccc(O)c(C(=O)c2ccc(CN3CCN(C)C[C@H]3n3c(O)nc4ccccc43)c(F)c2)c1FREMARK SMILES IDX 11 1 12 2 13 3 14 4 33 5 34 6 35 7 9 8 10 9 8 10 3 11 4 12REMARK SMILES IDX 36 13 5 14 6 15 37 16 2 17 1 18 7 19 15 21 16 22 17 23 22 24REMARK SMILES IDX 18 25 21 26 19 27 20 28 23 29 24 30 32 31 26 32 31 33 27 34REMARK SMILES IDX 30 35 28 36 29 37 25 38REMARK H PARENT 7 20 25 39USER                              x       y       z     vdW  Elec       q    TypeUSER                           _______ _______ _______ _____ _____    ______ ____ROOTATOM      1  C   UNL     1      42.071  46.544  20.073 -0.40 +0.00    +0.026 A  ATOM      2  C   UNL     1      42.100  47.445  19.002 -0.43 +0.00    +0.013 A  ATOM      3  C   UNL     1      41.396  47.158  17.829 -0.48 -0.00    +0.009 A  ATOM      4  C   UNL     1      40.641  45.980  17.719 -0.48 -0.00    +0.002 A  ATOM      5  C   UNL     1      40.604  45.107  18.810 -0.36 +0.00    +0.128 A  ATOM      6  F   UNL     1      39.886  43.978  18.741 -0.09 +0.00    -0.207 F  ATOM      7  C   UNL     1      41.305  45.380  19.981 -0.36 +0.01    +0.051 A  ENDROOTBRANCH   1   8ATOM      8  C   UNL     1      42.778  46.819  21.347 -0.29 +0.05    +0.199 C  ATOM      9  O   UNL     1      43.971  46.524  21.440 -0.39 -0.19    -0.288 OA BRANCH   8  10ATOM     10  C   UNL     1      42.114  47.380  22.543 -0.19 +0.01    +0.104 A  ATOM     11  C   UNL     1      40.222  47.516  24.075 -0.21 +0.02    +0.155 A  ATOM     12  C   UNL     1      40.907  48.469  24.832 -0.29 +0.01    +0.053 A  ATOM     13  C   UNL     1      40.833  46.986  22.929 -0.08 +0.02    +0.179 A  ATOM     14  C   UNL     1      42.177  48.897  24.436 -0.37 +0.01    +0.051 A  ATOM     15  C   UNL     1      42.767  48.367  23.291 -0.31 +0.03    +0.130 A  ATOM     16  F   UNL     1      40.147  46.102  22.185 -0.07 -0.02    -0.202 F  BRANCH  11  17ATOM     17  O   UNL     1      38.970  47.036  24.352 -0.12 -0.06    -0.494 OA ATOM     18  C   UNL     1      38.882  45.749  24.949 -0.13 +0.02    +0.278 C  ENDBRANCH  11  17BRANCH  15  19ATOM     19  O   UNL     1      43.996  48.866  22.951 -0.47 -0.15    -0.507 OA ATOM     20  H   UNL     1      44.184  48.593  22.024 -0.46 +0.02    +0.293 HD ENDBRANCH  15  19ENDBRANCH   8  10ENDBRANCH   1   8BRANCH   4  21ATOM     21  C   UNL     1      39.878  45.666  16.451 +0.04 -0.02    +0.125 C  BRANCH  21  22ATOM     22  N   UNL     1      39.078  46.800  15.988 -0.22 +0.08    -0.276 NA ATOM     23  C   UNL     1      39.403  47.260  14.635 -0.46 -0.02    +0.102 C  ATOM     24  C   UNL     1      37.628  46.731  16.263 -0.32 -0.09    +0.177 C  ATOM     25  C   UNL     1      38.627  48.536  14.246 -0.44 -0.05    +0.100 C  ATOM     26  C   UNL     1      36.737  47.824  15.585 -0.26 -0.13    +0.126 C  ATOM     27  N   UNL     1      37.162  48.422  14.305 -0.32 +0.20    -0.302 NA ATOM     28  C   UNL     1      36.620  47.717  13.149 -0.61 -0.05    +0.105 C  BRANCH  24  29ATOM     29  N   UNL     1      37.040  45.387  16.166 -0.16 +0.12    -0.277 N  ATOM     30  C   UNL     1      36.855  44.585  15.075 -0.15 -0.11    +0.296 A  ATOM     31  C   UNL     1      36.479  44.708  17.242 -0.28 -0.03    +0.073 A  ATOM     32  N   UNL     1      36.259  43.457  15.349 -0.31 +0.07    -0.195 NA ATOM     33  C   UNL     1      36.330  45.008  18.605 -0.29 -0.01    +0.029 A  ATOM     34  C   UNL     1      36.012  43.513  16.694 -0.32 -0.03    +0.093 A  ATOM     35  C   UNL     1      35.696  44.054  19.410 -0.39 -0.00    +0.002 A  ATOM     36  C   UNL     1      35.381  42.569  17.518 -0.37 -0.01    +0.031 A  ATOM     37  C   UNL     1      35.230  42.852  18.880 -0.39 -0.00    +0.002 A  BRANCH  30  38ATOM     38  O   UNL     1      37.243  44.845  13.848 -0.13 +0.16    -0.480 OA ATOM     39  H   UNL     1      37.712  45.691  13.970 +0.22 -0.10    +0.296 HD ENDBRANCH  30  38ENDBRANCH  24  29ENDBRANCH  21  22ENDBRANCH   4  21TORSDOF 8TERENDMDL