REMARK SMILES COc1ccc(O)c(C(=O)c2ccc(CN3CCN(C)C[C@H]3n3c(O)nc4ccccc43)c(F)c2)c1F
REMARK SMILES IDX 11 1 12 2 13 3 14 4 33 5 34 6 35 7 9 8 10 9 8 10 3 11 4 12
REMARK SMILES IDX 36 13 5 14 6 15 37 16 2 17 1 18 7 19 15 21 16 22 17 23 22 24
REMARK SMILES IDX 18 25 21 26 19 27 20 28 23 29 24 30 32 31 26 32 31 33 27 34
REMARK SMILES IDX 30 35 28 36 29 37 25 38
REMARK H PARENT 7 20 25 39
ROOT
ATOM      1  C   UNL     1       2.833  -1.695   0.972  1.00  0.00     0.026 A 
ATOM      2  C   UNL     1       2.430  -0.356   1.041  1.00  0.00     0.013 A 
ATOM      3  C   UNL     1       1.073  -0.030   0.959  1.00  0.00     0.009 A 
ATOM      4  C   UNL     1       0.104  -1.036   0.825  1.00  0.00     0.002 A 
ATOM      5  C   UNL     1       0.526  -2.368   0.785  1.00  0.00     0.128 A 
ATOM      6  F   UNL     1      -0.375  -3.353   0.667  1.00  0.00    -0.207 F 
ATOM      7  C   UNL     1       1.874  -2.704   0.862  1.00  0.00     0.051 A 
ENDROOT
BRANCH   1   8
ATOM      8  C   UNL     1       4.257  -2.090   1.085  1.00  0.00     0.199 C 
ATOM      9  O   UNL     1       4.541  -3.123   1.696  1.00  0.00    -0.288 OA
BRANCH   8  10
ATOM     10  C   UNL     1       5.373  -1.280   0.552  1.00  0.00     0.104 A 
ATOM     11  C   UNL     1       6.314   0.237  -1.109  1.00  0.00     0.155 A 
ATOM     12  C   UNL     1       7.521   0.252  -0.407  1.00  0.00     0.053 A 
ATOM     13  C   UNL     1       5.251  -0.539  -0.624  1.00  0.00     0.179 A 
ATOM     14  C   UNL     1       7.666  -0.512   0.753  1.00  0.00     0.051 A 
ATOM     15  C   UNL     1       6.604  -1.284   1.218  1.00  0.00     0.130 A 
ATOM     16  F   UNL     1       4.109  -0.580  -1.330  1.00  0.00    -0.202 F 
BRANCH  11  17
ATOM     17  O   UNL     1       6.061   0.927  -2.264  1.00  0.00    -0.494 OA
ATOM     18  C   UNL     1       7.128   1.686  -2.818  1.00  0.00     0.278 C 
ENDBRANCH  11  17
BRANCH  15  19
ATOM     19  O   UNL     1       6.840  -2.033   2.340  1.00  0.00    -0.507 OA
ATOM     20  H   UNL     1       6.116  -2.697   2.414  1.00  0.00     0.293 HD
ENDBRANCH  15  19
ENDBRANCH   8  10
ENDBRANCH   1   8
BRANCH   4  21
ATOM     21  C   UNL     1      -1.365  -0.687   0.735  1.00  0.00     0.125 C 
BRANCH  21  22
ATOM     22  N   UNL     1      -1.676   0.111  -0.451  1.00  0.00    -0.276 NA
ATOM     23  C   UNL     1      -1.593  -0.625  -1.716  1.00  0.00     0.102 C 
ATOM     24  C   UNL     1      -2.854   0.997  -0.352  1.00  0.00     0.177 C 
ATOM     25  C   UNL     1      -1.798   0.290  -2.942  1.00  0.00     0.100 C 
ATOM     26  C   UNL     1      -3.323   1.685  -1.677  1.00  0.00     0.126 C 
ATOM     27  N   UNL     1      -3.072   1.023  -2.972  1.00  0.00    -0.302 NA
ATOM     28  C   UNL     1      -4.182   0.177  -3.393  1.00  0.00     0.105 C 
BRANCH  24  29
ATOM     29  N   UNL     1      -3.977   0.453   0.426  1.00  0.00    -0.277 N 
ATOM     30  C   UNL     1      -4.648  -0.730   0.293  1.00  0.00     0.296 A 
ATOM     31  C   UNL     1      -4.617   1.145   1.449  1.00  0.00     0.073 A 
ATOM     32  N   UNL     1      -5.630  -0.874   1.140  1.00  0.00    -0.195 NA
ATOM     33  C   UNL     1      -4.422   2.406   2.034  1.00  0.00     0.029 A 
ATOM     34  C   UNL     1      -5.632   0.285   1.868  1.00  0.00     0.093 A 
ATOM     35  C   UNL     1      -5.286   2.775   3.072  1.00  0.00     0.002 A 
ATOM     36  C   UNL     1      -6.486   0.673   2.912  1.00  0.00     0.031 A 
ATOM     37  C   UNL     1      -6.301   1.925   3.508  1.00  0.00     0.002 A 
BRANCH  30  38
ATOM     38  O   UNL     1      -4.366  -1.689  -0.559  1.00  0.00    -0.480 OA
ATOM     39  H   UNL     1      -5.028  -2.362  -0.316  1.00  0.00     0.296 HD
ENDBRANCH  30  38
ENDBRANCH  24  29
ENDBRANCH  21  22
ENDBRANCH   4  21
TORSDOF 8
