MODEL        1USER    Run = 1USERUSER    Estimated Free Energy of Binding    =  -7.89 kcal/mol  [=(1)+(2)+(3)-(4)]USERUSER    (1) Final Intermolecular Energy     =  -9.68 kcal/molUSER        vdW + Hbond + desolv Energy     =  -9.30 kcal/molUSER        Electrostatic Energy            =  -0.38 kcal/molUSER        Moving Ligand-Fixed Receptor    =  -9.68 kcal/molUSER        Moving Ligand-Moving Receptor   =  +0.00 kcal/molUSER    (2) Final Total Internal Energy     =  -1.07 kcal/molUSER    (3) Torsional Free Energy           =  +1.79 kcal/molUSER    (4) Unbound System's Energy         =  -1.07 kcal/molUSERUSERREMARK SMILES O=c1[nH]c(CN2CCOCC2)ccc1Cc1ccccc1COREMARK SMILES IDX 16 1 17 2 18 3 19 4 20 5 21 6 15 7 14 8 2 9 3 10 4 11 13 12REMARK SMILES IDX 12 13 1 14 5 16 6 17 7 18 11 19 8 20 10 21 9 22 22 23 23 24REMARK H PARENT 3 15 23 25USER                              x       y       z     vdW  Elec       q    TypeUSER                           _______ _______ _______ _____ _____    ______ ____ROOTATOM      1  C   UNL     1      30.262  23.469   0.773 -0.51 +0.02    -0.038 A  ATOM      2  C   UNL     1      29.135  24.305   0.899 -0.57 -0.00    +0.004 A  ATOM      3  C   UNL     1      28.350  24.289   2.050 -0.69 -0.00    +0.000 A  ATOM      4  C   UNL     1      28.677  23.438   3.099 -0.53 -0.00    +0.000 A  ATOM      5  C   UNL     1      29.793  22.607   2.997 -0.50 -0.01    +0.006 A  ATOM      6  C   UNL     1      30.604  22.617   1.847 -0.43 +0.01    -0.019 A  ENDROOTBRANCH   1   7ATOM      7  C   UNL     1      31.078  23.553  -0.505 -0.52 -0.02    +0.077 C  BRANCH   7   8ATOM      8  C   UNL     1      30.803  22.488  -1.535 -0.35 -0.01    +0.022 A  ATOM      9  C   UNL     1      29.438  22.549  -2.154 -0.20 -0.12    +0.251 A  ATOM     10  N   UNL     1      29.149  21.599  -3.101 -0.20 +0.14    -0.325 N  ATOM     11  C   UNL     1      30.019  20.613  -3.514 -0.18 -0.01    +0.032 A  ATOM     12  C   UNL     1      31.635  21.515  -1.952 -0.25 -0.00    +0.011 A  ATOM     13  C   UNL     1      31.238  20.551  -2.952 -0.14 -0.00    +0.023 A  ATOM     14  O   UNL     1      28.617  23.404  -1.837 -0.40 +0.10    -0.269 OA ATOM     15  H   UNL     1      28.223  21.661  -3.505 -0.45 -0.11    +0.170 HD BRANCH  11  16ATOM     16  C   UNL     1      29.538  19.629  -4.561 -0.08 -0.02    +0.138 C  BRANCH  16  17ATOM     17  N   UNL     1      29.570  20.158  -5.931 -0.04 -0.02    -0.293 NA ATOM     18  C   UNL     1      30.320  21.428  -6.034 -0.25 +0.03    +0.113 C  ATOM     19  C   UNL     1      28.210  20.308  -6.495 -0.14 +0.00    +0.113 C  ATOM     20  C   UNL     1      29.886  22.255  -7.254 -0.28 +0.09    +0.175 C  ATOM     21  C   UNL     1      27.687  21.754  -6.456 -0.28 -0.01    +0.175 C  ATOM     22  O   UNL     1      28.518  22.679  -7.169 -0.86 -0.12    -0.379 OA ENDBRANCH  16  17ENDBRANCH  11  16ENDBRANCH   7   8ENDBRANCH   1   7BRANCH   6  23ATOM     23  C   UNL     1      31.783  21.675   1.811 -0.32 -0.00    +0.192 C  BRANCH  23  24ATOM     24  O   UNL     1      32.938  22.338   1.316 -0.71 -0.35    -0.392 OA ATOM     25  H   UNL     1      32.825  23.292   1.471 -0.41 +0.01    +0.211 HD ENDBRANCH  23  24ENDBRANCH   6  23TORSDOF 6TERENDMDL