REMARK SMILES O=c1[nH]c(CN2CCOCC2)ccc1Cc1ccccc1CO
REMARK SMILES IDX 16 1 17 2 18 3 19 4 20 5 21 6 15 7 14 8 2 9 3 10 4 11 13 12
REMARK SMILES IDX 12 13 1 14 5 16 6 17 7 18 11 19 8 20 10 21 9 22 22 23 23 24
REMARK H PARENT 3 15 23 25
ROOT
ATOM      1  C   UNL     1       3.656   0.732  -0.369  1.00  0.00    -0.038 A 
ATOM      2  C   UNL     1       3.886   0.864  -1.753  1.00  0.00     0.004 A 
ATOM      3  C   UNL     1       4.918   0.169  -2.382  1.00  0.00     0.000 A 
ATOM      4  C   UNL     1       5.739  -0.671  -1.640  1.00  0.00     0.000 A 
ATOM      5  C   UNL     1       5.524  -0.821  -0.270  1.00  0.00     0.006 A 
ATOM      6  C   UNL     1       4.480  -0.137   0.381  1.00  0.00    -0.019 A 
ENDROOT
BRANCH   1   7
ATOM      7  C   UNL     1       2.504   1.509   0.243  1.00  0.00     0.077 C 
BRANCH   7   8
ATOM      8  C   UNL     1       1.199   0.766   0.369  1.00  0.00     0.022 A 
ATOM      9  C   UNL     1       0.081   1.558   0.979  1.00  0.00     0.251 A 
ATOM     10  N   UNL     1      -1.127   0.919   1.107  1.00  0.00    -0.325 N 
ATOM     11  C   UNL     1      -1.373  -0.379   0.714  1.00  0.00     0.032 A 
ATOM     12  C   UNL     1       0.936  -0.500  -0.005  1.00  0.00     0.011 A 
ATOM     13  C   UNL     1      -0.369  -1.092   0.178  1.00  0.00     0.023 A 
ATOM     14  O   UNL     1       0.230   2.720   1.344  1.00  0.00    -0.269 OA
ATOM     15  H   UNL     1      -1.866   1.474   1.519  1.00  0.00     0.170 HD
BRANCH  11  16
ATOM     16  C   UNL     1      -2.761  -0.942   0.941  1.00  0.00     0.138 C 
BRANCH  16  17
ATOM     17  N   UNL     1      -3.630  -0.873  -0.242  1.00  0.00    -0.293 NA
ATOM     18  C   UNL     1      -3.861   0.515  -0.698  1.00  0.00     0.113 C 
ATOM     19  C   UNL     1      -4.916  -1.570  -0.021  1.00  0.00     0.113 C 
ATOM     20  C   UNL     1      -5.161   0.645  -1.507  1.00  0.00     0.175 C 
ATOM     21  C   UNL     1      -6.081  -0.620   0.303  1.00  0.00     0.175 C 
ATOM     22  O   UNL     1      -6.325   0.351  -0.723  1.00  0.00    -0.379 OA
ENDBRANCH  16  17
ENDBRANCH  11  16
ENDBRANCH   7   8
ENDBRANCH   1   7
BRANCH   6  23
ATOM     23  C   UNL     1       4.326  -0.341   1.869  1.00  0.00     0.192 C 
BRANCH  23  24
ATOM     24  O   UNL     1       5.278   0.436   2.581  1.00  0.00    -0.392 OA
ATOM     25  H   UNL     1       5.665   1.078   1.960  1.00  0.00     0.211 HD
ENDBRANCH  23  24
ENDBRANCH   6  23
TORSDOF 6
