REMARK SMILES O=C1NC(=O)C(=Cc2ccc(-c3ccc(NCC4CCOCC4)nc3O)c(F)c2)S1
REMARK SMILES IDX 8 1 9 2 10 3 11 4 27 5 28 6 29 7 7 8 6 9 2 10 3 11 30 12
REMARK SMILES IDX 4 13 1 14 5 16 12 17 13 18 25 19 14 20 24 21 15 22 26 23
REMARK SMILES IDX 16 25 17 27 18 28 19 29 23 30 20 31 22 32 21 33
REMARK H PARENT 3 15 26 24 16 26
ROOT
ATOM      1  C   UNL     1       4.828  -0.707  -0.627  1.00  0.00    -0.021 A 
ATOM      2  C   UNL     1       3.852  -0.404  -1.581  1.00  0.00     0.009 A 
ATOM      3  C   UNL     1       2.493  -0.529  -1.268  1.00  0.00     0.012 A 
ATOM      4  C   UNL     1       2.073  -0.966  -0.000  1.00  0.00     0.023 A 
ATOM      5  C   UNL     1       3.074  -1.270   0.936  1.00  0.00     0.131 A 
ATOM      6  F   UNL     1       2.740  -1.701   2.163  1.00  0.00    -0.206 F 
ATOM      7  C   UNL     1       4.431  -1.150   0.635  1.00  0.00     0.048 A 
ENDROOT
BRANCH   1   8
ATOM      8  C   UNL     1       6.244  -0.588  -0.980  1.00  0.00     0.029 C 
BRANCH   8   9
ATOM      9  C   UNL     1       7.103   0.317  -0.491  1.00  0.00     0.083 C 
ATOM     10  C   UNL     1       9.106   1.751   0.056  1.00  0.00     0.290 C 
ATOM     11  N   UNL     1       7.981   2.110   0.722  1.00  0.00    -0.282 N 
ATOM     12  S   UNL     1       8.767   0.379  -0.976  1.00  0.00    -0.022 SA
ATOM     13  C   UNL     1       6.836   1.406   0.492  1.00  0.00     0.265 C 
ATOM     14  O   UNL     1      10.195   2.291   0.147  1.00  0.00    -0.261 OA
ATOM     15  H   UNL     1       7.988   2.890   1.359  1.00  0.00     0.174 HD
ATOM     16  O   UNL     1       5.769   1.659   1.024  1.00  0.00    -0.268 OA
ENDBRANCH   8   9
ENDBRANCH   1   8
BRANCH   4  17
ATOM     17  C   UNL     1       0.644  -1.087   0.331  1.00  0.00     0.047 A 
ATOM     18  C   UNL     1       0.108  -0.494   1.478  1.00  0.00     0.018 A 
ATOM     19  C   UNL     1      -0.274  -1.787  -0.448  1.00  0.00     0.220 A 
ATOM     20  C   UNL     1      -1.252  -0.619   1.770  1.00  0.00     0.047 A 
ATOM     21  N   UNL     1      -1.593  -1.924  -0.202  1.00  0.00    -0.196 NA
ATOM     22  C   UNL     1      -2.073  -1.328   0.903  1.00  0.00     0.130 A 
BRANCH  19  23
ATOM     23  O   UNL     1       0.102  -2.441  -1.579  1.00  0.00    -0.493 OA
ATOM     24  H   UNL     1      -0.751  -2.842  -1.823  1.00  0.00     0.295 HD
ENDBRANCH  19  23
BRANCH  22  25
ATOM     25  N   UNL     1      -3.432  -1.501   1.124  1.00  0.00    -0.370 N 
ATOM     26  H   UNL     1      -3.779  -2.040   0.334  1.00  0.00     0.162 HD
BRANCH  25  27
ATOM     27  C   UNL     1      -4.246  -0.333   1.446  1.00  0.00     0.118 C 
BRANCH  27  28
ATOM     28  C   UNL     1      -4.326   0.689   0.291  1.00  0.00     0.013 C 
ATOM     29  C   UNL     1      -5.058   1.963   0.747  1.00  0.00     0.034 C 
ATOM     30  C   UNL     1      -5.024   0.137  -0.963  1.00  0.00     0.034 C 
ATOM     31  C   UNL     1      -6.564   1.750   0.850  1.00  0.00     0.160 C 
ATOM     32  C   UNL     1      -6.531   0.016  -0.770  1.00  0.00     0.160 C 
ATOM     33  O   UNL     1      -7.093   1.268  -0.383  1.00  0.00    -0.381 OA
ENDBRANCH  27  28
ENDBRANCH  25  27
ENDBRANCH  22  25
ENDBRANCH   4  17
TORSDOF 7
