MODEL        6USER    Run = 6USERUSER    Estimated Free Energy of Binding    = -10.47 kcal/mol  [=(1)+(2)+(3)-(4)]USERUSER    (1) Final Intermolecular Energy     = -12.26 kcal/molUSER        vdW + Hbond + desolv Energy     = -12.17 kcal/molUSER        Electrostatic Energy            =  -0.09 kcal/molUSER        Moving Ligand-Fixed Receptor    = -12.26 kcal/molUSER        Moving Ligand-Moving Receptor   =  +0.00 kcal/molUSER    (2) Final Total Internal Energy     =  -1.01 kcal/molUSER    (3) Torsional Free Energy           =  +1.79 kcal/molUSER    (4) Unbound System's Energy         =  -1.01 kcal/molUSERUSERREMARK SMILES Cc1nc(NCC2CCOCC2)ncc1-c1ccc(C=C2SC(=O)NC2=O)cc1FREMARK SMILES IDX 1 1 2 2 3 3 4 4 13 5 14 6 15 7 16 8 17 9 29 10 18 11 28 12REMARK SMILES IDX 19 13 30 14 20 15 21 16 22 17 26 18 23 19 25 20 27 21 24 22REMARK SMILES IDX 5 24 6 26 7 27 8 28 12 29 9 30 11 31 10 32REMARK H PARENT 25 23 5 25USER                              x       y       z     vdW  Elec       q    TypeUSER                           _______ _______ _______ _____ _____    ______ ____ROOTATOM      1  C   UNL     1      39.767  44.449  19.838 -0.36 +0.00    +0.067 C  ATOM      2  C   UNL     1      38.424  44.714  19.220 -0.35 -0.00    +0.051 A  ATOM      3  N   UNL     1      38.446  45.314  18.004 -0.25 +0.04    -0.218 NA ATOM      4  C   UNL     1      37.276  45.562  17.401 -0.21 -0.08    +0.222 A  ATOM      5  N   UNL     1      36.086  45.264  17.933 -0.20 +0.08    -0.221 NA ATOM      6  C   UNL     1      36.098  44.670  19.144 -0.25 -0.02    +0.125 A  ATOM      7  C   UNL     1      37.242  44.358  19.857 -0.36 -0.00    +0.024 A  ENDROOTBRANCH   7   8ATOM      8  C   UNL     1      37.168  43.708  21.165 -0.39 +0.00    +0.021 A  ATOM      9  C   UNL     1      37.659  44.346  22.313 -0.36 +0.00    +0.012 A  ATOM     10  C   UNL     1      36.615  42.428  21.309 -0.39 +0.00    +0.131 A  ATOM     11  C   UNL     1      37.586  43.723  23.563 -0.33 +0.00    +0.009 A  ATOM     12  C   UNL     1      36.539  41.800  22.550 -0.50 +0.00    +0.048 A  ATOM     13  C   UNL     1      37.019  42.450  23.688 -0.41 -0.00    -0.021 A  ATOM     14  F   UNL     1      36.145  41.778  20.235 -0.15 +0.01    -0.206 F  BRANCH  13  15ATOM     15  C   UNL     1      36.935  41.788  24.991 -0.38 -0.00    +0.029 C  BRANCH  15  16ATOM     16  C   UNL     1      36.262  42.250  26.054 -0.45 -0.01    +0.083 C  ATOM     17  S   UNL     1      35.852  43.923  26.248 -0.53 +0.00    -0.022 SA ATOM     18  C   UNL     1      35.765  41.481  27.232 -0.45 -0.09    +0.265 C  ATOM     19  C   UNL     1      35.063  43.640  27.784 -0.42 -0.07    +0.290 C  ATOM     20  N   UNL     1      35.116  42.320  28.088 -0.32 +0.11    -0.282 N  ATOM     21  O   UNL     1      35.907  40.287  27.431 -0.45 +0.12    -0.268 OA ATOM     22  O   UNL     1      34.555  44.512  28.467 -0.53 +0.06    -0.261 OA ATOM     23  H   UNL     1      34.726  41.977  28.952 -0.22 -0.11    +0.174 HD ENDBRANCH  15  16ENDBRANCH  13  15ENDBRANCH   7   8BRANCH   4  24ATOM     24  N   UNL     1      37.233  46.172  16.154 -0.12 +0.18    -0.354 N  ATOM     25  H   UNL     1      36.723  47.036  16.303 +0.11 -0.13    +0.163 HD BRANCH  24  26ATOM     26  C   UNL     1      38.530  46.311  15.514 -0.38 -0.04    +0.119 C  BRANCH  26  27ATOM     27  C   UNL     1      39.297  47.485  16.143 -0.54 -0.00    +0.013 C  ATOM     28  C   UNL     1      39.682  48.545  15.099 -0.60 -0.01    +0.034 C  ATOM     29  C   UNL     1      40.562  46.984  16.855 -0.54 -0.00    +0.034 C  ATOM     30  C   UNL     1      40.554  49.625  15.724 -0.55 -0.05    +0.160 C  ATOM     31  C   UNL     1      41.385  48.153  17.382 -0.42 -0.01    +0.160 C  ATOM     32  O   UNL     1      41.715  49.053  16.326 -0.86 -0.05    -0.381 OA ENDBRANCH  26  27ENDBRANCH  24  26ENDBRANCH   4  24TORSDOF 6TERENDMDL