REMARK SMILES Cc1nc(NCC2CCOCC2)ncc1-c1ccc(C=C2SC(=O)NC2=O)cc1F
REMARK SMILES IDX 1 1 2 2 3 3 4 4 13 5 14 6 15 7 16 8 17 9 29 10 18 11 28 12
REMARK SMILES IDX 19 13 30 14 20 15 21 16 22 17 26 18 23 19 25 20 27 21 24 22
REMARK SMILES IDX 5 24 6 26 7 27 8 28 12 29 9 30 11 31 10 32
REMARK H PARENT 25 23 5 25
ROOT
ATOM      1  C   UNL     1       0.772   0.743   1.400  1.00  0.00     0.067 C 
ATOM      2  C   UNL     1       0.154   0.170   0.157  1.00  0.00     0.051 A 
ATOM      3  N   UNL     1      -1.187   0.330   0.041  1.00  0.00    -0.218 NA
ATOM      4  C   UNL     1      -1.788  -0.151  -1.055  1.00  0.00     0.222 A 
ATOM      5  N   UNL     1      -1.145  -0.790  -2.037  1.00  0.00    -0.221 NA
ATOM      6  C   UNL     1       0.188  -0.935  -1.891  1.00  0.00     0.125 A 
ATOM      7  C   UNL     1       0.917  -0.474  -0.809  1.00  0.00     0.024 A 
ENDROOT
BRANCH   7   8
ATOM      8  C   UNL     1       2.364  -0.667  -0.730  1.00  0.00     0.021 A 
ATOM      9  C   UNL     1       3.238   0.150  -1.462  1.00  0.00     0.012 A 
ATOM     10  C   UNL     1       2.920  -1.675   0.069  1.00  0.00     0.131 A 
ATOM     11  C   UNL     1       4.623  -0.035  -1.383  1.00  0.00     0.009 A 
ATOM     12  C   UNL     1       4.297  -1.867   0.153  1.00  0.00     0.048 A 
ATOM     13  C   UNL     1       5.158  -1.040  -0.570  1.00  0.00    -0.021 A 
ATOM     14  F   UNL     1       2.119  -2.486   0.776  1.00  0.00    -0.206 F 
BRANCH  13  15
ATOM     15  C   UNL     1       6.605  -1.242  -0.478  1.00  0.00     0.029 C 
BRANCH  15  16
ATOM     16  C   UNL     1       7.457  -0.457   0.195  1.00  0.00     0.083 C 
ATOM     17  S   UNL     1       9.162  -0.765   0.260  1.00  0.00    -0.022 SA
ATOM     18  C   UNL     1       7.146   0.764   0.995  1.00  0.00     0.265 C 
ATOM     19  C   UNL     1       9.462   0.631   1.272  1.00  0.00     0.290 C 
ATOM     20  N   UNL     1       8.297   1.282   1.510  1.00  0.00    -0.282 N 
ATOM     21  O   UNL     1       6.042   1.245   1.184  1.00  0.00    -0.268 OA
ATOM     22  O   UNL     1      10.559   0.949   1.696  1.00  0.00    -0.261 OA
ATOM     23  H   UNL     1       8.278   2.102   2.095  1.00  0.00     0.174 HD
ENDBRANCH  15  16
ENDBRANCH  13  15
ENDBRANCH   7   8
BRANCH   4  24
ATOM     24  N   UNL     1      -3.159  -0.016  -1.232  1.00  0.00    -0.354 N 
ATOM     25  H   UNL     1      -3.400  -0.701  -1.940  1.00  0.00     0.163 HD
BRANCH  24  26
ATOM     26  C   UNL     1      -3.929  -0.087  -0.002  1.00  0.00     0.119 C 
BRANCH  26  27
ATOM     27  C   UNL     1      -5.431  -0.023  -0.325  1.00  0.00     0.013 C 
ATOM     28  C   UNL     1      -5.837   1.345  -0.895  1.00  0.00     0.034 C 
ATOM     29  C   UNL     1      -6.266  -0.325   0.928  1.00  0.00     0.034 C 
ATOM     30  C   UNL     1      -7.347   1.425  -1.078  1.00  0.00     0.160 C 
ATOM     31  C   UNL     1      -7.752  -0.151   0.642  1.00  0.00     0.160 C 
ATOM     32  O   UNL     1      -8.021   1.161   0.152  1.00  0.00    -0.381 OA
ENDBRANCH  26  27
ENDBRANCH  24  26
ENDBRANCH   4  24
TORSDOF 6
