REMARK SMILES Cc1nc(NCC2CCOCC2)ccc1-c1ccc(C=C2SC(=O)NC2=O)cc1O
REMARK SMILES IDX 1 1 2 2 3 3 4 4 13 5 14 6 15 7 16 8 17 9 29 10 18 11 28 12
REMARK SMILES IDX 19 13 30 14 20 16 21 17 22 18 26 19 23 20 25 21 27 22 24 23
REMARK SMILES IDX 5 25 6 27 7 28 8 29 12 30 9 31 11 32 10 33
REMARK H PARENT 30 15 25 24 5 26
ROOT
ATOM      1  C   UNL     1       0.425   0.588  -2.695  1.00  0.00     0.067 C 
ATOM      2  C   UNL     1      -0.127   0.169  -1.362  1.00  0.00     0.048 A 
ATOM      3  N   UNL     1      -1.484   0.214  -1.252  1.00  0.00    -0.236 NA
ATOM      4  C   UNL     1      -2.044  -0.141  -0.083  1.00  0.00     0.126 A 
ATOM      5  C   UNL     1      -1.292  -0.575   0.998  1.00  0.00     0.047 A 
ATOM      6  C   UNL     1       0.094  -0.625   0.878  1.00  0.00     0.014 A 
ATOM      7  C   UNL     1       0.713  -0.246  -0.318  1.00  0.00     0.007 A 
ENDROOT
BRANCH   7   8
ATOM      8  C   UNL     1       2.176  -0.318  -0.440  1.00  0.00     0.025 A 
ATOM      9  C   UNL     1       2.795  -1.554  -0.686  1.00  0.00     0.013 A 
ATOM     10  C   UNL     1       2.996   0.814  -0.310  1.00  0.00     0.124 A 
ATOM     11  C   UNL     1       4.185  -1.654  -0.800  1.00  0.00     0.009 A 
ATOM     12  C   UNL     1       4.386   0.723  -0.425  1.00  0.00     0.055 A 
ATOM     13  C   UNL     1       4.988  -0.518  -0.661  1.00  0.00    -0.021 A 
BRANCH  10  14
ATOM     14  O   UNL     1       2.415   2.030  -0.068  1.00  0.00    -0.507 OA
ATOM     15  H   UNL     1       3.108   2.697   0.065  1.00  0.00     0.293 HD
ENDBRANCH  10  14
BRANCH  13  16
ATOM     16  C   UNL     1       6.442  -0.651  -0.805  1.00  0.00     0.029 C 
BRANCH  16  17
ATOM     17  C   UNL     1       7.360  -0.382   0.133  1.00  0.00     0.083 C 
ATOM     18  S   UNL     1       7.115   0.178   1.745  1.00  0.00    -0.022 SA
ATOM     19  C   UNL     1       8.813  -0.574  -0.116  1.00  0.00     0.265 C 
ATOM     20  C   UNL     1       8.832   0.171   2.094  1.00  0.00     0.290 C 
ATOM     21  N   UNL     1       9.520  -0.250   1.003  1.00  0.00    -0.282 N 
ATOM     22  O   UNL     1       9.306  -0.961  -1.163  1.00  0.00    -0.268 OA
ATOM     23  O   UNL     1       9.318   0.504   3.161  1.00  0.00    -0.261 OA
ATOM     24  H   UNL     1      10.524  -0.316   1.022  1.00  0.00     0.174 HD
ENDBRANCH  16  17
ENDBRANCH  13  16
ENDBRANCH   7   8
BRANCH   4  25
ATOM     25  N   UNL     1      -3.440  -0.076  -0.043  1.00  0.00    -0.370 N 
ATOM     26  H   UNL     1      -3.665   0.244  -0.987  1.00  0.00     0.162 HD
BRANCH  25  27
ATOM     27  C   UNL     1      -3.951   0.855   0.962  1.00  0.00     0.118 C 
BRANCH  27  28
ATOM     28  C   UNL     1      -5.487   0.889   0.961  1.00  0.00     0.013 C 
ATOM     29  C   UNL     1      -6.107  -0.458   1.375  1.00  0.00     0.034 C 
ATOM     30  C   UNL     1      -6.090   1.360  -0.365  1.00  0.00     0.034 C 
ATOM     31  C   UNL     1      -7.518  -0.633   0.822  1.00  0.00     0.160 C 
ATOM     32  C   UNL     1      -7.612   1.477  -0.256  1.00  0.00     0.160 C 
ATOM     33  O   UNL     1      -8.176   0.627   0.745  1.00  0.00    -0.381 OA
ENDBRANCH  27  28
ENDBRANCH  25  27
ENDBRANCH   4  25
TORSDOF 7
