MODEL        7USER    Run = 7USERUSER    Estimated Free Energy of Binding    = -10.53 kcal/mol  [=(1)+(2)+(3)-(4)]USERUSER    (1) Final Intermolecular Energy     = -12.32 kcal/molUSER        vdW + Hbond + desolv Energy     = -12.15 kcal/molUSER        Electrostatic Energy            =  -0.17 kcal/molUSER        Moving Ligand-Fixed Receptor    = -12.32 kcal/molUSER        Moving Ligand-Moving Receptor   =  +0.00 kcal/molUSER    (2) Final Total Internal Energy     =  -0.98 kcal/molUSER    (3) Torsional Free Energy           =  +1.79 kcal/molUSER    (4) Unbound System's Energy         =  -0.98 kcal/molUSERUSERREMARK SMILES O=C1NC(=O)C(=Cc2ccc(-c3ccc(NCC4CCOCC4)nc3)cc2)S1REMARK SMILES IDX 8 1 9 2 10 3 11 4 26 5 27 6 7 7 6 8 2 9 3 10 28 11 4 12 1 13REMARK SMILES IDX 5 15 12 16 13 17 25 18 14 19 24 20 15 21 16 22 17 24 18 25REMARK SMILES IDX 19 26 23 27 20 28 22 29 21 30REMARK H PARENT 3 14 16 23USER                              x       y       z     vdW  Elec       q    TypeUSER                           _______ _______ _______ _____ _____    ______ ____ROOTATOM      1  C   UNL     1      37.963  45.385  17.607 -0.36 +0.01    -0.024 A  ATOM      2  C   UNL     1      36.792  44.644  17.782 -0.33 -0.00    +0.009 A  ATOM      3  C   UNL     1      36.529  44.014  19.004 -0.35 -0.00    +0.009 A  ATOM      4  C   UNL     1      37.425  44.114  20.080 -0.36 +0.00    -0.017 A  ATOM      5  C   UNL     1      38.594  44.871  19.894 -0.36 -0.00    +0.009 A  ATOM      6  C   UNL     1      38.859  45.503  18.673 -0.40 -0.00    +0.009 A  ENDROOTBRANCH   1   7ATOM      7  C   UNL     1      38.255  46.070  16.345 -0.42 -0.01    +0.029 C  BRANCH   7   8ATOM      8  C   UNL     1      39.070  47.122  16.188 -0.45 -0.03    +0.083 C  ATOM      9  C   UNL     1      40.802  48.940  16.093 -0.42 -0.05    +0.290 C  ATOM     10  N   UNL     1      39.651  49.255  15.447 -0.30 +0.14    -0.282 N  ATOM     11  S   UNL     1      40.673  47.336  16.785 -0.69 +0.00    -0.022 SA ATOM     12  C   UNL     1      38.645  48.337  15.442 -0.36 -0.14    +0.265 C  ATOM     13  O   UNL     1      41.786  49.654  16.188 -1.05 -0.04    -0.261 OA ATOM     14  H   UNL     1      39.546  50.145  14.991 -0.27 -0.17    +0.174 HD ATOM     15  O   UNL     1      37.561  48.495  14.907 -0.39 +0.20    -0.268 OA ENDBRANCH   7   8ENDBRANCH   1   7BRANCH   4  16ATOM     16  C   UNL     1      37.148  43.449  21.361 -0.41 +0.00    +0.000 A  ATOM     17  C   UNL     1      36.653  42.145  21.428 -0.50 +0.00    +0.014 A  ATOM     18  C   UNL     1      37.371  44.077  22.584 -0.29 +0.01    +0.122 A  ATOM     19  C   UNL     1      36.401  41.551  22.667 -0.48 +0.00    +0.047 A  ATOM     20  N   UNL     1      37.130  43.524  23.800 -0.22 -0.02    -0.239 NA ATOM     21  C   UNL     1      36.643  42.271  23.829 -0.33 +0.01    +0.125 A  BRANCH  21  22ATOM     22  N   UNL     1      36.427  41.748  25.096 -0.18 +0.05    -0.370 N  ATOM     23  H   UNL     1      36.055  40.814  24.937 -0.20 -0.08    +0.162 HD BRANCH  22  24ATOM     24  C   UNL     1      37.546  41.760  26.040 -0.34 -0.01    +0.118 C  BRANCH  24  25ATOM     25  C   UNL     1      37.086  41.941  27.505 -0.51 -0.00    +0.013 C  ATOM     26  C   UNL     1      37.266  43.396  27.952 -0.36 -0.01    +0.034 C  ATOM     27  C   UNL     1      35.614  41.528  27.706 -0.66 -0.01    +0.034 C  ATOM     28  C   UNL     1      36.320  44.347  27.220 -0.37 -0.03    +0.160 C  ATOM     29  C   UNL     1      34.653  42.715  27.645 -0.50 -0.04    +0.160 C  ATOM     30  O   UNL     1      35.140  43.700  26.742 -0.28 +0.06    -0.381 OA ENDBRANCH  24  25ENDBRANCH  22  24ENDBRANCH  21  22ENDBRANCH   4  16TORSDOF 6TERENDMDL