REMARK SMILES O=c1[nH]c(CN2CCOCC2)ccc1Cc1ccccc1C=NO
REMARK SMILES IDX 16 1 17 2 18 3 19 4 20 5 21 6 15 7 14 8 2 9 3 10 4 11 13 12
REMARK SMILES IDX 12 13 1 14 5 16 6 17 7 18 11 19 8 20 10 21 9 22 22 23 23 24
REMARK SMILES IDX 24 25
REMARK H PARENT 3 15 24 26
ROOT
ATOM      1  C   UNL     1       3.688   0.681  -0.951  1.00  0.00    -0.035 A 
ATOM      2  C   UNL     1       4.024   1.922  -0.382  1.00  0.00     0.005 A 
ATOM      3  C   UNL     1       5.124   2.051   0.469  1.00  0.00     0.000 A 
ATOM      4  C   UNL     1       5.908   0.940   0.770  1.00  0.00     0.001 A 
ATOM      5  C   UNL     1       5.592  -0.300   0.221  1.00  0.00     0.010 A 
ATOM      6  C   UNL     1       4.484  -0.433  -0.628  1.00  0.00    -0.000 A 
ENDROOT
BRANCH   1   7
ATOM      7  C   UNL     1       2.449   0.586  -1.819  1.00  0.00     0.077 C 
BRANCH   7   8
ATOM      8  C   UNL     1       1.203   0.284  -1.037  1.00  0.00     0.022 A 
ATOM      9  C   UNL     1       0.421   1.441  -0.501  1.00  0.00     0.251 A 
ATOM     10  N   UNL     1      -0.716   1.133   0.206  1.00  0.00    -0.325 N 
ATOM     11  C   UNL     1      -1.187  -0.145   0.418  1.00  0.00     0.032 A 
ATOM     12  C   UNL     1       0.722  -0.955  -0.829  1.00  0.00     0.011 A 
ATOM     13  C   UNL     1      -0.489  -1.180  -0.076  1.00  0.00     0.023 A 
ATOM     14  O   UNL     1       0.761   2.606  -0.683  1.00  0.00    -0.269 OA
ATOM     15  H   UNL     1      -1.224   1.929   0.568  1.00  0.00     0.170 HD
BRANCH  11  16
ATOM     16  C   UNL     1      -2.450  -0.317   1.237  1.00  0.00     0.138 C 
BRANCH  16  17
ATOM     17  N   UNL     1      -3.651  -0.548   0.423  1.00  0.00    -0.293 NA
ATOM     18  C   UNL     1      -4.745  -1.086   1.262  1.00  0.00     0.113 C 
ATOM     19  C   UNL     1      -4.108   0.639  -0.330  1.00  0.00     0.113 C 
ATOM     20  C   UNL     1      -6.122  -0.855   0.625  1.00  0.00     0.175 C 
ATOM     21  C   UNL     1      -5.289   1.368   0.331  1.00  0.00     0.175 C 
ATOM     22  O   UNL     1      -6.443   0.537   0.509  1.00  0.00    -0.379 OA
ENDBRANCH  16  17
ENDBRANCH  11  16
ENDBRANCH   7   8
ENDBRANCH   1   7
BRANCH   6  23
ATOM     23  C   UNL     1       4.227  -1.752  -1.242  1.00  0.00     0.162 C 
BRANCH  23  24
ATOM     24  N   UNL     1       4.080  -2.900  -0.649  1.00  0.00    -0.097 NA
BRANCH  24  25
ATOM     25  O   UNL     1       4.124  -2.783   0.744  1.00  0.00    -0.411 OA
ATOM     26  H   UNL     1       3.988  -3.703   1.036  1.00  0.00     0.330 HD
ENDBRANCH  24  25
ENDBRANCH  23  24
ENDBRANCH   6  23
TORSDOF 7
