REMARK SMILES C=C1C=C(c2nnc3sc(C(N)=O)cc3c2CN2CCOCC2)C[C@H]1C
REMARK SMILES IDX 5 1 6 2 7 3 8 4 9 5 10 6 14 7 15 8 16 9 4 10 2 11 3 12 25 13
REMARK SMILES IDX 24 14 1 15 26 16 17 17 18 18 19 19 23 20 20 21 22 22 21 23
REMARK SMILES IDX 11 24 12 25 13 26
REMARK H PARENT 12 27 12 28
ROOT
ATOM      1  C   UNL     1       1.228   1.009   0.447  1.00  0.00     0.094 A 
ATOM      2  N   UNL     1       1.810   2.016   1.152  1.00  0.00    -0.149 NA
ATOM      3  N   UNL     1       1.117   3.066   1.547  1.00  0.00    -0.139 NA
ATOM      4  C   UNL     1      -0.175   3.126   1.190  1.00  0.00     0.147 A 
ATOM      5  S   UNL     1      -1.145   4.447   1.638  1.00  0.00    -0.108 S 
ATOM      6  C   UNL     1      -2.500   3.817   0.810  1.00  0.00     0.094 A 
ATOM      7  C   UNL     1      -2.200   2.602   0.220  1.00  0.00     0.036 A 
ATOM      8  C   UNL     1      -0.848   2.170   0.447  1.00  0.00     0.021 A 
ATOM      9  C   UNL     1      -0.122   1.014   0.055  1.00  0.00     0.004 A 
ENDROOT
BRANCH   1  10
ATOM     10  C   UNL     1       2.172  -0.051   0.091  1.00  0.00    -0.019 C 
ATOM     11  C   UNL     1       3.266  -2.057  -0.031  1.00  0.00    -0.052 C 
ATOM     12  C   UNL     1       2.145  -1.324   0.500  1.00  0.00     0.009 C 
ATOM     13  C   UNL     1       4.058  -1.123  -0.924  1.00  0.00     0.020 C 
ATOM     14  C   UNL     1       3.394   0.256  -0.722  1.00  0.00     0.046 C 
ATOM     15  C   UNL     1       3.526  -3.339   0.236  1.00  0.00     0.013 C 
ATOM     16  C   UNL     1       5.554  -1.076  -0.624  1.00  0.00     0.013 C 
ENDBRANCH   1  10
BRANCH   9  17
ATOM     17  C   UNL     1      -0.732  -0.097  -0.771  1.00  0.00     0.123 C 
BRANCH  17  18
ATOM     18  N   UNL     1      -1.119  -1.278   0.016  1.00  0.00    -0.294 NA
ATOM     19  C   UNL     1      -1.276  -2.455  -0.874  1.00  0.00     0.113 C 
ATOM     20  C   UNL     1      -2.334  -1.088   0.837  1.00  0.00     0.113 C 
ATOM     21  C   UNL     1      -2.247  -3.497  -0.300  1.00  0.00     0.175 C 
ATOM     22  C   UNL     1      -3.616  -1.584   0.148  1.00  0.00     0.175 C 
ATOM     23  O   UNL     1      -3.579  -2.980  -0.190  1.00  0.00    -0.379 OA
ENDBRANCH  17  18
ENDBRANCH   9  17
BRANCH   6  24
ATOM     24  C   UNL     1      -3.780   4.503   0.766  1.00  0.00     0.258 C 
ATOM     25  N   UNL     1      -3.873   5.693   1.432  1.00  0.00    -0.365 N 
ATOM     26  O   UNL     1      -4.767   4.065   0.179  1.00  0.00    -0.269 OA
ATOM     27  H   UNL     1      -3.137   6.016   2.047  1.00  0.00     0.159 HD
ATOM     28  H   UNL     1      -4.786   6.124   1.490  1.00  0.00     0.159 HD
ENDBRANCH   6  24
TORSDOF 4
