MODEL        4USER    Run = 4USERUSER    Estimated Free Energy of Binding    = -11.80 kcal/mol  [=(1)+(2)+(3)-(4)]USERUSER    (1) Final Intermolecular Energy     = -13.29 kcal/molUSER        vdW + Hbond + desolv Energy     = -13.10 kcal/molUSER        Electrostatic Energy            =  -0.19 kcal/molUSER        Moving Ligand-Fixed Receptor    = -13.29 kcal/molUSER        Moving Ligand-Moving Receptor   =  +0.00 kcal/molUSER    (2) Final Total Internal Energy     =  -0.76 kcal/molUSER    (3) Torsional Free Energy           =  +1.49 kcal/molUSER    (4) Unbound System's Energy         =  -0.76 kcal/molUSERUSERREMARK SMILES CNC1=C(c2ccc(-c3nnn[nH]3)cc2)C=C(c2ccc3ccccc3c2)N[C@@H]1NREMARK SMILES IDX 3 1 4 2 16 3 17 4 28 5 29 6 2 8 1 9 5 11 6 12 15 13 7 14REMARK SMILES IDX 14 15 8 16 9 17 10 18 13 19 11 20 12 21 30 23 18 26 19 27REMARK SMILES IDX 27 28 20 29 26 30 21 31 25 32 22 33 24 34 23 35REMARK H PARENT 28 7 2 10 13 22 30 24 30 25USER                              x       y       z     vdW  Elec       q    TypeUSER                           _______ _______ _______ _____ _____    ______ ____ROOTATOM      1  C   UNL     1      31.312  44.655  15.300 -0.41 -0.03    +0.056 C  ATOM      2  C   UNL     1      32.354  43.937  15.809 -0.40 -0.00    +0.006 C  ATOM      3  C   UNL     1      33.715  44.458  15.729 -0.34 -0.02    +0.037 C  ATOM      4  C   UNL     1      33.982  45.570  15.028 -0.30 -0.04    +0.044 C  ATOM      5  N   UNL     1      32.985  46.247  14.369 -0.07 +0.40    -0.364 N  ATOM      6  C   UNL     1      31.585  46.049  14.642 -0.41 -0.14    +0.193 C  ATOM      7  H   UNL     1      33.212  47.187  14.066 -0.25 -0.22    +0.162 HD ENDROOTBRANCH   1   8ATOM      8  N   UNL     1      29.964  44.229  15.377 -0.08 +0.26    -0.388 N  ATOM      9  C   UNL     1      29.039  44.660  16.413 -0.23 -0.03    +0.139 C  ATOM     10  H   UNL     1      29.522  44.229  14.458 -0.28 -0.24    +0.160 HD ENDBRANCH   1   8BRANCH   2  11ATOM     11  C   UNL     1      32.117  42.634  16.466 -0.24 +0.01    -0.016 A  ATOM     12  C   UNL     1      33.060  42.110  17.353 -0.35 -0.00    +0.009 A  ATOM     13  C   UNL     1      30.942  41.917  16.214 -0.23 -0.00    +0.009 A  ATOM     14  C   UNL     1      32.833  40.877  17.973 -0.41 -0.00    +0.013 A  ATOM     15  C   UNL     1      30.715  40.685  16.838 -0.31 -0.00    +0.013 A  ATOM     16  C   UNL     1      31.658  40.149  17.728 -0.39 -0.00    +0.021 A  BRANCH  16  17ATOM     17  C   UNL     1      31.463  38.866  18.399 -0.33 +0.02    +0.179 A  ATOM     18  N   UNL     1      32.252  37.806  18.348 -0.48 -0.01    -0.109 NA ATOM     19  N   UNL     1      30.418  38.540  19.221 -0.24 -0.04    -0.239 N  ATOM     20  N   UNL     1      31.668  36.841  19.132 -1.03 -0.01    -0.024 NA ATOM     21  N   UNL     1      30.544  37.285  19.669 -0.63 -0.02    -0.048 NA ATOM     22  H   UNL     1      29.625  39.093  19.514 +0.11 +0.02    +0.194 HD ENDBRANCH  16  17ENDBRANCH   2  11BRANCH   6  23ATOM     23  N   UNL     1      30.960  47.084  15.457 -0.61 +0.14    -0.306 NA ATOM     24  H   UNL     1      31.199  47.960  14.997 -0.34 -0.07    +0.121 HD ATOM     25  H   UNL     1      31.488  47.103  16.331 -0.41 -0.11    +0.121 HD ENDBRANCH   6  23BRANCH   4  26ATOM     26  C   UNL     1      35.352  46.104  14.953 -0.37 +0.00    -0.002 A  ATOM     27  C   UNL     1      35.805  46.713  13.780 -0.49 -0.01    +0.011 A  ATOM     28  C   UNL     1      36.220  46.004  16.049 -0.35 -0.01    +0.019 A  ATOM     29  C   UNL     1      37.104  47.223  13.702 -0.52 -0.00    +0.009 A  ATOM     30  C   UNL     1      37.530  46.511  15.986 -0.38 +0.01    -0.018 A  ATOM     31  C   UNL     1      37.977  47.129  14.796 -0.44 +0.01    -0.018 A  ATOM     32  C   UNL     1      38.406  46.413  17.080 -0.39 -0.00    +0.009 A  ATOM     33  C   UNL     1      39.285  47.635  14.734 -0.50 -0.00    +0.009 A  ATOM     34  C   UNL     1      39.703  46.921  17.002 -0.48 -0.00    +0.001 A  ATOM     35  C   UNL     1      40.143  47.532  15.832 -0.52 -0.00    +0.001 A  ENDBRANCH   4  26TORSDOF 5TERENDMDL