REMARK SMILES CNC1=C(c2ccc(-c3nnn[nH]3)cc2)C=C(c2ccc3ccccc3c2)N[C@@H]1N
REMARK SMILES IDX 3 1 4 2 16 3 17 4 28 5 29 6 2 8 1 9 5 11 6 12 15 13 7 14
REMARK SMILES IDX 14 15 8 16 9 17 10 18 13 19 11 20 12 21 30 23 18 26 19 27
REMARK SMILES IDX 27 28 20 29 26 30 21 31 25 32 22 33 24 34 23 35
REMARK H PARENT 28 7 2 10 13 22 30 24 30 25
ROOT
ATOM      1  C   UNL     1      -1.152  -1.388  -1.534  1.00  0.00     0.056 C 
ATOM      2  C   UNL     1      -1.018  -0.432  -0.570  1.00  0.00     0.006 C 
ATOM      3  C   UNL     1       0.309  -0.019  -0.124  1.00  0.00     0.037 C 
ATOM      4  C   UNL     1       1.405  -0.671  -0.540  1.00  0.00     0.044 C 
ATOM      5  N   UNL     1       1.309  -1.741  -1.396  1.00  0.00    -0.364 N 
ATOM      6  C   UNL     1       0.128  -2.029  -2.168  1.00  0.00     0.193 C 
ATOM      7  H   UNL     1       2.170  -2.028  -1.846  1.00  0.00     0.162 HD
ENDROOT
BRANCH   1   8
ATOM      8  N   UNL     1      -2.405  -1.809  -2.041  1.00  0.00    -0.388 N 
ATOM      9  C   UNL     1      -2.688  -3.171  -2.464  1.00  0.00     0.139 C 
ATOM     10  H   UNL     1      -3.175  -1.419  -1.498  1.00  0.00     0.160 HD
ENDBRANCH   1   8
BRANCH   2  11
ATOM     11  C   UNL     1      -2.211   0.212   0.019  1.00  0.00    -0.016 A 
ATOM     12  C   UNL     1      -2.767  -0.282   1.201  1.00  0.00     0.009 A 
ATOM     13  C   UNL     1      -2.789   1.328  -0.596  1.00  0.00     0.009 A 
ATOM     14  C   UNL     1      -3.895   0.330   1.756  1.00  0.00     0.013 A 
ATOM     15  C   UNL     1      -3.917   1.941  -0.037  1.00  0.00     0.013 A 
ATOM     16  C   UNL     1      -4.484   1.450   1.149  1.00  0.00     0.021 A 
BRANCH  16  17
ATOM     17  C   UNL     1      -5.662   2.057   1.765  1.00  0.00     0.179 A 
ATOM     18  N   UNL     1      -6.372   1.585   2.775  1.00  0.00    -0.109 NA
ATOM     19  N   UNL     1      -6.234   3.247   1.404  1.00  0.00    -0.239 N 
ATOM     20  N   UNL     1      -7.378   2.490   3.008  1.00  0.00    -0.024 NA
ATOM     21  N   UNL     1      -7.299   3.511   2.171  1.00  0.00    -0.048 NA
ATOM     22  H   UNL     1      -5.965   3.906   0.686  1.00  0.00     0.194 HD
ENDBRANCH  16  17
ENDBRANCH   2  11
BRANCH   6  23
ATOM     23  N   UNL     1       0.198  -1.647  -3.573  1.00  0.00    -0.306 NA
ATOM     24  H   UNL     1       0.424  -0.655  -3.564  1.00  0.00     0.121 HD
ATOM     25  H   UNL     1      -0.762  -1.686  -3.918  1.00  0.00     0.121 HD
ENDBRANCH   6  23
BRANCH   4  26
ATOM     26  C   UNL     1       2.745  -0.251  -0.100  1.00  0.00    -0.002 A 
ATOM     27  C   UNL     1       3.687   0.187  -1.036  1.00  0.00     0.011 A 
ATOM     28  C   UNL     1       3.099  -0.290   1.256  1.00  0.00     0.019 A 
ATOM     29  C   UNL     1       4.961   0.588  -0.625  1.00  0.00     0.009 A 
ATOM     30  C   UNL     1       4.377   0.109   1.685  1.00  0.00    -0.018 A 
ATOM     31  C   UNL     1       5.320   0.554   0.731  1.00  0.00    -0.018 A 
ATOM     32  C   UNL     1       4.738   0.072   3.042  1.00  0.00     0.009 A 
ATOM     33  C   UNL     1       6.596   0.953   1.160  1.00  0.00     0.009 A 
ATOM     34  C   UNL     1       6.011   0.471   3.452  1.00  0.00     0.001 A 
ATOM     35  C   UNL     1       6.939   0.912   2.513  1.00  0.00     0.001 A 
ENDBRANCH   4  26
TORSDOF 5
