MODEL        1USER    Run = 1USERUSER    Estimated Free Energy of Binding    = -10.22 kcal/mol  [=(1)+(2)+(3)-(4)]USERUSER    (1) Final Intermolecular Energy     = -11.41 kcal/molUSER        vdW + Hbond + desolv Energy     = -11.29 kcal/molUSER        Electrostatic Energy            =  -0.13 kcal/molUSER        Moving Ligand-Fixed Receptor    = -11.41 kcal/molUSER        Moving Ligand-Moving Receptor   =  +0.00 kcal/molUSER    (2) Final Total Internal Energy     =  -1.16 kcal/molUSER    (3) Torsional Free Energy           =  +1.19 kcal/molUSER    (4) Unbound System's Energy         =  -1.16 kcal/molUSERUSERREMARK SMILES C=C1C=C(c2nnc3sc(C(N)=O)cc3c2CN2CCOCC2)C[C@H]1CREMARK SMILES IDX 5 1 6 2 7 3 8 4 9 5 10 6 14 7 15 8 16 9 4 10 2 11 3 12 25 13REMARK SMILES IDX 24 14 1 15 26 16 17 17 18 18 19 19 23 20 20 21 22 22 21 23REMARK SMILES IDX 11 24 12 25 13 26REMARK H PARENT 12 27 12 28USER                              x       y       z     vdW  Elec       q    TypeUSER                           _______ _______ _______ _____ _____    ______ ____ROOTATOM      1  C   UNL     1      37.613  45.532  17.663 -0.30 -0.03    +0.094 A  ATOM      2  N   UNL     1      38.638  45.358  18.539 -0.31 +0.02    -0.149 NA ATOM      3  N   UNL     1      39.742  46.075  18.454 -0.35 +0.01    -0.139 NA ATOM      4  C   UNL     1      39.835  46.952  17.443 -0.36 -0.03    +0.147 A  ATOM      5  S   UNL     1      41.225  47.908  17.241 -0.62 +0.01    -0.108 S  ATOM      6  C   UNL     1      40.601  48.631  15.825 -0.52 -0.02    +0.094 A  ATOM      7  C   UNL     1      39.337  48.148  15.536 -0.50 -0.01    +0.036 A  ATOM      8  C   UNL     1      38.862  47.177  16.483 -0.42 -0.01    +0.021 A  ATOM      9  C   UNL     1      37.651  46.443  16.592 -0.37 -0.00    +0.004 A  ENDROOTBRANCH   1  10ATOM     10  C   UNL     1      36.491  44.628  17.919 -0.37 +0.01    -0.019 C  ATOM     11  C   UNL     1      34.850  43.052  17.674 -0.39 +0.02    -0.052 C  ATOM     12  C   UNL     1      35.975  43.726  17.077 -0.40 -0.00    +0.009 C  ATOM     13  C   UNL     1      34.683  43.576  19.086 -0.43 -0.00    +0.020 C  ATOM     14  C   UNL     1      35.701  44.732  19.189 -0.37 -0.01    +0.046 C  ATOM     15  C   UNL     1      34.109  42.128  17.058 -0.46 -0.01    +0.013 C  ATOM     16  C   UNL     1      33.270  44.039  19.428 -0.50 -0.00    +0.013 C  ENDBRANCH   1  10BRANCH   9  17ATOM     17  C   UNL     1      36.515  46.581  15.603 -0.36 -0.09    +0.123 C  BRANCH  17  18ATOM     18  N   UNL     1      36.958  46.828  14.222 -0.21 +0.16    -0.294 NA ATOM     19  C   UNL     1      35.790  47.127  13.357 -0.51 -0.07    +0.113 C  ATOM     20  C   UNL     1      37.764  45.734  13.638 -0.38 -0.04    +0.113 C  ATOM     21  C   UNL     1      36.045  46.772  11.885 -0.54 -0.09    +0.175 C  ATOM     22  C   UNL     1      36.932  44.746  12.804 -0.40 -0.06    +0.175 C  ATOM     23  O   UNL     1      36.245  45.364  11.704 -0.32 +0.15    -0.379 OA ENDBRANCH  17  18ENDBRANCH   9  17BRANCH   6  24ATOM     24  C   UNL     1      41.339  49.624  15.062 -0.51 -0.05    +0.258 C  ATOM     25  N   UNL     1      41.740  50.749  15.726 -0.18 +0.07    -0.365 N  ATOM     26  O   UNL     1      41.602  49.506  13.867 -0.51 +0.05    -0.269 OA ATOM     27  H   UNL     1      41.420  50.955  16.663 -0.49 -0.06    +0.159 HD ATOM     28  H   UNL     1      42.164  51.486  15.179 -0.19 -0.04    +0.159 HD ENDBRANCH   6  24TORSDOF 4TERENDMDL