REMARK SMILES COc1cc(-c2ccc3ncccc3c2)ccc1CC(=O)CCc1nnn[nH]1
REMARK SMILES IDX 20 1 21 2 19 3 18 4 3 5 4 6 5 7 17 8 16 9 2 10 1 11 6 12
REMARK SMILES IDX 7 13 15 14 8 15 14 16 9 17 13 18 10 19 12 20 11 21 22 22
REMARK SMILES IDX 23 23 24 24 25 25 28 26 26 27 27 28
REMARK H PARENT 28 29
ROOT
ATOM      1  C   UNL     1       3.647   0.111   0.115  1.00  0.00     0.137 C 
ATOM      2  O   UNL     1       4.193  -0.531   1.021  1.00  0.00    -0.299 OA
ENDROOT
BRANCH   1   3
ATOM      3  C   UNL     1       2.751   1.292   0.424  1.00  0.00     0.115 C 
BRANCH   3   4
ATOM      4  C   UNL     1       1.289   0.912   0.462  1.00  0.00     0.001 A 
ATOM      5  C   UNL     1       0.486   0.942  -0.694  1.00  0.00     0.123 A 
ATOM      6  C   UNL     1      -0.857   0.553  -0.612  1.00  0.00     0.055 A 
ATOM      7  C   UNL     1      -1.430   0.144   0.607  1.00  0.00    -0.015 A 
ATOM      8  C   UNL     1       0.727   0.503   1.677  1.00  0.00     0.008 A 
ATOM      9  C   UNL     1      -0.615   0.128   1.747  1.00  0.00     0.009 A 
BRANCH   5  10
ATOM     10  O   UNL     1       1.113   1.369  -1.839  1.00  0.00    -0.496 OA
ATOM     11  C   UNL     1       0.346   1.406  -3.033  1.00  0.00     0.278 C 
ENDBRANCH   5  10
BRANCH   7  12
ATOM     12  C   UNL     1      -2.841  -0.276   0.686  1.00  0.00    -0.018 A 
ATOM     13  C   UNL     1      -3.364  -1.231  -0.194  1.00  0.00     0.011 A 
ATOM     14  C   UNL     1      -3.704   0.249   1.663  1.00  0.00     0.019 A 
ATOM     15  C   UNL     1      -4.696  -1.655  -0.091  1.00  0.00     0.029 A 
ATOM     16  C   UNL     1      -5.043  -0.177   1.764  1.00  0.00     0.001 A 
ATOM     17  C   UNL     1      -5.550  -1.149   0.877  1.00  0.00     0.070 A 
ATOM     18  C   UNL     1      -5.907   0.329   2.743  1.00  0.00     0.012 A 
ATOM     19  N   UNL     1      -6.818  -1.598   0.941  1.00  0.00    -0.256 NA
ATOM     20  C   UNL     1      -7.215  -0.134   2.816  1.00  0.00     0.021 A 
ATOM     21  C   UNL     1      -7.618  -1.091   1.903  1.00  0.00     0.112 A 
ENDBRANCH   7  12
ENDBRANCH   3   4
ENDBRANCH   1   3
BRANCH   1  22
ATOM     22  C   UNL     1       3.807  -0.286  -1.344  1.00  0.00     0.084 C 
BRANCH  22  23
ATOM     23  C   UNL     1       5.055  -1.140  -1.561  1.00  0.00     0.087 C 
BRANCH  23  24
ATOM     24  C   UNL     1       6.292  -0.381  -1.253  1.00  0.00     0.148 A 
ATOM     25  N   UNL     1       6.757   0.696  -1.851  1.00  0.00    -0.114 NA
ATOM     26  N   UNL     1       7.138  -0.693  -0.227  1.00  0.00    -0.243 N 
ATOM     27  N   UNL     1       7.895   1.047  -1.164  1.00  0.00    -0.024 NA
ATOM     28  N   UNL     1       8.122   0.210  -0.163  1.00  0.00    -0.048 NA
ATOM     29  H   UNL     1       7.071  -1.422   0.473  1.00  0.00     0.193 HD
ENDBRANCH  23  24
ENDBRANCH  22  23
ENDBRANCH   1  22
TORSDOF 7
