MODEL        4USER    Run = 4USERUSER    Estimated Free Energy of Binding    =  -8.93 kcal/mol  [=(1)+(2)+(3)-(4)]USERUSER    (1) Final Intermolecular Energy     = -11.32 kcal/molUSER        vdW + Hbond + desolv Energy     = -10.72 kcal/molUSER        Electrostatic Energy            =  -0.60 kcal/molUSER        Moving Ligand-Fixed Receptor    = -11.32 kcal/molUSER        Moving Ligand-Moving Receptor   =  +0.00 kcal/molUSER    (2) Final Total Internal Energy     =  -2.44 kcal/molUSER    (3) Torsional Free Energy           =  +2.39 kcal/molUSER    (4) Unbound System's Energy         =  -2.44 kcal/molUSERUSERREMARK SMILES O=C(O)CCNC(=O)Cc1ccc(-c2ccc3ncccc3c2)cc1OREMARK SMILES IDX 6 1 7 2 8 3 5 5 4 6 2 7 1 8 3 9 9 11 10 12 11 13 25 14 12 15REMARK SMILES IDX 24 16 13 17 26 18 14 20 15 21 23 22 16 23 22 24 17 25 21 26REMARK SMILES IDX 18 27 20 28 19 29REMARK H PARENT 6 4 3 10 26 19USER                              x       y       z     vdW  Elec       q    TypeUSER                           _______ _______ _______ _____ _____    ______ ____ROOTATOM      1  N   UNL     1      42.525  46.778  21.643 -0.14 -0.07    -0.355 N  ATOM      2  C   UNL     1      41.804  45.640  21.940 -0.19 +0.03    +0.224 C  ATOM      3  O   UNL     1      41.284  45.443  23.035 -0.09 -0.02    -0.275 OA ATOM      4  H   UNL     1      42.900  46.887  20.704 +0.06 +0.04    +0.163 HD ENDROOTBRANCH   1   5ATOM      5  C   UNL     1      42.737  47.838  22.609 -0.30 +0.02    +0.127 C  BRANCH   5   6ATOM      6  C   UNL     1      44.210  48.149  22.814 -0.25 +0.04    +0.143 C  BRANCH   6   7ATOM      7  C   UNL     1      45.082  47.224  22.021 -0.11 +0.24    +0.305 C  ATOM      8  O   UNL     1      45.822  46.368  22.479 -0.56 -0.25    -0.252 OA BRANCH   7   9ATOM      9  O   UNL     1      44.972  47.414  20.692 -0.35 -0.59    -0.481 OA ATOM     10  H   UNL     1      44.057  47.745  20.576 -0.38 +0.08    +0.296 HD ENDBRANCH   7   9ENDBRANCH   6   7ENDBRANCH   5   6ENDBRANCH   1   5BRANCH   2  11ATOM     11  C   UNL     1      41.756  44.604  20.831 -0.28 +0.02    +0.139 C  BRANCH  11  12ATOM     12  C   UNL     1      41.090  45.100  19.570 -0.41 +0.00    +0.003 A  ATOM     13  C   UNL     1      39.826  44.615  19.215 -0.39 -0.00    +0.009 A  ATOM     14  C   UNL     1      41.660  46.092  18.767 -0.39 +0.01    +0.119 A  ATOM     15  C   UNL     1      39.163  45.109  18.086 -0.40 -0.00    +0.009 A  ATOM     16  C   UNL     1      41.000  46.600  17.651 -0.46 -0.00    +0.055 A  ATOM     17  C   UNL     1      39.737  46.111  17.287 -0.44 +0.00    -0.015 A  BRANCH  14  18ATOM     18  O   UNL     1      42.878  46.627  19.078 -0.18 -0.13    -0.508 OA ATOM     19  H   UNL     1      43.332  46.789  18.231 -0.24 +0.03    +0.293 HD ENDBRANCH  14  18BRANCH  17  20ATOM     20  C   UNL     1      39.030  46.637  16.107 -0.42 +0.01    -0.018 A  ATOM     21  C   UNL     1      39.072  48.000  15.785 -0.49 -0.00    +0.011 A  ATOM     22  C   UNL     1      38.292  45.791  15.265 -0.36 -0.01    +0.019 A  ATOM     23  C   UNL     1      38.402  48.494  14.659 -0.51 -0.02    +0.029 A  ATOM     24  C   UNL     1      37.616  46.291  14.134 -0.44 -0.00    +0.001 A  ATOM     25  C   UNL     1      37.672  47.664  13.822 -0.48 -0.03    +0.070 A  ATOM     26  C   UNL     1      36.874  45.455  13.290 -0.48 -0.00    +0.012 A  ATOM     27  N   UNL     1      37.046  48.187  12.752 -0.90 +0.06    -0.256 NA ATOM     28  C   UNL     1      36.226  45.990  12.184 -0.60 -0.01    +0.021 A  ATOM     29  C   UNL     1      36.342  47.349  11.960 -0.53 -0.05    +0.112 A  ENDBRANCH  17  20ENDBRANCH  11  12ENDBRANCH   2  11TORSDOF 8TERENDMDL