REMARK SMILES O=C(O)CCNC(=O)Cc1ccc(-c2ccc3ncccc3c2)cc1O
REMARK SMILES IDX 6 1 7 2 8 3 5 5 4 6 2 7 1 8 3 9 9 11 10 12 11 13 25 14 12 15
REMARK SMILES IDX 24 16 13 17 26 18 14 20 15 21 23 22 16 23 22 24 17 25 21 26
REMARK SMILES IDX 18 27 20 28 19 29
REMARK H PARENT 6 4 3 10 26 19
ROOT
ATOM      1  N   UNL     1       3.509   0.259  -0.785  1.00  0.00    -0.355 N 
ATOM      2  C   UNL     1       3.712  -0.725   0.160  1.00  0.00     0.224 C 
ATOM      3  O   UNL     1       4.540  -0.628   1.062  1.00  0.00    -0.275 OA
ATOM      4  H   UNL     1       2.783   0.123  -1.484  1.00  0.00     0.163 HD
ENDROOT
BRANCH   1   5
ATOM      5  C   UNL     1       4.269   1.494  -0.797  1.00  0.00     0.127 C 
BRANCH   5   6
ATOM      6  C   UNL     1       5.467   1.428  -1.730  1.00  0.00     0.143 C 
BRANCH   6   7
ATOM      7  C   UNL     1       6.532   0.522  -1.193  1.00  0.00     0.305 C 
ATOM      8  O   UNL     1       6.805  -0.592  -1.613  1.00  0.00    -0.252 OA
BRANCH   7   9
ATOM      9  O   UNL     1       7.209   1.064  -0.163  1.00  0.00    -0.481 OA
ATOM     10  H   UNL     1       7.776   0.331   0.158  1.00  0.00     0.296 HD
ENDBRANCH   7   9
ENDBRANCH   6   7
ENDBRANCH   5   6
ENDBRANCH   1   5
BRANCH   2  11
ATOM     11  C   UNL     1       2.880  -1.981  -0.034  1.00  0.00     0.139 C 
BRANCH  11  12
ATOM     12  C   UNL     1       1.392  -1.731   0.004  1.00  0.00     0.003 A 
ATOM     13  C   UNL     1       0.706  -1.807   1.222  1.00  0.00     0.009 A 
ATOM     14  C   UNL     1       0.671  -1.351  -1.131  1.00  0.00     0.119 A 
ATOM     15  C   UNL     1      -0.661  -1.516   1.290  1.00  0.00     0.009 A 
ATOM     16  C   UNL     1      -0.686  -1.044  -1.068  1.00  0.00     0.055 A 
ATOM     17  C   UNL     1      -1.380  -1.127   0.148  1.00  0.00    -0.015 A 
BRANCH  14  18
ATOM     18  O   UNL     1       1.290  -1.229  -2.343  1.00  0.00    -0.508 OA
ATOM     19  H   UNL     1       1.658  -2.107  -2.554  1.00  0.00     0.293 HD
ENDBRANCH  14  18
BRANCH  17  20
ATOM     20  C   UNL     1      -2.815  -0.809   0.227  1.00  0.00    -0.018 A 
ATOM     21  C   UNL     1      -3.744  -1.437  -0.612  1.00  0.00     0.011 A 
ATOM     22  C   UNL     1      -3.301   0.134   1.146  1.00  0.00     0.019 A 
ATOM     23  C   UNL     1      -5.109  -1.134  -0.529  1.00  0.00     0.029 A 
ATOM     24  C   UNL     1      -4.674   0.439   1.226  1.00  0.00     0.001 A 
ATOM     25  C   UNL     1      -5.596  -0.205   0.377  1.00  0.00     0.070 A 
ATOM     26  C   UNL     1      -5.168   1.381   2.138  1.00  0.00     0.012 A 
ATOM     27  N   UNL     1      -6.916   0.051   0.418  1.00  0.00    -0.256 NA
ATOM     28  C   UNL     1      -6.530   1.649   2.184  1.00  0.00     0.021 A 
ATOM     29  C   UNL     1      -7.355   0.964   1.312  1.00  0.00     0.112 A 
ENDBRANCH  17  20
ENDBRANCH  11  12
ENDBRANCH   2  11
TORSDOF 8
