MODEL        2USER    Run = 2USERUSER    Estimated Free Energy of Binding    =  -9.94 kcal/mol  [=(1)+(2)+(3)-(4)]USERUSER    (1) Final Intermolecular Energy     = -12.02 kcal/molUSER        vdW + Hbond + desolv Energy     = -11.93 kcal/molUSER        Electrostatic Energy            =  -0.09 kcal/molUSER        Moving Ligand-Fixed Receptor    = -12.02 kcal/molUSER        Moving Ligand-Moving Receptor   =  +0.00 kcal/molUSER    (2) Final Total Internal Energy     =  -1.66 kcal/molUSER    (3) Torsional Free Energy           =  +2.09 kcal/molUSER    (4) Unbound System's Energy         =  -1.66 kcal/molUSERUSERREMARK SMILES COc1cc(-c2ccc3ncccc3c2)ccc1CC(=O)CCc1nnn[nH]1REMARK SMILES IDX 20 1 21 2 19 3 18 4 3 5 4 6 5 7 17 8 16 9 2 10 1 11 6 12REMARK SMILES IDX 7 13 15 14 8 15 14 16 9 17 13 18 10 19 12 20 11 21 22 22REMARK SMILES IDX 23 23 24 24 25 25 28 26 26 27 27 28REMARK H PARENT 28 29USER                              x       y       z     vdW  Elec       q    TypeUSER                           _______ _______ _______ _____ _____    ______ ____ROOTATOM      1  C   UNL     1      40.196  47.858  15.585 -0.50 -0.03    +0.137 C  ATOM      2  O   UNL     1      40.426  47.217  14.553 -0.29 +0.03    -0.299 OA ENDROOTBRANCH   1   3ATOM      3  C   UNL     1      41.025  47.652  16.835 -0.46 -0.01    +0.115 C  BRANCH   3   4ATOM      4  C   UNL     1      40.342  46.753  17.839 -0.49 -0.00    +0.001 A  ATOM      5  C   UNL     1      40.902  46.497  19.105 -0.34 -0.00    +0.123 A  ATOM      6  C   UNL     1      40.215  45.679  20.011 -0.34 +0.00    +0.055 A  ATOM      7  C   UNL     1      38.980  45.091  19.679 -0.38 +0.00    -0.015 A  ATOM      8  C   UNL     1      39.112  46.175  17.503 -0.42 -0.00    +0.008 A  ATOM      9  C   UNL     1      38.444  45.353  18.411 -0.39 -0.00    +0.009 A  BRANCH   5  10ATOM     10  O   UNL     1      42.116  47.092  19.347 -0.22 -0.04    -0.496 OA ATOM     11  C   UNL     1      42.747  46.817  20.588 -0.27 +0.07    +0.278 C  ENDBRANCH   5  10BRANCH   7  12ATOM     12  C   UNL     1      38.255  44.240  20.640 -0.34 +0.00    -0.018 A  ATOM     13  C   UNL     1      37.270  43.340  20.213 -0.33 -0.00    +0.011 A  ATOM     14  C   UNL     1      38.544  44.283  22.014 -0.32 +0.00    +0.019 A  ATOM     15  C   UNL     1      36.610  42.506  21.126 -0.45 +0.00    +0.029 A  ATOM     16  C   UNL     1      37.878  43.445  22.931 -0.35 +0.00    +0.001 A  ATOM     17  C   UNL     1      36.898  42.536  22.482 -0.41 +0.01    +0.070 A  ATOM     18  C   UNL     1      38.169  43.471  24.300 -0.27 +0.00    +0.012 A  ATOM     19  N   UNL     1      36.244  41.706  23.316 -0.31 -0.01    -0.256 NA ATOM     20  C   UNL     1      37.500  42.613  25.164 -0.33 -0.00    +0.021 A  ATOM     21  C   UNL     1      36.557  41.755  24.628 -0.28 -0.01    +0.112 A  ENDBRANCH   7  12ENDBRANCH   3   4ENDBRANCH   1   3BRANCH   1  22ATOM     22  C   UNL     1      39.040  48.843  15.664 -0.48 -0.05    +0.084 C  BRANCH  22  23ATOM     23  C   UNL     1      37.695  48.151  15.448 -0.47 -0.06    +0.087 C  BRANCH  23  24ATOM     24  C   UNL     1      37.440  47.899  14.009 -0.42 -0.07    +0.148 A  ATOM     25  N   UNL     1      36.641  48.558  13.196 -0.76 +0.05    -0.114 NA ATOM     26  N   UNL     1      38.063  46.921  13.287 -0.30 +0.06    -0.243 N  ATOM     27  N   UNL     1      36.797  47.976  11.960 -1.15 +0.01    -0.024 NA ATOM     28  N   UNL     1      37.675  46.986  12.009 -0.98 +0.01    -0.048 NA ATOM     29  H   UNL     1      38.775  46.258  13.569 +0.14 -0.04    +0.193 HD ENDBRANCH  23  24ENDBRANCH  22  23ENDBRANCH   1  22TORSDOF 7TERENDMDL