MODEL        10USER    Run = 10USERUSER    Estimated Free Energy of Binding    =  -7.17 kcal/mol  [=(1)+(2)+(3)-(4)]USERUSER    (1) Final Intermolecular Energy     = -11.95 kcal/molUSER        vdW + Hbond + desolv Energy     = -12.02 kcal/molUSER        Electrostatic Energy            =  -0.37 kcal/molUSER        Moving Ligand-Fixed Receptor    = -12.38 kcal/molUSER        Moving Ligand-Moving Receptor   =  +0.44 kcal/molUSER    (2) Final Total Internal Energy     =  -3.52 kcal/molUSER    (3) Torsional Free Energy           =  +4.77 kcal/molUSER    (4) Unbound System's Energy         =  -3.52 kcal/molUSERUSERREMARK SMILES COc1ccc(O)c(C(=O)c2ccc(C(=O)N[C@@H]3CCCN(S(C)(=O)=O)C[C@H]3NC(=O)c3cnc(OC)c(F)c3)cc2)c1FREMARK SMILES IDX 15 1 16 2 17 3 14 5 11 6 12 7 42 8 13 9 41 10 9 11 10 12REMARK SMILES IDX 8 13 3 14 4 15 43 16 5 17 6 18 44 19 2 20 1 21 7 22 18 24REMARK SMILES IDX 19 25 28 27 27 28 22 29 21 30 20 31 23 33 24 34 25 35 26 36REMARK SMILES IDX 29 37 30 38 31 40 32 41 33 42 40 43 34 44 38 45 35 46 39 47REMARK SMILES IDX 36 48 37 49REMARK H PARENT 17 4 7 23 29 39REMARK Flexibility Score:   88.900USER                              x       y       z     vdW  Elec       q    TypeUSER                           _______ _______ _______ _____ _____    ______ ____ROOTATOM      1  C   UNL     1      39.909  45.994  23.511 -0.16 +0.02    +0.251 C  ATOM      2  O   UNL     1      40.220  47.010  24.117 -0.15 -0.02    -0.269 OA ATOM      3  N   UNL     1      39.297  44.904  24.099 -0.04 -0.02    -0.347 N  ATOM      4  H   UNL     1      38.884  44.219  23.482 +0.09 +0.01    +0.164 HD ENDROOTBRANCH   1   5ATOM      5  C   UNL     1      40.132  45.900  22.044 -0.24 +0.00    +0.039 A  ATOM      6  C   UNL     1      40.605  45.823  19.287 -0.43 +0.00    +0.023 A  ATOM      7  C   UNL     1      39.363  45.424  19.794 -0.38 -0.00    +0.013 A  ATOM      8  C   UNL     1      41.627  46.207  20.162 -0.39 +0.00    +0.013 A  ATOM      9  C   UNL     1      39.125  45.468  21.171 -0.33 +0.00    +0.014 A  ATOM     10  C   UNL     1      41.390  46.247  21.538 -0.27 +0.00    +0.014 A  BRANCH   6  11ATOM     11  C   UNL     1      40.895  45.787  17.836 -0.39 -0.01    +0.199 C  ATOM     12  O   UNL     1      41.787  45.043  17.427 -0.20 -0.02    -0.288 OA BRANCH  11  13ATOM     13  C   UNL     1      40.132  46.574  16.840 -0.40 -0.02    +0.104 A  ATOM     14  C   UNL     1      38.217  46.876  15.357 -0.31 -0.06    +0.155 A  ATOM     15  C   UNL     1      38.736  48.104  14.942 -0.49 -0.02    +0.053 A  ATOM     16  C   UNL     1      38.921  46.124  16.311 -0.28 -0.05    +0.179 A  ATOM     17  C   UNL     1      39.932  48.578  15.487 -0.53 -0.02    +0.051 A  ATOM     18  C   UNL     1      40.616  47.824  16.437 -0.44 -0.02    +0.130 A  ATOM     19  F   UNL     1      38.392  44.961  16.726 -0.07 +0.05    -0.202 F  BRANCH  14  20ATOM     20  O   UNL     1      37.052  46.314  14.907 -0.05 +0.26    -0.494 OA ATOM     21  C   UNL     1      35.915  46.400  15.758 -0.21 -0.24    +0.278 C  ENDBRANCH  14  20BRANCH  18  22ATOM     22  O   UNL     1      41.766  48.375  16.936 -0.57 -0.02    -0.507 OA ATOM     23  H   UNL     1      42.377  47.640  17.174 -0.35 -0.06    +0.293 HD ENDBRANCH  18  22ENDBRANCH  11  13ENDBRANCH   6  11ENDBRANCH   1   5BRANCH   3  24ATOM     24  C   UNL     1      38.864  44.942  25.505 -0.17 +0.00    +0.106 C  BRANCH  24  25ATOM     25  C   UNL     1      39.600  43.857  26.315 -0.18 -0.00    +0.028 CG0ATOM     26  G   UNL     1      39.693  42.484  25.643 +0.00 +0.00    +0.000 G0 ENDBRANCH  24  25BRANCH  24  27ATOM     27  C   UNL     1      37.313  44.961  25.633 -0.31 -0.00    +0.120 C  BRANCH  27  28ATOM     28  C   UNL     1      36.689  43.581  25.934 -0.34 -0.01    +0.129 C  BRANCH  28  29ATOM     29  N   UNL     1      37.268  42.554  25.019 -0.25 +0.00    -0.200 NA BRANCH  29  30ATOM     30  C   UNL     1      38.370  41.736  25.559 +0.02 +0.00    +0.102 C  BRANCH  30  31ATOM     31  C   UNL     1      39.695  42.486  25.643 -0.21 +0.00    +0.019 CG0ATOM     32  G   UNL     1      39.603  43.861  26.312 +0.00 +0.00    +0.000 G0 ENDBRANCH  30  31ENDBRANCH  29  30BRANCH  29  33ATOM     33  S   UNL     1      37.333  42.917  23.360 -0.42 +0.02    +0.211 S  ATOM     34  C   UNL     1      36.256  41.686  22.649 -0.41 +0.01    +0.176 C  ATOM     35  O   UNL     1      38.683  42.663  22.904 -0.25 -0.02    -0.213 OA ATOM     36  O   UNL     1      36.722  44.215  23.175 -0.22 -0.04    -0.213 OA ENDBRANCH  29  33ENDBRANCH  28  29ENDBRANCH  27  28BRANCH  27  37ATOM     37  N   UNL     1      36.864  45.939  26.635 -0.14 +0.06    -0.346 N  ATOM     38  C   UNL     1      36.969  47.293  26.369 -0.26 -0.02    +0.253 C  ATOM     39  H   UNL     1      36.098  45.629  27.217 -0.29 -0.06    +0.164 HD ATOM     40  O   UNL     1      37.582  47.729  25.399 -0.49 -0.02    -0.269 OA BRANCH  38  41ATOM     41  C   UNL     1      36.302  48.241  27.301 -0.32 -0.01    +0.061 A  ATOM     42  C   UNL     1      35.676  47.712  28.432 -0.29 -0.03    +0.129 A  ATOM     43  C   UNL     1      36.249  49.624  27.122 -0.31 +0.00    +0.060 A  ATOM     44  N   UNL     1      35.016  48.448  29.365 -0.24 +0.02    -0.219 NA ATOM     45  C   UNL     1      35.592  50.401  28.071 -0.10 +0.01    +0.185 A  ATOM     46  C   UNL     1      34.991  49.786  29.164 -0.13 +0.00    +0.250 A  ATOM     47  F   UNL     1      35.542  51.731  27.906 -0.04 -0.04    -0.201 F  BRANCH  46  48ATOM     48  O   UNL     1      34.350  50.603  30.074 -0.04 -0.03    -0.479 OA ATOM     49  C   UNL     1      35.241  51.225  30.994 -0.04 +0.03    +0.280 C  ENDBRANCH  46  48ENDBRANCH  38  41ENDBRANCH  27  37ENDBRANCH  24  27ENDBRANCH   3  24TORSDOF 10TERENDMDL