MODEL        5USER    Run = 5USERUSER    Estimated Free Energy of Binding    = -11.04 kcal/mol  [=(1)+(2)+(3)-(4)]USERUSER    (1) Final Intermolecular Energy     = -14.03 kcal/molUSER        vdW + Hbond + desolv Energy     = -13.95 kcal/molUSER        Electrostatic Energy            =  -0.08 kcal/molUSER        Moving Ligand-Fixed Receptor    = -14.03 kcal/molUSER        Moving Ligand-Moving Receptor   =  +0.00 kcal/molUSER    (2) Final Total Internal Energy     =  -3.17 kcal/molUSER    (3) Torsional Free Energy           =  +2.98 kcal/molUSER    (4) Unbound System's Energy         =  -3.17 kcal/molUSERUSERREMARK SMILES CN1CCN(CCOc2ccc(-c3nc4ccc(F)cc4nc3-c3ccc(CN4CCC(n5c(O)nc6cc(F)ccc65)CC4)cc3)cc2)CC1REMARK SMILES IDX 13 1 14 2 15 3 16 4 17 5 18 6 19 7 20 8 21 9 22 10 23 11REMARK SMILES IDX 12 12 9 13 10 14 49 15 11 16 48 17 8 18 7 19 6 20 5 21 2 22REMARK SMILES IDX 3 23 51 24 4 25 50 26 1 27 24 28 25 29 47 30 26 31 46 32REMARK SMILES IDX 27 33 28 34 29 35 30 36 45 37 31 38 44 39 32 40 33 41 34 42REMARK SMILES IDX 43 43 36 44 42 45 37 46 41 47 38 48 39 49 40 50 35 51REMARK H PARENT 35 52USER                              x       y       z     vdW  Elec       q    TypeUSER                           _______ _______ _______ _____ _____    ______ ____ROOTATOM      1  C   UNL     1      38.470  44.343  20.406 -0.29 -0.00    +0.097 A  ATOM      2  N   UNL     1      38.538  44.532  19.057 -0.22 +0.02    -0.244 NA ATOM      3  C   UNL     1      37.471  44.180  18.321 -0.22 -0.02    +0.090 A  ATOM      4  C   UNL     1      37.505  44.349  16.942 -0.31 -0.01    +0.033 A  ATOM      5  C   UNL     1      36.416  43.996  16.146 -0.35 -0.01    +0.041 A  ATOM      6  C   UNL     1      35.287  43.467  16.749 -0.29 -0.05    +0.125 A  ATOM      7  F   UNL     1      34.235  43.125  15.995 -0.10 +0.09    -0.207 F  ATOM      8  C   UNL     1      35.233  43.289  18.126 -0.30 -0.02    +0.069 A  ATOM      9  C   UNL     1      36.312  43.639  18.923 -0.28 -0.01    +0.092 A  ATOM     10  N   UNL     1      36.233  43.463  20.252 -0.25 +0.01    -0.244 NA ATOM     11  C   UNL     1      37.309  43.829  21.006 -0.33 +0.00    +0.097 A  ENDROOTBRANCH   1  12ATOM     12  C   UNL     1      39.709  44.709  21.117 -0.32 +0.00    +0.003 A  ATOM     13  C   UNL     1      42.076  45.378  22.527 -0.15 +0.02    +0.119 A  ATOM     14  C   UNL     1      41.600  46.200  21.505 -0.27 +0.01    +0.047 A  ATOM     15  C   UNL     1      41.369  44.223  22.852 -0.19 +0.00    +0.047 A  ATOM     16  C   UNL     1      40.429  45.876  20.812 -0.28 +0.00    +0.014 A  ATOM     17  C   UNL     1      40.196  43.899  22.157 -0.26 +0.00    +0.014 A  BRANCH  13  18ATOM     18  O   UNL     1      43.226  45.814  23.126 +0.00 -0.11    -0.492 OA BRANCH  18  19ATOM     19  C   UNL     1      43.109  46.343  24.451 -0.05 +0.03    +0.245 C  BRANCH  19  20ATOM     20  C   UNL     1      42.040  47.451  24.432 -0.19 +0.02    +0.126 C  BRANCH  20  21ATOM     21  N   UNL     1      40.691  47.100  24.894 -0.06 -0.03    -0.297 NA ATOM     22  N   UNL     1      38.094  48.429  25.719 -0.18 -0.02    -0.304 NA ATOM     23  C   UNL     1      38.884  47.516  26.570 -0.24 +0.00    +0.099 C  ATOM     24  C   UNL     1      38.682  48.570  24.373 -0.40 +0.01    +0.099 C  ATOM     25  C   UNL     1      40.395  47.578  26.255 -0.19 +0.01    +0.100 C  ATOM     26  C   UNL     1      39.617  47.417  23.938 -0.32 +0.01    +0.100 C  ATOM     27  C   UNL     1      36.700  47.994  25.664 -0.38 -0.00    +0.105 C  ENDBRANCH  20  21ENDBRANCH  19  20ENDBRANCH  18  19ENDBRANCH  13  18ENDBRANCH   1  12BRANCH  11  28ATOM     28  C   UNL     1      37.101  43.656  22.456 -0.37 +0.00    +0.002 A  ATOM     29  C   UNL     1      37.279  44.741  23.332 -0.18 +0.00    +0.011 A  ATOM     30  C   UNL     1      36.753  42.416  23.016 -0.43 +0.00    +0.011 A  ATOM     31  C   UNL     1      37.092  44.599  24.710 -0.30 +0.00    +0.006 A  ATOM     32  C   UNL     1      36.561  42.271  24.395 -0.40 +0.00    +0.006 A  ATOM     33  C   UNL     1      36.732  43.361  25.257 -0.35 -0.00    -0.034 A  BRANCH  33  34ATOM     34  C   UNL     1      36.521  43.211  26.749 -0.38 -0.02    +0.120 C  BRANCH  34  35ATOM     35  N   UNL     1      35.886  44.384  27.371 -0.24 +0.08    -0.299 NA ATOM     36  C   UNL     1      34.700  43.976  28.141 -0.63 -0.02    +0.087 C  ATOM     37  C   UNL     1      36.818  45.162  28.191 -0.31 -0.02    +0.087 C  ATOM     38  C   UNL     1      34.291  44.978  29.227 -0.35 -0.01    +0.041 C  ATOM     39  C   UNL     1      36.191  46.514  28.544 -0.31 -0.01    +0.041 C  ATOM     40  C   UNL     1      34.683  46.405  28.828 -0.30 -0.02    +0.095 C  BRANCH  40  41ATOM     41  N   UNL     1      34.216  47.402  29.781 -0.27 +0.05    -0.291 N  ATOM     42  C   UNL     1      34.927  48.472  30.252 -0.18 -0.03    +0.295 A  ATOM     43  C   UNL     1      32.979  47.443  30.391 -0.16 -0.01    +0.072 A  ATOM     44  N   UNL     1      34.265  49.195  31.114 -0.12 +0.01    -0.195 NA ATOM     45  C   UNL     1      31.837  46.633  30.312 -0.36 +0.00    +0.032 A  ATOM     46  C   UNL     1      33.045  48.570  31.217 -0.22 -0.01    +0.095 A  ATOM     47  C   UNL     1      30.745  46.997  31.109 -0.57 -0.00    +0.041 A  ATOM     48  C   UNL     1      31.941  48.919  32.006 -0.21 -0.00    +0.070 A  ATOM     49  C   UNL     1      30.805  48.116  31.934 -0.33 -0.00    +0.125 A  ATOM     50  F   UNL     1      29.737  48.430  32.681 -0.03 +0.02    -0.207 F  BRANCH  42  51ATOM     51  O   UNL     1      36.155  48.779  29.891 -0.09 +0.08    -0.480 OA ATOM     52  H   UNL     1      36.677  48.239  30.514 -0.45 -0.12    +0.296 HD ENDBRANCH  42  51ENDBRANCH  40  41ENDBRANCH  34  35ENDBRANCH  33  34ENDBRANCH  11  28TORSDOF 10TERENDMDL