MODEL        8USER    Run = 8USERUSER    Estimated Free Energy of Binding    =  -5.34 kcal/mol  [=(1)+(2)+(3)-(4)]USERUSER    (1) Final Intermolecular Energy     =  -8.92 kcal/molUSER        vdW + Hbond + desolv Energy     =  -9.53 kcal/molUSER        Electrostatic Energy            =  +0.12 kcal/molUSER        Moving Ligand-Fixed Receptor    =  -9.41 kcal/molUSER        Moving Ligand-Moving Receptor   =  +0.49 kcal/molUSER    (2) Final Total Internal Energy     =  -2.44 kcal/molUSER    (3) Torsional Free Energy           =  +3.58 kcal/molUSER    (4) Unbound System's Energy         =  -2.44 kcal/molUSERUSERREMARK SMILES COc1ncc(C(=O)N[C@@H]2CN(C)CCC[C@H]2NC(=O)c2cc(F)cnc2OC)cc1FREMARK SMILES IDX 10 1 9 2 7 3 8 4 6 6 3 7 4 8 31 9 5 10 30 11 32 12 2 13 1 14REMARK SMILES IDX 11 15 12 16 13 17 14 18 17 20 16 21 15 22 18 24 19 25 20 27REMARK SMILES IDX 21 28 22 29 27 30 23 31 26 32 25 33 24 34 28 35 29 36REMARK H PARENT 9 5 18 26REMARK Flexibility Score:   48.900USER                              x       y       z     vdW  Elec       q    TypeUSER                           _______ _______ _______ _____ _____    ______ ____ROOTATOM      1  C   UNL     1      36.277  45.092  18.484 -0.29 -0.03    +0.118 C  ENDROOTBRANCH   1   2ATOM      2  N   UNL     1      36.236  44.506  19.832 -0.15 +0.04    -0.346 N  ATOM      3  C   UNL     1      37.354  44.400  20.623 -0.25 -0.00    +0.253 C  ATOM      4  O   UNL     1      38.433  44.894  20.318 -0.26 +0.00    -0.269 OA ATOM      5  H   UNL     1      35.357  44.069  20.076 +0.10 -0.01    +0.164 HD BRANCH   3   6ATOM      6  C   UNL     1      37.219  43.670  21.907 -0.35 +0.00    +0.061 A  ATOM      7  C   UNL     1      36.882  42.132  24.162 -0.25 +0.01    +0.250 A  ATOM      8  N   UNL     1      36.553  41.582  22.971 -0.38 -0.01    -0.219 NA ATOM      9  C   UNL     1      37.371  43.427  24.290 -0.23 +0.01    +0.185 A  ATOM     10  C   UNL     1      36.724  42.367  21.874 -0.40 +0.01    +0.129 A  ATOM     11  C   UNL     1      37.541  44.210  23.153 -0.31 +0.01    +0.060 A  ATOM     12  F   UNL     1      37.681  43.940  25.489 -0.03 +0.00    -0.201 F  BRANCH   7  13ATOM     13  O   UNL     1      36.737  41.396  25.321 -0.05 +0.10    -0.479 OA ATOM     14  C   UNL     1      35.801  41.961  26.232 -0.33 -0.06    +0.280 C  ENDBRANCH   7  13ENDBRANCH   3   6ENDBRANCH   1   2BRANCH   1  15ATOM     15  C   UNL     1      34.850  45.070  17.898 -0.34 -0.05    +0.111 C  BRANCH  15  16ATOM     16  N   UNL     1      34.124  43.795  18.117 -0.09 +0.09    -0.304 NA ATOM     17  C   UNL     1      32.690  44.086  18.254 -0.32 -0.02    +0.105 C  BRANCH  16  18ATOM     18  C   UNL     1      34.328  42.896  16.968 -0.39 -0.03    +0.084 CG0ATOM     19  G   UNL     1      35.786  42.533  16.692 +0.00 +0.00    +0.000 G0 ENDBRANCH  16  18ENDBRANCH  15  16ENDBRANCH   1  15BRANCH   1  20ATOM     20  C   UNL     1      37.365  44.420  17.600 -0.32 -0.03    +0.106 C  BRANCH  20  21ATOM     21  C   UNL     1      36.787  43.648  16.403 -0.40 -0.01    +0.028 C  BRANCH  21  22ATOM     22  C   UNL     1      35.790  42.530  16.695 -0.45 -0.01    +0.018 CG0ATOM     23  G   UNL     1      34.332  42.896  16.967 +0.00 +0.00    +0.000 G0 ENDBRANCH  21  22ENDBRANCH  20  21BRANCH  20  24ATOM     24  N   UNL     1      38.425  45.344  17.197 -0.15 +0.08    -0.347 N  ATOM     25  C   UNL     1      38.184  46.463  16.433 -0.28 -0.10    +0.257 C  ATOM     26  H   UNL     1      39.340  45.258  17.626 +0.11 -0.02    +0.164 HD ATOM     27  O   UNL     1      37.077  46.726  15.973 -0.25 +0.17    -0.269 OA BRANCH  25  28ATOM     28  C   UNL     1      39.326  47.383  16.163 -0.40 -0.03    +0.104 A  ATOM     29  C   UNL     1      39.346  48.036  14.921 -0.49 -0.02    +0.060 A  ATOM     30  C   UNL     1      40.374  47.652  17.051 -0.32 -0.04    +0.226 A  ATOM     31  C   UNL     1      40.383  48.903  14.620 -0.44 -0.04    +0.142 A  ATOM     32  N   UNL     1      41.397  48.500  16.768 -0.85 +0.01    -0.218 NA ATOM     33  C   UNL     1      41.378  49.105  15.558 -0.42 -0.01    +0.154 A  ATOM     34  F   UNL     1      40.421  49.532  13.441 +0.03 +0.07    -0.205 F  BRANCH  30  35ATOM     35  O   UNL     1      40.373  47.038  18.290 -0.20 +0.05    -0.480 OA ATOM     36  C   UNL     1      41.666  46.616  18.721 -0.38 +0.01    +0.280 C  ENDBRANCH  30  35ENDBRANCH  25  28ENDBRANCH  20  24ENDBRANCH   1  20TORSDOF 6TERENDMDL