MODEL        8USER    Run = 8USERUSER    Estimated Free Energy of Binding    = -12.07 kcal/mol  [=(1)+(2)+(3)-(4)]USERUSER    (1) Final Intermolecular Energy     = -15.05 kcal/molUSER        vdW + Hbond + desolv Energy     = -14.73 kcal/molUSER        Electrostatic Energy            =  -0.32 kcal/molUSER        Moving Ligand-Fixed Receptor    = -15.05 kcal/molUSER        Moving Ligand-Moving Receptor   =  +0.00 kcal/molUSER    (2) Final Total Internal Energy     =  -2.48 kcal/molUSER    (3) Torsional Free Energy           =  +2.98 kcal/molUSER    (4) Unbound System's Energy         =  -2.48 kcal/molUSERUSERREMARK SMILES OCCOc1cncc(-c2nc3ccc(F)cc3nc2-c2ccc(CN3CCC(n4c(O)nc5cc(F)ccc54)CC3)cc2)c1REMARK SMILES IDX 10 1 11 2 12 3 13 4 14 5 15 6 16 7 17 8 18 9 19 10 20 11REMARK SMILES IDX 9 12 5 13 6 14 45 15 7 16 8 17 4 18 3 19 2 20 1 21 21 23REMARK SMILES IDX 22 24 44 25 23 26 43 27 24 28 25 29 26 30 27 31 42 32 28 33REMARK SMILES IDX 41 34 29 35 30 36 31 37 40 38 33 39 39 40 34 41 38 42 35 43REMARK SMILES IDX 36 44 37 45 32 46REMARK H PARENT 1 22 32 47USER                              x       y       z     vdW  Elec       q    TypeUSER                           _______ _______ _______ _____ _____    ______ ____ROOTATOM      1  C   UNL     1      36.842  44.526  18.930 -0.28 -0.02    +0.099 A  ATOM      2  N   UNL     1      36.172  44.767  17.768 -0.16 +0.08    -0.244 NA ATOM      3  C   UNL     1      34.853  44.511  17.742 -0.25 -0.04    +0.090 A  ATOM      4  C   UNL     1      34.133  44.737  16.576 -0.29 -0.02    +0.033 A  ATOM      5  C   UNL     1      32.765  44.468  16.509 -0.29 -0.02    +0.041 A  ATOM      6  C   UNL     1      32.121  43.972  17.630 -0.21 -0.03    +0.125 A  ATOM      7  F   UNL     1      30.812  43.696  17.572 -0.04 +0.03    -0.207 F  ATOM      8  C   UNL     1      32.820  43.746  18.808 -0.34 -0.01    +0.069 A  ATOM      9  C   UNL     1      34.179  44.010  18.881 -0.31 -0.02    +0.092 A  ATOM     10  N   UNL     1      34.833  43.773  20.027 -0.29 +0.02    -0.244 NA ATOM     11  C   UNL     1      36.171  44.020  20.051 -0.34 -0.01    +0.097 A  ENDROOTBRANCH   1  12ATOM     12  C   UNL     1      38.277  44.836  18.854 -0.37 -0.00    +0.024 A  ATOM     13  C   UNL     1      40.147  45.938  17.750 -0.37 -0.01    +0.138 A  ATOM     14  C   UNL     1      40.948  45.482  18.791 -0.35 +0.00    +0.157 A  ATOM     15  C   UNL     1      38.795  45.601  17.793 -0.37 -0.01    +0.060 A  ATOM     16  N   UNL     1      40.502  44.758  19.841 -0.22 -0.01    -0.260 NA ATOM     17  C   UNL     1      39.181  44.461  19.846 -0.26 -0.00    +0.121 A  BRANCH  13  18ATOM     18  O   UNL     1      40.776  46.683  16.798 -0.14 +0.05    -0.490 OA BRANCH  18  19ATOM     19  C   UNL     1      39.984  47.499  15.937 -0.38 -0.06    +0.257 C  BRANCH  19  20ATOM     20  C   UNL     1      40.534  48.922  15.836 -0.51 -0.05    +0.197 C  BRANCH  20  21ATOM     21  O   UNL     1      41.762  49.014  16.552 -0.85 -0.07    -0.393 OA ATOM     22  H   UNL     1      42.159  48.125  16.550 -0.36 +0.01    +0.210 HD ENDBRANCH  20  21ENDBRANCH  19  20ENDBRANCH  18  19ENDBRANCH  13  18ENDBRANCH   1  12BRANCH  11  23ATOM     23  C   UNL     1      36.812  43.646  21.316 -0.41 +0.00    +0.002 A  ATOM     24  C   UNL     1      37.040  42.299  21.634 -0.47 +0.00    +0.011 A  ATOM     25  C   UNL     1      37.267  44.627  22.205 -0.25 +0.00    +0.011 A  ATOM     26  C   UNL     1      37.679  41.941  22.823 -0.39 +0.00    +0.006 A  ATOM     27  C   UNL     1      37.927  44.274  23.385 -0.32 +0.00    +0.006 A  ATOM     28  C   UNL     1      38.136  42.927  23.707 -0.30 -0.00    -0.034 A  BRANCH  28  29ATOM     29  C   UNL     1      38.892  42.549  24.966 -0.17 +0.01    +0.120 C  BRANCH  29  30ATOM     30  N   UNL     1      38.089  41.735  25.899 -0.15 +0.01    -0.299 NA ATOM     31  C   UNL     1      36.638  41.882  25.709 -0.40 -0.01    +0.087 C  ATOM     32  C   UNL     1      38.462  41.980  27.301 -0.37 -0.01    +0.087 C  ATOM     33  C   UNL     1      36.089  43.234  26.165 -0.44 -0.00    +0.041 C  ATOM     34  C   UNL     1      37.988  43.330  27.840 -0.36 -0.01    +0.041 C  ATOM     35  C   UNL     1      36.474  43.498  27.623 -0.42 -0.02    +0.095 C  BRANCH  35  36ATOM     36  N   UNL     1      35.925  44.764  28.099 -0.30 +0.08    -0.291 N  ATOM     37  C   UNL     1      34.789  44.959  28.838 -0.30 -0.07    +0.295 A  ATOM     38  C   UNL     1      36.497  46.008  27.915 -0.29 -0.02    +0.072 A  ATOM     39  N   UNL     1      34.530  46.217  29.066 -0.41 +0.04    -0.195 NA ATOM     40  C   UNL     1      37.689  46.443  27.314 -0.28 -0.00    +0.032 A  ATOM     41  C   UNL     1      35.584  46.891  28.503 -0.24 -0.03    +0.095 A  ATOM     42  C   UNL     1      37.938  47.820  27.321 -0.24 -0.00    +0.041 A  ATOM     43  C   UNL     1      35.839  48.268  28.474 -0.31 -0.01    +0.070 A  ATOM     44  C   UNL     1      37.027  48.708  27.886 -0.21 -0.01    +0.125 A  ATOM     45  F   UNL     1      37.294  50.021  27.858 -0.04 -0.02    -0.207 F  BRANCH  37  46ATOM     46  O   UNL     1      34.024  44.003  29.318 -0.32 +0.11    -0.480 OA ATOM     47  H   UNL     1      34.688  43.370  29.651 -0.32 -0.16    +0.296 HD ENDBRANCH  37  46ENDBRANCH  35  36ENDBRANCH  29  30ENDBRANCH  28  29ENDBRANCH  11  23TORSDOF 10TERENDMDL