MODEL        7USER    Run = 7USERUSER    Estimated Free Energy of Binding    = -12.66 kcal/mol  [=(1)+(2)+(3)-(4)]USERUSER    (1) Final Intermolecular Energy     = -15.94 kcal/molUSER        vdW + Hbond + desolv Energy     = -15.79 kcal/molUSER        Electrostatic Energy            =  -0.14 kcal/molUSER        Moving Ligand-Fixed Receptor    = -15.94 kcal/molUSER        Moving Ligand-Moving Receptor   =  +0.00 kcal/molUSER    (2) Final Total Internal Energy     =  -2.43 kcal/molUSER    (3) Torsional Free Energy           =  +3.28 kcal/molUSER    (4) Unbound System's Energy         =  -2.43 kcal/molUSERUSERREMARK SMILES Oc1nc2cc(F)ccc2n1C1CCN(Cc2ccc(-c3nc4cc(F)ccc4nc3-c3ccc(OCCOc4ccncc4)cc3)cc2)CC1REMARK SMILES IDX 21 1 22 2 23 3 24 4 25 5 26 6 27 7 28 8 29 9 30 10 31 11REMARK SMILES IDX 20 12 17 13 18 14 49 15 19 16 48 17 16 18 15 19 12 20 13 21REMARK SMILES IDX 51 22 14 23 50 24 11 25 2 26 3 27 4 28 10 29 5 30 9 31 6 32REMARK SMILES IDX 8 33 7 34 1 35 32 37 33 38 47 39 34 40 46 41 35 42 36 43REMARK SMILES IDX 37 44 38 45 39 46 40 47 41 48 45 49 42 50 44 51 43 52REMARK H PARENT 1 36USER                              x       y       z     vdW  Elec       q    TypeUSER                           _______ _______ _______ _____ _____    ______ ____ROOTATOM      1  C   UNL     1      39.515  43.466  23.763 -0.18 +0.00    +0.097 A  ATOM      2  N   UNL     1      40.172  43.425  24.960 -0.09 -0.00    -0.244 NA ATOM      3  C   UNL     1      39.596  42.754  25.972 -0.16 -0.00    +0.092 A  ATOM      4  C   UNL     1      40.234  42.697  27.203 -0.18 -0.00    +0.069 A  ATOM      5  C   UNL     1      39.661  42.002  28.261 -0.24 -0.00    +0.125 A  ATOM      6  F   UNL     1      40.292  41.956  29.440 +0.03 -0.02    -0.207 F  ATOM      7  C   UNL     1      38.443  41.358  28.112 -0.37 -0.00    +0.041 A  ATOM      8  C   UNL     1      37.795  41.416  26.880 -0.41 -0.00    +0.033 A  ATOM      9  C   UNL     1      38.354  42.103  25.807 -0.22 -0.00    +0.090 A  ATOM     10  N   UNL     1      37.698  42.144  24.637 -0.20 -0.01    -0.244 NA ATOM     11  C   UNL     1      38.266  42.842  23.611 -0.26 +0.01    +0.097 A  ENDROOTBRANCH   1  12ATOM     12  C   UNL     1      40.252  44.192  22.709 -0.23 +0.00    +0.002 A  ATOM     13  C   UNL     1      41.660  45.536  20.638 -0.33 -0.01    -0.034 A  ATOM     14  C   UNL     1      40.976  46.260  21.620 -0.21 +0.00    +0.006 A  ATOM     15  C   UNL     1      41.627  44.137  20.688 -0.30 +0.00    +0.006 A  ATOM     16  C   UNL     1      40.274  45.595  22.635 -0.24 +0.00    +0.011 A  ATOM     17  C   UNL     1      40.935  43.477  21.708 -0.27 +0.00    +0.011 A  BRANCH  13  18ATOM     18  C   UNL     1      42.388  46.240  19.511 -0.29 +0.03    +0.120 C  BRANCH  18  19ATOM     19  N   UNL     1      41.518  46.478  18.349 -0.29 +0.00    -0.299 NA ATOM     20  C   UNL     1      39.774  46.999  16.306 -0.48 -0.02    +0.095 C  ATOM     21  C   UNL     1      39.112  46.685  17.649 -0.41 -0.01    +0.041 C  ATOM     22  C   UNL     1      40.964  47.960  16.486 -0.56 -0.01    +0.041 C  ATOM     23  C   UNL     1      40.130  46.052  18.606 -0.45 -0.01    +0.087 C  ATOM     24  C   UNL     1      41.580  47.860  17.886 -0.48 -0.01    +0.087 C  BRANCH  20  25ATOM     25  N   UNL     1      38.827  47.445  15.296 -0.24 +0.11    -0.291 N  ATOM     26  C   UNL     1      38.433  48.730  15.055 -0.23 -0.18    +0.295 A  ATOM     27  N   UNL     1      37.584  48.833  14.067 -0.47 +0.11    -0.195 NA ATOM     28  C   UNL     1      37.397  47.541  13.638 -0.47 -0.04    +0.095 A  ATOM     29  C   UNL     1      38.155  46.641  14.394 -0.39 -0.03    +0.072 A  ATOM     30  C   UNL     1      36.592  47.065  12.595 -0.61 -0.03    +0.070 A  ATOM     31  C   UNL     1      38.134  45.256  14.161 -0.30 -0.01    +0.032 A  ATOM     32  C   UNL     1      36.578  45.694  12.352 -0.49 -0.05    +0.125 A  ATOM     33  C   UNL     1      37.327  44.801  13.115 -0.35 -0.01    +0.041 A  ATOM     34  F   UNL     1      35.825  45.219  11.351 +0.16 +0.08    -0.207 F  BRANCH  26  35ATOM     35  O   UNL     1      38.857  49.789  15.715 -0.00 +0.37    -0.480 OA ATOM     36  H   UNL     1      38.188  50.450  15.455 -0.30 -0.31    +0.296 HD ENDBRANCH  26  35ENDBRANCH  20  25ENDBRANCH  18  19ENDBRANCH  13  18ENDBRANCH   1  12BRANCH  11  37ATOM     37  C   UNL     1      37.435  42.869  22.394 -0.41 +0.00    +0.003 A  ATOM     38  C   UNL     1      36.615  41.774  22.075 -0.54 +0.00    +0.014 A  ATOM     39  C   UNL     1      37.401  43.978  21.536 -0.38 +0.00    +0.014 A  ATOM     40  C   UNL     1      35.807  41.773  20.932 -0.43 +0.00    +0.047 A  ATOM     41  C   UNL     1      36.596  43.975  20.389 -0.38 -0.00    +0.047 A  ATOM     42  C   UNL     1      35.794  42.877  20.082 -0.37 -0.00    +0.119 A  BRANCH  42  43ATOM     43  O   UNL     1      35.051  43.003  18.940 -0.07 +0.08    -0.490 OA BRANCH  43  44ATOM     44  C   UNL     1      34.362  44.244  18.753 -0.24 -0.07    +0.271 C  BRANCH  44  45ATOM     45  C   UNL     1      33.097  44.246  19.613 -0.29 -0.04    +0.271 C  BRANCH  45  46ATOM     46  O   UNL     1      32.726  42.892  19.891 -0.59 -0.06    -0.490 OA BRANCH  46  47ATOM     47  C   UNL     1      32.063  42.214  18.904 -0.26 -0.01    +0.122 A  ATOM     48  C   UNL     1      31.360  42.782  17.848 -0.25 -0.01    +0.066 A  ATOM     49  C   UNL     1      32.122  40.828  19.010 -0.33 +0.00    +0.066 A  ATOM     50  C   UNL     1      30.743  41.930  16.942 -0.24 -0.04    +0.115 A  ATOM     51  C   UNL     1      31.476  40.062  18.055 -0.33 -0.01    +0.115 A  ATOM     52  N   UNL     1      30.785  40.584  17.021 -0.20 +0.06    -0.264 NA ENDBRANCH  46  47ENDBRANCH  45  46ENDBRANCH  44  45ENDBRANCH  43  44ENDBRANCH  42  43ENDBRANCH  11  37TORSDOF 11TERENDMDL