REMARK SMILES OCCOc1cncc(-c2nc3ccc(F)cc3nc2-c2ccc(CN3CCC(n4c(O)nc5cc(F)ccc54)CC3)cc2)c1
REMARK SMILES IDX 10 1 11 2 12 3 13 4 14 5 15 6 16 7 17 8 18 9 19 10 20 11
REMARK SMILES IDX 9 12 5 13 6 14 45 15 7 16 8 17 4 18 3 19 2 20 1 21 21 23
REMARK SMILES IDX 22 24 44 25 23 26 43 27 24 28 25 29 26 30 27 31 42 32 28 33
REMARK SMILES IDX 41 34 29 35 30 36 31 37 40 38 33 39 39 40 34 41 38 42 35 43
REMARK SMILES IDX 36 44 37 45 32 46
REMARK H PARENT 1 22 32 47
ROOT
ATOM      1  C   UNL     1       4.242  -0.803   0.176  1.00  0.00     0.099 A 
ATOM      2  N   UNL     1       5.402  -1.294   0.697  1.00  0.00    -0.244 NA
ATOM      3  C   UNL     1       5.394  -1.683   1.983  1.00  0.00     0.090 A 
ATOM      4  C   UNL     1       6.556  -2.184   2.555  1.00  0.00     0.033 A 
ATOM      5  C   UNL     1       6.588  -2.584   3.892  1.00  0.00     0.041 A 
ATOM      6  C   UNL     1       5.436  -2.481   4.653  1.00  0.00     0.125 A 
ATOM      7  F   UNL     1       5.459  -2.847   5.941  1.00  0.00    -0.207 F 
ATOM      8  C   UNL     1       4.261  -1.990   4.099  1.00  0.00     0.069 A 
ATOM      9  C   UNL     1       4.223  -1.590   2.772  1.00  0.00     0.092 A 
ATOM     10  N   UNL     1       3.079  -1.110   2.264  1.00  0.00    -0.244 NA
ATOM     11  C   UNL     1       3.089  -0.703   0.965  1.00  0.00     0.097 A 
ENDROOT
BRANCH   1  12
ATOM     12  C   UNL     1       4.356  -0.403  -1.234  1.00  0.00     0.024 A 
ATOM     13  C   UNL     1       5.557   0.741  -3.017  1.00  0.00     0.138 A 
ATOM     14  C   UNL     1       4.598   0.247  -3.894  1.00  0.00     0.157 A 
ATOM     15  C   UNL     1       5.421   0.407  -1.671  1.00  0.00     0.060 A 
ATOM     16  N   UNL     1       3.565  -0.546  -3.533  1.00  0.00    -0.260 NA
ATOM     17  C   UNL     1       3.477  -0.853  -2.217  1.00  0.00     0.121 A 
BRANCH  13  18
ATOM     18  O   UNL     1       6.542   1.497  -3.578  1.00  0.00    -0.490 OA
BRANCH  18  19
ATOM     19  C   UNL     1       7.660   1.867  -2.773  1.00  0.00     0.257 C 
BRANCH  19  20
ATOM     20  C   UNL     1       8.687   0.739  -2.670  1.00  0.00     0.197 C 
BRANCH  20  21
ATOM     21  O   UNL     1       9.817   1.186  -1.927  1.00  0.00    -0.393 OA
ATOM     22  H   UNL     1      10.456   0.451  -1.911  1.00  0.00     0.210 HD
ENDBRANCH  20  21
ENDBRANCH  19  20
ENDBRANCH  18  19
ENDBRANCH  13  18
ENDBRANCH   1  12
BRANCH  11  23
ATOM     23  C   UNL     1       1.820  -0.111   0.529  1.00  0.00     0.002 A 
ATOM     24  C   UNL     1       0.779  -0.918   0.048  1.00  0.00     0.011 A 
ATOM     25  C   UNL     1       1.597   1.267   0.644  1.00  0.00     0.011 A 
ATOM     26  C   UNL     1      -0.442  -0.360  -0.337  1.00  0.00     0.006 A 
ATOM     27  C   UNL     1       0.369   1.826   0.281  1.00  0.00     0.006 A 
ATOM     28  C   UNL     1      -0.661   1.018  -0.216  1.00  0.00    -0.034 A 
BRANCH  28  29
ATOM     29  C   UNL     1      -2.007   1.622  -0.567  1.00  0.00     0.120 C 
BRANCH  29  30
ATOM     30  N   UNL     1      -2.794   2.010   0.620  1.00  0.00    -0.299 NA
ATOM     31  C   UNL     1      -3.201   0.869   1.454  1.00  0.00     0.087 C 
ATOM     32  C   UNL     1      -3.955   2.838   0.261  1.00  0.00     0.087 C 
ATOM     33  C   UNL     1      -4.286  -0.002   0.822  1.00  0.00     0.041 C 
ATOM     34  C   UNL     1      -5.085   2.060  -0.415  1.00  0.00     0.041 C 
ATOM     35  C   UNL     1      -5.499   0.852   0.444  1.00  0.00     0.095 C 
BRANCH  35  36
ATOM     36  N   UNL     1      -6.569   0.038  -0.122  1.00  0.00    -0.291 N 
ATOM     37  C   UNL     1      -6.710  -0.375  -1.420  1.00  0.00     0.295 A 
ATOM     38  C   UNL     1      -7.627  -0.504   0.583  1.00  0.00     0.072 A 
ATOM     39  N   UNL     1      -7.805  -1.052  -1.632  1.00  0.00    -0.195 NA
ATOM     40  C   UNL     1      -7.983  -0.501   1.941  1.00  0.00     0.032 A 
ATOM     41  C   UNL     1      -8.392  -1.149  -0.395  1.00  0.00     0.095 A 
ATOM     42  C   UNL     1      -9.157  -1.177   2.291  1.00  0.00     0.041 A 
ATOM     43  C   UNL     1      -9.579  -1.796  -0.028  1.00  0.00     0.070 A 
ATOM     44  C   UNL     1      -9.936  -1.805   1.322  1.00  0.00     0.125 A 
ATOM     45  F   UNL     1     -11.062  -2.428   1.695  1.00  0.00    -0.207 F 
BRANCH  37  46
ATOM     46  O   UNL     1      -5.839  -0.162  -2.382  1.00  0.00    -0.480 OA
ATOM     47  H   UNL     1      -6.253  -0.636  -3.128  1.00  0.00     0.296 HD
ENDBRANCH  37  46
ENDBRANCH  35  36
ENDBRANCH  29  30
ENDBRANCH  28  29
ENDBRANCH  11  23
TORSDOF 10
