REMARK SMILES CN1CCN(CCOc2ccc(-c3nc4ccc(F)cc4nc3-c3ccc(CN4CCC(n5c(O)nc6cc(F)ccc65)CC4)cc3)cc2)CC1
REMARK SMILES IDX 13 1 14 2 15 3 16 4 17 5 18 6 19 7 20 8 21 9 22 10 23 11
REMARK SMILES IDX 12 12 9 13 10 14 49 15 11 16 48 17 8 18 7 19 6 20 5 21 2 22
REMARK SMILES IDX 3 23 51 24 4 25 50 26 1 27 24 28 25 29 47 30 26 31 46 32
REMARK SMILES IDX 27 33 28 34 29 35 30 36 45 37 31 38 44 39 32 40 33 41 34 42
REMARK SMILES IDX 43 43 36 44 42 45 37 46 41 47 38 48 39 49 40 50 35 51
REMARK H PARENT 35 52
ROOT
ATOM      1  C   UNL     1       1.699  -2.648   1.814  1.00  0.00     0.097 A 
ATOM      2  N   UNL     1       2.365  -3.782   2.176  1.00  0.00    -0.244 NA
ATOM      3  C   UNL     1       1.635  -4.869   2.472  1.00  0.00     0.090 A 
ATOM      4  C   UNL     1       2.277  -6.042   2.853  1.00  0.00     0.033 A 
ATOM      5  C   UNL     1       1.552  -7.190   3.167  1.00  0.00     0.041 A 
ATOM      6  C   UNL     1       0.169  -7.152   3.097  1.00  0.00     0.125 A 
ATOM      7  F   UNL     1      -0.537  -8.249   3.396  1.00  0.00    -0.207 F 
ATOM      8  C   UNL     1      -0.492  -5.990   2.720  1.00  0.00     0.069 A 
ATOM      9  C   UNL     1       0.223  -4.845   2.405  1.00  0.00     0.092 A 
ATOM     10  N   UNL     1      -0.439  -3.736   2.037  1.00  0.00    -0.244 NA
ATOM     11  C   UNL     1       0.298  -2.631   1.723  1.00  0.00     0.097 A 
ENDROOT
BRANCH   1  12
ATOM     12  C   UNL     1       2.586  -1.497   1.562  1.00  0.00     0.003 A 
ATOM     13  C   UNL     1       4.333   0.679   1.060  1.00  0.00     0.119 A 
ATOM     14  C   UNL     1       3.245   0.824   1.921  1.00  0.00     0.047 A 
ATOM     15  C   UNL     1       4.556  -0.554   0.452  1.00  0.00     0.047 A 
ATOM     16  C   UNL     1       2.385  -0.250   2.176  1.00  0.00     0.014 A 
ATOM     17  C   UNL     1       3.694  -1.629   0.707  1.00  0.00     0.014 A 
BRANCH  13  18
ATOM     18  O   UNL     1       5.095   1.804   0.904  1.00  0.00    -0.492 OA
BRANCH  18  19
ATOM     19  C   UNL     1       6.270   1.686   0.095  1.00  0.00     0.245 C 
BRANCH  19  20
ATOM     20  C   UNL     1       7.011   3.035   0.126  1.00  0.00     0.126 C 
BRANCH  20  21
ATOM     21  N   UNL     1       8.222   3.164  -0.694  1.00  0.00    -0.297 NA
ATOM     22  N   UNL     1      10.004   1.498  -2.494  1.00  0.00    -0.304 NA
ATOM     23  C   UNL     1      10.456   2.212  -1.282  1.00  0.00     0.099 C 
ATOM     24  C   UNL     1       8.577   1.748  -2.776  1.00  0.00     0.099 C 
ATOM     25  C   UNL     1       9.342   2.334  -0.220  1.00  0.00     0.100 C 
ATOM     26  C   UNL     1       7.995   3.033  -2.143  1.00  0.00     0.100 C 
ATOM     27  C   UNL     1      10.854   1.839  -3.632  1.00  0.00     0.105 C 
ENDBRANCH  20  21
ENDBRANCH  19  20
ENDBRANCH  18  19
ENDBRANCH  13  18
ENDBRANCH   1  12
BRANCH  11  28
ATOM     28  C   UNL     1      -0.516  -1.487   1.271  1.00  0.00     0.002 A 
ATOM     29  C   UNL     1      -1.613  -1.053   2.034  1.00  0.00     0.011 A 
ATOM     30  C   UNL     1      -0.254  -0.816   0.065  1.00  0.00     0.011 A 
ATOM     31  C   UNL     1      -2.402   0.026   1.623  1.00  0.00     0.006 A 
ATOM     32  C   UNL     1      -1.039   0.267  -0.348  1.00  0.00     0.006 A 
ATOM     33  C   UNL     1      -2.124   0.697   0.426  1.00  0.00    -0.034 A 
BRANCH  33  34
ATOM     34  C   UNL     1      -2.973   1.871  -0.014  1.00  0.00     0.120 C 
BRANCH  34  35
ATOM     35  N   UNL     1      -4.404   1.546  -0.131  1.00  0.00    -0.299 NA
ATOM     36  C   UNL     1      -5.203   2.779  -0.214  1.00  0.00     0.087 C 
ATOM     37  C   UNL     1      -4.688   0.645  -1.251  1.00  0.00     0.087 C 
ATOM     38  C   UNL     1      -6.581   2.582  -0.858  1.00  0.00     0.041 C 
ATOM     39  C   UNL     1      -6.115   0.103  -1.129  1.00  0.00     0.041 C 
ATOM     40  C   UNL     1      -7.102   1.163  -0.608  1.00  0.00     0.095 C 
BRANCH  40  41
ATOM     41  N   UNL     1      -8.455   0.965  -1.108  1.00  0.00    -0.291 N 
ATOM     42  C   UNL     1      -8.868   1.082  -2.407  1.00  0.00     0.295 A 
ATOM     43  C   UNL     1      -9.569   0.637  -0.362  1.00  0.00     0.072 A 
ATOM     44  N   UNL     1     -10.145   0.866  -2.566  1.00  0.00    -0.195 NA
ATOM     45  C   UNL     1      -9.777   0.386   1.002  1.00  0.00     0.032 A 
ATOM     46  C   UNL     1     -10.604   0.587  -1.301  1.00  0.00     0.095 A 
ATOM     47  C   UNL     1     -11.084   0.082   1.399  1.00  0.00     0.041 A 
ATOM     48  C   UNL     1     -11.906   0.279  -0.885  1.00  0.00     0.070 A 
ATOM     49  C   UNL     1     -12.119   0.032   0.470  1.00  0.00     0.125 A 
ATOM     50  F   UNL     1     -13.357  -0.263   0.891  1.00  0.00    -0.207 F 
BRANCH  42  51
ATOM     51  O   UNL     1      -8.084   1.375  -3.423  1.00  0.00    -0.480 OA
ATOM     52  H   UNL     1      -8.719   1.358  -4.164  1.00  0.00     0.296 HD
ENDBRANCH  42  51
ENDBRANCH  40  41
ENDBRANCH  34  35
ENDBRANCH  33  34
ENDBRANCH  11  28
TORSDOF 10
