REMARK SMILES COc1ncc(C(=O)N[C@@H]2CN(C)CCC[C@H]2NC(=O)c2cc(F)cnc2OC)cc1F
REMARK SMILES IDX 10 1 9 2 7 3 8 4 6 6 3 7 4 8 31 9 5 10 30 11 32 12 2 13 1 14
REMARK SMILES IDX 11 15 12 16 13 17 14 18 17 20 16 21 15 22 18 24 19 25 20 27
REMARK SMILES IDX 21 28 22 29 27 30 23 31 26 32 25 33 24 34 28 35 29 36
REMARK H PARENT 9 5 18 26
REMARK Flexibility Score:   48.900
ROOT
ATOM      1  C   UNL     1       0.218  -0.605   0.667  1.00  0.00     0.118 C 
ENDROOT
BRANCH   1   2
ATOM      2  N   UNL     1       1.668  -0.422   0.508  1.00  0.00    -0.346 N 
ATOM      3  C   UNL     1       2.408   0.366   1.357  1.00  0.00     0.253 C 
ATOM      4  O   UNL     1       1.941   0.869   2.372  1.00  0.00    -0.269 OA
ATOM      5  H   UNL     1       2.052  -0.809  -0.344  1.00  0.00     0.164 HD
BRANCH   3   6
ATOM      6  C   UNL     1       3.836   0.584   1.020  1.00  0.00     0.061 A 
ATOM      7  C   UNL     1       6.513   1.070   0.618  1.00  0.00     0.250 A 
ATOM      8  N   UNL     1       6.002   1.338   1.841  1.00  0.00    -0.219 NA
ATOM      9  C   UNL     1       5.748   0.572  -0.430  1.00  0.00     0.185 A 
ATOM     10  C   UNL     1       4.675   1.094   2.010  1.00  0.00     0.129 A 
ATOM     11  C   UNL     1       4.393   0.327  -0.234  1.00  0.00     0.060 A 
ATOM     12  F   UNL     1       6.289   0.324  -1.632  1.00  0.00    -0.201 F 
BRANCH   7  13
ATOM     13  O   UNL     1       7.853   1.291   0.371  1.00  0.00    -0.479 OA
ATOM     14  C   UNL     1       8.550   1.824   1.491  1.00  0.00     0.280 C 
ENDBRANCH   7  13
ENDBRANCH   3   6
ENDBRANCH   1   2
BRANCH   1  15
ATOM     15  C   UNL     1      -0.167  -1.981   0.085  1.00  0.00     0.111 C 
BRANCH  15  16
ATOM     16  N   UNL     1       0.061  -2.107  -1.375  1.00  0.00    -0.304 NA
ATOM     17  C   UNL     1       0.151  -3.534  -1.718  1.00  0.00     0.105 C 
BRANCH  16  18
ATOM     18  C   UNL     1      -1.059  -1.501  -2.115  1.00  0.00     0.084 CG0
ATOM     19  G   UNL     1      -0.885  -0.018  -2.435  1.00  0.00     0.000 G0
ENDBRANCH  16  18
ENDBRANCH  15  16
ENDBRANCH   1  15
BRANCH   1  20
ATOM     20  C   UNL     1      -0.578   0.601   0.094  1.00  0.00     0.106 C 
BRANCH  20  21
ATOM     21  C   UNL     1      -0.263   0.894  -1.382  1.00  0.00     0.028 C 
BRANCH  21  22
ATOM     22  C   UNL     1      -0.885  -0.018  -2.435  1.00  0.00     0.018 CG0
ATOM     23  G   UNL     1      -1.059  -1.501  -2.115  1.00  0.00     0.000 G0
ENDBRANCH  21  22
ENDBRANCH  20  21
BRANCH  20  24
ATOM     24  N   UNL     1      -2.017   0.506   0.340  1.00  0.00    -0.347 N 
ATOM     25  C   UNL     1      -2.843   1.607   0.347  1.00  0.00     0.257 C 
ATOM     26  H   UNL     1      -2.455  -0.408   0.340  1.00  0.00     0.164 HD
ATOM     27  O   UNL     1      -2.422   2.753   0.223  1.00  0.00    -0.269 OA
BRANCH  25  28
ATOM     28  C   UNL     1      -4.307   1.380   0.514  1.00  0.00     0.104 A 
ATOM     29  C   UNL     1      -5.116   2.511   0.699  1.00  0.00     0.060 A 
ATOM     30  C   UNL     1      -4.938   0.131   0.493  1.00  0.00     0.226 A 
ATOM     31  C   UNL     1      -6.483   2.356   0.857  1.00  0.00     0.142 A 
ATOM     32  N   UNL     1      -6.278  -0.035   0.647  1.00  0.00    -0.218 NA
ATOM     33  C   UNL     1      -7.019   1.083   0.827  1.00  0.00     0.154 A 
ATOM     34  F   UNL     1      -7.270   3.422   1.037  1.00  0.00    -0.205 F 
BRANCH  30  35
ATOM     35  O   UNL     1      -4.170  -1.002   0.295  1.00  0.00    -0.480 OA
ATOM     36  C   UNL     1      -4.926  -2.212   0.281  1.00  0.00     0.280 C 
ENDBRANCH  30  35
ENDBRANCH  25  28
ENDBRANCH  20  24
ENDBRANCH   1  20
TORSDOF 6
