
     RDKit          3D

 42 45  0  0  0  0  0  0  0  0999 V2000
    4.6987   -1.8486   -1.4144 C   0  0  0  0  0  0  0  0  0  0  0  0
    5.1661   -0.5396   -1.1100 O   0  0  0  0  0  0  0  0  0  0  0  0
    4.3152    0.2722   -0.4065 C   0  0  0  0  0  0  0  0  0  0  0  0
    2.9208    0.1027   -0.4004 C   0  0  0  0  0  0  0  0  0  0  0  0
    2.0737    0.9634    0.3126 C   0  0  0  0  0  0  0  0  0  0  0  0
    0.6664    0.8436    0.2921 N   0  0  0  0  0  0  0  0  0  0  0  0
   -0.1229   -0.3177    0.0997 C   0  0  0  0  0  0  0  0  0  0  0  0
   -1.4967   -0.1379   -0.0734 C   0  0  0  0  0  0  0  0  0  0  0  0
   -2.3341   -1.2413   -0.2630 C   0  0  0  0  0  0  0  0  0  0  0  0
   -3.7785   -1.0902   -0.4533 C   0  0  0  0  0  0  0  0  0  0  0  0
   -4.6478   -1.7904   -1.2752 C   0  0  0  0  0  0  0  0  0  0  0  0
   -5.9412   -1.3567   -1.1521 N   0  0  0  0  0  0  0  0  0  0  0  0
   -5.8903   -0.3960   -0.2571 C   0  0  0  0  0  0  0  0  0  0  0  0
   -6.9160    0.4134    0.2808 C   0  0  0  0  0  0  0  0  0  0  0  0
   -6.6132    1.3282    1.2088 C   0  0  0  0  0  0  0  0  0  0  0  0
   -5.1921    1.4308    1.6139 C   0  0  0  0  0  0  0  0  0  0  0  0
   -4.2075    0.7256    1.1549 N   0  0  0  0  0  0  0  0  0  0  0  0
   -4.5978   -0.1881    0.2064 N   0  0  0  0  0  0  0  0  0  0  0  0
   -1.7525   -2.5068   -0.2913 C   0  0  0  0  0  0  0  0  0  0  0  0
   -0.3839   -2.6055   -0.1239 C   0  0  0  0  0  0  0  0  0  0  0  0
    0.4307   -1.5466    0.0644 N   0  0  0  0  0  0  0  0  0  0  0  0
    2.6496    2.0596    0.9672 C   0  0  0  0  0  0  0  0  0  0  0  0
    4.0332    2.2541    0.9610 C   0  0  0  0  0  0  0  0  0  0  0  0
    4.8727    1.3610    0.2796 C   0  0  0  0  0  0  0  0  0  0  0  0
    6.3437    1.5708    0.3173 C   0  0  0  0  0  0  0  0  0  0  0  0
    7.2258    0.7380    0.2398 O   0  0  0  0  0  0  0  0  0  0  0  0
    6.6533    2.8766    0.4609 O   0  0  0  0  0  0  0  0  0  0  0  0
    3.9742   -1.8204   -2.2343 H   0  0  0  0  0  0  0  0  0  0  0  0
    5.5566   -2.4387   -1.7508 H   0  0  0  0  0  0  0  0  0  0  0  0
    4.2791   -2.3443   -0.5322 H   0  0  0  0  0  0  0  0  0  0  0  0
    2.4704   -0.6975   -0.9777 H   0  0  0  0  0  0  0  0  0  0  0  0
    0.2249    1.4276    0.9943 H   0  0  0  0  0  0  0  0  0  0  0  0
   -1.9046    0.8680   -0.0735 H   0  0  0  0  0  0  0  0  0  0  0  0
   -4.3985   -2.5901   -1.9617 H   0  0  0  0  0  0  0  0  0  0  0  0
   -7.9307    0.2703   -0.0722 H   0  0  0  0  0  0  0  0  0  0  0  0
   -7.3426    1.9814    1.6671 H   0  0  0  0  0  0  0  0  0  0  0  0
   -4.9825    2.1929    2.3834 H   0  0  0  0  0  0  0  0  0  0  0  0
   -2.3428   -3.4059   -0.4300 H   0  0  0  0  0  0  0  0  0  0  0  0
    0.1120   -3.5719   -0.1353 H   0  0  0  0  0  0  0  0  0  0  0  0
    2.0261    2.7768    1.4951 H   0  0  0  0  0  0  0  0  0  0  0  0
    4.4498    3.1056    1.4940 H   0  0  0  0  0  0  0  0  0  0  0  0
    7.6334    2.8717    0.4431 H   0  0  0  0  0  0  0  0  0  0  0  0
  1  2  1  0
  2  3  1  0
  3  4  2  0
  4  5  1  0
  5  6  1  0
  6  7  1  0
  7  8  2  0
  8  9  1  0
  9 10  1  0
 10 11  2  0
 11 12  1  0
 12 13  2  0
 13 14  1  0
 14 15  2  0
 15 16  1  0
 16 17  2  0
 17 18  1  0
  9 19  2  0
 19 20  1  0
 20 21  2  0
  5 22  2  0
 22 23  1  0
 23 24  2  0
 24 25  1  0
 25 26  2  0
 25 27  1  0
 24  3  1  0
 21  7  1  0
 18 10  1  0
 18 13  1  0
  1 28  1  0
  1 29  1  0
  1 30  1  0
  4 31  1  0
  6 32  1  0
  8 33  1  0
 11 34  1  0
 14 35  1  0
 15 36  1  0
 16 37  1  0
 19 38  1  0
 20 39  1  0
 22 40  1  0
 23 41  1  0
 27 42  1  0
M  END
$$$$
