
     RDKit          3D

 65 68  0  0  0  0  0  0  0  0999 V2000
    9.4439    4.1313    0.6586 C   0  0  0  0  0  0  0  0  0  0  0  0
    8.1150    3.6219    0.6023 O   0  0  0  0  0  0  0  0  0  0  0  0
    8.0531    2.3273    0.1242 C   0  0  0  0  0  0  0  0  0  0  0  0
    6.7891    1.7733    0.0293 C   0  0  0  0  0  0  0  0  0  0  0  0
    6.6849    0.4718   -0.4583 C   0  0  0  0  0  0  0  0  0  0  0  0
    5.3766   -0.2197   -0.6080 C   0  0  0  0  0  0  0  0  0  0  0  0
    5.3346   -1.4430   -0.6821 O   0  0  0  0  0  0  0  0  0  0  0  0
    4.2561    0.5812   -0.6976 N   0  0  0  0  0  0  0  0  0  0  0  0
    2.9618    0.0057   -1.0836 C   0  0  0  0  0  0  0  0  0  0  0  0
    2.8517   -0.0391   -2.6229 C   0  0  0  0  0  0  0  0  0  0  0  0
    2.7810    1.3142   -3.1962 N   0  0  0  0  0  0  0  0  0  0  0  0
    1.5933    2.0175   -2.7057 C   0  0  0  0  0  0  0  0  0  0  0  0
    1.6228    2.1646   -1.1873 C   0  0  0  0  0  0  0  0  0  0  0  0
    1.7856    0.8109   -0.4741 C   0  0  1  0  0  0  0  0  0  0  0  0
    0.5337    0.0415   -0.4926 N   0  0  0  0  0  0  0  0  0  0  0  0
   -0.5380    0.3904    0.3054 C   0  0  0  0  0  0  0  0  0  0  0  0
   -0.5494    1.3720    1.0374 O   0  0  0  0  0  0  0  0  0  0  0  0
   -1.7114   -0.5249    0.2684 C   0  0  0  0  0  0  0  0  0  0  0  0
   -2.5106   -0.6306    1.4141 C   0  0  0  0  0  0  0  0  0  0  0  0
   -3.6256   -1.4749    1.4244 C   0  0  0  0  0  0  0  0  0  0  0  0
   -3.9623   -2.1972    0.2743 C   0  0  0  0  0  0  0  0  0  0  0  0
   -5.1181   -3.1253    0.2437 C   0  0  0  0  0  0  0  0  0  0  0  0
   -5.0046   -4.1920   -0.3638 O   0  0  0  0  0  0  0  0  0  0  0  0
   -6.3894   -2.8652    0.9536 C   0  0  0  0  0  0  0  0  0  0  0  0
   -7.1352   -3.9431    1.4439 C   0  0  0  0  0  0  0  0  0  0  0  0
   -6.7575   -5.2477    1.2745 O   0  0  0  0  0  0  0  0  0  0  0  0
   -8.3222   -3.7281    2.1396 C   0  0  0  0  0  0  0  0  0  0  0  0
   -8.7978   -2.4284    2.3296 C   0  0  0  0  0  0  0  0  0  0  0  0
   -8.0902   -1.3416    1.8109 C   0  0  0  0  0  0  0  0  0  0  0  0
   -8.4633   -0.0285    1.9199 O   0  0  0  0  0  0  0  0  0  0  0  0
   -9.6971    0.2456    2.5721 C   0  0  0  0  0  0  0  0  0  0  0  0
   -6.8926   -1.5736    1.1184 C   0  0  0  0  0  0  0  0  0  0  0  0
   -6.2418   -0.5245    0.5886 F   0  0  0  0  0  0  0  0  0  0  0  0
   -3.1608   -2.0978   -0.8706 C   0  0  0  0  0  0  0  0  0  0  0  0
   -2.0436   -1.2563   -0.8789 C   0  0  0  0  0  0  0  0  0  0  0  0
    7.8424   -0.2281   -0.8030 C   0  0  0  0  0  0  0  0  0  0  0  0
    9.0576    0.4142   -0.6671 C   0  0  0  0  0  0  0  0  0  0  0  0
    9.1873    1.6799   -0.2179 N   0  0  0  0  0  0  0  0  0  0  0  0
    9.8969    4.1698   -0.3382 H   0  0  0  0  0  0  0  0  0  0  0  0
    9.3926    5.1563    1.0398 H   0  0  0  0  0  0  0  0  0  0  0  0
   10.0625    3.5492    1.3505 H   0  0  0  0  0  0  0  0  0  0  0  0
    5.9288    2.3469    0.3499 H   0  0  0  0  0  0  0  0  0  0  0  0
    4.3972    1.5358   -1.0052 H   0  0  0  0  0  0  0  0  0  0  0  0
    2.9249   -1.0224   -0.7033 H   0  0  0  0  0  0  0  0  0  0  0  0
    3.7283   -0.5445   -3.0440 H   0  0  0  0  0  0  0  0  0  0  0  0
    1.9733   -0.6210   -2.9273 H   0  0  0  0  0  0  0  0  0  0  0  0
    2.7291    1.2410   -4.2131 H   0  0  0  0  0  0  0  0  0  0  0  0
    0.6828    1.4956   -3.0249 H   0  0  0  0  0  0  0  0  0  0  0  0
    1.5634    3.0140   -3.1595 H   0  0  0  0  0  0  0  0  0  0  0  0
    0.7119    2.6778   -0.8593 H   0  0  0  0  0  0  0  0  0  0  0  0
    2.4600    2.8187   -0.9103 H   0  0  0  0  0  0  0  0  0  0  0  0
    2.0032    1.0085    0.5838 H   0  0  0  0  0  0  0  0  0  0  0  0
    0.5548   -0.8949   -0.8716 H   0  0  0  0  0  0  0  0  0  0  0  0
   -2.2615   -0.0576    2.3065 H   0  0  0  0  0  0  0  0  0  0  0  0
   -4.2123   -1.5544    2.3356 H   0  0  0  0  0  0  0  0  0  0  0  0
   -6.0418   -5.2699    0.5979 H   0  0  0  0  0  0  0  0  0  0  0  0
   -8.8812   -4.5766    2.5268 H   0  0  0  0  0  0  0  0  0  0  0  0
   -9.7267   -2.3020    2.8767 H   0  0  0  0  0  0  0  0  0  0  0  0
  -10.5359   -0.2168    2.0405 H   0  0  0  0  0  0  0  0  0  0  0  0
   -9.8498    1.3290    2.5575 H   0  0  0  0  0  0  0  0  0  0  0  0
   -9.6679   -0.0730    3.6188 H   0  0  0  0  0  0  0  0  0  0  0  0
   -3.4112   -2.6691   -1.7632 H   0  0  0  0  0  0  0  0  0  0  0  0
   -1.4640   -1.1660   -1.7928 H   0  0  0  0  0  0  0  0  0  0  0  0
    7.7962   -1.2485   -1.1708 H   0  0  0  0  0  0  0  0  0  0  0  0
    9.9873   -0.0860   -0.9241 H   0  0  0  0  0  0  0  0  0  0  0  0
  1  2  1  0
  2  3  1  0
  3  4  2  0
  4  5  1  0
  5  6  1  0
  6  7  2  0
  6  8  1  0
  8  9  1  0
  9 10  1  0
 10 11  1  0
 11 12  1  0
 12 13  1  0
 13 14  1  0
 14 15  1  0
 15 16  1  0
 16 17  2  0
 16 18  1  0
 18 19  2  0
 19 20  1  0
 20 21  2  0
 21 22  1  0
 22 23  2  0
 22 24  1  0
 24 25  2  0
 25 26  1  0
 25 27  1  0
 27 28  2  0
 28 29  1  0
 29 30  1  0
 30 31  1  0
 29 32  2  0
 32 33  1  0
 21 34  1  0
 34 35  2  0
  5 36  2  0
 36 37  1  0
 37 38  2  0
 38  3  1  0
 14  9  1  0
 35 18  1  0
 32 24  1  0
  1 39  1  0
  1 40  1  0
  1 41  1  0
  4 42  1  0
  8 43  1  0
  9 44  1  0
 10 45  1  0
 10 46  1  0
 11 47  1  0
 12 48  1  0
 12 49  1  0
 13 50  1  0
 13 51  1  0
 14 52  1  1
 15 53  1  0
 19 54  1  0
 20 55  1  0
 26 56  1  0
 27 57  1  0
 28 58  1  0
 31 59  1  0
 31 60  1  0
 31 61  1  0
 34 62  1  0
 35 63  1  0
 36 64  1  0
 37 65  1  0
M  END
$$$$
