
     RDKit          3D

 63 66  0  0  0  0  0  0  0  0999 V2000
   -4.1310    4.7895   -1.4349 C   0  0  0  0  0  0  0  0  0  0  0  0
   -4.3707    3.5428   -0.6369 C   0  0  0  0  0  0  0  0  0  0  0  0
   -3.7873    2.3427   -1.0218 C   0  0  0  0  0  0  0  0  0  0  0  0
   -4.0392    1.2017   -0.2583 C   0  0  0  0  0  0  0  0  0  0  0  0
   -3.4144   -0.0755   -0.6832 C   0  0  0  0  0  0  0  0  0  0  0  0
   -2.3616   -0.0722   -1.3152 O   0  0  0  0  0  0  0  0  0  0  0  0
   -4.0759   -1.2353   -0.3447 N   0  0  0  0  0  0  0  0  0  0  0  0
   -3.4821   -2.5523   -0.5979 C   0  0  0  0  0  0  0  0  0  0  0  0
   -4.5579   -3.6623   -0.5935 C   0  0  0  0  0  0  0  0  0  0  0  0
   -4.7906   -4.1741    0.7566 N   0  0  0  0  0  0  0  0  0  0  0  0
   -3.5981   -4.8620    1.2689 C   0  0  0  0  0  0  0  0  0  0  0  0
   -2.2695   -4.3433    0.7060 C   0  0  0  0  0  0  0  0  0  0  0  0
   -2.3459   -2.8391    0.4294 C   0  0  1  0  0  0  0  0  0  0  0  0
   -1.0747   -2.2889   -0.0501 N   0  0  0  0  0  0  0  0  0  0  0  0
    0.0399   -2.2182    0.7565 C   0  0  0  0  0  0  0  0  0  0  0  0
    0.0711   -2.6521    1.9036 O   0  0  0  0  0  0  0  0  0  0  0  0
    1.2399   -1.5407    0.1790 C   0  0  0  0  0  0  0  0  0  0  0  0
    1.4071   -1.3697   -1.2024 C   0  0  0  0  0  0  0  0  0  0  0  0
    2.5777   -0.7879   -1.7020 C   0  0  0  0  0  0  0  0  0  0  0  0
    3.5838   -0.3659   -0.8253 C   0  0  0  0  0  0  0  0  0  0  0  0
    4.8449    0.1550   -1.4033 C   0  0  0  0  0  0  0  0  0  0  0  0
    5.3035   -0.3990   -2.4076 O   0  0  0  0  0  0  0  0  0  0  0  0
    5.6276    1.2514   -0.7901 C   0  0  0  0  0  0  0  0  0  0  0  0
    7.0209    1.2712   -0.9491 C   0  0  0  0  0  0  0  0  0  0  0  0
    7.7041    0.3293   -1.6765 O   0  0  0  0  0  0  0  0  0  0  0  0
    7.7887    2.2776   -0.3676 C   0  0  0  0  0  0  0  0  0  0  0  0
    7.1698    3.2982    0.3570 C   0  0  0  0  0  0  0  0  0  0  0  0
    5.7774    3.3148    0.5033 C   0  0  0  0  0  0  0  0  0  0  0  0
    5.0944    4.4323    1.2320 C   0  0  0  0  0  0  0  0  0  0  0  0
    5.0185    2.2927   -0.0855 C   0  0  0  0  0  0  0  0  0  0  0  0
    3.6820    2.3540    0.0219 F   0  0  0  0  0  0  0  0  0  0  0  0
    3.4296   -0.5474    0.5532 C   0  0  0  0  0  0  0  0  0  0  0  0
    2.2583   -1.1294    1.0514 C   0  0  0  0  0  0  0  0  0  0  0  0
   -4.8355    1.2985    0.8808 C   0  0  0  0  0  0  0  0  0  0  0  0
   -5.3685    2.5361    1.1900 C   0  0  0  0  0  0  0  0  0  0  0  0
   -5.1616    3.6492    0.4569 N   0  0  0  0  0  0  0  0  0  0  0  0
   -3.0676    5.0551   -1.4125 H   0  0  0  0  0  0  0  0  0  0  0  0
   -4.4448    4.6401   -2.4729 H   0  0  0  0  0  0  0  0  0  0  0  0
   -4.7013    5.6321   -1.0270 H   0  0  0  0  0  0  0  0  0  0  0  0
   -3.1509    2.2917   -1.8997 H   0  0  0  0  0  0  0  0  0  0  0  0
   -4.8984   -1.2191    0.2434 H   0  0  0  0  0  0  0  0  0  0  0  0
   -3.0616   -2.5178   -1.6132 H   0  0  0  0  0  0  0  0  0  0  0  0
   -5.5005   -3.2725   -0.9916 H   0  0  0  0  0  0  0  0  0  0  0  0
   -4.2588   -4.4873   -1.2542 H   0  0  0  0  0  0  0  0  0  0  0  0
   -5.5714   -4.8362    0.7460 H   0  0  0  0  0  0  0  0  0  0  0  0
   -3.5952   -4.7689    2.3602 H   0  0  0  0  0  0  0  0  0  0  0  0
   -3.6737   -5.9319    1.0431 H   0  0  0  0  0  0  0  0  0  0  0  0
   -2.0234   -4.8742   -0.2233 H   0  0  0  0  0  0  0  0  0  0  0  0
   -1.4686   -4.5852    1.4131 H   0  0  0  0  0  0  0  0  0  0  0  0
   -2.5637   -2.3270    1.3775 H   0  0  0  0  0  0  0  0  0  0  0  0
   -1.1695   -1.5343   -0.7313 H   0  0  0  0  0  0  0  0  0  0  0  0
    0.6589   -1.7162   -1.9089 H   0  0  0  0  0  0  0  0  0  0  0  0
    2.7101   -0.6837   -2.7785 H   0  0  0  0  0  0  0  0  0  0  0  0
    7.0442   -0.1791   -2.2031 H   0  0  0  0  0  0  0  0  0  0  0  0
    8.8695    2.2751   -0.4936 H   0  0  0  0  0  0  0  0  0  0  0  0
    7.7855    4.0832    0.7937 H   0  0  0  0  0  0  0  0  0  0  0  0
    5.8124    5.0361    1.8005 H   0  0  0  0  0  0  0  0  0  0  0  0
    4.3607    4.0340    1.9438 H   0  0  0  0  0  0  0  0  0  0  0  0
    4.5843    5.0870    0.5176 H   0  0  0  0  0  0  0  0  0  0  0  0
    4.2166   -0.2721    1.2496 H   0  0  0  0  0  0  0  0  0  0  0  0
    2.1498   -1.2830    2.1232 H   0  0  0  0  0  0  0  0  0  0  0  0
   -5.0226    0.4592    1.5390 H   0  0  0  0  0  0  0  0  0  0  0  0
   -5.9950    2.6729    2.0678 H   0  0  0  0  0  0  0  0  0  0  0  0
  1  2  1  0
  2  3  2  0
  3  4  1  0
  4  5  1  0
  5  6  2  0
  5  7  1  0
  7  8  1  0
  8  9  1  0
  9 10  1  0
 10 11  1  0
 11 12  1  0
 12 13  1  0
 13 14  1  0
 14 15  1  0
 15 16  2  0
 15 17  1  0
 17 18  2  0
 18 19  1  0
 19 20  2  0
 20 21  1  0
 21 22  2  0
 21 23  1  0
 23 24  2  0
 24 25  1  0
 24 26  1  0
 26 27  2  0
 27 28  1  0
 28 29  1  0
 28 30  2  0
 30 31  1  0
 20 32  1  0
 32 33  2  0
  4 34  2  0
 34 35  1  0
 35 36  2  0
 36  2  1  0
 13  8  1  0
 33 17  1  0
 30 23  1  0
  1 37  1  0
  1 38  1  0
  1 39  1  0
  3 40  1  0
  7 41  1  0
  8 42  1  0
  9 43  1  0
  9 44  1  0
 10 45  1  0
 11 46  1  0
 11 47  1  0
 12 48  1  0
 12 49  1  0
 13 50  1  1
 14 51  1  0
 18 52  1  0
 19 53  1  0
 25 54  1  0
 26 55  1  0
 27 56  1  0
 29 57  1  0
 29 58  1  0
 29 59  1  0
 32 60  1  0
 33 61  1  0
 34 62  1  0
 35 63  1  0
M  END
$$$$
