
     RDKit          3D

 50 52  0  0  0  0  0  0  0  0999 V2000
    4.2419    0.4921    3.0787 C   0  0  0  0  0  0  0  0  0  0  0  0
    3.5006    0.7515    1.8947 O   0  0  0  0  0  0  0  0  0  0  0  0
    4.2725    1.4875    0.9405 C   0  0  0  0  0  0  0  0  0  0  0  0
    3.4391    1.7470   -0.3246 C   0  0  0  0  0  0  0  0  0  0  0  0
    3.1897    0.5099   -1.0697 N   0  0  0  0  0  0  0  0  0  0  0  0
    2.3092    0.7344   -2.2136 C   0  0  0  0  0  0  0  0  0  0  0  0
    1.9346   -0.5783   -2.8698 C   0  0  0  0  0  0  0  0  0  0  0  0
    2.7488   -1.0639   -3.9115 C   0  0  0  0  0  0  0  0  0  0  0  0
    2.4485   -2.2623   -4.5596 C   0  0  0  0  0  0  0  0  0  0  0  0
    1.3320   -2.9972   -4.1759 C   0  0  0  0  0  0  0  0  0  0  0  0
    0.5196   -2.5378   -3.1389 C   0  0  0  0  0  0  0  0  0  0  0  0
    0.8136   -1.3390   -2.4699 C   0  0  0  0  0  0  0  0  0  0  0  0
   -0.0999   -0.9410   -1.3890 C   0  0  0  0  0  0  0  0  0  0  0  0
    0.3067   -0.8179   -0.1152 C   0  0  0  0  0  0  0  0  0  0  0  0
   -0.5577   -0.4010    0.9926 C   0  0  0  0  0  0  0  0  0  0  0  0
   -0.0264   -0.1398    2.2523 C   0  0  0  0  0  0  0  0  0  0  0  0
   -0.7864    0.2331    3.3115 N   0  0  0  0  0  0  0  0  0  0  0  0
   -2.1095    0.3533    3.0508 C   0  0  0  0  0  0  0  0  0  0  0  0
   -2.6649    0.1099    1.7952 C   0  0  0  0  0  0  0  0  0  0  0  0
   -4.1051    0.2026    1.5116 C   0  0  0  0  0  0  0  0  0  0  0  0
   -4.7695   -0.9321    1.0012 C   0  0  0  0  0  0  0  0  0  0  0  0
   -6.1370   -0.9130    0.7176 C   0  0  0  0  0  0  0  0  0  0  0  0
   -6.8735    0.2466    0.9304 C   0  0  0  0  0  0  0  0  0  0  0  0
   -6.2397    1.3883    1.4181 C   0  0  0  0  0  0  0  0  0  0  0  0
   -4.8633    1.3759    1.7042 C   0  0  0  0  0  0  0  0  0  0  0  0
   -4.2662    2.5952    2.1716 C   0  0  0  0  0  0  0  0  0  0  0  0
   -3.8015    3.5799    2.5727 N   0  0  0  0  0  0  0  0  0  0  0  0
   -1.8892   -0.2846    0.7528 N   0  0  0  0  0  0  0  0  0  0  0  0
    5.1261   -0.1115    2.8525 H   0  0  0  0  0  0  0  0  0  0  0  0
    4.5377    1.4298    3.5589 H   0  0  0  0  0  0  0  0  0  0  0  0
    3.6043   -0.0674    3.7684 H   0  0  0  0  0  0  0  0  0  0  0  0
    4.5565    2.4498    1.3824 H   0  0  0  0  0  0  0  0  0  0  0  0
    5.1858    0.9336    0.6922 H   0  0  0  0  0  0  0  0  0  0  0  0
    2.4829    2.1924   -0.0252 H   0  0  0  0  0  0  0  0  0  0  0  0
    3.9724    2.4600   -0.9635 H   0  0  0  0  0  0  0  0  0  0  0  0
    4.0619    0.0890   -1.3797 H   0  0  0  0  0  0  0  0  0  0  0  0
    2.8067    1.3796   -2.9495 H   0  0  0  0  0  0  0  0  0  0  0  0
    1.3982    1.2686   -1.9182 H   0  0  0  0  0  0  0  0  0  0  0  0
    3.6249   -0.5012   -4.2262 H   0  0  0  0  0  0  0  0  0  0  0  0
    3.0856   -2.6205   -5.3638 H   0  0  0  0  0  0  0  0  0  0  0  0
    1.0937   -3.9306   -4.6786 H   0  0  0  0  0  0  0  0  0  0  0  0
   -0.3451   -3.1292   -2.8445 H   0  0  0  0  0  0  0  0  0  0  0  0
   -1.1336   -0.7636   -1.6745 H   0  0  0  0  0  0  0  0  0  0  0  0
    1.3453   -1.0103    0.1445 H   0  0  0  0  0  0  0  0  0  0  0  0
    1.0381   -0.2206    2.4484 H   0  0  0  0  0  0  0  0  0  0  0  0
   -2.7181    0.6441    3.9007 H   0  0  0  0  0  0  0  0  0  0  0  0
   -4.2067   -1.8480    0.8177 H   0  0  0  0  0  0  0  0  0  0  0  0
   -6.6214   -1.8043    0.3255 H   0  0  0  0  0  0  0  0  0  0  0  0
   -7.9376    0.2653    0.7071 H   0  0  0  0  0  0  0  0  0  0  0  0
   -6.8244    2.2954    1.5665 H   0  0  0  0  0  0  0  0  0  0  0  0
  1  2  1  0
  2  3  1  0
  3  4  1  0
  4  5  1  0
  5  6  1  0
  6  7  1  0
  7  8  2  0
  8  9  1  0
  9 10  2  0
 10 11  1  0
 11 12  2  0
 12 13  1  0
 13 14  2  3
 14 15  1  0
 15 16  2  0
 16 17  1  0
 17 18  2  0
 18 19  1  0
 19 20  1  0
 20 21  2  0
 21 22  1  0
 22 23  2  0
 23 24  1  0
 24 25  2  0
 25 26  1  0
 26 27  3  0
 19 28  2  0
 12  7  1  0
 28 15  1  0
 25 20  1  0
  1 29  1  0
  1 30  1  0
  1 31  1  0
  3 32  1  0
  3 33  1  0
  4 34  1  0
  4 35  1  0
  5 36  1  0
  6 37  1  0
  6 38  1  0
  8 39  1  0
  9 40  1  0
 10 41  1  0
 11 42  1  0
 13 43  1  0
 14 44  1  0
 16 45  1  0
 18 46  1  0
 21 47  1  0
 22 48  1  0
 23 49  1  0
 24 50  1  0
M  END
$$$$
