
     RDKit          3D

 60 62  0  0  0  0  0  0  0  0999 V2000
    5.7546    2.4645   -2.8574 C   0  0  0  0  0  0  0  0  0  0  0  0
    5.4126    3.2618   -1.6112 C   0  0  0  0  0  0  0  0  0  0  0  0
    5.1474    2.4053   -0.4759 N   0  0  0  0  0  0  0  0  0  0  0  0
    3.9312    1.7788   -0.3037 C   0  0  0  0  0  0  0  0  0  0  0  0
    3.0334    1.8218   -1.1385 O   0  0  0  0  0  0  0  0  0  0  0  0
    3.7658    0.9954    0.9599 C   0  0  0  0  0  0  0  0  0  0  0  0
    4.2770    1.4949    2.1783 C   0  0  0  0  0  0  0  0  0  0  0  0
    4.9834    2.6715    2.2109 O   0  0  0  0  0  0  0  0  0  0  0  0
    4.0828    0.8128    3.3795 C   0  0  0  0  0  0  0  0  0  0  0  0
    3.3633   -0.3749    3.3855 C   0  0  0  0  0  0  0  0  0  0  0  0
    2.8536   -0.8826    2.1906 C   0  0  0  0  0  0  0  0  0  0  0  0
    3.0497   -0.2258    0.9513 C   0  0  0  0  0  0  0  0  0  0  0  0
    2.5216   -0.8829   -0.2596 C   0  0  0  0  0  0  0  0  0  0  0  0
    3.2905   -1.1533   -1.3927 C   0  0  0  0  0  0  0  0  0  0  0  0
    2.8230   -1.8386   -2.4662 N   0  0  0  0  0  0  0  0  0  0  0  0
    1.5319   -2.2335   -2.3689 C   0  0  0  0  0  0  0  0  0  0  0  0
    0.7430   -1.9863   -1.2495 C   0  0  0  0  0  0  0  0  0  0  0  0
   -0.6476   -2.4518   -1.1864 C   0  0  0  0  0  0  0  0  0  0  0  0
   -1.4668   -2.2130   -0.1503 C   0  0  0  0  0  0  0  0  0  0  0  0
   -2.8453   -2.7111   -0.1377 C   0  0  0  0  0  0  0  0  0  0  0  0
   -3.0786   -3.9449    0.4920 C   0  0  0  0  0  0  0  0  0  0  0  0
   -4.3571   -4.5023    0.5174 C   0  0  0  0  0  0  0  0  0  0  0  0
   -5.4147   -3.8354   -0.0945 C   0  0  0  0  0  0  0  0  0  0  0  0
   -5.1927   -2.6118   -0.7259 C   0  0  0  0  0  0  0  0  0  0  0  0
   -3.9137   -2.0187   -0.7433 C   0  0  0  0  0  0  0  0  0  0  0  0
   -3.7160   -0.6976   -1.4613 C   0  0  0  0  0  0  0  0  0  0  0  0
   -4.7775    0.2946   -1.2254 N   0  0  0  0  0  0  0  0  0  0  0  0
   -4.8086    0.8040    0.1574 C   0  0  0  0  0  0  0  0  0  0  0  0
   -3.6341    1.7137    0.5542 C   0  0  0  0  0  0  0  0  0  0  0  0
   -3.7887    2.2383    1.8730 O   0  0  0  0  0  0  0  0  0  0  0  0
   -4.6746    3.3409    1.9385 C   0  0  0  0  0  0  0  0  0  0  0  0
    1.2365   -1.3244   -0.1743 N   0  0  0  0  0  0  0  0  0  0  0  0
    4.9139    1.8365   -3.1710 H   0  0  0  0  0  0  0  0  0  0  0  0
    6.6117    1.8066   -2.6780 H   0  0  0  0  0  0  0  0  0  0  0  0
    6.0068    3.1352   -3.6821 H   0  0  0  0  0  0  0  0  0  0  0  0
    4.5375    3.8980   -1.7923 H   0  0  0  0  0  0  0  0  0  0  0  0
    6.2542    3.9072   -1.3388 H   0  0  0  0  0  0  0  0  0  0  0  0
    5.7217    2.5149    0.3545 H   0  0  0  0  0  0  0  0  0  0  0  0
    5.0450    2.9795    3.1328 H   0  0  0  0  0  0  0  0  0  0  0  0
    4.4796    1.1913    4.3145 H   0  0  0  0  0  0  0  0  0  0  0  0
    3.1981   -0.9154    4.3153 H   0  0  0  0  0  0  0  0  0  0  0  0
    2.2938   -1.8184    2.2189 H   0  0  0  0  0  0  0  0  0  0  0  0
    4.3252   -0.8352   -1.4695 H   0  0  0  0  0  0  0  0  0  0  0  0
    1.1474   -2.7658   -3.2329 H   0  0  0  0  0  0  0  0  0  0  0  0
   -1.0042   -3.0200   -2.0398 H   0  0  0  0  0  0  0  0  0  0  0  0
   -1.1494   -1.6507    0.7229 H   0  0  0  0  0  0  0  0  0  0  0  0
   -2.2585   -4.4820    0.9663 H   0  0  0  0  0  0  0  0  0  0  0  0
   -4.5245   -5.4565    1.0131 H   0  0  0  0  0  0  0  0  0  0  0  0
   -6.4127   -4.2654   -0.0801 H   0  0  0  0  0  0  0  0  0  0  0  0
   -6.0298   -2.1030   -1.2035 H   0  0  0  0  0  0  0  0  0  0  0  0
   -3.7042   -0.9251   -2.5358 H   0  0  0  0  0  0  0  0  0  0  0  0
   -2.7430   -0.2464   -1.2396 H   0  0  0  0  0  0  0  0  0  0  0  0
   -4.6326    1.0771   -1.8655 H   0  0  0  0  0  0  0  0  0  0  0  0
   -4.9037   -0.0117    0.8853 H   0  0  0  0  0  0  0  0  0  0  0  0
   -5.7422    1.3696    0.2575 H   0  0  0  0  0  0  0  0  0  0  0  0
   -3.5000    2.5323   -0.1613 H   0  0  0  0  0  0  0  0  0  0  0  0
   -2.7057    1.1364    0.5609 H   0  0  0  0  0  0  0  0  0  0  0  0
   -4.3480    4.1399    1.2660 H   0  0  0  0  0  0  0  0  0  0  0  0
   -5.6955    3.0373    1.7000 H   0  0  0  0  0  0  0  0  0  0  0  0
   -4.6660    3.7248    2.9618 H   0  0  0  0  0  0  0  0  0  0  0  0
  1  2  1  0
  2  3  1  0
  3  4  1  0
  4  5  2  0
  4  6  1  0
  6  7  2  0
  7  8  1  0
  7  9  1  0
  9 10  2  0
 10 11  1  0
 11 12  2  0
 12 13  1  0
 13 14  2  0
 14 15  1  0
 15 16  2  0
 16 17  1  0
 17 18  1  0
 18 19  2  3
 19 20  1  0
 20 21  2  0
 21 22  1  0
 22 23  2  0
 23 24  1  0
 24 25  2  0
 25 26  1  0
 26 27  1  0
 27 28  1  0
 28 29  1  0
 29 30  1  0
 30 31  1  0
 17 32  2  0
 12  6  1  0
 32 13  1  0
 25 20  1  0
  1 33  1  0
  1 34  1  0
  1 35  1  0
  2 36  1  0
  2 37  1  0
  3 38  1  0
  8 39  1  0
  9 40  1  0
 10 41  1  0
 11 42  1  0
 14 43  1  0
 16 44  1  0
 18 45  1  0
 19 46  1  0
 21 47  1  0
 22 48  1  0
 23 49  1  0
 24 50  1  0
 26 51  1  0
 26 52  1  0
 27 53  1  0
 28 54  1  0
 28 55  1  0
 29 56  1  0
 29 57  1  0
 31 58  1  0
 31 59  1  0
 31 60  1  0
M  END
$$$$
