
     RDKit          3D

 61 64  0  0  0  0  0  0  0  0999 V2000
   -9.3896    0.6130   -3.4779 C   0  0  0  0  0  0  0  0  0  0  0  0
   -8.1683    1.1900   -3.0301 O   0  0  0  0  0  0  0  0  0  0  0  0
   -7.6409    0.7309   -1.8544 C   0  0  0  0  0  0  0  0  0  0  0  0
   -8.1190   -0.3650   -1.1293 C   0  0  0  0  0  0  0  0  0  0  0  0
   -7.4840   -0.7643    0.0549 C   0  0  0  0  0  0  0  0  0  0  0  0
   -6.3628   -0.0719    0.5093 C   0  0  0  0  0  0  0  0  0  0  0  0
   -5.7434   -0.4636    1.6645 O   0  0  0  0  0  0  0  0  0  0  0  0
   -5.8782    1.0258   -0.2096 C   0  0  0  0  0  0  0  0  0  0  0  0
   -4.7329    1.8090    0.2743 C   0  0  0  0  0  0  0  0  0  0  0  0
   -4.9273    2.9709    0.6222 O   0  0  0  0  0  0  0  0  0  0  0  0
   -3.3653    1.2193    0.3275 C   0  0  0  0  0  0  0  0  0  0  0  0
   -3.0132    0.0785   -0.4051 C   0  0  0  0  0  0  0  0  0  0  0  0
   -1.7037   -0.4143   -0.3452 C   0  0  0  0  0  0  0  0  0  0  0  0
   -0.7404    0.2196    0.4526 C   0  0  0  0  0  0  0  0  0  0  0  0
    0.6344   -0.3546    0.4952 C   0  0  0  0  0  0  0  0  0  0  0  0
    1.0804   -0.9619   -0.4684 O   0  0  0  0  0  0  0  0  0  0  0  0
    1.3223   -0.2051    1.6815 N   0  0  0  0  0  0  0  0  0  0  0  0
    2.7009   -0.6758    1.8321 C   0  0  2  0  0  0  0  0  0  0  0  0
    2.9731   -1.0039    3.3048 C   0  0  0  0  0  0  0  0  0  0  0  0
    4.4535   -1.2726    3.5327 C   0  0  0  0  0  0  0  0  0  0  0  0
    5.3274   -0.1756    3.1337 N   0  0  0  0  0  0  0  0  0  0  0  0
    4.6508    0.8804    2.3631 C   0  0  0  0  0  0  0  0  0  0  0  0
    3.7376    0.3319    1.2444 C   0  0  0  0  0  0  0  0  0  0  0  0
    4.5383   -0.2706    0.1724 N   0  0  0  0  0  0  0  0  0  0  0  0
    5.2786    0.5005   -0.6961 C   0  0  0  0  0  0  0  0  0  0  0  0
    5.2446    1.7261   -0.7050 O   0  0  0  0  0  0  0  0  0  0  0  0
    6.1392   -0.2217   -1.6635 C   0  0  0  0  0  0  0  0  0  0  0  0
    6.6764   -1.4812   -1.4115 C   0  0  0  0  0  0  0  0  0  0  0  0
    7.5039   -2.0761   -2.3663 C   0  0  0  0  0  0  0  0  0  0  0  0
    7.7749   -1.3824   -3.5328 C   0  0  0  0  0  0  0  0  0  0  0  0
    7.2830   -0.1562   -3.8025 N   0  0  0  0  0  0  0  0  0  0  0  0
    6.4802    0.4004   -2.8578 C   0  0  0  0  0  0  0  0  0  0  0  0
   -1.0860    1.3716    1.1656 C   0  0  0  0  0  0  0  0  0  0  0  0
   -2.3917    1.8682    1.1014 C   0  0  0  0  0  0  0  0  0  0  0  0
   -6.5226    1.4282   -1.3782 C   0  0  0  0  0  0  0  0  0  0  0  0
   -6.0879    2.5035   -2.0548 F   0  0  0  0  0  0  0  0  0  0  0  0
   -9.2668   -0.4494   -3.7088 H   0  0  0  0  0  0  0  0  0  0  0  0
   -9.6809    1.1212   -4.4022 H   0  0  0  0  0  0  0  0  0  0  0  0
  -10.1893    0.7684   -2.7466 H   0  0  0  0  0  0  0  0  0  0  0  0
   -8.9879   -0.9253   -1.4584 H   0  0  0  0  0  0  0  0  0  0  0  0
   -7.8839   -1.6115    0.6052 H   0  0  0  0  0  0  0  0  0  0  0  0
   -6.3099   -1.1028    2.1338 H   0  0  0  0  0  0  0  0  0  0  0  0
   -3.7316   -0.4325   -1.0403 H   0  0  0  0  0  0  0  0  0  0  0  0
   -1.4310   -1.2965   -0.9224 H   0  0  0  0  0  0  0  0  0  0  0  0
    0.8922    0.2905    2.4490 H   0  0  0  0  0  0  0  0  0  0  0  0
    2.7606   -1.6176    1.2697 H   0  0  0  0  0  0  0  0  0  0  0  0
    2.3823   -1.8780    3.6059 H   0  0  0  0  0  0  0  0  0  0  0  0
    2.6434   -0.1807    3.9515 H   0  0  0  0  0  0  0  0  0  0  0  0
    4.6258   -1.4978    4.5903 H   0  0  0  0  0  0  0  0  0  0  0  0
    4.7527   -2.1633    2.9696 H   0  0  0  0  0  0  0  0  0  0  0  0
    5.7748    0.2397    3.9501 H   0  0  0  0  0  0  0  0  0  0  0  0
    5.4223    1.5347    1.9392 H   0  0  0  0  0  0  0  0  0  0  0  0
    4.0569    1.5044    3.0445 H   0  0  0  0  0  0  0  0  0  0  0  0
    3.2164    1.1842    0.7898 H   0  0  0  0  0  0  0  0  0  0  0  0
    4.5302   -1.2759    0.0743 H   0  0  0  0  0  0  0  0  0  0  0  0
    6.4986   -1.9927   -0.4712 H   0  0  0  0  0  0  0  0  0  0  0  0
    7.9410   -3.0501   -2.1934 H   0  0  0  0  0  0  0  0  0  0  0  0
    8.4241   -1.8035   -4.3003 H   0  0  0  0  0  0  0  0  0  0  0  0
    6.1130    1.3933   -3.1010 H   0  0  0  0  0  0  0  0  0  0  0  0
   -0.3481    1.9186    1.7426 H   0  0  0  0  0  0  0  0  0  0  0  0
   -2.6470    2.7717    1.6506 H   0  0  0  0  0  0  0  0  0  0  0  0
  1  2  1  0
  2  3  1  0
  3  4  2  0
  4  5  1  0
  5  6  2  0
  6  7  1  0
  6  8  1  0
  8  9  1  0
  9 10  2  0
  9 11  1  0
 11 12  2  0
 12 13  1  0
 13 14  2  0
 14 15  1  0
 15 16  2  0
 15 17  1  0
 17 18  1  0
 18 19  1  0
 19 20  1  0
 20 21  1  0
 21 22  1  0
 22 23  1  0
 23 24  1  0
 24 25  1  0
 25 26  2  0
 25 27  1  0
 27 28  2  0
 28 29  1  0
 29 30  2  0
 30 31  1  0
 31 32  2  0
 14 33  1  0
 33 34  2  0
  8 35  2  0
 35 36  1  0
 35  3  1  0
 34 11  1  0
 23 18  1  0
 32 27  1  0
  1 37  1  0
  1 38  1  0
  1 39  1  0
  4 40  1  0
  5 41  1  0
  7 42  1  0
 12 43  1  0
 13 44  1  0
 17 45  1  0
 18 46  1  6
 19 47  1  0
 19 48  1  0
 20 49  1  0
 20 50  1  0
 21 51  1  0
 22 52  1  0
 22 53  1  0
 23 54  1  0
 24 55  1  0
 28 56  1  0
 29 57  1  0
 30 58  1  0
 32 59  1  0
 33 60  1  0
 34 61  1  0
M  END
$$$$
