
     RDKit          3D

 61 64  0  0  0  0  0  0  0  0999 V2000
   -8.4541    1.7409    0.0137 C   0  0  0  0  0  0  0  0  0  0  0  0
   -7.3492    1.0852    0.6208 O   0  0  0  0  0  0  0  0  0  0  0  0
   -6.7659    0.0591   -0.0713 C   0  0  0  0  0  0  0  0  0  0  0  0
   -7.1177   -0.3517   -1.3610 C   0  0  0  0  0  0  0  0  0  0  0  0
   -6.4333   -1.4048   -1.9816 C   0  0  0  0  0  0  0  0  0  0  0  0
   -5.3963   -2.0514   -1.3121 C   0  0  0  0  0  0  0  0  0  0  0  0
   -4.7032   -3.0522   -1.9301 O   0  0  0  0  0  0  0  0  0  0  0  0
   -5.0453   -1.6512   -0.0235 C   0  0  0  0  0  0  0  0  0  0  0  0
   -3.9869   -2.3446    0.7197 C   0  0  0  0  0  0  0  0  0  0  0  0
   -4.2574   -3.4223    1.2439 O   0  0  0  0  0  0  0  0  0  0  0  0
   -2.6246   -1.7514    0.8439 C   0  0  0  0  0  0  0  0  0  0  0  0
   -2.2582   -0.5619    0.1984 C   0  0  0  0  0  0  0  0  0  0  0  0
   -0.9666   -0.0439    0.3536 C   0  0  0  0  0  0  0  0  0  0  0  0
   -0.0332   -0.7143    1.1538 C   0  0  0  0  0  0  0  0  0  0  0  0
    1.3484   -0.2011    1.3358 C   0  0  0  0  0  0  0  0  0  0  0  0
    2.2952   -0.9771    1.4208 O   0  0  0  0  0  0  0  0  0  0  0  0
    1.4867    1.1693    1.4127 N   0  0  0  0  0  0  0  0  0  0  0  0
    2.8013    1.8115    1.5472 C   0  0  2  0  0  0  0  0  0  0  0  0
    2.6688    3.2290    2.1232 C   0  0  0  0  0  0  0  0  0  0  0  0
    2.7666    4.2922    1.0395 C   0  0  0  0  0  0  0  0  0  0  0  0
    4.0339    4.2558    0.3190 N   0  0  0  0  0  0  0  0  0  0  0  0
    4.6264    2.9149    0.1939 C   0  0  0  0  0  0  0  0  0  0  0  0
    3.5875    1.7736    0.2016 C   0  0  0  0  0  0  0  0  0  0  0  0
    4.1824    0.4470    0.0021 N   0  0  0  0  0  0  0  0  0  0  0  0
    4.7562    0.0790   -1.1948 C   0  0  0  0  0  0  0  0  0  0  0  0
    4.9593    0.8605   -2.1162 O   0  0  0  0  0  0  0  0  0  0  0  0
    5.1093   -1.3596   -1.3559 C   0  0  0  0  0  0  0  0  0  0  0  0
    5.3589   -1.8350   -2.6455 C   0  0  0  0  0  0  0  0  0  0  0  0
    5.6930   -3.1684   -2.8002 C   0  0  0  0  0  0  0  0  0  0  0  0
    5.7952   -4.0358   -1.7735 N   0  0  0  0  0  0  0  0  0  0  0  0
    5.5611   -3.5433   -0.5401 C   0  0  0  0  0  0  0  0  0  0  0  0
    5.6744   -4.3914    0.4919 F   0  0  0  0  0  0  0  0  0  0  0  0
    5.2246   -2.2302   -0.2745 C   0  0  0  0  0  0  0  0  0  0  0  0
   -0.3857   -1.9152    1.7768 C   0  0  0  0  0  0  0  0  0  0  0  0
   -1.6781   -2.4264    1.6281 C   0  0  0  0  0  0  0  0  0  0  0  0
   -5.7262   -0.6036    0.5915 C   0  0  0  0  0  0  0  0  0  0  0  0
   -5.3673   -0.2074    1.8242 F   0  0  0  0  0  0  0  0  0  0  0  0
   -8.8082    2.5123    0.7049 H   0  0  0  0  0  0  0  0  0  0  0  0
   -9.2796    1.0429   -0.1585 H   0  0  0  0  0  0  0  0  0  0  0  0
   -8.1553    2.2387   -0.9144 H   0  0  0  0  0  0  0  0  0  0  0  0
   -7.9158    0.1322   -1.9159 H   0  0  0  0  0  0  0  0  0  0  0  0
   -6.7162   -1.6970   -2.9894 H   0  0  0  0  0  0  0  0  0  0  0  0
   -5.2050   -3.3732   -2.6986 H   0  0  0  0  0  0  0  0  0  0  0  0
   -2.9558   -0.0258   -0.4393 H   0  0  0  0  0  0  0  0  0  0  0  0
   -0.6968    0.8629   -0.1815 H   0  0  0  0  0  0  0  0  0  0  0  0
    0.6660    1.7576    1.3524 H   0  0  0  0  0  0  0  0  0  0  0  0
    3.3461    1.2153    2.2927 H   0  0  0  0  0  0  0  0  0  0  0  0
    1.7317    3.3447    2.6800 H   0  0  0  0  0  0  0  0  0  0  0  0
    3.4767    3.3955    2.8477 H   0  0  0  0  0  0  0  0  0  0  0  0
    2.6364    5.2863    1.4821 H   0  0  0  0  0  0  0  0  0  0  0  0
    1.9460    4.1653    0.3232 H   0  0  0  0  0  0  0  0  0  0  0  0
    4.7169    4.8854    0.7401 H   0  0  0  0  0  0  0  0  0  0  0  0
    5.2251    2.9013   -0.7217 H   0  0  0  0  0  0  0  0  0  0  0  0
    5.3331    2.7588    1.0200 H   0  0  0  0  0  0  0  0  0  0  0  0
    2.8924    1.9275   -0.6360 H   0  0  0  0  0  0  0  0  0  0  0  0
    3.7300   -0.2972    0.5356 H   0  0  0  0  0  0  0  0  0  0  0  0
    5.2911   -1.1817   -3.5108 H   0  0  0  0  0  0  0  0  0  0  0  0
    5.8928   -3.5853   -3.7833 H   0  0  0  0  0  0  0  0  0  0  0  0
    5.0729   -1.9264    0.7522 H   0  0  0  0  0  0  0  0  0  0  0  0
    0.3399   -2.4551    2.3829 H   0  0  0  0  0  0  0  0  0  0  0  0
   -1.9440   -3.3588    2.1251 H   0  0  0  0  0  0  0  0  0  0  0  0
  1  2  1  0
  2  3  1  0
  3  4  2  0
  4  5  1  0
  5  6  2  0
  6  7  1  0
  6  8  1  0
  8  9  1  0
  9 10  2  0
  9 11  1  0
 11 12  2  0
 12 13  1  0
 13 14  2  0
 14 15  1  0
 15 16  2  0
 15 17  1  0
 17 18  1  0
 18 19  1  0
 19 20  1  0
 20 21  1  0
 21 22  1  0
 22 23  1  0
 23 24  1  0
 24 25  1  0
 25 26  2  0
 25 27  1  0
 27 28  2  0
 28 29  1  0
 29 30  2  0
 30 31  1  0
 31 32  1  0
 31 33  2  0
 14 34  1  0
 34 35  2  0
  8 36  2  0
 36 37  1  0
 36  3  1  0
 35 11  1  0
 23 18  1  0
 33 27  1  0
  1 38  1  0
  1 39  1  0
  1 40  1  0
  4 41  1  0
  5 42  1  0
  7 43  1  0
 12 44  1  0
 13 45  1  0
 17 46  1  0
 18 47  1  1
 19 48  1  0
 19 49  1  0
 20 50  1  0
 20 51  1  0
 21 52  1  0
 22 53  1  0
 22 54  1  0
 23 55  1  0
 24 56  1  0
 28 57  1  0
 29 58  1  0
 33 59  1  0
 34 60  1  0
 35 61  1  0
M  END
$$$$
