REMARK SMILES Oc1nc2ccccc2n1C1CCN(Cc2ccc(-c3nc4ccncc4n3-c3ccncc3)cc2F)CC1
REMARK SMILES IDX 11 1 12 2 13 3 14 4 38 5 39 6 10 7 2 8 3 9 4 10 9 11 5 12
REMARK SMILES IDX 8 13 6 14 7 15 1 16 15 18 16 19 17 20 36 21 18 22 35 23
REMARK SMILES IDX 19 24 37 25 20 26 21 27 28 28 22 29 27 30 23 31 26 32 24 33
REMARK SMILES IDX 25 34 29 35 30 36 34 37 31 38 33 39 32 40
REMARK H PARENT 1 17
ROOT
ATOM      1  C   UNL     1      -4.147  -0.362  -0.067  1.00  0.00     0.095 C 
ATOM      2  C   UNL     1      -4.071  -1.850  -0.451  1.00  0.00     0.041 C 
ATOM      3  C   UNL     1      -2.785  -2.226  -1.189  1.00  0.00     0.087 C 
ATOM      4  N   UNL     1      -1.543  -1.736  -0.581  1.00  0.00    -0.299 NA
ATOM      5  C   UNL     1      -1.720  -0.706   0.443  1.00  0.00     0.087 C 
ATOM      6  C   UNL     1      -2.770   0.307   0.002  1.00  0.00     0.041 C 
ENDROOT
BRANCH   1   7
ATOM      7  N   UNL     1      -5.097   0.414  -0.856  1.00  0.00    -0.291 N 
ATOM      8  C   UNL     1      -5.078   0.609  -2.211  1.00  0.00     0.295 A 
ATOM      9  N   UNL     1      -6.047   1.371  -2.639  1.00  0.00    -0.195 NA
ATOM     10  C   UNL     1      -6.747   1.704  -1.505  1.00  0.00     0.092 A 
ATOM     11  C   UNL     1      -6.187   1.112  -0.369  1.00  0.00     0.072 A 
ATOM     12  C   UNL     1      -7.885   2.516  -1.376  1.00  0.00     0.031 A 
ATOM     13  C   UNL     1      -6.728   1.294   0.914  1.00  0.00     0.029 A 
ATOM     14  C   UNL     1      -8.435   2.712  -0.103  1.00  0.00     0.002 A 
ATOM     15  C   UNL     1      -7.864   2.108   1.020  1.00  0.00     0.002 A 
BRANCH   8  16
ATOM     16  O   UNL     1      -4.198   0.087  -3.038  1.00  0.00    -0.480 OA
ATOM     17  H   UNL     1      -4.511   0.433  -3.895  1.00  0.00     0.296 HD
ENDBRANCH   8  16
ENDBRANCH   1   7
BRANCH   4  18
ATOM     18  C   UNL     1      -0.644  -2.825  -0.162  1.00  0.00     0.123 C 
BRANCH  18  19
ATOM     19  C   UNL     1       0.775  -2.363   0.077  1.00  0.00     0.002 A 
ATOM     20  C   UNL     1       1.470  -1.640  -0.904  1.00  0.00     0.009 A 
ATOM     21  C   UNL     1       1.436  -2.670   1.269  1.00  0.00     0.128 A 
ATOM     22  C   UNL     1       2.778  -1.205  -0.675  1.00  0.00     0.012 A 
ATOM     23  C   UNL     1       2.742  -2.247   1.504  1.00  0.00     0.051 A 
ATOM     24  C   UNL     1       3.416  -1.486   0.541  1.00  0.00     0.021 A 
ATOM     25  F   UNL     1       0.808  -3.375   2.222  1.00  0.00    -0.207 F 
BRANCH  24  26
ATOM     26  C   UNL     1       4.785  -1.034   0.803  1.00  0.00     0.145 A 
ATOM     27  N   UNL     1       5.767  -1.870   1.080  1.00  0.00    -0.228 NA
ATOM     28  N   UNL     1       5.256   0.283   0.712  1.00  0.00    -0.291 N 
ATOM     29  C   UNL     1       6.909  -1.122   1.108  1.00  0.00     0.093 A 
ATOM     30  C   UNL     1       6.633   0.222   0.891  1.00  0.00     0.092 A 
ATOM     31  C   UNL     1       8.220  -1.543   1.330  1.00  0.00     0.051 A 
ATOM     32  C   UNL     1       7.644   1.173   0.964  1.00  0.00     0.139 A 
ATOM     33  C   UNL     1       9.179  -0.547   1.338  1.00  0.00     0.113 A 
ATOM     34  N   UNL     1       8.919   0.768   1.170  1.00  0.00    -0.262 NA
BRANCH  28  35
ATOM     35  C   UNL     1       4.488   1.465   0.500  1.00  0.00     0.051 A 
ATOM     36  C   UNL     1       3.230   1.608   1.091  1.00  0.00     0.047 A 
ATOM     37  C   UNL     1       4.980   2.492  -0.308  1.00  0.00     0.047 A 
ATOM     38  C   UNL     1       2.520   2.773   0.850  1.00  0.00     0.113 A 
ATOM     39  C   UNL     1       4.189   3.616  -0.490  1.00  0.00     0.113 A 
ATOM     40  N   UNL     1       2.974   3.778   0.072  1.00  0.00    -0.265 NA
ENDBRANCH  28  35
ENDBRANCH  24  26
ENDBRANCH  18  19
ENDBRANCH   4  18
TORSDOF 6
