REMARK SMILES Cc1cn(C)nc1C(=O)Nc1ccc(-c2ccc(CN3CCC(n4c(O)nc5ccccc54)CC3)c(F)c2)nc1
REMARK SMILES IDX 15 1 16 2 17 3 18 4 36 5 37 6 38 7 14 8 11 9 12 10 40 11
REMARK SMILES IDX 13 12 39 13 10 14 8 15 9 16 7 18 2 19 3 20 4 21 6 22 1 23
REMARK SMILES IDX 5 24 19 25 20 26 21 27 35 28 22 29 34 30 23 31 24 32 25 33
REMARK SMILES IDX 33 34 27 35 32 36 28 37 31 38 29 39 30 40 26 41
REMARK H PARENT 10 17 26 42
ROOT
ATOM      1  C   UNL     1       1.479  -0.044  -1.237  1.00  0.00     0.003 A 
ATOM      2  C   UNL     1       0.683  -1.201  -1.329  1.00  0.00     0.011 A 
ATOM      3  C   UNL     1      -0.680  -1.131  -1.650  1.00  0.00     0.009 A 
ATOM      4  C   UNL     1      -1.293   0.106  -1.883  1.00  0.00     0.002 A 
ATOM      5  C   UNL     1      -0.513   1.258  -1.768  1.00  0.00     0.128 A 
ATOM      6  F   UNL     1      -1.059   2.460  -2.001  1.00  0.00    -0.207 F 
ATOM      7  C   UNL     1       0.843   1.191  -1.449  1.00  0.00     0.050 A 
ENDROOT
BRANCH   1   8
ATOM      8  C   UNL     1       2.924  -0.106  -0.938  1.00  0.00     0.070 A 
ATOM      9  C   UNL     1       5.643  -0.086  -0.328  1.00  0.00     0.060 A 
ATOM     10  C   UNL     1       5.110  -1.131  -1.071  1.00  0.00     0.030 A 
ATOM     11  C   UNL     1       4.752   0.909   0.070  1.00  0.00     0.137 A 
ATOM     12  C   UNL     1       3.744  -1.145  -1.376  1.00  0.00     0.031 A 
ATOM     13  N   UNL     1       3.427   0.927  -0.218  1.00  0.00    -0.254 NA
BRANCH   9  14
ATOM     14  N   UNL     1       6.996   0.020   0.047  1.00  0.00    -0.319 N 
ATOM     15  C   UNL     1       8.050  -0.775  -0.385  1.00  0.00     0.276 C 
ATOM     16  O   UNL     1       7.971  -1.692  -1.194  1.00  0.00    -0.267 OA
ATOM     17  H   UNL     1       7.255   0.820   0.613  1.00  0.00     0.170 HD
BRANCH  15  18
ATOM     18  C   UNL     1       9.331  -0.390   0.238  1.00  0.00     0.153 A 
ATOM     19  C   UNL     1       9.637  -0.311   1.635  1.00  0.00     0.000 A 
ATOM     20  C   UNL     1      10.950   0.110   1.681  1.00  0.00     0.112 A 
ATOM     21  N   UNL     1      11.356   0.235   0.387  1.00  0.00    -0.275 N 
ATOM     22  N   UNL     1      10.393  -0.036  -0.506  1.00  0.00    -0.168 NA
ATOM     23  C   UNL     1       8.756  -0.642   2.781  1.00  0.00     0.048 C 
ATOM     24  C   UNL     1      12.667   0.617  -0.081  1.00  0.00     0.173 C 
ENDBRANCH  15  18
ENDBRANCH   9  14
ENDBRANCH   1   8
BRANCH   4  25
ATOM     25  C   UNL     1      -2.748   0.195  -2.277  1.00  0.00     0.123 C 
BRANCH  25  26
ATOM     26  N   UNL     1      -3.644   0.587  -1.178  1.00  0.00    -0.299 NA
ATOM     27  C   UNL     1      -4.917   1.091  -1.704  1.00  0.00     0.087 C 
ATOM     28  C   UNL     1      -3.793  -0.451  -0.149  1.00  0.00     0.087 C 
ATOM     29  C   UNL     1      -5.828   1.550  -0.567  1.00  0.00     0.041 C 
ATOM     30  C   UNL     1      -5.239  -0.817   0.187  1.00  0.00     0.041 C 
ATOM     31  C   UNL     1      -6.089   0.430   0.453  1.00  0.00     0.095 C 
BRANCH  31  32
ATOM     32  N   UNL     1      -7.503   0.087   0.576  1.00  0.00    -0.291 N 
ATOM     33  C   UNL     1      -8.327  -0.338  -0.433  1.00  0.00     0.295 A 
ATOM     34  C   UNL     1      -8.257   0.094   1.731  1.00  0.00     0.072 A 
ATOM     35  N   UNL     1      -9.541  -0.600  -0.036  1.00  0.00    -0.195 NA
ATOM     36  C   UNL     1      -7.984   0.424   3.067  1.00  0.00     0.029 A 
ATOM     37  C   UNL     1      -9.519  -0.338   1.312  1.00  0.00     0.092 A 
ATOM     38  C   UNL     1      -9.034   0.307   3.985  1.00  0.00     0.002 A 
ATOM     39  C   UNL     1     -10.559  -0.445   2.250  1.00  0.00     0.031 A 
ATOM     40  C   UNL     1     -10.303  -0.116   3.588  1.00  0.00     0.002 A 
BRANCH  33  41
ATOM     41  O   UNL     1      -7.967  -0.477  -1.694  1.00  0.00    -0.480 OA
ATOM     42  H   UNL     1      -8.811  -0.756  -2.095  1.00  0.00     0.296 HD
ENDBRANCH  33  41
ENDBRANCH  31  32
ENDBRANCH  25  26
ENDBRANCH   4  25
TORSDOF 7
