REMARK SMILES COc1ccc(O)c(C(=O)c2ccc(Nc3nc4c(s3)CCC[C@@H]4C(=O)N3CCOCC3)cc2F)c1N
REMARK SMILES IDX 11 1 12 2 13 3 14 4 33 5 34 6 35 7 9 8 10 9 8 10 3 11 4 12
REMARK SMILES IDX 36 13 5 14 6 15 2 16 1 17 37 18 7 21 15 23 16 25 17 26 20 27
REMARK SMILES IDX 18 28 19 29 24 30 21 31 23 32 22 33 25 34 27 35 28 36 32 37
REMARK SMILES IDX 29 38 31 39 30 40 26 41
REMARK H PARENT 37 19 37 20 7 22 15 24
ROOT
ATOM      1  C   UNL     1       3.599  -1.410   1.635  1.00  0.00     0.059 A 
ATOM      2  C   UNL     1       2.725  -2.102   2.477  1.00  0.00     0.017 A 
ATOM      3  C   UNL     1       1.348  -2.089   2.227  1.00  0.00     0.027 A 
ATOM      4  C   UNL     1       0.811  -1.397   1.129  1.00  0.00     0.043 A 
ATOM      5  C   UNL     1       1.704  -0.761   0.261  1.00  0.00     0.066 A 
ATOM      6  C   UNL     1       3.080  -0.772   0.511  1.00  0.00     0.136 A 
ATOM      7  F   UNL     1       3.880  -0.143  -0.363  1.00  0.00    -0.206 F 
ENDROOT
BRANCH   1   8
ATOM      8  C   UNL     1       5.045  -1.429   1.955  1.00  0.00     0.201 C 
ATOM      9  O   UNL     1       5.502  -2.405   2.554  1.00  0.00    -0.288 OA
BRANCH   8  10
ATOM     10  C   UNL     1       5.966  -0.322   1.583  1.00  0.00     0.091 A 
ATOM     11  C   UNL     1       8.112   0.413   0.746  1.00  0.00     0.142 A 
ATOM     12  C   UNL     1       7.749   1.747   0.937  1.00  0.00     0.052 A 
ATOM     13  C   UNL     1       7.261  -0.641   1.122  1.00  0.00     0.089 A 
ATOM     14  C   UNL     1       6.493   2.053   1.456  1.00  0.00     0.051 A 
ATOM     15  C   UNL     1       5.606   1.024   1.776  1.00  0.00     0.129 A 
BRANCH  11  16
ATOM     16  O   UNL     1       9.377   0.121   0.286  1.00  0.00    -0.495 OA
ATOM     17  C   UNL     1       9.422   0.273  -1.133  1.00  0.00     0.278 C 
ENDBRANCH  11  16
BRANCH  13  18
ATOM     18  N   UNL     1       7.661  -1.979   0.853  1.00  0.00    -0.395 N 
ATOM     19  H   UNL     1       8.675  -2.060   0.900  1.00  0.00     0.156 HD
ATOM     20  H   UNL     1       7.205  -2.617   1.512  1.00  0.00     0.156 HD
ENDBRANCH  13  18
BRANCH  15  21
ATOM     21  O   UNL     1       4.380   1.347   2.303  1.00  0.00    -0.507 OA
ATOM     22  H   UNL     1       4.244   2.308   2.226  1.00  0.00     0.293 HD
ENDBRANCH  15  21
ENDBRANCH   8  10
ENDBRANCH   1   8
BRANCH   4  23
ATOM     23  N   UNL     1      -0.585  -1.445   0.944  1.00  0.00    -0.331 N 
ATOM     24  H   UNL     1      -1.101  -1.407   1.815  1.00  0.00     0.169 HD
BRANCH  23  25
ATOM     25  C   UNL     1      -1.346  -1.192  -0.146  1.00  0.00     0.187 A 
ATOM     26  N   UNL     1      -2.609  -0.830  -0.017  1.00  0.00    -0.224 NA
ATOM     27  S   UNL     1      -0.858  -1.450  -1.790  1.00  0.00    -0.102 S 
ATOM     28  C   UNL     1      -3.194  -0.651  -1.257  1.00  0.00     0.069 A 
ATOM     29  C   UNL     1      -2.400  -0.999  -2.327  1.00  0.00     0.031 A 
ATOM     30  C   UNL     1      -4.631  -0.238  -1.396  1.00  0.00     0.129 C 
ATOM     31  C   UNL     1      -2.839  -1.001  -3.750  1.00  0.00     0.049 C 
ATOM     32  C   UNL     1      -5.080  -0.179  -2.884  1.00  0.00     0.020 C 
ATOM     33  C   UNL     1      -4.365  -1.197  -3.790  1.00  0.00     0.007 C 
BRANCH  30  34
ATOM     34  C   UNL     1      -4.851   1.153  -0.790  1.00  0.00     0.231 C 
ATOM     35  N   UNL     1      -5.898   1.328   0.106  1.00  0.00    -0.337 N 
ATOM     36  C   UNL     1      -6.268   2.683   0.525  1.00  0.00     0.148 C 
ATOM     37  C   UNL     1      -6.760   0.264   0.631  1.00  0.00     0.148 C 
ATOM     38  C   UNL     1      -7.792   2.810   0.600  1.00  0.00     0.181 C 
ATOM     39  C   UNL     1      -7.597   0.745   1.823  1.00  0.00     0.181 C 
ATOM     40  O   UNL     1      -8.397   1.898   1.530  1.00  0.00    -0.378 OA
ATOM     41  O   UNL     1      -4.163   2.111  -1.160  1.00  0.00    -0.274 OA
ENDBRANCH  30  34
ENDBRANCH  23  25
ENDBRANCH   4  23
TORSDOF 8
