MODEL        1USER    Run = 1USERUSER    Estimated Free Energy of Binding    =  -6.30 kcal/mol  [=(1)+(2)+(3)-(4)]USERUSER    (1) Final Intermolecular Energy     =  -9.29 kcal/molUSER        vdW + Hbond + desolv Energy     = -10.14 kcal/molUSER        Electrostatic Energy            =  -0.12 kcal/molUSER        Moving Ligand-Fixed Receptor    = -10.27 kcal/molUSER        Moving Ligand-Moving Receptor   =  +0.98 kcal/molUSER    (2) Final Total Internal Energy     =  -2.03 kcal/molUSER    (3) Torsional Free Energy           =  +2.98 kcal/molUSER    (4) Unbound System's Energy         =  -2.03 kcal/molUSERUSERREMARK SMILES N[C@H]1C[C@H]1Nc1c(Br)cc(Br)cc1[C@H]1CCCNc2ccccc2C1REMARK SMILES IDX 14 1 13 2 6 3 7 4 9 5 12 6 10 7 8 8 11 9 5 10 4 12 2 13 3 14REMARK SMILES IDX 1 15 15 18 25 20 24 21 23 22 19 23 22 24 20 25 21 26 18 27REMARK SMILES IDX 17 29 16 30REMARK H PARENT 5 11 1 16 1 17 18 28REMARK Flexibility Score:   44.900USER                              x       y       z     vdW  Elec       q    TypeUSER                           _______ _______ _______ _____ _____    ______ ____ROOTATOM      1  C   UNL     1      14.293 -14.344 -10.887 -0.35 -0.01    +0.026 C  ENDROOTBRANCH   1   2ATOM      2  C   UNL     1      13.318 -13.692 -11.880 -0.30 +0.01    -0.019 A  ATOM      3  C   UNL     1      13.236 -14.096 -13.239 -0.27 -0.02    +0.052 A  ATOM      4  C   UNL     1      12.351 -13.414 -14.106 -0.32 -0.02    +0.042 A  ATOM      5  C   UNL     1      11.518 -12.397 -13.639 -0.31 -0.02    +0.033 A  ATOM      6  C   UNL     1      12.449 -12.676 -11.429 -0.34 -0.01    +0.022 A  ATOM      7  C   UNL     1      11.565 -12.041 -12.299 -0.42 -0.01    +0.019 A  ATOM      8  Br  UNL     1      12.198 -13.875 -15.949 -0.58 +0.03    -0.049 Br ATOM      9  Br  UNL     1      10.421 -10.684 -11.648 -1.06 +0.01    -0.051 Br BRANCH   3  10ATOM     10  N   UNL     1      14.089 -15.112 -13.753 -0.08 +0.16    -0.380 N  ATOM     11  H   UNL     1      14.642 -14.758 -14.532 -0.37 -0.12    +0.160 HD BRANCH  10  12ATOM     12  C   UNL     1      13.440 -16.396 -14.113 -0.27 -0.02    +0.097 C  ATOM     13  C   UNL     1      13.827 -17.064 -15.415 -0.38 -0.01    +0.075 C  ATOM     14  C   UNL     1      14.224 -17.676 -14.106 -0.39 -0.01    +0.047 C  BRANCH  13  15ATOM     15  N   UNL     1      14.853 -16.435 -16.261 -0.25 +0.03    -0.326 NA ATOM     16  H   UNL     1      15.743 -16.406 -15.762 -0.42 -0.04    +0.119 HD ATOM     17  H   UNL     1      14.611 -15.455 -16.422 -0.05 -0.04    +0.119 HD ENDBRANCH  13  15ENDBRANCH  10  12ENDBRANCH   3  10ENDBRANCH   1   2BRANCH   1  18ATOM     18  C   UNL     1      15.729 -14.423 -11.440 -0.43 -0.00    +0.010 CG0ATOM     19  G   UNL     1      16.706 -15.241 -10.592 +0.00 +0.00    +0.000 G0 ENDBRANCH   1  18BRANCH   1  20ATOM     20  C   UNL     1      14.133 -13.726  -9.482 -0.36 -0.03    +0.046 C  BRANCH  20  21ATOM     21  C   UNL     1      15.008 -12.534  -9.158 -0.38 +0.01    -0.024 A  ATOM     22  C   UNL     1      14.385 -11.267  -9.274 -0.23 -0.00    +0.006 A  ATOM     23  C   UNL     1      16.360 -12.601  -8.759 -0.37 -0.01    +0.037 A  ATOM     24  C   UNL     1      15.075 -10.082  -9.038 -0.56 -0.00    +0.000 A  ATOM     25  C   UNL     1      17.038 -11.377  -8.561 -0.43 -0.00    +0.026 A  ATOM     26  C   UNL     1      16.410 -10.136  -8.685 -0.58 -0.00    +0.002 A  BRANCH  23  27ATOM     27  N   UNL     1      17.157 -13.743  -8.667 -0.11 +0.06    -0.385 N  ATOM     28  H   UNL     1      16.821 -14.380  -7.949 +0.09 -0.03    +0.160 HD BRANCH  27  29ATOM     29  C   UNL     1      17.749 -14.448  -9.787 -0.23 -0.01    +0.113 C  BRANCH  29  30ATOM     30  C   UNL     1      16.714 -15.235 -10.587 -0.40 -0.00    +0.022 CG0ATOM     31  G   UNL     1      15.734 -14.420 -11.434 +0.00 +0.00    +0.000 G0 ENDBRANCH  29  30ENDBRANCH  27  29ENDBRANCH  23  27ENDBRANCH  20  21ENDBRANCH   1  20TORSDOF 4TERENDMDL