MODEL        10USER    Run = 10USERUSER    Estimated Free Energy of Binding    =  -8.79 kcal/mol  [=(1)+(2)+(3)-(4)]USERUSER    (1) Final Intermolecular Energy     = -10.88 kcal/molUSER        vdW + Hbond + desolv Energy     = -10.66 kcal/molUSER        Electrostatic Energy            =  -0.23 kcal/molUSER        Moving Ligand-Fixed Receptor    = -10.88 kcal/molUSER        Moving Ligand-Moving Receptor   =  +0.00 kcal/molUSER    (2) Final Total Internal Energy     =  -1.18 kcal/molUSER    (3) Torsional Free Energy           =  +2.09 kcal/molUSER    (4) Unbound System's Energy         =  -1.18 kcal/molUSERUSERREMARK SMILES Cc1cc(Nc2ncc(Cl)c(N[C@H]3CC[CH]C[C@H]3O)n2)ccc1C(=O)OREMARK SMILES IDX 6 1 7 2 8 3 9 4 10 5 11 6 20 7 5 8 4 10 2 11 3 12 23 13REMARK SMILES IDX 22 14 21 15 1 16 24 17 25 18 26 19 12 21 13 23 14 24 18 25REMARK SMILES IDX 15 26 17 27 16 28 19 29REMARK H PARENT 5 9 26 20 12 22 19 30USER                              x       y       z     vdW  Elec       q    TypeUSER                           _______ _______ _______ _____ _____    ______ ____ROOTATOM      1  C   UNL     1      15.959 -13.986 -10.504 -0.21 -0.06    +0.229 A  ATOM      2  N   UNL     1      16.472 -15.183 -10.197 -0.21 +0.04    -0.220 NA ATOM      3  C   UNL     1      16.140 -16.214 -10.999 -0.19 -0.02    +0.139 A  ATOM      4  C   UNL     1      15.298 -16.108 -12.081 -0.26 -0.03    +0.101 A  ATOM      5  Cl  UNL     1      15.002 -17.490 -13.058 -0.55 +0.02    -0.079 Cl ATOM      6  C   UNL     1      14.786 -14.842 -12.313 -0.25 -0.05    +0.150 A  ATOM      7  N   UNL     1      15.127 -13.788 -11.541 -0.22 +0.07    -0.194 NA ENDROOTBRANCH   1   8ATOM      8  N   UNL     1      16.245 -12.845  -9.761 -0.16 +0.09    -0.324 N  ATOM      9  H   UNL     1      16.548 -12.116 -10.389 +0.11 -0.04    +0.170 HD BRANCH   8  10ATOM     10  C   UNL     1      16.233 -12.543  -8.395 -0.38 -0.01    +0.041 A  ATOM     11  C   UNL     1      17.203 -12.975  -6.163 -0.40 +0.00    -0.035 A  ATOM     12  C   UNL     1      17.140 -13.212  -7.552 -0.37 -0.00    +0.030 A  ATOM     13  C   UNL     1      16.347 -12.008  -5.609 -0.46 -0.01    +0.062 A  ATOM     14  C   UNL     1      15.429 -11.346  -6.435 -0.51 -0.01    +0.018 A  ATOM     15  C   UNL     1      15.378 -11.611  -7.809 -0.43 -0.01    +0.027 A  ATOM     16  C   UNL     1      18.190 -13.765  -5.349 -0.51 +0.01    +0.045 C  BRANCH  13  17ATOM     17  C   UNL     1      16.318 -11.629  -4.173 -0.28 -0.01    +0.335 C  ATOM     18  O   UNL     1      17.229 -11.102  -3.562 -1.04 -0.05    -0.246 OA BRANCH  17  19ATOM     19  O   UNL     1      15.188 -11.998  -3.547 -0.74 +0.02    -0.478 OA ATOM     20  H   UNL     1      14.711 -11.152  -3.413 -0.29 -0.16    +0.297 HD ENDBRANCH  17  19ENDBRANCH  13  17ENDBRANCH   8  10ENDBRANCH   1   8BRANCH   6  21ATOM     21  N   UNL     1      13.912 -14.513 -13.346 -0.10 +0.16    -0.363 N  ATOM     22  H   UNL     1      14.363 -13.760 -13.873 -0.51 -0.12    +0.162 HD BRANCH  21  23ATOM     23  C   UNL     1      12.537 -14.095 -13.009 -0.26 -0.04    +0.109 C  ATOM     24  C   UNL     1      12.507 -12.729 -12.298 -0.39 -0.01    +0.028 C  ATOM     25  C   UNL     1      11.728 -14.027 -14.337 -0.24 -0.06    +0.137 C  ATOM     26  C   UNL     1      11.076 -12.263 -12.028 -0.49 -0.00    +0.006 C  ATOM     27  C   UNL     1      10.283 -13.574 -14.099 -0.28 -0.02    +0.037 C  ATOM     28  C   UNL     1      10.211 -12.344 -13.242 -0.37 +0.00    -0.005 C  BRANCH  25  29ATOM     29  O   UNL     1      12.370 -13.135 -15.270 -0.23 +0.30    -0.391 OA ATOM     30  H   UNL     1      13.268 -13.474 -15.431 -0.44 -0.21    +0.211 HD ENDBRANCH  25  29ENDBRANCH  21  23ENDBRANCH   6  21TORSDOF 7TERENDMDL