MODEL        9USER    Run = 9USERUSER    Estimated Free Energy of Binding    =  -7.71 kcal/mol  [=(1)+(2)+(3)-(4)]USERUSER    (1) Final Intermolecular Energy     =  -9.20 kcal/molUSER        vdW + Hbond + desolv Energy     =  -9.07 kcal/molUSER        Electrostatic Energy            =  -0.13 kcal/molUSER        Moving Ligand-Fixed Receptor    =  -9.20 kcal/molUSER        Moving Ligand-Moving Receptor   =  +0.00 kcal/molUSER    (2) Final Total Internal Energy     =  -0.53 kcal/molUSER    (3) Torsional Free Energy           =  +1.49 kcal/molUSER    (4) Unbound System's Energy         =  -0.53 kcal/molUSERUSERREMARK SMILES CC(C)C(F)(F)NC(=O)Nc1ccc(-c2nc3ccccc3[nH]2)cc1CFREMARK SMILES IDX 7 1 8 2 9 3 10 4 4 7 5 8 6 9 2 10 1 11 3 12 11 13 12 14REMARK SMILES IDX 25 15 13 16 24 17 14 18 26 19 27 20 15 21 16 22 23 23 17 24REMARK SMILES IDX 22 25 18 26 21 27 19 28 20 29REMARK H PARENT 7 5 10 6 23 30USER                              x       y       z     vdW  Elec       q    TypeUSER                           _______ _______ _______ _____ _____    ______ ____ROOTATOM      1  N   UNL     1      14.223 -15.752 -15.465 -0.22 +0.10    -0.279 N  ATOM      2  C   UNL     1      14.998 -16.113 -14.387 -0.18 -0.13    +0.323 C  ATOM      3  O   UNL     1      15.504 -17.216 -14.248 -0.30 +0.07    -0.248 OA ATOM      4  N   UNL     1      15.117 -15.046 -13.517 -0.21 +0.14    -0.307 N  ATOM      5  H   UNL     1      13.452 -15.172 -15.190 -0.04 -0.07    +0.171 HD ATOM      6  H   UNL     1      14.836 -14.147 -13.894 -0.47 -0.12    +0.171 HD ENDROOTBRANCH   1   7ATOM      7  C   UNL     1      13.875 -16.755 -16.429 -0.26 +0.02    +0.329 C  ATOM      8  F   UNL     1      14.935 -16.983 -17.242 -0.15 -0.06    -0.183 F  ATOM      9  F   UNL     1      12.847 -16.318 -17.198 -0.12 -0.05    -0.183 F  BRANCH   7  10ATOM     10  C   UNL     1      13.445 -18.081 -15.776 -0.37 +0.00    +0.076 C  ATOM     11  C   UNL     1      12.102 -17.908 -15.060 -0.28 -0.00    +0.016 C  ATOM     12  C   UNL     1      13.334 -19.225 -16.787 -0.50 +0.00    +0.016 C  ENDBRANCH   7  10ENDBRANCH   1   7BRANCH   4  13ATOM     13  C   UNL     1      15.748 -15.005 -12.256 -0.39 -0.02    +0.048 A  ATOM     14  C   UNL     1      16.910 -14.260 -12.027 -0.47 -0.01    +0.027 A  ATOM     15  C   UNL     1      15.204 -15.757 -11.198 -0.30 -0.00    +0.007 A  ATOM     16  C   UNL     1      17.523 -14.237 -10.767 -0.41 -0.00    +0.014 A  ATOM     17  C   UNL     1      15.833 -15.719  -9.935 -0.32 -0.00    +0.020 A  ATOM     18  C   UNL     1      16.990 -14.963  -9.700 -0.36 -0.00    +0.018 A  BRANCH  15  19ATOM     19  C   UNL     1      13.961 -16.603 -11.318 -0.23 -0.06    +0.252 C  ATOM     20  F   UNL     1      14.202 -17.925 -11.571 -0.07 +0.04    -0.246 F  ENDBRANCH  15  19BRANCH  18  21ATOM     21  C   UNL     1      17.589 -14.972  -8.359 -0.30 -0.01    +0.138 A  ATOM     22  N   UNL     1      18.243 -15.983  -7.815 -0.26 -0.01    -0.229 NA ATOM     23  N   UNL     1      17.538 -13.918  -7.473 -0.17 +0.03    -0.338 N  ATOM     24  C   UNL     1      18.625 -15.568  -6.564 -0.39 +0.01    +0.089 A  ATOM     25  C   UNL     1      18.193 -14.272  -6.323 -0.39 +0.00    +0.066 A  ATOM     26  C   UNL     1      19.345 -16.248  -5.572 -0.41 +0.01    +0.030 A  ATOM     27  C   UNL     1      18.438 -13.591  -5.128 -0.48 +0.01    +0.028 A  ATOM     28  C   UNL     1      19.607 -15.590  -4.363 -0.54 +0.00    +0.002 A  ATOM     29  C   UNL     1      19.159 -14.284  -4.148 -0.59 +0.00    +0.002 A  ATOM     30  H   UNL     1      17.089 -13.031  -7.637 +0.11 -0.03    +0.168 HD ENDBRANCH  18  21ENDBRANCH   4  13TORSDOF 5TERENDMDL