REMARK SMILES Cc1cc(Nc2ncc(Cl)c(N[C@H]3CC[CH]C[C@H]3O)n2)ccc1C(=O)O
REMARK SMILES IDX 6 1 7 2 8 3 9 4 10 5 11 6 20 7 5 8 4 10 2 11 3 12 23 13
REMARK SMILES IDX 22 14 21 15 1 16 24 17 25 18 26 19 12 21 13 23 14 24 18 25
REMARK SMILES IDX 15 26 17 27 16 28 19 29
REMARK H PARENT 5 9 26 20 12 22 19 30
ROOT
ATOM      1  C   UNL     1       0.563   1.175   0.029  1.00  0.00     0.229 A 
ATOM      2  N   UNL     1       0.640   2.097  -0.938  1.00  0.00    -0.220 NA
ATOM      3  C   UNL     1      -0.473   2.815  -1.188  1.00  0.00     0.139 A 
ATOM      4  C   UNL     1      -1.668   2.637  -0.532  1.00  0.00     0.101 A 
ATOM      5  Cl  UNL     1      -2.996   3.660  -0.906  1.00  0.00    -0.079 Cl
ATOM      6  C   UNL     1      -1.673   1.644   0.434  1.00  0.00     0.150 A 
ATOM      7  N   UNL     1      -0.563   0.931   0.722  1.00  0.00    -0.194 NA
ENDROOT
BRANCH   1   8
ATOM      8  N   UNL     1       1.651   0.386   0.389  1.00  0.00    -0.324 N 
ATOM      9  H   UNL     1       1.376  -0.218   1.149  1.00  0.00     0.170 HD
BRANCH   8  10
ATOM     10  C   UNL     1       2.978   0.301  -0.043  1.00  0.00     0.041 A 
ATOM     11  C   UNL     1       5.182  -0.788   0.215  1.00  0.00    -0.035 A 
ATOM     12  C   UNL     1       3.829  -0.630   0.582  1.00  0.00     0.030 A 
ATOM     13  C   UNL     1       5.687  -0.007  -0.838  1.00  0.00     0.062 A 
ATOM     14  C   UNL     1       4.854   0.934  -1.458  1.00  0.00     0.018 A 
ATOM     15  C   UNL     1       3.518   1.081  -1.065  1.00  0.00     0.027 A 
ATOM     16  C   UNL     1       6.012  -1.792   0.966  1.00  0.00     0.045 C 
BRANCH  13  17
ATOM     17  C   UNL     1       7.077  -0.082  -1.355  1.00  0.00     0.335 C 
ATOM     18  O   UNL     1       7.692   0.835  -1.867  1.00  0.00    -0.246 OA
BRANCH  17  19
ATOM     19  O   UNL     1       7.606  -1.315  -1.286  1.00  0.00    -0.478 OA
ATOM     20  H   UNL     1       8.486  -1.213  -1.704  1.00  0.00     0.297 HD
ENDBRANCH  17  19
ENDBRANCH  13  17
ENDBRANCH   8  10
ENDBRANCH   1   8
BRANCH   6  21
ATOM     21  N   UNL     1      -2.774   1.292   1.210  1.00  0.00    -0.363 N 
ATOM     22  H   UNL     1      -2.439   0.599   1.885  1.00  0.00     0.162 HD
BRANCH  21  23
ATOM     23  C   UNL     1      -3.976   0.756   0.541  1.00  0.00     0.109 C 
ATOM     24  C   UNL     1      -3.639  -0.419  -0.396  1.00  0.00     0.028 C 
ATOM     25  C   UNL     1      -4.964   0.292   1.650  1.00  0.00     0.137 C 
ATOM     26  C   UNL     1      -4.896  -1.023  -1.021  1.00  0.00     0.006 C 
ATOM     27  C   UNL     1      -6.243  -0.308   1.056  1.00  0.00     0.037 C 
ATOM     28  C   UNL     1      -5.948  -1.327  -0.005  1.00  0.00    -0.005 C 
BRANCH  25  29
ATOM     29  O   UNL     1      -4.330  -0.671   2.515  1.00  0.00    -0.391 OA
ATOM     30  H   UNL     1      -4.356  -1.534   2.066  1.00  0.00     0.211 HD
ENDBRANCH  25  29
ENDBRANCH  21  23
ENDBRANCH   6  21
TORSDOF 7
