REMARK SMILES CC(C)C(F)(F)NC(=O)Nc1ccc(-c2nc3ccccc3[nH]2)cc1CF
REMARK SMILES IDX 7 1 8 2 9 3 10 4 4 7 5 8 6 9 2 10 1 11 3 12 11 13 12 14
REMARK SMILES IDX 25 15 13 16 24 17 14 18 26 19 27 20 15 21 16 22 23 23 17 24
REMARK SMILES IDX 22 25 18 26 21 27 19 28 20 29
REMARK H PARENT 7 5 10 6 23 30
ROOT
ATOM      1  N   UNL     1      -3.974   0.299  -0.224  1.00  0.00    -0.279 N 
ATOM      2  C   UNL     1      -2.724   0.818   0.025  1.00  0.00     0.323 C 
ATOM      3  O   UNL     1      -2.509   1.996   0.263  1.00  0.00    -0.248 OA
ATOM      4  N   UNL     1      -1.780  -0.189  -0.025  1.00  0.00    -0.307 N 
ATOM      5  H   UNL     1      -3.948  -0.402  -0.942  1.00  0.00     0.171 HD
ATOM      6  H   UNL     1      -2.152  -1.133  -0.001  1.00  0.00     0.171 HD
ENDROOT
BRANCH   1   7
ATOM      7  C   UNL     1      -5.083   1.200  -0.338  1.00  0.00     0.329 C 
ATOM      8  F   UNL     1      -4.913   1.985  -1.429  1.00  0.00    -0.183 F 
ATOM      9  F   UNL     1      -5.136   2.007   0.751  1.00  0.00    -0.183 F 
BRANCH   7  10
ATOM     10  C   UNL     1      -6.433   0.468  -0.448  1.00  0.00     0.076 C 
ATOM     11  C   UNL     1      -7.585   1.478  -0.451  1.00  0.00     0.016 C 
ATOM     12  C   UNL     1      -6.527  -0.407  -1.701  1.00  0.00     0.016 C 
ENDBRANCH   7  10
ENDBRANCH   1   7
BRANCH   4  13
ATOM     13  C   UNL     1      -0.377  -0.087   0.086  1.00  0.00     0.048 A 
ATOM     14  C   UNL     1       0.282   1.147   0.094  1.00  0.00     0.027 A 
ATOM     15  C   UNL     1       0.387  -1.266   0.168  1.00  0.00     0.007 A 
ATOM     16  C   UNL     1       1.678   1.225   0.200  1.00  0.00     0.014 A 
ATOM     17  C   UNL     1       1.791  -1.168   0.277  1.00  0.00     0.020 A 
ATOM     18  C   UNL     1       2.453   0.068   0.298  1.00  0.00     0.018 A 
BRANCH  15  19
ATOM     19  C   UNL     1      -0.204  -2.654   0.164  1.00  0.00     0.252 C 
ATOM     20  F   UNL     1      -1.557  -2.689  -0.031  1.00  0.00    -0.246 F 
ENDBRANCH  15  19
BRANCH  18  21
ATOM     21  C   UNL     1       3.916   0.092   0.415  1.00  0.00     0.138 A 
ATOM     22  N   UNL     1       4.705  -0.969   0.424  1.00  0.00    -0.229 NA
ATOM     23  N   UNL     1       4.672   1.237   0.544  1.00  0.00    -0.338 N 
ATOM     24  C   UNL     1       5.987  -0.496   0.553  1.00  0.00     0.089 A 
ATOM     25  C   UNL     1       5.995   0.889   0.631  1.00  0.00     0.066 A 
ATOM     26  C   UNL     1       7.201  -1.194   0.612  1.00  0.00     0.030 A 
ATOM     27  C   UNL     1       7.162   1.644   0.767  1.00  0.00     0.028 A 
ATOM     28  C   UNL     1       8.389  -0.464   0.748  1.00  0.00     0.002 A 
ATOM     29  C   UNL     1       8.366   0.931   0.824  1.00  0.00     0.002 A 
ATOM     30  H   UNL     1       4.315   2.178   0.575  1.00  0.00     0.168 HD
ENDBRANCH  18  21
ENDBRANCH   4  13
TORSDOF 5
