REMARK SMILES N[C@H]1C[C@H]1Nc1c(Br)cc(Br)cc1[C@H]1CCCNc2ccccc2C1
REMARK SMILES IDX 14 1 13 2 6 3 7 4 9 5 12 6 10 7 8 8 11 9 5 10 4 12 2 13 3 14
REMARK SMILES IDX 1 15 15 18 25 20 24 21 23 22 19 23 22 24 20 25 21 26 18 27
REMARK SMILES IDX 17 29 16 30
REMARK H PARENT 5 11 1 16 1 17 18 28
REMARK Flexibility Score:   44.900
ROOT
ATOM      1  C   UNL     1       0.002  -0.377   0.368  1.00  0.00     0.026 C 
ENDROOT
BRANCH   1   2
ATOM      2  C   UNL     1       0.536   1.064   0.341  1.00  0.00    -0.019 A 
ATOM      3  C   UNL     1       1.808   1.391  -0.198  1.00  0.00     0.052 A 
ATOM      4  C   UNL     1       2.254   2.732  -0.140  1.00  0.00     0.042 A 
ATOM      5  C   UNL     1       1.446   3.744   0.380  1.00  0.00     0.033 A 
ATOM      6  C   UNL     1      -0.270   2.109   0.841  1.00  0.00     0.022 A 
ATOM      7  C   UNL     1       0.183   3.427   0.858  1.00  0.00     0.019 A 
ATOM      8  Br  UNL     1       3.958   3.253  -0.816  1.00  0.00    -0.049 Br
ATOM      9  Br  UNL     1      -0.933   4.793   1.538  1.00  0.00    -0.051 Br
BRANCH   3  10
ATOM     10  N   UNL     1       2.667   0.380  -0.712  1.00  0.00    -0.380 N 
ATOM     11  H   UNL     1       2.126  -0.362  -1.154  1.00  0.00     0.160 HD
BRANCH  10  12
ATOM     12  C   UNL     1       3.655  -0.188   0.236  1.00  0.00     0.097 C 
ATOM     13  C   UNL     1       4.200  -1.575  -0.029  1.00  0.00     0.075 C 
ATOM     14  C   UNL     1       5.087  -0.376  -0.174  1.00  0.00     0.047 C 
BRANCH  13  15
ATOM     15  N   UNL     1       3.756  -2.298  -1.230  1.00  0.00    -0.326 NA
ATOM     16  H   UNL     1       4.422  -3.039  -1.454  1.00  0.00     0.119 HD
ATOM     17  H   UNL     1       3.782  -1.671  -2.037  1.00  0.00     0.119 HD
ENDBRANCH  13  15
ENDBRANCH  10  12
ENDBRANCH   3  10
ENDBRANCH   1   2
BRANCH   1  18
ATOM     18  C   UNL     1      -0.585  -0.761   1.740  1.00  0.00     0.010 CG0
ATOM     19  G   UNL     1      -1.032  -2.219   1.868  1.00  0.00     0.000 G0
ENDBRANCH   1  18
BRANCH   1  20
ATOM     20  C   UNL     1      -0.892  -0.649  -0.860  1.00  0.00     0.046 C 
BRANCH  20  21
ATOM     21  C   UNL     1      -2.307  -0.113  -0.806  1.00  0.00    -0.024 A 
ATOM     22  C   UNL     1      -2.573   1.001  -1.640  1.00  0.00     0.006 A 
ATOM     23  C   UNL     1      -3.344  -0.635  -0.004  1.00  0.00     0.037 A 
ATOM     24  C   UNL     1      -3.820   1.618  -1.670  1.00  0.00     0.000 A 
ATOM     25  C   UNL     1      -4.587   0.038  -0.035  1.00  0.00     0.026 A 
ATOM     26  C   UNL     1      -4.831   1.138  -0.859  1.00  0.00     0.002 A 
BRANCH  23  27
ATOM     27  N   UNL     1      -3.251  -1.667   0.930  1.00  0.00    -0.385 N 
ATOM     28  H   UNL     1      -4.162  -2.066   1.143  1.00  0.00     0.160 HD
BRANCH  27  29
ATOM     29  C   UNL     1      -2.196  -2.660   0.984  1.00  0.00     0.113 C 
BRANCH  29  30
ATOM     30  C   UNL     1      -1.032  -2.219   1.868  1.00  0.00     0.022 CG0
ATOM     31  G   UNL     1      -0.585  -0.761   1.740  1.00  0.00     0.000 G0
ENDBRANCH  29  30
ENDBRANCH  27  29
ENDBRANCH  23  27
ENDBRANCH  20  21
ENDBRANCH   1  20
TORSDOF 4
