
     RDKit          3D

 66 70  0  0  0  0  0  0  0  0999 V2000
    9.7168   -0.7701    0.0692 C   0  0  0  0  0  0  0  0  0  0  0  0
    9.1403    0.8995   -0.1670 S   0  0  0  0  0  0  0  0  0  0  0  0
    9.8482    1.7416    0.7731 O   0  0  0  0  0  0  0  0  0  0  0  0
    9.1306    1.1956   -1.5834 O   0  0  0  0  0  0  0  0  0  0  0  0
    7.5219    0.8055    0.3474 N   0  0  0  0  0  0  0  0  0  0  0  0
    6.6274   -0.0795   -0.4626 C   0  0  0  0  0  0  0  0  0  0  0  0
    5.1650    0.0414   -0.0058 C   0  0  0  0  0  0  0  0  0  0  0  0
    4.6602    1.4152   -0.1101 N   0  0  0  0  0  0  0  0  0  0  0  0
    3.3378    1.7545   -0.3770 C   0  0  0  0  0  0  0  0  0  0  0  0
    2.9962    2.8720   -0.7566 O   0  0  0  0  0  0  0  0  0  0  0  0
    2.2833    0.7299   -0.1927 C   0  0  0  0  0  0  0  0  0  0  0  0
    1.3691    0.5117   -1.2256 C   0  0  0  0  0  0  0  0  0  0  0  0
    0.3494   -0.4277   -1.0617 C   0  0  0  0  0  0  0  0  0  0  0  0
    0.2226   -1.1433    0.1402 C   0  0  0  0  0  0  0  0  0  0  0  0
   -0.8911   -2.1566    0.3129 C   0  0  0  0  0  0  0  0  0  0  0  0
   -2.2382   -1.5709    0.1763 N   0  0  0  0  0  0  0  0  0  0  0  0
   -2.5506   -0.6770    1.3038 C   0  0  0  0  0  0  0  0  0  0  0  0
   -3.9179   -0.0203    1.1208 C   0  0  0  0  0  0  0  0  0  0  0  0
   -5.0063   -1.0808    0.9320 C   0  0  0  0  0  0  0  0  0  0  0  0
   -6.3343   -0.5095    0.7632 N   0  0  0  0  0  0  0  0  0  0  0  0
   -7.3821   -0.7060    1.6219 C   0  0  0  0  0  0  0  0  0  0  0  0
   -7.3352   -1.4442    2.7118 O   0  0  0  0  0  0  0  0  0  0  0  0
   -8.4684   -0.0781    1.2680 N   0  0  0  0  0  0  0  0  0  0  0  0
   -8.1230    0.5680    0.1069 C   0  0  0  0  0  0  0  0  0  0  0  0
   -8.9093    1.3966   -0.7089 C   0  0  0  0  0  0  0  0  0  0  0  0
   -8.3384    1.9557   -1.8575 C   0  0  0  0  0  0  0  0  0  0  0  0
   -7.0100    1.6929   -2.1904 C   0  0  0  0  0  0  0  0  0  0  0  0
   -6.2088    0.8677   -1.3915 C   0  0  0  0  0  0  0  0  0  0  0  0
   -6.7924    0.3172   -0.2415 C   0  0  0  0  0  0  0  0  0  0  0  0
   -4.6343   -2.0641   -0.1810 C   0  0  0  0  0  0  0  0  0  0  0  0
   -3.2402   -2.6404    0.0575 C   0  0  0  0  0  0  0  0  0  0  0  0
    1.1351   -0.9008    1.1780 C   0  0  0  0  0  0  0  0  0  0  0  0
    2.1557    0.0397    1.0174 C   0  0  0  0  0  0  0  0  0  0  0  0
    5.6765    2.4659   -0.1870 C   0  0  0  0  0  0  0  0  0  0  0  0
    6.9064    2.1449    0.6699 C   0  0  0  0  0  0  0  0  0  0  0  0
    9.2223   -1.4289   -0.6443 H   0  0  0  0  0  0  0  0  0  0  0  0
   10.7941   -0.7793   -0.1134 H   0  0  0  0  0  0  0  0  0  0  0  0
    9.5167   -1.0720    1.0987 H   0  0  0  0  0  0  0  0  0  0  0  0
    6.9427   -1.1194   -0.3374 H   0  0  0  0  0  0  0  0  0  0  0  0
    6.7007    0.1842   -1.5235 H   0  0  0  0  0  0  0  0  0  0  0  0
    5.0856   -0.2496    1.0483 H   0  0  0  0  0  0  0  0  0  0  0  0
    4.5382   -0.6315   -0.5993 H   0  0  0  0  0  0  0  0  0  0  0  0
    1.4434    1.0780   -2.1516 H   0  0  0  0  0  0  0  0  0  0  0  0
   -0.3661   -0.5873   -1.8661 H   0  0  0  0  0  0  0  0  0  0  0  0
   -0.7918   -2.6771    1.2747 H   0  0  0  0  0  0  0  0  0  0  0  0
   -0.7340   -2.9175   -0.4636 H   0  0  0  0  0  0  0  0  0  0  0  0
   -1.8104    0.1278    1.3763 H   0  0  0  0  0  0  0  0  0  0  0  0
   -2.5278   -1.2258    2.2543 H   0  0  0  0  0  0  0  0  0  0  0  0
   -4.1464    0.6011    1.9956 H   0  0  0  0  0  0  0  0  0  0  0  0
   -3.8733    0.6585    0.2619 H   0  0  0  0  0  0  0  0  0  0  0  0
   -5.0424   -1.6614    1.8645 H   0  0  0  0  0  0  0  0  0  0  0  0
   -8.2371   -1.3196    3.0584 H   0  0  0  0  0  0  0  0  0  0  0  0
   -9.9416    1.5974   -0.4437 H   0  0  0  0  0  0  0  0  0  0  0  0
   -8.9386    2.6008   -2.4949 H   0  0  0  0  0  0  0  0  0  0  0  0
   -6.5860    2.1394   -3.0884 H   0  0  0  0  0  0  0  0  0  0  0  0
   -5.1770    0.6763   -1.6664 H   0  0  0  0  0  0  0  0  0  0  0  0
   -5.3662   -2.8804   -0.2227 H   0  0  0  0  0  0  0  0  0  0  0  0
   -4.6574   -1.5764   -1.1625 H   0  0  0  0  0  0  0  0  0  0  0  0
   -3.2469   -3.2720    0.9556 H   0  0  0  0  0  0  0  0  0  0  0  0
   -2.9954   -3.2884   -0.7929 H   0  0  0  0  0  0  0  0  0  0  0  0
    1.0442   -1.4283    2.1249 H   0  0  0  0  0  0  0  0  0  0  0  0
    2.8299    0.2463    1.8434 H   0  0  0  0  0  0  0  0  0  0  0  0
    5.2440    3.4219    0.1283 H   0  0  0  0  0  0  0  0  0  0  0  0
    5.9599    2.5659   -1.2420 H   0  0  0  0  0  0  0  0  0  0  0  0
    7.6311    2.9573    0.5568 H   0  0  0  0  0  0  0  0  0  0  0  0
    6.6234    2.1139    1.7295 H   0  0  0  0  0  0  0  0  0  0  0  0
  1  2  1  0
  2  3  2  0
  2  4  2  0
  2  5  1  0
  5  6  1  0
  6  7  1  0
  7  8  1  0
  8  9  1  0
  9 10  2  0
  9 11  1  0
 11 12  2  0
 12 13  1  0
 13 14  2  0
 14 15  1  0
 15 16  1  0
 16 17  1  0
 17 18  1  0
 18 19  1  0
 19 20  1  0
 20 21  1  0
 21 22  1  0
 21 23  2  0
 23 24  1  0
 24 25  2  0
 25 26  1  0
 26 27  2  0
 27 28  1  0
 28 29  2  0
 19 30  1  0
 30 31  1  0
 14 32  1  0
 32 33  2  0
  8 34  1  0
 34 35  1  0
 35  5  1  0
 33 11  1  0
 31 16  1  0
 29 20  1  0
 29 24  1  0
  1 36  1  0
  1 37  1  0
  1 38  1  0
  6 39  1  0
  6 40  1  0
  7 41  1  0
  7 42  1  0
 12 43  1  0
 13 44  1  0
 15 45  1  0
 15 46  1  0
 17 47  1  0
 17 48  1  0
 18 49  1  0
 18 50  1  0
 19 51  1  0
 22 52  1  0
 25 53  1  0
 26 54  1  0
 27 55  1  0
 28 56  1  0
 30 57  1  0
 30 58  1  0
 31 59  1  0
 31 60  1  0
 32 61  1  0
 33 62  1  0
 34 63  1  0
 34 64  1  0
 35 65  1  0
 35 66  1  0
M  END
$$$$
