
     RDKit          3D

 68 73  0  0  0  0  0  0  0  0999 V2000
  -10.8102   -0.2130    0.0368 C   0  0  0  0  0  0  0  0  0  0  0  0
  -10.3485    0.8143    0.9675 N   0  0  0  0  0  0  0  0  0  0  0  0
   -9.2731    0.3205    1.8422 C   0  0  0  0  0  0  0  0  0  0  0  0
   -7.9107    0.0907    1.1572 C   0  0  0  0  0  0  0  0  0  0  0  0
   -7.4888    1.1774    0.2612 N   0  0  0  0  0  0  0  0  0  0  0  0
   -6.1934    1.2525   -0.3098 C   0  0  0  0  0  0  0  0  0  0  0  0
   -5.9865    2.0713   -1.2136 O   0  0  0  0  0  0  0  0  0  0  0  0
   -5.1286    0.3607    0.1375 C   0  0  0  0  0  0  0  0  0  0  0  0
   -5.1615   -0.5835    1.0572 N   0  0  0  0  0  0  0  0  0  0  0  0
   -3.9141   -1.1702    1.0734 N   0  0  0  0  0  0  0  0  0  0  0  0
   -3.1980   -0.5550    0.1532 C   0  0  0  0  0  0  0  0  0  0  0  0
   -1.8332   -0.8039   -0.2909 C   0  0  0  0  0  0  0  0  0  0  0  0
   -1.2606   -0.1021   -1.3619 C   0  0  0  0  0  0  0  0  0  0  0  0
    0.0377   -0.3916   -1.7946 C   0  0  0  0  0  0  0  0  0  0  0  0
    0.7941   -1.3858   -1.1613 C   0  0  0  0  0  0  0  0  0  0  0  0
    2.1881   -1.7287   -1.6434 C   0  0  0  0  0  0  0  0  0  0  0  0
    3.2211   -1.5332   -0.6073 N   0  0  0  0  0  0  0  0  0  0  0  0
    3.4696   -0.1012   -0.3816 C   0  0  0  0  0  0  0  0  0  0  0  0
    4.4723    0.1166    0.7488 C   0  0  0  0  0  0  0  0  0  0  0  0
    5.7522   -0.7209    0.6352 C   0  0  0  0  0  0  0  0  0  0  0  0
    6.8740   -0.0289    0.0062 N   0  0  0  0  0  0  0  0  0  0  0  0
    6.9733    0.4336   -1.2761 C   0  0  0  0  0  0  0  0  0  0  0  0
    6.0358    0.3527   -2.1936 O   0  0  0  0  0  0  0  0  0  0  0  0
    8.1192    0.9969   -1.5421 N   0  0  0  0  0  0  0  0  0  0  0  0
    8.8295    0.8979   -0.3733 C   0  0  0  0  0  0  0  0  0  0  0  0
   10.1316    1.3384   -0.0899 C   0  0  0  0  0  0  0  0  0  0  0  0
   10.6535    1.1289    1.1899 C   0  0  0  0  0  0  0  0  0  0  0  0
    9.8926    0.4928    2.1710 C   0  0  0  0  0  0  0  0  0  0  0  0
    8.5924    0.0448    1.9087 C   0  0  0  0  0  0  0  0  0  0  0  0
    8.0823    0.2629    0.6205 C   0  0  0  0  0  0  0  0  0  0  0  0
    5.5163   -2.1333    0.0882 C   0  0  0  0  0  0  0  0  0  0  0  0
    4.4607   -2.2076   -1.0108 C   0  0  0  0  0  0  0  0  0  0  0  0
    0.2296   -2.0786   -0.0828 C   0  0  0  0  0  0  0  0  0  0  0  0
   -1.0680   -1.7907    0.3467 C   0  0  0  0  0  0  0  0  0  0  0  0
   -3.8994    0.4366   -0.4785 O   0  0  0  0  0  0  0  0  0  0  0  0
   -8.5541    1.8403   -0.5014 C   0  0  0  0  0  0  0  0  0  0  0  0
   -9.8711    2.0213    0.2717 C   0  0  0  0  0  0  0  0  0  0  0  0
  -11.2142   -1.0701    0.5862 H   0  0  0  0  0  0  0  0  0  0  0  0
  -10.0249   -0.5802   -0.6310 H   0  0  0  0  0  0  0  0  0  0  0  0
  -11.6285    0.1738   -0.5816 H   0  0  0  0  0  0  0  0  0  0  0  0
   -9.5871   -0.5995    2.3505 H   0  0  0  0  0  0  0  0  0  0  0  0
   -9.1333    1.0598    2.6416 H   0  0  0  0  0  0  0  0  0  0  0  0
   -7.1747   -0.0224    1.9560 H   0  0  0  0  0  0  0  0  0  0  0  0
   -7.9308   -0.8330    0.5677 H   0  0  0  0  0  0  0  0  0  0  0  0
   -1.8234    0.6727   -1.8803 H   0  0  0  0  0  0  0  0  0  0  0  0
    0.4527    0.1644   -2.6321 H   0  0  0  0  0  0  0  0  0  0  0  0
    2.4348   -1.1646   -2.5530 H   0  0  0  0  0  0  0  0  0  0  0  0
    2.1517   -2.7844   -1.9440 H   0  0  0  0  0  0  0  0  0  0  0  0
    2.5413    0.4037   -0.0864 H   0  0  0  0  0  0  0  0  0  0  0  0
    3.8028    0.3939   -1.2988 H   0  0  0  0  0  0  0  0  0  0  0  0
    4.7069    1.1840    0.8351 H   0  0  0  0  0  0  0  0  0  0  0  0
    3.9731   -0.1613    1.6873 H   0  0  0  0  0  0  0  0  0  0  0  0
    6.0828   -0.8667    1.6723 H   0  0  0  0  0  0  0  0  0  0  0  0
    6.4710    0.7912   -2.9473 H   0  0  0  0  0  0  0  0  0  0  0  0
   10.7168    1.8311   -0.8581 H   0  0  0  0  0  0  0  0  0  0  0  0
   11.6628    1.4638    1.4181 H   0  0  0  0  0  0  0  0  0  0  0  0
   10.3182    0.3390    3.1609 H   0  0  0  0  0  0  0  0  0  0  0  0
    8.0145   -0.4449    2.6853 H   0  0  0  0  0  0  0  0  0  0  0  0
    5.1839   -2.7706    0.9181 H   0  0  0  0  0  0  0  0  0  0  0  0
    6.4522   -2.5730   -0.2760 H   0  0  0  0  0  0  0  0  0  0  0  0
    4.8517   -1.8084   -1.9533 H   0  0  0  0  0  0  0  0  0  0  0  0
    4.2572   -3.2713   -1.1913 H   0  0  0  0  0  0  0  0  0  0  0  0
    0.8041   -2.8499    0.4271 H   0  0  0  0  0  0  0  0  0  0  0  0
   -1.4816   -2.3528    1.1833 H   0  0  0  0  0  0  0  0  0  0  0  0
   -8.7237    1.2408   -1.4044 H   0  0  0  0  0  0  0  0  0  0  0  0
   -8.2064    2.8255   -0.8321 H   0  0  0  0  0  0  0  0  0  0  0  0
   -9.7270    2.8097    1.0236 H   0  0  0  0  0  0  0  0  0  0  0  0
  -10.6490    2.4008   -0.4034 H   0  0  0  0  0  0  0  0  0  0  0  0
  1  2  1  0
  2  3  1  0
  3  4  1  0
  4  5  1  0
  5  6  1  0
  6  7  2  0
  6  8  1  0
  8  9  2  0
  9 10  1  0
 10 11  2  0
 11 12  1  0
 12 13  2  0
 13 14  1  0
 14 15  2  0
 15 16  1  0
 16 17  1  0
 17 18  1  0
 18 19  1  0
 19 20  1  0
 20 21  1  0
 21 22  1  0
 22 23  1  0
 22 24  2  0
 24 25  1  0
 25 26  2  0
 26 27  1  0
 27 28  2  0
 28 29  1  0
 29 30  2  0
 20 31  1  0
 31 32  1  0
 15 33  1  0
 33 34  2  0
 11 35  1  0
  5 36  1  0
 36 37  1  0
 37  2  1  0
 35  8  1  0
 34 12  1  0
 32 17  1  0
 30 21  1  0
 30 25  1  0
  1 38  1  0
  1 39  1  0
  1 40  1  0
  3 41  1  0
  3 42  1  0
  4 43  1  0
  4 44  1  0
 13 45  1  0
 14 46  1  0
 16 47  1  0
 16 48  1  0
 18 49  1  0
 18 50  1  0
 19 51  1  0
 19 52  1  0
 20 53  1  0
 23 54  1  0
 26 55  1  0
 27 56  1  0
 28 57  1  0
 29 58  1  0
 31 59  1  0
 31 60  1  0
 32 61  1  0
 32 62  1  0
 33 63  1  0
 34 64  1  0
 36 65  1  0
 36 66  1  0
 37 67  1  0
 37 68  1  0
M  END
$$$$
