REMARK SMILES CO[C@@H]1[C@H](O)[C@@H](CN2CCC(F)CC2)O[C@H]1n1cnc2c(N)ncnc21
REMARK SMILES IDX 3 1 4 2 6 3 15 4 16 5 2 6 1 7 5 8 17 10 18 11 26 12 19 13
REMARK SMILES IDX 25 14 20 15 24 16 21 17 23 18 22 19 7 22 8 23 9 24 14 25
REMARK SMILES IDX 10 26 13 27 11 28 12 29
REMARK H PARENT 5 9 22 20 22 21
ROOT
ATOM      1  C   UNL     1      -0.712  -1.587   0.845  1.00  0.00     0.199 C 
ATOM      2  C   UNL     1       0.739  -1.425   1.276  1.00  0.00     0.178 C 
ATOM      3  C   UNL     1       0.861   0.082   1.509  1.00  0.00     0.166 C 
ATOM      4  O   UNL     1      -0.449   0.540   1.934  1.00  0.00    -0.348 OA
ATOM      5  C   UNL     1      -1.375  -0.552   1.764  1.00  0.00     0.254 C 
ENDROOT
BRANCH   1   6
ATOM      6  O   UNL     1      -1.118  -2.945   1.069  1.00  0.00    -0.374 OA
ATOM      7  C   UNL     1      -2.358  -3.260   0.447  1.00  0.00     0.195 C 
ENDBRANCH   1   6
BRANCH   2   8
ATOM      8  O   UNL     1       0.942  -2.123   2.518  1.00  0.00    -0.387 OA
ATOM      9  H   UNL     1       0.549  -3.009   2.381  1.00  0.00     0.211 HD
ENDBRANCH   2   8
BRANCH   5  10
ATOM     10  N   UNL     1      -2.639  -0.005   1.320  1.00  0.00    -0.285 N 
ATOM     11  C   UNL     1      -3.749   0.135   2.116  1.00  0.00     0.204 A 
ATOM     12  C   UNL     1      -2.965   0.468   0.079  1.00  0.00     0.167 A 
ATOM     13  N   UNL     1      -4.773   0.634   1.456  1.00  0.00    -0.231 NA
ATOM     14  N   UNL     1      -2.187   0.544  -1.014  1.00  0.00    -0.216 NA
ATOM     15  C   UNL     1      -4.294   0.850   0.181  1.00  0.00     0.150 A 
ATOM     16  C   UNL     1      -2.862   1.076  -2.054  1.00  0.00     0.226 A 
ATOM     17  C   UNL     1      -4.895   1.372  -0.977  1.00  0.00     0.155 A 
ATOM     18  N   UNL     1      -4.146   1.490  -2.096  1.00  0.00    -0.217 NA
BRANCH  17  19
ATOM     19  N   UNL     1      -6.219   1.790  -1.025  1.00  0.00    -0.382 N 
ATOM     20  H   UNL     1      -6.379   2.459  -1.766  1.00  0.00     0.158 HD
ATOM     21  H   UNL     1      -6.605   1.999  -0.111  1.00  0.00     0.158 HD
ENDBRANCH  17  19
ENDBRANCH   5  10
BRANCH   3  22
ATOM     22  C   UNL     1       1.258   0.877   0.246  1.00  0.00     0.119 C 
BRANCH  22  23
ATOM     23  N   UNL     1       2.538   0.477  -0.364  1.00  0.00    -0.300 NA
ATOM     24  C   UNL     1       3.674   0.679   0.556  1.00  0.00     0.087 C 
ATOM     25  C   UNL     1       2.753   1.166  -1.640  1.00  0.00     0.087 C 
ATOM     26  C   UNL     1       5.026   0.798  -0.152  1.00  0.00     0.053 C 
ATOM     27  C   UNL     1       3.927   0.538  -2.394  1.00  0.00     0.053 C 
ATOM     28  C   UNL     1       5.015   0.028  -1.458  1.00  0.00     0.169 C 
ATOM     29  F   UNL     1       6.223   0.170  -2.070  1.00  0.00    -0.247 F 
ENDBRANCH  22  23
ENDBRANCH   3  22
TORSDOF 6
