REMARK SMILES CCOC(=O)c1ccc(O)c(-c2ccncc2)c1C
REMARK SMILES IDX 4 1 5 2 3 3 2 4 1 5 6 6 7 7 18 8 8 9 11 10 9 11 19 12 12 13
REMARK SMILES IDX 13 14 17 15 14 16 16 17 15 18 10 19
REMARK H PARENT 10 20
ROOT
ATOM      1  C   UNL     1       2.497  -0.737   0.076  1.00  0.00     0.338 C 
ATOM      2  O   UNL     1       3.308  -1.635  -0.074  1.00  0.00    -0.246 OA
ENDROOT
BRANCH   1   3
ATOM      3  O   UNL     1       2.737   0.596   0.039  1.00  0.00    -0.462 OA
BRANCH   3   4
ATOM      4  C   UNL     1       4.093   0.972  -0.242  1.00  0.00     0.230 C 
ATOM      5  C   UNL     1       4.895   1.031   1.045  1.00  0.00     0.049 C 
ENDBRANCH   3   4
ENDBRANCH   1   3
BRANCH   1   6
ATOM      6  C   UNL     1       1.077  -0.964   0.435  1.00  0.00     0.063 A 
ATOM      7  C   UNL     1       0.852  -1.843   1.502  1.00  0.00     0.020 A 
ATOM      8  C   UNL     1      -0.004  -0.356  -0.248  1.00  0.00    -0.025 A 
ATOM      9  C   UNL     1      -0.444  -2.089   1.940  1.00  0.00     0.048 A 
ATOM     10  C   UNL     1      -1.326  -0.585   0.218  1.00  0.00     0.027 A 
ATOM     11  C   UNL     1      -1.514  -1.457   1.314  1.00  0.00     0.123 A 
ATOM     12  C   UNL     1       0.250   0.541  -1.438  1.00  0.00     0.046 C 
BRANCH  10  13
ATOM     13  C   UNL     1      -2.485   0.064  -0.417  1.00  0.00    -0.011 A 
ATOM     14  C   UNL     1      -3.261  -0.618  -1.360  1.00  0.00     0.029 A 
ATOM     15  C   UNL     1      -2.847   1.372  -0.079  1.00  0.00     0.029 A 
ATOM     16  C   UNL     1      -4.351   0.029  -1.917  1.00  0.00     0.111 A 
ATOM     17  C   UNL     1      -3.955   1.933  -0.690  1.00  0.00     0.111 A 
ATOM     18  N   UNL     1      -4.716   1.288  -1.599  1.00  0.00    -0.265 NA
ENDBRANCH  10  13
BRANCH  11  19
ATOM     19  O   UNL     1      -2.749  -1.738   1.838  1.00  0.00    -0.507 OA
ATOM     20  H   UNL     1      -3.422  -1.206   1.381  1.00  0.00     0.293 HD
ENDBRANCH  11  19
ENDBRANCH   1   6
TORSDOF 5
