MODEL        6USER    Run = 6USERUSER    Estimated Free Energy of Binding    =  -8.39 kcal/mol  [=(1)+(2)+(3)-(4)]USERUSER    (1) Final Intermolecular Energy     =  -9.58 kcal/molUSER        vdW + Hbond + desolv Energy     =  -9.43 kcal/molUSER        Electrostatic Energy            =  -0.15 kcal/molUSER        Moving Ligand-Fixed Receptor    =  -9.58 kcal/molUSER        Moving Ligand-Moving Receptor   =  +0.00 kcal/molUSER    (2) Final Total Internal Energy     =  -0.61 kcal/molUSER    (3) Torsional Free Energy           =  +1.19 kcal/molUSER    (4) Unbound System's Energy         =  -0.61 kcal/molUSERUSERREMARK SMILES O=C(C=C1C=CC(c2cn[nH]c2)=CN1)NC1=CCCCS1REMARK SMILES IDX 4 1 5 2 6 3 7 4 13 5 14 6 3 8 2 9 15 10 1 11 16 13 17 14REMARK SMILES IDX 21 15 18 16 20 17 19 18 8 19 9 20 12 21 10 22 11 23REMARK H PARENT 14 7 15 12 11 24USER                              x       y       z     vdW  Elec       q    TypeUSER                           _______ _______ _______ _____ _____    ______ ____ROOTATOM      1  C   UNL     1      41.606  49.918  14.893 -0.72 -0.01    +0.043 C  ATOM      2  C   UNL     1      41.555  49.518  13.482 -0.22 -0.01    +0.027 C  ATOM      3  C   UNL     1      42.348  50.098  12.560 -0.55 -0.00    +0.012 C  ATOM      4  C   UNL     1      43.298  51.162  12.912 -0.61 -0.00    +0.001 C  ATOM      5  C   UNL     1      43.290  51.537  14.210 -0.21 -0.02    +0.091 C  ATOM      6  N   UNL     1      42.479  50.962  15.164 -0.15 +0.04    -0.361 N  ATOM      7  H   UNL     1      42.535  51.314  16.113 -0.31 -0.01    +0.166 HD ENDROOTBRANCH   1   8ATOM      8  C   UNL     1      40.861  49.344  15.855 -0.62 -0.02    +0.097 C  BRANCH   8   9ATOM      9  C   UNL     1      39.916  48.212  15.670 -0.42 -0.08    +0.250 C  ATOM     10  N   UNL     1      38.871  48.533  14.827 -0.28 +0.15    -0.317 N  ATOM     11  O   UNL     1      40.189  47.137  16.184 -0.32 +0.05    -0.270 OA ATOM     12  H   UNL     1      38.912  49.466  14.434 -0.32 -0.13    +0.170 HD BRANCH  10  13ATOM     13  C   UNL     1      37.796  47.770  14.424 -0.53 -0.04    +0.071 C  ATOM     14  C   UNL     1      36.939  47.343  15.369 -0.48 -0.00    +0.006 C  ATOM     15  S   UNL     1      37.598  47.350  12.760 -0.80 +0.02    -0.109 SA ATOM     16  C   UNL     1      35.715  46.494  15.180 -0.39 -0.03    +0.031 C  ATOM     17  C   UNL     1      35.855  46.875  12.695 -0.64 -0.04    +0.077 C  ATOM     18  C   UNL     1      35.549  45.877  13.797 -0.45 -0.01    +0.015 C  ENDBRANCH  10  13ENDBRANCH   8   9ENDBRANCH   1   8BRANCH   4  19ATOM     19  C   UNL     1      44.155  51.750  11.925 -0.39 -0.01    +0.021 A  ATOM     20  C   UNL     1      45.557  51.922  11.954 -0.26 -0.06    +0.143 A  ATOM     21  C   UNL     1      43.779  52.284  10.711 -0.43 -0.06    +0.114 A  ATOM     22  N   UNL     1      46.027  52.513  10.852 -0.22 +0.06    -0.184 NA ATOM     23  N   UNL     1      44.927  52.717  10.112 -0.21 +0.12    -0.285 N  ATOM     24  H   UNL     1      45.033  53.158   9.203 +0.09 -0.05    +0.189 HD ENDBRANCH   4  19TORSDOF 4TERENDMDL