MODEL        8USER    Run = 8USERUSER    Estimated Free Energy of Binding    =  -9.08 kcal/mol  [=(1)+(2)+(3)-(4)]USERUSER    (1) Final Intermolecular Energy     = -12.37 kcal/molUSER        vdW + Hbond + desolv Energy     = -11.91 kcal/molUSER        Electrostatic Energy            =  -0.45 kcal/molUSER        Moving Ligand-Fixed Receptor    = -12.37 kcal/molUSER        Moving Ligand-Moving Receptor   =  +0.00 kcal/molUSER    (2) Final Total Internal Energy     =  -3.74 kcal/molUSER    (3) Torsional Free Energy           =  +3.28 kcal/molUSER    (4) Unbound System's Energy         =  -3.74 kcal/molUSERUSERREMARK SMILES Cc1c(OC[C@H](O)C[C@@H](O)CCC(C)C)ccc2oc(-c3ccccc3)cc(=O)c12REMARK SMILES IDX 8 1 6 2 5 3 4 4 3 5 2 6 30 7 16 8 28 9 18 10 17 11 27 12REMARK SMILES IDX 19 13 20 14 1 15 29 16 21 17 22 18 26 19 23 20 25 21 24 22REMARK SMILES IDX 7 23 9 25 10 26 11 28 12 29 13 30 14 31 15 32REMARK H PARENT 7 24 10 27USER                              x       y       z     vdW  Elec       q    TypeUSER                           _______ _______ _______ _____ _____    ______ ____ROOTATOM      1  C   UNL     1      43.944  46.692  23.459 -0.18 +0.02    +0.067 C  ENDROOTBRANCH   1   2ATOM      2  C   UNL     1      42.641  47.366  23.014 -0.25 +0.03    +0.154 C  BRANCH   2   3ATOM      3  C   UNL     1      41.810  46.430  22.124 -0.17 +0.04    +0.261 C  BRANCH   3   4ATOM      4  O   UNL     1      42.329  46.539  20.793 -0.13 -0.10    -0.491 OA BRANCH   4   5ATOM      5  C   UNL     1      41.450  46.440  19.746 -0.31 +0.01    +0.123 A  ATOM      6  C   UNL     1      41.667  47.322  18.663 -0.49 -0.00    +0.006 A  ATOM      7  C   UNL     1      40.787  47.272  17.553 -0.47 -0.01    +0.071 A  ATOM      8  C   UNL     1      40.389  45.528  19.707 -0.38 +0.00    +0.050 A  ATOM      9  C   UNL     1      40.920  48.159  16.369 -0.38 -0.03    +0.193 A  ATOM     10  C   UNL     1      39.732  46.357  17.538 -0.36 -0.02    +0.139 A  ATOM     11  C   UNL     1      39.534  45.489  18.608 -0.40 -0.00    +0.052 A  ATOM     12  C   UNL     1      39.938  47.985  15.286 -0.47 -0.03    +0.100 A  ATOM     13  O   UNL     1      38.836  46.237  16.505 -0.12 +0.13    -0.456 OA ATOM     14  C   UNL     1      38.971  47.068  15.410 -0.36 -0.04    +0.138 A  ATOM     15  C   UNL     1      42.816  48.300  18.702 +0.01 +0.00    +0.049 C  ATOM     16  O   UNL     1      41.786  49.014  16.248 -0.92 -0.05    -0.289 OA BRANCH  14  17ATOM     17  C   UNL     1      37.968  46.845  14.351 -0.44 -0.01    +0.017 A  ATOM     18  C   UNL     1      37.343  47.942  13.738 -0.55 -0.01    +0.012 A  ATOM     19  C   UNL     1      37.632  45.554  13.915 -0.42 -0.00    +0.012 A  ATOM     20  C   UNL     1      36.397  47.753  12.726 -0.67 -0.00    +0.001 A  ATOM     21  C   UNL     1      36.686  45.366  12.904 -0.52 -0.00    +0.001 A  ATOM     22  C   UNL     1      36.069  46.465  12.311 -0.65 -0.00    +0.000 A  ENDBRANCH  14  17ENDBRANCH   4   5ENDBRANCH   3   4ENDBRANCH   2   3BRANCH   2  23ATOM     23  O   UNL     1      42.946  48.566  22.291 -0.48 -0.06    -0.389 OA ATOM     24  H   UNL     1      43.322  48.274  21.436 -0.43 -0.01    +0.211 HD ENDBRANCH   2  23ENDBRANCH   1   2BRANCH   1  25ATOM     25  C   UNL     1      44.776  46.071  22.324 -0.18 +0.09    +0.117 C  BRANCH  25  26ATOM     26  O   UNL     1      45.139  47.075  21.380 -0.69 -0.53    -0.393 OA ATOM     27  H   UNL     1      44.297  47.450  21.039 -0.16 +0.12    +0.210 HD ENDBRANCH  25  26BRANCH  25  28ATOM     28  C   UNL     1      46.033  45.344  22.815 -0.15 +0.02    +0.032 C  BRANCH  28  29ATOM     29  C   UNL     1      45.788  43.908  23.301 -0.17 +0.00    +0.006 C  BRANCH  29  30ATOM     30  C   UNL     1      45.023  42.988  22.330 -0.32 -0.00    -0.017 C  ATOM     31  C   UNL     1      45.549  41.555  22.454 -0.37 -0.00    +0.007 C  ATOM     32  C   UNL     1      43.513  43.008  22.571 -0.35 +0.00    +0.007 C  ENDBRANCH  29  30ENDBRANCH  28  29ENDBRANCH  25  28ENDBRANCH   1  25TORSDOF 11TERENDMDL