REMARK SMILES NC(=O)c1cccc(-c2ccc(NC(F)=C3C[CH]C[C@H](O)C3)cc2F)c1
REMARK SMILES IDX 13 1 12 3 9 4 10 5 24 6 11 7 23 8 25 9 8 10 4 11 5 12 26 13
REMARK SMILES IDX 6 14 7 15 2 16 1 17 3 20 14 21 15 22 16 23 17 24 22 25 18 26
REMARK SMILES IDX 20 27 19 28 21 29
REMARK H PARENT 13 2 1 18 1 19 21 30
ROOT
ATOM      1  N   UNL     1      -1.788  -0.652  -0.270  1.00  0.00    -0.332 N 
ATOM      2  H   UNL     1      -2.093  -1.595  -0.473  1.00  0.00     0.169 HD
ENDROOT
BRANCH   1   3
ATOM      3  C   UNL     1      -0.395  -0.474  -0.245  1.00  0.00     0.043 A 
ATOM      4  C   UNL     1       2.457  -0.218  -0.299  1.00  0.00     0.018 A 
ATOM      5  C   UNL     1       1.638   0.815   0.179  1.00  0.00     0.014 A 
ATOM      6  C   UNL     1       1.811  -1.375  -0.753  1.00  0.00     0.133 A 
ATOM      7  C   UNL     1       0.239   0.689   0.202  1.00  0.00     0.027 A 
ATOM      8  C   UNL     1       0.420  -1.504  -0.730  1.00  0.00     0.066 A 
ATOM      9  F   UNL     1       2.525  -2.410  -1.223  1.00  0.00    -0.206 F 
BRANCH   4  10
ATOM     10  C   UNL     1       3.925  -0.078  -0.320  1.00  0.00    -0.015 A 
ATOM     11  C   UNL     1       6.021   0.532   0.792  1.00  0.00     0.040 A 
ATOM     12  C   UNL     1       6.740   0.194  -0.359  1.00  0.00     0.014 A 
ATOM     13  C   UNL     1       4.626   0.384   0.808  1.00  0.00     0.022 A 
ATOM     14  C   UNL     1       6.063  -0.267  -1.487  1.00  0.00     0.001 A 
ATOM     15  C   UNL     1       4.672  -0.396  -1.467  1.00  0.00     0.009 A 
BRANCH  11  16
ATOM     16  C   UNL     1       6.690   1.030   2.024  1.00  0.00     0.248 C 
ATOM     17  N   UNL     1       7.932   1.586   1.891  1.00  0.00    -0.366 N 
ATOM     18  H   UNL     1       8.286   1.903   1.001  1.00  0.00     0.159 HD
ATOM     19  H   UNL     1       8.303   2.030   2.722  1.00  0.00     0.159 HD
ATOM     20  O   UNL     1       6.142   0.983   3.119  1.00  0.00    -0.270 OA
ENDBRANCH  11  16
ENDBRANCH   4  10
ENDBRANCH   1   3
BRANCH   1  21
ATOM     21  C   UNL     1      -2.796   0.249  -0.030  1.00  0.00     0.190 C 
ATOM     22  F   UNL     1      -2.465   1.552   0.129  1.00  0.00    -0.187 F 
BRANCH  21  23
ATOM     23  C   UNL     1      -4.113  -0.035   0.034  1.00  0.00    -0.014 C 
ATOM     24  C   UNL     1      -4.661  -1.433  -0.121  1.00  0.00     0.039 C 
ATOM     25  C   UNL     1      -5.118   1.081   0.247  1.00  0.00     0.067 C 
ATOM     26  C   UNL     1      -6.048  -1.596   0.408  1.00  0.00    -0.001 C 
ATOM     27  C   UNL     1      -6.487   0.769  -0.370  1.00  0.00     0.119 C 
ATOM     28  C   UNL     1      -7.073  -0.521   0.213  1.00  0.00     0.036 C 
BRANCH  27  29
ATOM     29  O   UNL     1      -6.385   0.645  -1.792  1.00  0.00    -0.393 OA
ATOM     30  H   UNL     1      -5.891   1.416  -2.120  1.00  0.00     0.210 HD
ENDBRANCH  27  29
ENDBRANCH  21  23
ENDBRANCH   1  21
TORSDOF 6
