REMARK SMILES O=C(C=C1C=CC(c2cn[nH]c2)=CN1)NC1=CCCCS1
REMARK SMILES IDX 4 1 5 2 6 3 7 4 13 5 14 6 3 8 2 9 15 10 1 11 16 13 17 14
REMARK SMILES IDX 21 15 18 16 20 17 19 18 8 19 9 20 12 21 10 22 11 23
REMARK H PARENT 14 7 15 12 11 24
ROOT
ATOM      1  C   UNL     1      -1.049  -1.713  -0.270  1.00  0.00     0.043 C 
ATOM      2  C   UNL     1      -1.109  -0.318  -0.721  1.00  0.00     0.027 C 
ATOM      3  C   UNL     1      -2.241   0.405  -0.614  1.00  0.00     0.012 C 
ATOM      4  C   UNL     1      -3.473  -0.162  -0.048  1.00  0.00     0.001 C 
ATOM      5  C   UNL     1      -3.397  -1.460   0.318  1.00  0.00     0.091 C 
ATOM      6  N   UNL     1      -2.251  -2.217   0.206  1.00  0.00    -0.361 N 
ATOM      7  H   UNL     1      -2.289  -3.187   0.498  1.00  0.00     0.166 HD
ENDROOT
BRANCH   1   8
ATOM      8  C   UNL     1       0.067  -2.463  -0.323  1.00  0.00     0.097 C 
BRANCH   8   9
ATOM      9  C   UNL     1       1.406  -2.007  -0.777  1.00  0.00     0.250 C 
ATOM     10  N   UNL     1       1.896  -0.970  -0.009  1.00  0.00    -0.317 N 
ATOM     11  O   UNL     1       1.953  -2.621  -1.682  1.00  0.00    -0.270 OA
ATOM     12  H   UNL     1       1.300  -0.692   0.761  1.00  0.00     0.170 HD
BRANCH  10  13
ATOM     13  C   UNL     1       3.080  -0.272  -0.120  1.00  0.00     0.071 C 
ATOM     14  C   UNL     1       3.344   0.668   0.805  1.00  0.00     0.006 C 
ATOM     15  S   UNL     1       4.154  -0.579  -1.438  1.00  0.00    -0.109 SA
ATOM     16  C   UNL     1       4.549   1.561   0.886  1.00  0.00     0.031 C 
ATOM     17  C   UNL     1       5.703   0.131  -0.835  1.00  0.00     0.077 C 
ATOM     18  C   UNL     1       5.465   1.543  -0.332  1.00  0.00     0.015 C 
ENDBRANCH  10  13
ENDBRANCH   8   9
ENDBRANCH   1   8
BRANCH   4  19
ATOM     19  C   UNL     1      -4.662   0.628   0.085  1.00  0.00     0.021 A 
ATOM     20  C   UNL     1      -4.790   2.032   0.173  1.00  0.00     0.143 A 
ATOM     21  C   UNL     1      -5.960   0.170   0.156  1.00  0.00     0.114 A 
ATOM     22  N   UNL     1      -6.061   2.428   0.288  1.00  0.00    -0.184 NA
ATOM     23  N   UNL     1      -6.751   1.277   0.270  1.00  0.00    -0.285 N 
ATOM     24  H   UNL     1      -7.763   1.321   0.338  1.00  0.00     0.189 HD
ENDBRANCH   4  19
TORSDOF 4
