MODEL        8USER    Run = 8USERUSER    Estimated Free Energy of Binding    =  -7.36 kcal/mol  [=(1)+(2)+(3)-(4)]USERUSER    (1) Final Intermolecular Energy     =  -8.85 kcal/molUSER        vdW + Hbond + desolv Energy     =  -8.66 kcal/molUSER        Electrostatic Energy            =  -0.19 kcal/molUSER        Moving Ligand-Fixed Receptor    =  -8.85 kcal/molUSER        Moving Ligand-Moving Receptor   =  +0.00 kcal/molUSER    (2) Final Total Internal Energy     =  -0.56 kcal/molUSER    (3) Torsional Free Energy           =  +1.49 kcal/molUSER    (4) Unbound System's Energy         =  -0.56 kcal/molUSERUSERREMARK SMILES CCOC(=O)c1ccc(O)c(-c2ccncc2)c1CREMARK SMILES IDX 4 1 5 2 3 3 2 4 1 5 6 6 7 7 18 8 8 9 11 10 9 11 19 12 12 13REMARK SMILES IDX 13 14 17 15 14 16 16 17 15 18 10 19REMARK H PARENT 10 20USER                              x       y       z     vdW  Elec       q    TypeUSER                           _______ _______ _______ _____ _____    ______ ____ROOTATOM      1  C   UNL     1      37.612  47.968  13.582 -0.31 -0.13    +0.338 C  ATOM      2  O   UNL     1      36.499  48.411  13.806 -0.46 +0.16    -0.246 OA ENDROOTBRANCH   1   3ATOM      3  O   UNL     1      38.041  47.370  12.444 -0.71 +0.03    -0.462 OA BRANCH   3   4ATOM      4  C   UNL     1      37.016  46.772  11.637 -0.50 -0.07    +0.230 C  ATOM      5  C   UNL     1      36.539  45.480  12.272 -0.62 -0.02    +0.049 C  ENDBRANCH   3   4ENDBRANCH   1   3BRANCH   1   6ATOM      6  C   UNL     1      38.696  47.922  14.591 -0.47 -0.03    +0.063 A  ATOM      7  C   UNL     1      39.711  48.875  14.439 -0.37 -0.01    +0.020 A  ATOM      8  C   UNL     1      38.737  46.976  15.645 -0.43 +0.01    -0.025 A  ATOM      9  C   UNL     1      40.751  48.937  15.360 -0.58 -0.01    +0.048 A  ATOM     10  C   UNL     1      39.783  47.059  16.601 -0.47 -0.01    +0.027 A  ATOM     11  C   UNL     1      40.776  48.050  16.431 -0.45 -0.02    +0.123 A  ATOM     12  C   UNL     1      37.668  45.913  15.760 -0.40 -0.02    +0.046 C  BRANCH  10  13ATOM     13  C   UNL     1      39.847  46.139  17.749 -0.45 +0.00    -0.011 A  ATOM     14  C   UNL     1      41.030  45.463  18.061 -0.44 -0.00    +0.029 A  ATOM     15  C   UNL     1      38.729  45.934  18.564 -0.31 -0.00    +0.029 A  ATOM     16  C   UNL     1      41.045  44.621  19.161 -0.31 +0.01    +0.111 A  ATOM     17  C   UNL     1      38.842  45.073  19.642 -0.31 -0.00    +0.111 A  ATOM     18  N   UNL     1      39.977  44.415  19.959 -0.20 -0.00    -0.265 NA ENDBRANCH  10  13BRANCH  11  19ATOM     19  O   UNL     1      41.823  48.212  17.302 -0.51 -0.00    -0.507 OA ATOM     20  H   UNL     1      42.455  47.484  17.185 -0.35 -0.09    +0.293 HD ENDBRANCH  11  19ENDBRANCH   1   6TORSDOF 5TERENDMDL