MODEL        6USER    Run = 6USERUSER    Estimated Free Energy of Binding    =  -7.30 kcal/mol  [=(1)+(2)+(3)-(4)]USERUSER    (1) Final Intermolecular Energy     =  -9.09 kcal/molUSER        vdW + Hbond + desolv Energy     =  -8.72 kcal/molUSER        Electrostatic Energy            =  -0.37 kcal/molUSER        Moving Ligand-Fixed Receptor    =  -9.09 kcal/molUSER        Moving Ligand-Moving Receptor   =  +0.00 kcal/molUSER    (2) Final Total Internal Energy     =  -0.95 kcal/molUSER    (3) Torsional Free Energy           =  +1.79 kcal/molUSER    (4) Unbound System's Energy         =  -0.95 kcal/molUSERUSERREMARK SMILES CNC(=O)c1ccc(O)cc1[C@H](CBr)CC(C)CREMARK SMILES IDX 12 1 11 2 5 3 6 4 7 5 10 6 8 7 3 8 2 9 1 10 4 12 9 13 13 15REMARK SMILES IDX 14 16 15 17 16 18 17 19 18 20REMARK H PARENT 2 11 9 14USER                              x       y       z     vdW  Elec       q    TypeUSER                           _______ _______ _______ _____ _____    ______ ____ROOTATOM      1  C   UNL     1      38.743  46.103  15.961 -0.43 -0.01    +0.031 C  ENDROOTBRANCH   1   2ATOM      2  C   UNL     1      37.617  46.385  14.962 -0.38 +0.01    -0.028 A  ATOM      3  C   UNL     1      36.269  46.059  15.224 -0.35 -0.03    +0.043 A  ATOM      4  C   UNL     1      35.266  46.323  14.274 -0.40 -0.01    +0.018 A  ATOM      5  C   UNL     1      35.588  46.898  13.046 -0.52 -0.03    +0.047 A  ATOM      6  C   UNL     1      37.918  46.943  13.704 -0.44 -0.02    +0.051 A  ATOM      7  C   UNL     1      36.915  47.197  12.771 -0.54 -0.04    +0.115 A  BRANCH   3   8ATOM      8  C   UNL     1      35.835  45.415  16.490 -0.22 -0.15    +0.251 C  ATOM      9  N   UNL     1      34.962  46.173  17.241 -0.16 +0.32    -0.355 N  ATOM     10  C   UNL     1      34.369  45.647  18.443 -0.42 -0.07    +0.143 C  ATOM     11  H   UNL     1      34.556  47.002  16.823 -0.25 -0.33    +0.163 HD ATOM     12  O   UNL     1      36.236  44.304  16.806 -0.19 +0.10    -0.269 OA ENDBRANCH   3   8BRANCH   7  13ATOM     13  O   UNL     1      37.286  47.747  11.580 -0.77 +0.06    -0.508 OA ATOM     14  H   UNL     1      36.586  48.352  11.282 -0.15 -0.16    +0.293 HD ENDBRANCH   7  13ENDBRANCH   1   2BRANCH   1  15ATOM     15  C   UNL     1      38.421  46.622  17.374 -0.34 -0.03    +0.089 C  ATOM     16  Br  UNL     1      39.183  45.471  18.756 -0.74 +0.01    -0.092 Br ENDBRANCH   1  15BRANCH   1  17ATOM     17  C   UNL     1      40.060  46.729  15.427 -0.53 -0.00    +0.012 C  BRANCH  17  18ATOM     18  C   UNL     1      40.418  48.137  15.953 -0.63 +0.00    -0.017 C  ATOM     19  C   UNL     1      41.369  48.121  17.146 -0.57 -0.00    +0.007 C  ATOM     20  C   UNL     1      40.964  49.044  14.847 -0.70 -0.00    +0.007 C  ENDBRANCH  17  18ENDBRANCH   1  17TORSDOF 6TERENDMDL