MODEL        9USER    Run = 9USERUSER    Estimated Free Energy of Binding    =  -6.38 kcal/mol  [=(1)+(2)+(3)-(4)]USERUSER    (1) Final Intermolecular Energy     =  -9.06 kcal/molUSER        vdW + Hbond + desolv Energy     =  -9.14 kcal/molUSER        Electrostatic Energy            =  -0.15 kcal/molUSER        Moving Ligand-Fixed Receptor    =  -9.29 kcal/molUSER        Moving Ligand-Moving Receptor   =  +0.24 kcal/molUSER    (2) Final Total Internal Energy     =  -0.94 kcal/molUSER    (3) Torsional Free Energy           =  +2.68 kcal/molUSER    (4) Unbound System's Energy         =  -0.94 kcal/molUSERUSERREMARK SMILES C[C@H]1CNCCCN1S(=O)(=O)Nc1cccc2cnccc12REMARK SMILES IDX 7 1 8 2 2 3 1 4 9 6 10 7 11 8 12 9 13 11 14 12 22 13 15 14REMARK SMILES IDX 21 15 17 16 16 17 20 18 18 19 19 20 6 21 5 22 4 23 3 25REMARK H PARENT 12 10 4 24REMARK Flexibility Score:  143.900USER                              x       y       z     vdW  Elec       q    TypeUSER                           _______ _______ _______ _____ _____    ______ ____ROOTATOM      1  C   UNL     1      37.914  46.777  14.970 -0.41 -0.05    +0.105 C  ENDROOTBRANCH   1   2ATOM      2  N   UNL     1      37.059  45.793  14.272 -0.27 +0.08    -0.180 NA BRANCH   2   3ATOM      3  C   UNL     1      37.125  45.748  12.773 -0.51 -0.03    +0.085 CG0ATOM      4  C   UNL     1      36.936  44.335  12.229 -0.49 -0.01    +0.027 C  ATOM      5  G   UNL     1      36.163  46.760  12.086 +0.00 +0.00    +0.000 G0 ENDBRANCH   2   3BRANCH   2   6ATOM      6  S   UNL     1      35.526  45.562  14.938 -0.32 -0.20    +0.301 S  ATOM      7  O   UNL     1      34.590  46.377  14.198 -0.41 +0.18    -0.189 OA ATOM      8  O   UNL     1      35.281  44.152  15.128 -0.20 +0.08    -0.189 OA BRANCH   6   9ATOM      9  N   UNL     1      35.676  46.282  16.442 -0.20 +0.24    -0.270 N  ATOM     10  H   UNL     1      35.051  47.086  16.436 -0.07 -0.33    +0.181 HD BRANCH   9  11ATOM     11  C   UNL     1      35.597  45.544  17.685 -0.32 -0.03    +0.058 A  ATOM     12  C   UNL     1      34.384  45.079  18.204 -0.38 -0.01    +0.027 A  ATOM     13  C   UNL     1      36.820  45.171  18.324 -0.32 -0.00    +0.009 A  ATOM     14  C   UNL     1      34.343  44.331  19.380 -0.40 -0.00    +0.003 A  ATOM     15  C   UNL     1      38.107  45.496  17.843 -0.36 -0.01    +0.031 A  ATOM     16  C   UNL     1      36.758  44.416  19.519 -0.36 -0.00    +0.002 A  ATOM     17  C   UNL     1      35.522  44.011  20.043 -0.40 -0.00    +0.010 A  ATOM     18  C   UNL     1      39.233  45.099  18.550 -0.34 -0.01    +0.111 A  ATOM     19  C   UNL     1      37.956  44.075  20.150 -0.27 -0.00    +0.119 A  ATOM     20  N   UNL     1      39.187  44.400  19.698 -0.20 +0.01    -0.264 NA ENDBRANCH   9  11ENDBRANCH   6   9ENDBRANCH   2   6ENDBRANCH   1   2BRANCH   1  21ATOM     21  C   UNL     1      38.100  48.092  14.223 -0.58 -0.01    +0.032 C  BRANCH  21  22ATOM     22  C   UNL     1      36.848  48.626  13.523 -0.48 -0.04    +0.082 C  BRANCH  22  23ATOM     23  N   UNL     1      36.589  48.160  12.157 -0.83 +0.11    -0.315 NA ATOM     24  H   UNL     1      35.893  48.764  11.722 -0.35 -0.07    +0.122 HD BRANCH  23  25ATOM     25  C   UNL     1      36.162  46.761  12.086 -0.67 -0.05    +0.101 CG0ATOM     26  G   UNL     1      37.122  45.747  12.775 +0.00 +0.00    +0.000 G0 ENDBRANCH  23  25ENDBRANCH  22  23ENDBRANCH  21  22ENDBRANCH   1  21TORSDOF 3TERENDMDL