REMARK SMILES C[C@H]1CNCCCN1S(=O)(=O)Nc1cccc2cnccc12
REMARK SMILES IDX 7 1 8 2 2 3 1 4 9 6 10 7 11 8 12 9 13 11 14 12 22 13 15 14
REMARK SMILES IDX 21 15 17 16 16 17 20 18 18 19 19 20 6 21 5 22 4 23 3 25
REMARK H PARENT 12 10 4 24
REMARK Flexibility Score:  143.900
ROOT
ATOM      1  C   UNL     1      -1.676  -0.465   1.367  1.00  0.00     0.105 C 
ENDROOT
BRANCH   1   2
ATOM      2  N   UNL     1      -1.264  -1.082   0.087  1.00  0.00    -0.180 NA
BRANCH   2   3
ATOM      3  C   UNL     1      -2.343  -1.472  -0.880  1.00  0.00     0.085 CG0
ATOM      4  C   UNL     1      -3.241  -2.576  -0.330  1.00  0.00     0.027 C 
ATOM      5  G   UNL     1      -3.174  -0.260  -1.393  1.00  0.00     0.000 G0
ENDBRANCH   2   3
BRANCH   2   6
ATOM      6  S   UNL     1       0.045  -2.142   0.180  1.00  0.00     0.301 S 
ATOM      7  O   UNL     1      -0.236  -3.109   1.217  1.00  0.00    -0.189 OA
ATOM      8  O   UNL     1       0.422  -2.575  -1.145  1.00  0.00    -0.189 OA
BRANCH   6   9
ATOM      9  N   UNL     1       1.260  -1.160   0.783  1.00  0.00    -0.270 N 
ATOM     10  H   UNL     1       1.954  -1.784   1.190  1.00  0.00     0.181 HD
BRANCH   9  11
ATOM     11  C   UNL     1       1.872  -0.096   0.016  1.00  0.00     0.058 A 
ATOM     12  C   UNL     1       1.267   0.452  -1.121  1.00  0.00     0.027 A 
ATOM     13  C   UNL     1       3.070   0.495   0.523  1.00  0.00     0.009 A 
ATOM     14  C   UNL     1       1.858   1.507  -1.814  1.00  0.00     0.003 A 
ATOM     15  C   UNL     1       3.720   0.096   1.712  1.00  0.00     0.031 A 
ATOM     16  C   UNL     1       3.658   1.562  -0.197  1.00  0.00     0.002 A 
ATOM     17  C   UNL     1       3.054   2.053  -1.363  1.00  0.00     0.010 A 
ATOM     18  C   UNL     1       4.891   0.726   2.108  1.00  0.00     0.111 A 
ATOM     19  C   UNL     1       4.841   2.120   0.293  1.00  0.00     0.119 A 
ATOM     20  N   UNL     1       5.471   1.726   1.421  1.00  0.00    -0.264 NA
ENDBRANCH   9  11
ENDBRANCH   6   9
ENDBRANCH   2   6
ENDBRANCH   1   2
BRANCH   1  21
ATOM     21  C   UNL     1      -2.733   0.623   1.230  1.00  0.00     0.032 C 
BRANCH  21  22
ATOM     22  C   UNL     1      -2.519   1.597   0.069  1.00  0.00     0.082 C 
BRANCH  22  23
ATOM     23  N   UNL     1      -2.502   1.037  -1.286  1.00  0.00    -0.315 NA
ATOM     24  H   UNL     1      -2.920   1.706  -1.931  1.00  0.00     0.122 HD
BRANCH  23  25
ATOM     25  C   UNL     1      -3.174  -0.260  -1.393  1.00  0.00     0.101 CG0
ATOM     26  G   UNL     1      -2.343  -1.472  -0.880  1.00  0.00     0.000 G0
ENDBRANCH  23  25
ENDBRANCH  22  23
ENDBRANCH  21  22
ENDBRANCH   1  21
TORSDOF 3
