REMARK SMILES CO[C]CO[C](C)Oc1cccc(O)c1C=O
REMARK SMILES IDX 5 1 4 2 3 3 2 4 1 5 6 6 7 7 8 8 9 9 10 10 15 11 11 12 13 13
REMARK SMILES IDX 12 14 16 15 17 16 14 17
REMARK H PARENT 14 18
ROOT
ATOM      1  O   UNL     1       1.063  -0.932  -0.173  1.00  0.00    -0.332 OA
ENDROOT
BRANCH   1   2
ATOM      2  C   UNL     1       2.235  -1.390  -0.846  1.00  0.00     0.207 C 
BRANCH   2   3
ATOM      3  C   UNL     1       2.844  -0.248  -1.540  1.00  0.00     0.159 C 
BRANCH   3   4
ATOM      4  O   UNL     1       3.380   0.802  -2.165  1.00  0.00    -0.369 OA
ATOM      5  C   UNL     1       2.493   1.911  -2.096  1.00  0.00     0.196 C 
ENDBRANCH   3   4
ENDBRANCH   2   3
ENDBRANCH   1   2
BRANCH   1   6
ATOM      6  C   UNL     1       0.264  -1.926   0.355  1.00  0.00     0.273 C 
ATOM      7  C   UNL     1       0.850  -3.176   0.923  1.00  0.00     0.098 C 
BRANCH   6   8
ATOM      8  O   UNL     1      -1.077  -1.711   0.640  1.00  0.00    -0.455 OA
BRANCH   8   9
ATOM      9  C   UNL     1      -1.577  -0.478   0.303  1.00  0.00     0.137 A 
ATOM     10  C   UNL     1      -2.239  -0.366  -0.925  1.00  0.00     0.047 A 
ATOM     11  C   UNL     1      -1.447   0.634   1.144  1.00  0.00     0.098 A 
ATOM     12  C   UNL     1      -2.738   0.869  -1.338  1.00  0.00     0.008 A 
ATOM     13  C   UNL     1      -1.968   1.864   0.727  1.00  0.00     0.129 A 
ATOM     14  C   UNL     1      -2.596   1.986  -0.514  1.00  0.00     0.047 A 
BRANCH  11  15
ATOM     15  C   UNL     1      -0.728   0.543   2.430  1.00  0.00     0.267 C 
ATOM     16  O   UNL     1      -0.720  -0.457   3.136  1.00  0.00    -0.298 OA
ENDBRANCH  11  15
BRANCH  13  17
ATOM     17  O   UNL     1      -1.923   3.001   1.488  1.00  0.00    -0.507 OA
ATOM     18  H   UNL     1      -2.074   2.764   2.421  1.00  0.00     0.293 HD
ENDBRANCH  13  17
ENDBRANCH   8   9
ENDBRANCH   6   8
ENDBRANCH   1   6
TORSDOF 8
