MODEL        2USER    Run = 2USERUSER    Estimated Free Energy of Binding    =  -8.41 kcal/mol  [=(1)+(2)+(3)-(4)]USERUSER    (1) Final Intermolecular Energy     = -10.20 kcal/molUSER        vdW + Hbond + desolv Energy     = -10.19 kcal/molUSER        Electrostatic Energy            =  -0.01 kcal/molUSER        Moving Ligand-Fixed Receptor    = -10.20 kcal/molUSER        Moving Ligand-Moving Receptor   =  +0.00 kcal/molUSER    (2) Final Total Internal Energy     =  -1.52 kcal/molUSER    (3) Torsional Free Energy           =  +1.79 kcal/molUSER    (4) Unbound System's Energy         =  -1.52 kcal/molUSERUSERREMARK SMILES C[C@H]1[C@@H](CO)CCN1Cc1nc(-c2ccc(Br)cc2)c(C#N)c(=O)[nH]1REMARK SMILES IDX 1 1 2 2 3 3 6 4 7 5 8 6 4 7 5 8 9 10 10 11 11 12 25 13 12 14REMARK SMILES IDX 23 15 20 16 24 18 13 19 14 20 19 21 15 22 18 23 16 24 17 25REMARK SMILES IDX 21 26 22 27REMARK H PARENT 5 9 25 17USER                              x       y       z     vdW  Elec       q    TypeUSER                           _______ _______ _______ _____ _____    ______ ____ROOTATOM      1  C   UNL     1      41.072  44.885  22.910 -0.21 +0.00    +0.025 C  ATOM      2  C   UNL     1      39.798  44.264  22.350 -0.27 +0.00    +0.059 C  ATOM      3  C   UNL     1      38.535  44.474  23.211 -0.32 +0.00    +0.033 C  ATOM      4  C   UNL     1      37.378  44.391  22.199 -0.40 +0.00    +0.023 C  ATOM      5  C   UNL     1      38.041  44.202  20.844 -0.37 +0.00    +0.086 C  ATOM      6  N   UNL     1      39.378  44.787  21.028 -0.16 -0.01    -0.293 NA ENDROOTBRANCH   3   7ATOM      7  C   UNL     1      38.486  45.785  24.001 -0.26 +0.02    +0.161 C  BRANCH   7   8ATOM      8  O   UNL     1      38.755  46.890  23.142 -0.21 -0.06    -0.396 OA ATOM      9  H   UNL     1      39.013  46.539  22.274 +0.09 +0.02    +0.210 HD ENDBRANCH   7   8ENDBRANCH   3   7BRANCH   6  10ATOM     10  C   UNL     1      40.269  44.371  19.923 -0.30 +0.00    +0.160 C  BRANCH  10  11ATOM     11  C   UNL     1      40.487  45.528  18.959 -0.37 -0.00    +0.123 A  ATOM     12  N   UNL     1      39.737  45.691  17.919 -0.27 +0.03    -0.232 NA ATOM     13  N   UNL     1      41.490  46.391  19.290 -0.26 -0.02    -0.308 N  ATOM     14  C   UNL     1      39.997  46.778  17.108 -0.42 -0.02    +0.096 A  ATOM     15  C   UNL     1      41.855  47.434  18.492 -0.30 -0.01    +0.269 A  ATOM     16  C   UNL     1      40.985  47.672  17.320 -0.41 -0.02    +0.143 A  ATOM     17  H   UNL     1      42.094  46.141  20.066 +0.10 +0.03    +0.171 HD ATOM     18  O   UNL     1      42.846  48.111  18.737 -0.49 -0.00    -0.268 OA BRANCH  14  19ATOM     19  C   UNL     1      39.074  46.926  15.958 -0.45 -0.00    +0.002 A  ATOM     20  C   UNL     1      38.371  48.121  15.740 -0.46 -0.01    +0.011 A  ATOM     21  C   UNL     1      38.915  45.865  15.056 -0.37 -0.00    +0.011 A  ATOM     22  C   UNL     1      37.504  48.241  14.650 -0.52 -0.01    +0.016 A  ATOM     23  C   UNL     1      38.052  45.986  13.964 -0.41 -0.00    +0.016 A  ATOM     24  C   UNL     1      37.348  47.173  13.769 -0.50 -0.01    +0.018 A  ATOM     25  Br  UNL     1      36.178  47.337  12.293 -1.18 +0.03    -0.051 Br ENDBRANCH  14  19BRANCH  16  26ATOM     26  C   UNL     1      41.240  48.803  16.503 -0.46 -0.01    +0.107 C  ATOM     27  N   UNL     1      41.478  49.729  15.843 -1.01 +0.01    -0.192 NA ENDBRANCH  16  26ENDBRANCH  10  11ENDBRANCH   6  10TORSDOF 6TERENDMDL