REMARK SMILES CNC(=O)c1ccc(O)cc1[C@H](CBr)CC(C)C
REMARK SMILES IDX 12 1 11 2 5 3 6 4 7 5 10 6 8 7 3 8 2 9 1 10 4 12 9 13 13 15
REMARK SMILES IDX 14 16 15 17 16 18 17 19 18 20
REMARK H PARENT 2 11 9 14
ROOT
ATOM      1  C   UNL     1      -0.759   0.400  -0.779  1.00  0.00     0.031 C 
ENDROOT
BRANCH   1   2
ATOM      2  C   UNL     1       0.595   1.060  -0.502  1.00  0.00    -0.028 A 
ATOM      3  C   UNL     1       1.760   0.316  -0.220  1.00  0.00     0.043 A 
ATOM      4  C   UNL     1       2.982   0.961   0.042  1.00  0.00     0.018 A 
ATOM      5  C   UNL     1       3.061   2.353   0.044  1.00  0.00     0.047 A 
ATOM      6  C   UNL     1       0.697   2.465  -0.470  1.00  0.00     0.051 A 
ATOM      7  C   UNL     1       1.913   3.092  -0.207  1.00  0.00     0.115 A 
BRANCH   3   8
ATOM      8  C   UNL     1       1.766  -1.169  -0.168  1.00  0.00     0.251 C 
ATOM      9  N   UNL     1       2.139  -1.691   1.052  1.00  0.00    -0.355 N 
ATOM     10  C   UNL     1       2.095  -3.110   1.295  1.00  0.00     0.143 C 
ATOM     11  H   UNL     1       2.213  -1.066   1.845  1.00  0.00     0.163 HD
ATOM     12  O   UNL     1       1.457  -1.838  -1.143  1.00  0.00    -0.269 OA
ENDBRANCH   3   8
BRANCH   7  13
ATOM     13  O   UNL     1       1.932   4.455  -0.203  1.00  0.00    -0.508 OA
ATOM     14  H   UNL     1       2.849   4.756  -0.085  1.00  0.00     0.293 HD
ENDBRANCH   7  13
ENDBRANCH   1   2
BRANCH   1  15
ATOM     15  C   UNL     1      -1.410   0.912  -2.077  1.00  0.00     0.089 C 
ATOM     16  Br  UNL     1      -0.383   0.390  -3.654  1.00  0.00    -0.092 Br
ENDBRANCH   1  15
BRANCH   1  17
ATOM     17  C   UNL     1      -1.694   0.633   0.439  1.00  0.00     0.012 C 
BRANCH  17  18
ATOM     18  C   UNL     1      -2.591  -0.554   0.857  1.00  0.00    -0.017 C 
ATOM     19  C   UNL     1      -3.543  -1.017  -0.242  1.00  0.00     0.007 C 
ATOM     20  C   UNL     1      -1.774  -1.735   1.388  1.00  0.00     0.007 C 
ENDBRANCH  17  18
ENDBRANCH   1  17
TORSDOF 6
