MODEL        10USER    Run = 10USERUSER    Estimated Free Energy of Binding    =  -8.30 kcal/mol  [=(1)+(2)+(3)-(4)]USERUSER    (1) Final Intermolecular Energy     = -10.38 kcal/molUSER        vdW + Hbond + desolv Energy     =  -9.96 kcal/molUSER        Electrostatic Energy            =  -0.42 kcal/molUSER        Moving Ligand-Fixed Receptor    = -10.38 kcal/molUSER        Moving Ligand-Moving Receptor   =  +0.00 kcal/molUSER    (2) Final Total Internal Energy     =  -1.00 kcal/molUSER    (3) Torsional Free Energy           =  +2.09 kcal/molUSER    (4) Unbound System's Energy         =  -1.00 kcal/molUSERUSERREMARK SMILES CC=Nc1c(NC(=O)/C=C/c2ccc(O)cc2)c2cnc1c(=O)[nH]2REMARK SMILES IDX 6 1 7 2 8 3 5 5 4 6 21 7 18 8 20 9 22 10 19 11 24 12 23 13REMARK SMILES IDX 3 15 2 16 1 17 9 18 10 19 11 20 12 21 17 22 13 23 16 24REMARK SMILES IDX 14 25 15 26REMARK H PARENT 6 4 24 14 15 27USER                              x       y       z     vdW  Elec       q    TypeUSER                           _______ _______ _______ _____ _____    ______ ____ROOTATOM      1  N   UNL     1      30.843  29.936  22.222 -0.27 +0.04    -0.319 N  ATOM      2  C   UNL     1      32.088  30.189  22.747 -0.46 +0.01    +0.248 C  ATOM      3  O   UNL     1      32.324  30.536  23.898 -0.47 -0.06    -0.270 OA ATOM      4  H   UNL     1      30.741  29.612  21.267 -0.18 -0.05    +0.170 HD ENDROOTBRANCH   1   5ATOM      5  C   UNL     1      29.637  30.029  22.941 -0.46 -0.01    +0.095 A  ATOM      6  C   UNL     1      28.774  31.107  22.744 -0.38 -0.01    +0.120 A  ATOM      7  C   UNL     1      27.579  30.905  23.435 -0.23 +0.02    +0.156 A  ATOM      8  C   UNL     1      29.188  29.098  23.885 -0.40 -0.01    +0.086 A  ATOM      9  N   UNL     1      27.021  29.661  23.259 -0.29 +0.07    -0.246 NA ATOM     10  C   UNL     1      28.022  30.894  24.940 -0.24 +0.19    +0.276 A  ATOM     11  C   UNL     1      27.927  28.684  23.483 -0.43 -0.05    +0.140 A  ATOM     12  N   UNL     1      28.990  29.877  25.120 -0.27 -0.16    -0.317 N  ATOM     13  O   UNL     1      27.550  31.595  25.817 -0.92 -0.32    -0.267 OA ATOM     14  H   UNL     1      28.939  29.396  26.011 +0.16 +0.08    +0.170 HD BRANCH   6  15ATOM     15  N   UNL     1      29.000  32.069  21.740 -0.24 +0.06    -0.257 NA BRANCH  15  16ATOM     16  C   UNL     1      28.318  33.175  21.719 -0.41 -0.02    +0.081 C  ATOM     17  C   UNL     1      28.270  34.250  22.763 -0.43 +0.01    +0.058 C  ENDBRANCH  15  16ENDBRANCH   6  15ENDBRANCH   1   5BRANCH   2  18ATOM     18  C   UNL     1      33.172  29.989  21.748 -0.18 -0.00    +0.072 C  BRANCH  18  19ATOM     19  C   UNL     1      34.330  29.425  22.126 -0.56 -0.00    +0.014 C  BRANCH  19  20ATOM     20  C   UNL     1      35.417  30.155  22.790 -0.37 +0.00    -0.025 A  ATOM     21  C   UNL     1      35.252  30.542  24.128 -0.16 +0.00    +0.012 A  ATOM     22  C   UNL     1      36.588  30.527  22.118 -0.41 -0.00    +0.012 A  ATOM     23  C   UNL     1      36.247  31.265  24.789 -0.45 +0.00    +0.047 A  ATOM     24  C   UNL     1      37.583  31.253  22.777 -0.45 +0.01    +0.047 A  ATOM     25  C   UNL     1      37.407  31.612  24.106 -0.46 +0.02    +0.115 A  BRANCH  25  26ATOM     26  O   UNL     1      38.405  32.316  24.712 -0.75 -0.14    -0.508 OA ATOM     27  H   UNL     1      38.111  32.562  25.605 -0.24 -0.11    +0.293 HD ENDBRANCH  25  26ENDBRANCH  19  20ENDBRANCH  18  19ENDBRANCH   2  18TORSDOF 7TERENDMDL