MODEL        5USER    Run = 5USERUSER    Estimated Free Energy of Binding    =  -8.32 kcal/mol  [=(1)+(2)+(3)-(4)]USERUSER    (1) Final Intermolecular Energy     = -10.11 kcal/molUSER        vdW + Hbond + desolv Energy     =  -9.98 kcal/molUSER        Electrostatic Energy            =  -0.13 kcal/molUSER        Moving Ligand-Fixed Receptor    = -10.11 kcal/molUSER        Moving Ligand-Moving Receptor   =  +0.00 kcal/molUSER    (2) Final Total Internal Energy     =  -1.71 kcal/molUSER    (3) Torsional Free Energy           =  +1.79 kcal/molUSER    (4) Unbound System's Energy         =  -1.71 kcal/molUSERUSERREMARK SMILES CO[C@@H]1[C@H](O)[C@@H](CN2CCC(F)CC2)O[C@H]1n1cnc2c(N)ncnc21REMARK SMILES IDX 3 1 4 2 6 3 15 4 16 5 2 6 1 7 5 8 17 10 18 11 26 12 19 13REMARK SMILES IDX 25 14 20 15 24 16 21 17 23 18 22 19 7 22 8 23 9 24 14 25REMARK SMILES IDX 10 26 13 27 11 28 12 29REMARK H PARENT 5 9 22 20 22 21USER                              x       y       z     vdW  Elec       q    TypeUSER                           _______ _______ _______ _____ _____    ______ ____ROOTATOM      1  C   UNL     1      37.988  46.979  14.156 -0.38 -0.07    +0.199 C  ATOM      2  C   UNL     1      36.503  46.643  14.174 -0.38 -0.11    +0.178 C  ATOM      3  C   UNL     1      36.195  46.534  15.668 -0.31 -0.14    +0.166 C  ATOM      4  O   UNL     1      37.104  47.441  16.343 -0.18 +0.28    -0.348 OA ATOM      5  C   UNL     1      38.059  47.913  15.372 -0.35 -0.15    +0.254 C  ENDROOTBRANCH   1   6ATOM      6  O   UNL     1      38.313  47.592  12.900 -0.61 +0.04    -0.374 OA ATOM      7  C   UNL     1      37.625  47.004  11.803 -0.29 -0.03    +0.195 C  ENDBRANCH   1   6BRANCH   2   8ATOM      8  O   UNL     1      35.765  47.741  13.608 -0.22 +0.28    -0.387 OA ATOM      9  H   UNL     1      36.422  48.455  13.485 +0.16 -0.12    +0.211 HD ENDBRANCH   2   8BRANCH   5  10ATOM     10  N   UNL     1      39.345  48.030  16.025 -0.28 +0.11    -0.285 N  ATOM     11  C   UNL     1      40.332  48.907  15.648 -0.43 -0.06    +0.204 A  ATOM     12  C   UNL     1      39.812  47.330  17.103 -0.34 -0.04    +0.167 A  ATOM     13  N   UNL     1      41.411  48.789  16.392 -0.92 +0.00    -0.231 NA ATOM     14  N   UNL     1      39.183  46.378  17.813 -0.30 +0.04    -0.216 NA ATOM     15  C   UNL     1      41.097  47.808  17.309 -0.39 -0.02    +0.150 A  ATOM     16  C   UNL     1      39.966  45.923  18.813 -0.29 -0.01    +0.226 A  ATOM     17  C   UNL     1      41.822  47.241  18.371 -0.42 -0.00    +0.155 A  ATOM     18  N   UNL     1      41.224  46.295  19.129 -0.32 -0.01    -0.217 NA BRANCH  17  19ATOM     19  N   UNL     1      43.121  47.616  18.691 -0.29 -0.03    -0.382 N  ATOM     20  H   UNL     1      43.155  48.527  19.129 -0.48 -0.02    +0.158 HD ATOM     21  H   UNL     1      43.786  47.424  17.951 -0.46 +0.01    +0.158 HD ENDBRANCH  17  19ENDBRANCH   5  10BRANCH   3  22ATOM     22  C   UNL     1      36.414  45.119  16.247 -0.32 -0.05    +0.119 C  BRANCH  22  23ATOM     23  N   UNL     1      35.377  44.666  17.191 -0.10 +0.13    -0.300 NA ATOM     24  C   UNL     1      34.346  45.697  17.414 -0.38 -0.07    +0.087 C  ATOM     25  C   UNL     1      35.972  44.222  18.455 -0.33 -0.02    +0.087 C  ATOM     26  C   UNL     1      33.575  45.524  18.725 -0.49 -0.02    +0.053 C  ATOM     27  C   UNL     1      34.931  43.493  19.308 -0.42 -0.01    +0.053 C  ATOM     28  C   UNL     1      33.530  44.064  19.130 -0.36 -0.03    +0.169 C  ATOM     29  F   UNL     1      32.856  43.947  20.307 -0.11 -0.01    -0.247 F  ENDBRANCH  22  23ENDBRANCH   3  22TORSDOF 6TERENDMDL