MODEL        2USER    Run = 2USERUSER    Estimated Free Energy of Binding    =  -9.23 kcal/mol  [=(1)+(2)+(3)-(4)]USERUSER    (1) Final Intermolecular Energy     = -11.02 kcal/molUSER        vdW + Hbond + desolv Energy     = -10.52 kcal/molUSER        Electrostatic Energy            =  -0.50 kcal/molUSER        Moving Ligand-Fixed Receptor    = -11.02 kcal/molUSER        Moving Ligand-Moving Receptor   =  +0.00 kcal/molUSER    (2) Final Total Internal Energy     =  -0.76 kcal/molUSER    (3) Torsional Free Energy           =  +1.79 kcal/molUSER    (4) Unbound System's Energy         =  -0.76 kcal/molUSERUSERREMARK SMILES NC(=O)c1cccc(-c2ccc(NC(F)=C3C[CH]C[C@H](O)C3)cc2F)c1REMARK SMILES IDX 13 1 12 3 9 4 10 5 24 6 11 7 23 8 25 9 8 10 4 11 5 12 26 13REMARK SMILES IDX 6 14 7 15 2 16 1 17 3 20 14 21 15 22 16 23 17 24 22 25 18 26REMARK SMILES IDX 20 27 19 28 21 29REMARK H PARENT 13 2 1 18 1 19 21 30USER                              x       y       z     vdW  Elec       q    TypeUSER                           _______ _______ _______ _____ _____    ______ ____ROOTATOM      1  N   UNL     1      33.931  42.904  16.234 -0.18 +0.16    -0.332 N  ATOM      2  H   UNL     1      34.030  41.910  16.071 -0.36 -0.11    +0.169 HD ENDROOTBRANCH   1   3ATOM      3  C   UNL     1      35.136  43.588  16.462 -0.35 -0.02    +0.043 A  ATOM      4  C   UNL     1      37.591  44.933  17.068 -0.34 -0.01    +0.018 A  ATOM      5  C   UNL     1      37.229  44.630  15.747 -0.34 -0.00    +0.014 A  ATOM      6  C   UNL     1      36.697  44.540  18.072 -0.25 -0.03    +0.133 A  ATOM      7  C   UNL     1      36.026  43.967  15.452 -0.36 -0.01    +0.027 A  ATOM      8  C   UNL     1      35.499  43.883  17.782 -0.27 -0.02    +0.066 A  ATOM      9  F   UNL     1      36.970  44.797  19.361 -0.08 +0.02    -0.206 F  BRANCH   4  10ATOM     10  C   UNL     1      38.856  45.628  17.369 -0.39 +0.00    -0.015 A  ATOM     11  C   UNL     1      40.393  47.502  17.011 -0.49 -0.01    +0.040 A  ATOM     12  C   UNL     1      41.283  46.962  17.944 -0.50 -0.00    +0.014 A  ATOM     13  C   UNL     1      39.186  46.841  16.739 -0.43 -0.01    +0.022 A  ATOM     14  C   UNL     1      40.974  45.761  18.581 -0.48 +0.00    +0.001 A  ATOM     15  C   UNL     1      39.777  45.101  18.292 -0.42 -0.00    +0.009 A  BRANCH  11  16ATOM     16  C   UNL     1      40.671  48.779  16.301 -0.41 -0.05    +0.248 C  ATOM     17  N   UNL     1      39.649  49.347  15.592 -0.21 +0.19    -0.366 N  ATOM     18  H   UNL     1      38.685  49.091  15.742 +0.04 -0.11    +0.159 HD ATOM     19  H   UNL     1      39.831  50.275  15.230 -0.31 -0.12    +0.159 HD ATOM     20  O   UNL     1      41.763  49.332  16.371 -1.02 -0.05    -0.270 OA ENDBRANCH  11  16ENDBRANCH   4  10ENDBRANCH   1   3BRANCH   1  21ATOM     21  C   UNL     1      32.639  43.370  16.231 -0.26 -0.09    +0.190 C  ATOM     22  F   UNL     1      31.749  42.794  17.072 -0.05 +0.06    -0.187 F  BRANCH  21  23ATOM     23  C   UNL     1      32.167  44.387  15.481 -0.41 +0.01    -0.014 C  ATOM     24  C   UNL     1      33.046  45.492  14.946 -0.32 -0.03    +0.039 C  ATOM     25  C   UNL     1      30.686  44.467  15.161 -0.38 -0.04    +0.067 C  ATOM     26  C   UNL     1      32.437  46.247  13.811 -0.27 +0.00    -0.001 C  ATOM     27  C   UNL     1      30.204  45.907  14.948 -0.44 -0.05    +0.119 C  ATOM     28  C   UNL     1      30.977  46.583  13.810 -0.58 -0.02    +0.036 C  BRANCH  27  29ATOM     29  O   UNL     1      30.354  46.674  16.146 -0.41 -0.03    -0.393 OA ATOM     30  H   UNL     1      31.220  47.114  16.108 -0.26 -0.13    +0.210 HD ENDBRANCH  27  29ENDBRANCH  21  23ENDBRANCH   1  21TORSDOF 6TERENDMDL