MODEL        3USER    Run = 3USERUSER    Estimated Free Energy of Binding    =  -5.96 kcal/mol  [=(1)+(2)+(3)-(4)]USERUSER    (1) Final Intermolecular Energy     =  -8.34 kcal/molUSER        vdW + Hbond + desolv Energy     =  -8.08 kcal/molUSER        Electrostatic Energy            =  -0.26 kcal/molUSER        Moving Ligand-Fixed Receptor    =  -8.34 kcal/molUSER        Moving Ligand-Moving Receptor   =  +0.00 kcal/molUSER    (2) Final Total Internal Energy     =  -0.95 kcal/molUSER    (3) Torsional Free Energy           =  +2.39 kcal/molUSER    (4) Unbound System's Energy         =  -0.95 kcal/molUSERUSERREMARK SMILES CO[C]CO[C](C)Oc1cccc(O)c1C=OREMARK SMILES IDX 5 1 4 2 3 3 2 4 1 5 6 6 7 7 8 8 9 9 10 10 15 11 11 12 13 13REMARK SMILES IDX 12 14 16 15 17 16 14 17REMARK H PARENT 14 18USER                              x       y       z     vdW  Elec       q    TypeUSER                           _______ _______ _______ _____ _____    ______ ____ROOTATOM      1  O   UNL     1      36.963  48.462  12.762 -0.87 +0.08    -0.332 OA ENDROOTBRANCH   1   2ATOM      2  C   UNL     1      35.966  47.457  12.581 -0.52 -0.12    +0.207 C  BRANCH   2   3ATOM      3  C   UNL     1      36.576  46.324  11.874 -0.59 -0.06    +0.159 C  BRANCH   3   4ATOM      4  O   UNL     1      37.150  45.306  11.229 -0.26 +0.11    -0.369 OA ATOM      5  C   UNL     1      36.952  44.100  11.956 -0.32 -0.06    +0.196 C  ENDBRANCH   3   4ENDBRANCH   2   3ENDBRANCH   1   2BRANCH   1   6ATOM      6  C   UNL     1      37.741  48.318  13.893 -0.37 -0.12    +0.273 C  ATOM      7  C   UNL     1      37.330  48.907  15.201 -0.46 -0.09    +0.098 C  BRANCH   6   8ATOM      8  O   UNL     1      38.784  47.404  13.950 -0.21 +0.12    -0.455 OA BRANCH   8   9ATOM      9  C   UNL     1      39.250  47.095  15.204 -0.37 -0.04    +0.137 A  ATOM     10  C   UNL     1      38.593  46.074  15.900 -0.36 -0.01    +0.047 A  ATOM     11  C   UNL     1      40.341  47.759  15.778 -0.46 -0.02    +0.098 A  ATOM     12  C   UNL     1      38.998  45.738  17.192 -0.40 -0.00    +0.008 A  ATOM     13  C   UNL     1      40.750  47.401  17.068 -0.41 -0.02    +0.129 A  ATOM     14  C   UNL     1      40.073  46.408  17.778 -0.44 -0.01    +0.047 A  BRANCH  11  15ATOM     15  C   UNL     1      41.029  48.857  15.072 -0.44 -0.04    +0.267 C  ATOM     16  O   UNL     1      41.813  49.627  15.610 -0.92 -0.02    -0.298 OA ENDBRANCH  11  15BRANCH  13  17ATOM     17  O   UNL     1      41.824  47.964  17.703 -0.39 +0.02    -0.507 OA ATOM     18  H   UNL     1      42.528  48.129  17.050 -0.30 +0.02    +0.293 HD ENDBRANCH  13  17ENDBRANCH   8   9ENDBRANCH   6   8ENDBRANCH   1   6TORSDOF 8TERENDMDL