REMARK SMILES C[C@H]1[C@@H](CO)CCN1Cc1nc(-c2ccc(Br)cc2)c(C#N)c(=O)[nH]1
REMARK SMILES IDX 1 1 2 2 3 3 6 4 7 5 8 6 4 7 5 8 9 10 10 11 11 12 25 13 12 14
REMARK SMILES IDX 23 15 20 16 24 18 13 19 14 20 19 21 15 22 18 23 16 24 17 25
REMARK SMILES IDX 21 26 22 27
REMARK H PARENT 5 9 25 17
ROOT
ATOM      1  C   UNL     1      -1.593   0.806   1.354  1.00  0.00     0.025 C 
ATOM      2  C   UNL     1      -2.303  -0.522   1.115  1.00  0.00     0.059 C 
ATOM      3  C   UNL     1      -3.844  -0.453   1.143  1.00  0.00     0.033 C 
ATOM      4  C   UNL     1      -4.284  -1.636   0.261  1.00  0.00     0.023 C 
ATOM      5  C   UNL     1      -2.994  -2.257  -0.252  1.00  0.00     0.086 C 
ATOM      6  N   UNL     1      -2.031  -1.146  -0.201  1.00  0.00    -0.293 NA
ENDROOT
BRANCH   3   7
ATOM      7  C   UNL     1      -4.455   0.862   0.650  1.00  0.00     0.161 C 
BRANCH   7   8
ATOM      8  O   UNL     1      -5.871   0.838   0.807  1.00  0.00    -0.396 OA
ATOM      9  H   UNL     1      -6.243   0.295   0.092  1.00  0.00     0.210 HD
ENDBRANCH   7   8
ENDBRANCH   3   7
BRANCH   6  10
ATOM     10  C   UNL     1      -0.652  -1.666  -0.330  1.00  0.00     0.160 C 
BRANCH  10  11
ATOM     11  C   UNL     1       0.270  -0.584  -0.872  1.00  0.00     0.123 A 
ATOM     12  N   UNL     1       1.523  -0.544  -0.557  1.00  0.00    -0.232 NA
ATOM     13  N   UNL     1      -0.304   0.303  -1.735  1.00  0.00    -0.308 N 
ATOM     14  C   UNL     1       2.289   0.464  -1.109  1.00  0.00     0.096 A 
ATOM     15  C   UNL     1       0.371   1.369  -2.249  1.00  0.00     0.269 A 
ATOM     16  C   UNL     1       1.817   1.414  -1.943  1.00  0.00     0.143 A 
ATOM     17  H   UNL     1      -1.311   0.264  -1.855  1.00  0.00     0.171 HD
ATOM     18  O   UNL     1      -0.199   2.231  -2.908  1.00  0.00    -0.268 OA
BRANCH  14  19
ATOM     19  C   UNL     1       3.723   0.424  -0.738  1.00  0.00     0.002 A 
ATOM     20  C   UNL     1       4.290   1.413   0.080  1.00  0.00     0.011 A 
ATOM     21  C   UNL     1       4.526  -0.633  -1.190  1.00  0.00     0.011 A 
ATOM     22  C   UNL     1       5.645   1.357   0.419  1.00  0.00     0.016 A 
ATOM     23  C   UNL     1       5.880  -0.691  -0.848  1.00  0.00     0.016 A 
ATOM     24  C   UNL     1       6.433   0.307  -0.048  1.00  0.00     0.018 A 
ATOM     25  Br  UNL     1       8.265   0.230   0.413  1.00  0.00    -0.051 Br
ENDBRANCH  14  19
BRANCH  16  26
ATOM     26  C   UNL     1       2.606   2.436  -2.531  1.00  0.00     0.107 C 
ATOM     27  N   UNL     1       3.276   3.264  -2.993  1.00  0.00    -0.192 NA
ENDBRANCH  16  26
ENDBRANCH  10  11
ENDBRANCH   6  10
TORSDOF 6
