REMARK SMILES Cc1c(OC[C@H](O)C[C@@H](O)CCC(C)C)ccc2oc(-c3ccccc3)cc(=O)c12
REMARK SMILES IDX 8 1 6 2 5 3 4 4 3 5 2 6 30 7 16 8 28 9 18 10 17 11 27 12
REMARK SMILES IDX 19 13 20 14 1 15 29 16 21 17 22 18 26 19 23 20 25 21 24 22
REMARK SMILES IDX 7 23 9 25 10 26 11 28 12 29 13 30 14 31 15 32
REMARK H PARENT 7 24 10 27
ROOT
ATOM      1  C   UNL     1      -3.371   1.167  -1.083  1.00  0.00     0.067 C 
ENDROOT
BRANCH   1   2
ATOM      2  C   UNL     1      -2.396   0.092  -0.588  1.00  0.00     0.154 C 
BRANCH   2   3
ATOM      3  C   UNL     1      -0.944   0.471  -0.912  1.00  0.00     0.261 C 
BRANCH   3   4
ATOM      4  O   UNL     1      -0.105  -0.542  -0.344  1.00  0.00    -0.491 OA
BRANCH   4   5
ATOM      5  C   UNL     1       1.254  -0.382  -0.434  1.00  0.00     0.123 A 
ATOM      6  C   UNL     1       2.042  -1.347   0.235  1.00  0.00     0.006 A 
ATOM      7  C   UNL     1       3.453  -1.232   0.184  1.00  0.00     0.071 A 
ATOM      8  C   UNL     1       1.868   0.657  -1.142  1.00  0.00     0.050 A 
ATOM      9  C   UNL     1       4.372  -2.185   0.858  1.00  0.00     0.193 A 
ATOM     10  C   UNL     1       4.044  -0.183  -0.525  1.00  0.00     0.139 A 
ATOM     11  C   UNL     1       3.257   0.756  -1.185  1.00  0.00     0.052 A 
ATOM     12  C   UNL     1       5.817  -1.945   0.708  1.00  0.00     0.100 A 
ATOM     13  O   UNL     1       5.400   0.003  -0.630  1.00  0.00    -0.456 OA
ATOM     14  C   UNL     1       6.243  -0.891   0.001  1.00  0.00     0.138 A 
ATOM     15  C   UNL     1       1.379  -2.473   0.991  1.00  0.00     0.049 C 
ATOM     16  O   UNL     1       3.999  -3.142   1.522  1.00  0.00    -0.289 OA
BRANCH  14  17
ATOM     17  C   UNL     1       7.679  -0.609  -0.189  1.00  0.00     0.017 A 
ATOM     18  C   UNL     1       8.151  -0.197  -1.445  1.00  0.00     0.012 A 
ATOM     19  C   UNL     1       8.596  -0.717   0.868  1.00  0.00     0.012 A 
ATOM     20  C   UNL     1       9.505   0.085  -1.643  1.00  0.00     0.001 A 
ATOM     21  C   UNL     1       9.950  -0.435   0.669  1.00  0.00     0.001 A 
ATOM     22  C   UNL     1      10.404  -0.035  -0.586  1.00  0.00     0.000 A 
ENDBRANCH  14  17
ENDBRANCH   4   5
ENDBRANCH   3   4
ENDBRANCH   2   3
BRANCH   2  23
ATOM     23  O   UNL     1      -2.712  -1.162  -1.207  1.00  0.00    -0.389 OA
ATOM     24  H   UNL     1      -1.974  -1.764  -0.981  1.00  0.00     0.211 HD
ENDBRANCH   2  23
ENDBRANCH   1   2
BRANCH   1  25
ATOM     25  C   UNL     1      -4.860   0.807  -0.947  1.00  0.00     0.117 C 
BRANCH  25  26
ATOM     26  O   UNL     1      -5.179  -0.280  -1.812  1.00  0.00    -0.393 OA
ATOM     27  H   UNL     1      -4.458  -0.939  -1.704  1.00  0.00     0.210 HD
ENDBRANCH  25  26
BRANCH  25  28
ATOM     28  C   UNL     1      -5.277   0.465   0.488  1.00  0.00     0.032 C 
BRANCH  28  29
ATOM     29  C   UNL     1      -6.778   0.190   0.665  1.00  0.00     0.006 C 
BRANCH  29  30
ATOM     30  C   UNL     1      -7.725   1.345   0.287  1.00  0.00    -0.017 C 
ATOM     31  C   UNL     1      -9.177   0.920   0.525  1.00  0.00     0.007 C 
ATOM     32  C   UNL     1      -7.426   2.626   1.066  1.00  0.00     0.007 C 
ENDBRANCH  29  30
ENDBRANCH  28  29
ENDBRANCH  25  28
ENDBRANCH   1  25
TORSDOF 11
