REMARK SMILES CC=Nc1c(NC(=O)/C=C/c2ccc(O)cc2)c2cnc1c(=O)[nH]2
REMARK SMILES IDX 6 1 7 2 8 3 5 5 4 6 21 7 18 8 20 9 22 10 19 11 24 12 23 13
REMARK SMILES IDX 3 15 2 16 1 17 9 18 10 19 11 20 12 21 17 22 13 23 16 24
REMARK SMILES IDX 14 25 15 26
REMARK H PARENT 6 4 24 14 15 27
ROOT
ATOM      1  N   UNL     1      -0.913   0.434   0.293  1.00  0.00    -0.319 N 
ATOM      2  C   UNL     1       0.316   0.901  -0.108  1.00  0.00     0.248 C 
ATOM      3  O   UNL     1       0.559   2.036  -0.500  1.00  0.00    -0.270 OA
ATOM      4  H   UNL     1      -1.017  -0.511   0.644  1.00  0.00     0.170 HD
ENDROOT
BRANCH   1   5
ATOM      5  C   UNL     1      -2.091   1.203   0.323  1.00  0.00     0.095 A 
ATOM      6  C   UNL     1      -3.289   0.649   0.773  1.00  0.00     0.120 A 
ATOM      7  C   UNL     1      -4.274   1.632   0.868  1.00  0.00     0.156 A 
ATOM      8  C   UNL     1      -2.189   2.542  -0.073  1.00  0.00     0.086 A 
ATOM      9  N   UNL     1      -3.875   2.780   1.511  1.00  0.00    -0.246 NA
ATOM     10  C   UNL     1      -4.471   2.099  -0.617  1.00  0.00     0.276 A 
ATOM     11  C   UNL     1      -2.715   3.247   1.000  1.00  0.00     0.140 A 
ATOM     12  N   UNL     1      -3.227   2.552  -1.119  1.00  0.00    -0.317 N 
ATOM     13  O   UNL     1      -5.536   2.136  -1.207  1.00  0.00    -0.267 OA
ATOM     14  H   UNL     1      -3.288   3.339  -1.754  1.00  0.00     0.170 HD
BRANCH   6  15
ATOM     15  N   UNL     1      -3.350  -0.643   1.333  1.00  0.00    -0.257 NA
BRANCH  15  16
ATOM     16  C   UNL     1      -4.191  -1.522   0.877  1.00  0.00     0.081 C 
ATOM     17  C   UNL     1      -5.141  -1.381  -0.274  1.00  0.00     0.058 C 
ENDBRANCH  15  16
ENDBRANCH   6  15
ENDBRANCH   1   5
BRANCH   2  18
ATOM     18  C   UNL     1       1.374  -0.141  -0.012  1.00  0.00     0.072 C 
BRANCH  18  19
ATOM     19  C   UNL     1       2.636   0.158  -0.356  1.00  0.00     0.014 C 
BRANCH  19  20
ATOM     20  C   UNL     1       3.751  -0.794  -0.284  1.00  0.00    -0.025 A 
ATOM     21  C   UNL     1       5.009  -0.331   0.129  1.00  0.00     0.012 A 
ATOM     22  C   UNL     1       3.616  -2.135  -0.667  1.00  0.00     0.012 A 
ATOM     23  C   UNL     1       6.105  -1.195   0.182  1.00  0.00     0.047 A 
ATOM     24  C   UNL     1       4.712  -2.999  -0.617  1.00  0.00     0.047 A 
ATOM     25  C   UNL     1       5.945  -2.525  -0.190  1.00  0.00     0.115 A 
BRANCH  25  26
ATOM     26  O   UNL     1       6.986  -3.404  -0.153  1.00  0.00    -0.508 OA
ATOM     27  H   UNL     1       7.770  -2.940   0.185  1.00  0.00     0.293 HD
ENDBRANCH  25  26
ENDBRANCH  19  20
ENDBRANCH  18  19
ENDBRANCH   2  18
TORSDOF 7
