REMARK SMILES C[C@@H]1CN(c2nc(-c3ccncn3)ccc2C2CC2)CCN1C=O
REMARK SMILES IDX 1 1 2 2 3 3 4 4 20 5 21 6 22 7 23 8 24 9 5 10 6 11 16 12
REMARK SMILES IDX 7 13 15 14 14 15 17 16 18 17 19 18 8 19 9 20 13 21 10 22
REMARK SMILES IDX 12 23 11 24
REMARK H PARENT
ROOT
ATOM      1  C   UNL     1      -3.785   0.070   1.516  1.00  0.00     0.033 C 
ATOM      2  C   UNL     1      -2.478  -0.340   0.819  1.00  0.00     0.101 C 
ATOM      3  C   UNL     1      -2.152   0.773  -0.220  1.00  0.00     0.143 C 
ATOM      4  N   UNL     1      -0.998   0.451  -1.081  1.00  0.00    -0.353 N 
ATOM      5  C   UNL     1      -1.144  -0.853  -1.744  1.00  0.00     0.139 C 
ATOM      6  C   UNL     1      -1.469  -1.990  -0.765  1.00  0.00     0.141 C 
ATOM      7  N   UNL     1      -2.535  -1.685   0.194  1.00  0.00    -0.339 N 
ENDROOT
BRANCH   7   8
ATOM      8  C   UNL     1      -2.990  -2.775   0.928  1.00  0.00     0.340 C 
ATOM      9  O   UNL     1      -3.499  -2.763   2.039  1.00  0.00    -0.279 OA
ENDBRANCH   7   8
BRANCH   4  10
ATOM     10  C   UNL     1       0.254   0.715  -0.499  1.00  0.00     0.132 A 
ATOM     11  N   UNL     1       1.044  -0.343  -0.183  1.00  0.00    -0.229 NA
ATOM     12  C   UNL     1       0.669   2.051  -0.284  1.00  0.00    -0.002 A 
ATOM     13  C   UNL     1       2.249  -0.136   0.416  1.00  0.00     0.091 A 
ATOM     14  C   UNL     1       1.905   2.232   0.354  1.00  0.00     0.010 A 
ATOM     15  C   UNL     1       2.695   1.146   0.709  1.00  0.00     0.031 A 
BRANCH  12  16
ATOM     16  C   UNL     1      -0.125   3.277  -0.705  1.00  0.00     0.023 C 
ATOM     17  C   UNL     1      -0.574   3.452  -2.138  1.00  0.00     0.009 C 
ATOM     18  C   UNL     1       0.519   4.319  -1.596  1.00  0.00     0.009 C 
ENDBRANCH  12  16
BRANCH  13  19
ATOM     19  C   UNL     1       3.054  -1.339   0.738  1.00  0.00     0.092 A 
ATOM     20  C   UNL     1       2.679  -2.608   0.326  1.00  0.00     0.051 A 
ATOM     21  N   UNL     1       4.188  -1.142   1.457  1.00  0.00    -0.235 NA
ATOM     22  C   UNL     1       3.506  -3.648   0.684  1.00  0.00     0.115 A 
ATOM     23  C   UNL     1       4.916  -2.229   1.751  1.00  0.00     0.222 A 
ATOM     24  N   UNL     1       4.632  -3.489   1.397  1.00  0.00    -0.245 NA
ENDBRANCH  13  19
ENDBRANCH   4  10
TORSDOF 4
