REMARK SMILES C[C@H]1CN(c2nc(-c3ccncn3)ccc2C2CC2)CCN1c1ccc(F)cc1
REMARK SMILES IDX 1 1 2 2 3 3 4 4 20 5 21 6 22 7 23 8 24 9 29 10 25 11 28 12
REMARK SMILES IDX 26 13 27 14 5 15 6 16 16 17 7 18 15 19 14 20 17 21 18 22
REMARK SMILES IDX 19 23 8 24 9 25 13 26 10 27 12 28 11 29
REMARK H PARENT
ROOT
ATOM      1  C   UNL     1       2.983  -2.033   0.515  1.00  0.00     0.033 C 
ATOM      2  C   UNL     1       2.217  -1.060  -0.387  1.00  0.00     0.098 C 
ATOM      3  C   UNL     1       0.694  -1.378  -0.398  1.00  0.00     0.142 C 
ATOM      4  N   UNL     1       0.024  -1.119   0.905  1.00  0.00    -0.353 N 
ATOM      5  C   UNL     1       0.612   0.018   1.658  1.00  0.00     0.139 C 
ATOM      6  C   UNL     1       1.369   1.011   0.755  1.00  0.00     0.138 C 
ATOM      7  N   UNL     1       2.482   0.349   0.026  1.00  0.00    -0.365 N 
ENDROOT
BRANCH   7   8
ATOM      8  C   UNL     1       3.367   1.128  -0.726  1.00  0.00     0.037 A 
ATOM      9  C   UNL     1       3.213   2.521  -0.867  1.00  0.00     0.029 A 
ATOM     10  C   UNL     1       4.494   0.562  -1.352  1.00  0.00     0.029 A 
ATOM     11  C   UNL     1       4.114   3.298  -1.608  1.00  0.00     0.041 A 
ATOM     12  C   UNL     1       5.401   1.330  -2.094  1.00  0.00     0.041 A 
ATOM     13  C   UNL     1       5.199   2.693  -2.216  1.00  0.00     0.123 A 
ATOM     14  F   UNL     1       6.063   3.432  -2.924  1.00  0.00    -0.207 F 
ENDBRANCH   7   8
BRANCH   4  15
ATOM     15  C   UNL     1      -1.365  -0.940   0.667  1.00  0.00     0.132 A 
ATOM     16  N   UNL     1      -1.829   0.325   0.524  1.00  0.00    -0.229 NA
ATOM     17  C   UNL     1      -2.200  -2.074   0.553  1.00  0.00    -0.002 A 
ATOM     18  C   UNL     1      -3.138   0.532   0.240  1.00  0.00     0.091 A 
ATOM     19  C   UNL     1      -3.547  -1.827   0.247  1.00  0.00     0.010 A 
ATOM     20  C   UNL     1      -4.022  -0.529   0.091  1.00  0.00     0.031 A 
BRANCH  17  21
ATOM     21  C   UNL     1      -1.711  -3.500   0.723  1.00  0.00     0.023 C 
ATOM     22  C   UNL     1      -1.067  -3.937   2.019  1.00  0.00     0.009 C 
ATOM     23  C   UNL     1      -2.429  -4.445   1.663  1.00  0.00     0.009 C 
ENDBRANCH  17  21
BRANCH  18  24
ATOM     24  C   UNL     1      -3.561   1.940   0.106  1.00  0.00     0.092 A 
ATOM     25  C   UNL     1      -4.720   2.417   0.697  1.00  0.00     0.051 A 
ATOM     26  N   UNL     1      -2.755   2.745  -0.627  1.00  0.00    -0.235 NA
ATOM     27  C   UNL     1      -5.008   3.748   0.499  1.00  0.00     0.115 A 
ATOM     28  C   UNL     1      -3.134   4.024  -0.752  1.00  0.00     0.222 A 
ATOM     29  N   UNL     1      -4.236   4.575  -0.225  1.00  0.00    -0.245 NA
ENDBRANCH  18  24
ENDBRANCH   4  15
TORSDOF 4
