MODEL        2USER    Run = 2USERUSER    Estimated Free Energy of Binding    =  -8.51 kcal/mol  [=(1)+(2)+(3)-(4)]USERUSER    (1) Final Intermolecular Energy     =  -9.70 kcal/molUSER        vdW + Hbond + desolv Energy     =  -9.56 kcal/molUSER        Electrostatic Energy            =  -0.14 kcal/molUSER        Moving Ligand-Fixed Receptor    =  -9.70 kcal/molUSER        Moving Ligand-Moving Receptor   =  +0.00 kcal/molUSER    (2) Final Total Internal Energy     =  -1.16 kcal/molUSER    (3) Torsional Free Energy           =  +1.19 kcal/molUSER    (4) Unbound System's Energy         =  -1.16 kcal/molUSERUSERREMARK SMILES C[C@@H]1CN(c2nc(-c3ccncn3)ccc2C2CC2)CCN1C=OREMARK SMILES IDX 1 1 2 2 3 3 4 4 20 5 21 6 22 7 23 8 24 9 5 10 6 11 16 12REMARK SMILES IDX 7 13 15 14 14 15 17 16 18 17 19 18 8 19 9 20 13 21 10 22REMARK SMILES IDX 12 23 11 24REMARK H PARENTUSER                              x       y       z     vdW  Elec       q    TypeUSER                           _______ _______ _______ _____ _____    ______ ____ROOTATOM      1  C   UNL     1      33.943  46.487  18.349 -0.59 -0.03    +0.033 C  ATOM      2  C   UNL     1      35.313  46.066  17.792 -0.37 -0.07    +0.101 C  ATOM      3  C   UNL     1      35.233  46.207  16.244 -0.25 -0.15    +0.143 C  ATOM      4  N   UNL     1      36.429  45.696  15.547 -0.11 +0.20    -0.353 N  ATOM      5  C   UNL     1      36.748  44.312  15.928 -0.33 -0.05    +0.139 C  ATOM      6  C   UNL     1      36.837  44.115  17.448 -0.28 -0.04    +0.141 C  ATOM      7  N   UNL     1      35.729  44.703  18.207 -0.11 +0.11    -0.339 N  ENDROOTBRANCH   7   8ATOM      8  C   UNL     1      35.680  44.338  19.547 -0.21 -0.05    +0.340 C  ATOM      9  O   UNL     1      34.781  43.742  20.123 -0.36 +0.01    -0.279 OA ENDBRANCH   7   8BRANCH   4  10ATOM     10  C   UNL     1      37.510  46.595  15.510 -0.30 -0.07    +0.132 A  ATOM     11  N   UNL     1      38.486  46.453  16.443 -0.24 +0.08    -0.229 NA ATOM     12  C   UNL     1      37.571  47.591  14.507 -0.50 +0.00    -0.002 A  ATOM     13  C   UNL     1      39.533  47.323  16.468 -0.42 -0.03    +0.091 A  ATOM     14  C   UNL     1      38.649  48.485  14.571 -0.51 -0.00    +0.010 A  ATOM     15  C   UNL     1      39.628  48.360  15.549 -0.52 -0.01    +0.031 A  BRANCH  12  16ATOM     16  C   UNL     1      36.562  47.738  13.379 -0.66 -0.01    +0.023 C  ATOM     17  C   UNL     1      35.896  46.523  12.774 -0.67 -0.00    +0.009 C  ATOM     18  C   UNL     1      36.923  47.272  11.983 -0.73 -0.00    +0.009 C  ENDBRANCH  12  16BRANCH  13  19ATOM     19  C   UNL     1      40.558  47.111  17.519 -0.44 -0.01    +0.092 A  ATOM     20  C   UNL     1      40.475  46.068  18.428 -0.44 -0.00    +0.051 A  ATOM     21  N   UNL     1      41.594  47.987  17.549 -0.51 +0.01    -0.235 NA ATOM     22  C   UNL     1      41.485  45.971  19.357 -0.37 +0.01    +0.115 A  ATOM     23  C   UNL     1      42.520  47.797  18.500 -0.29 +0.00    +0.222 A  ATOM     24  N   UNL     1      42.522  46.822  19.418 -0.34 -0.04    -0.245 NA ENDBRANCH  13  19ENDBRANCH   4  10TORSDOF 4TERENDMDL