MODEL        6USER    Run = 6USERUSER    Estimated Free Energy of Binding    =  -9.09 kcal/mol  [=(1)+(2)+(3)-(4)]USERUSER    (1) Final Intermolecular Energy     = -10.28 kcal/molUSER        vdW + Hbond + desolv Energy     = -10.17 kcal/molUSER        Electrostatic Energy            =  -0.11 kcal/molUSER        Moving Ligand-Fixed Receptor    = -10.28 kcal/molUSER        Moving Ligand-Moving Receptor   =  +0.00 kcal/molUSER    (2) Final Total Internal Energy     =  -1.39 kcal/molUSER    (3) Torsional Free Energy           =  +1.19 kcal/molUSER    (4) Unbound System's Energy         =  -1.39 kcal/molUSERUSERREMARK SMILES C[C@H]1CN(c2nc(-c3ccncn3)ccc2C2CC2)CCN1c1ccc(F)cc1REMARK SMILES IDX 1 1 2 2 3 3 4 4 20 5 21 6 22 7 23 8 24 9 29 10 25 11 28 12REMARK SMILES IDX 26 13 27 14 5 15 6 16 16 17 7 18 15 19 14 20 17 21 18 22REMARK SMILES IDX 19 23 8 24 9 25 13 26 10 27 12 28 11 29REMARK H PARENTUSER                              x       y       z     vdW  Elec       q    TypeUSER                           _______ _______ _______ _____ _____    ______ ____ROOTATOM      1  C   UNL     1      36.029  46.268  13.368 -0.57 -0.02    +0.033 C  ATOM      2  C   UNL     1      36.282  46.525  14.857 -0.39 -0.07    +0.098 C  ATOM      3  C   UNL     1      35.177  45.875  15.739 -0.30 -0.13    +0.142 C  ATOM      4  N   UNL     1      35.198  44.388  15.717 -0.11 +0.17    -0.353 N  ATOM      5  C   UNL     1      36.561  43.817  15.568 -0.35 -0.05    +0.139 C  ATOM      6  C   UNL     1      37.672  44.785  16.020 -0.29 -0.04    +0.138 C  ATOM      7  N   UNL     1      37.643  46.051  15.243 -0.11 +0.15    -0.365 N  ENDROOTBRANCH   7   8ATOM      8  C   UNL     1      38.669  46.985  15.417 -0.42 -0.01    +0.037 A  ATOM      9  C   UNL     1      39.480  47.009  16.569 -0.45 -0.01    +0.029 A  ATOM     10  C   UNL     1      38.978  47.932  14.421 -0.48 -0.01    +0.029 A  ATOM     11  C   UNL     1      40.518  47.937  16.729 -0.50 -0.01    +0.041 A  ATOM     12  C   UNL     1      40.014  48.863  14.571 -0.47 -0.01    +0.041 A  ATOM     13  C   UNL     1      40.773  48.856  15.728 -0.51 -0.02    +0.123 A  ATOM     14  F   UNL     1      41.765  49.744  15.876 -0.18 -0.01    -0.207 F  ENDBRANCH   7   8BRANCH   4  15ATOM     15  C   UNL     1      34.545  43.912  16.885 -0.23 -0.06    +0.132 A  ATOM     16  N   UNL     1      35.305  43.636  17.972 -0.15 +0.07    -0.229 NA ATOM     17  C   UNL     1      33.138  43.778  16.886 -0.32 +0.00    -0.002 A  ATOM     18  C   UNL     1      34.711  43.235  19.123 -0.33 -0.01    +0.091 A  ATOM     19  C   UNL     1      32.552  43.372  18.095 -0.32 -0.00    +0.010 A  ATOM     20  C   UNL     1      33.331  43.098  19.214 -0.38 -0.00    +0.031 A  BRANCH  17  21ATOM     21  C   UNL     1      32.264  44.066  15.680 -0.39 -0.01    +0.023 C  ATOM     22  C   UNL     1      30.859  44.591  15.863 -0.40 -0.00    +0.009 C  ATOM     23  C   UNL     1      31.918  45.493  15.312 -0.48 -0.01    +0.009 C  ENDBRANCH  17  21BRANCH  18  24ATOM     24  C   UNL     1      35.612  42.950  20.257 -0.38 -0.00    +0.092 A  ATOM     25  C   UNL     1      36.563  43.863  20.684 -0.38 -0.00    +0.051 A  ATOM     26  N   UNL     1      35.460  41.747  20.860 -0.28 -0.01    -0.235 NA ATOM     27  C   UNL     1      37.344  43.481  21.751 -0.32 +0.01    +0.115 A  ATOM     28  C   UNL     1      36.276  41.484  21.890 -0.38 +0.01    +0.222 A  ATOM     29  N   UNL     1      37.227  42.296  22.371 -0.29 -0.02    -0.245 NA ENDBRANCH  18  24ENDBRANCH   4  15TORSDOF 4TERENDMDL