REMARK SMILES Cc1c(C=c2cc3c(cn2)=C(NC2CCN(c4nc5ccccc5n4C(=O)N4CCOCC4)CC2)NN=C3)cccc1C(C)C
REMARK SMILES IDX 5 1 6 2 7 3 8 4 9 5 10 6 11 7 36 8 37 9 38 10 4 12 3 13 2 14
REMARK SMILES IDX 42 15 39 16 41 17 40 18 1 19 43 20 44 21 45 22 12 23 13 25
REMARK SMILES IDX 14 26 35 27 15 28 34 29 16 30 17 31 18 32 25 33 19 34 24 35
REMARK SMILES IDX 20 36 23 37 21 38 22 39 26 40 28 41 29 42 33 43 30 44 32 45
REMARK SMILES IDX 31 46 27 47
REMARK H PARENT 36 11 12 24
ROOT
ATOM      1  C   UNL     1       4.629   0.065   2.023  1.00  0.00     0.064 A 
ATOM      2  C   UNL     1       4.648  -1.127   1.178  1.00  0.00     0.039 A 
ATOM      3  C   UNL     1       3.520  -1.740   0.806  1.00  0.00     0.009 A 
ATOM      4  C   UNL     1       2.240  -1.227   1.215  1.00  0.00     0.044 A 
ATOM      5  C   UNL     1       2.324  -0.060   2.122  1.00  0.00     0.124 A 
ATOM      6  N   UNL     1       3.418   0.530   2.497  1.00  0.00    -0.256 NA
ATOM      7  C   UNL     1       1.109  -1.838   0.783  1.00  0.00     0.129 C 
ATOM      8  N   UNL     1       1.271  -2.986   0.000  1.00  0.00    -0.263 N 
ATOM      9  N   UNL     1       2.441  -3.554  -0.429  1.00  0.00    -0.182 NA
ATOM     10  C   UNL     1       3.521  -2.949  -0.042  1.00  0.00     0.142 C 
ATOM     11  H   UNL     1       0.416  -3.495  -0.211  1.00  0.00     0.192 HD
ENDROOT
BRANCH   1  12
ATOM     12  C   UNL     1       5.748   0.735   2.361  1.00  0.00     0.036 C 
BRANCH  12  13
ATOM     13  C   UNL     1       7.107   0.410   1.903  1.00  0.00    -0.020 A 
ATOM     14  C   UNL     1       7.663   0.975   0.730  1.00  0.00    -0.040 A 
ATOM     15  C   UNL     1       8.952   0.556   0.304  1.00  0.00    -0.042 A 
ATOM     16  C   UNL     1       7.820  -0.552   2.632  1.00  0.00     0.008 A 
ATOM     17  C   UNL     1       9.622  -0.439   1.045  1.00  0.00     0.004 A 
ATOM     18  C   UNL     1       9.067  -0.983   2.201  1.00  0.00     0.001 A 
ATOM     19  C   UNL     1       6.912   2.037  -0.043  1.00  0.00     0.045 C 
BRANCH  15  20
ATOM     20  C   UNL     1       9.616   1.125  -0.948  1.00  0.00     0.013 C 
ATOM     21  C   UNL     1       9.576   0.107  -2.090  1.00  0.00     0.012 C 
ATOM     22  C   UNL     1      11.053   1.603  -0.697  1.00  0.00     0.012 C 
ENDBRANCH  15  20
ENDBRANCH  12  13
ENDBRANCH   1  12
BRANCH   7  23
ATOM     23  N   UNL     1      -0.165  -1.370   1.090  1.00  0.00    -0.367 N 
ATOM     24  H   UNL     1      -0.181  -0.391   1.360  1.00  0.00     0.162 HD
BRANCH  23  25
ATOM     25  C   UNL     1      -1.422  -1.814   0.478  1.00  0.00     0.084 C 
ATOM     26  C   UNL     1      -1.526  -1.304  -0.960  1.00  0.00     0.046 C 
ATOM     27  C   UNL     1      -2.613  -1.383   1.345  1.00  0.00     0.046 C 
ATOM     28  C   UNL     1      -2.950  -1.500  -1.458  1.00  0.00     0.122 C 
ATOM     29  C   UNL     1      -3.475  -0.311   0.676  1.00  0.00     0.122 C 
ATOM     30  N   UNL     1      -3.895  -0.714  -0.666  1.00  0.00    -0.342 N 
BRANCH  30  31
ATOM     31  C   UNL     1      -5.214  -1.018  -0.845  1.00  0.00     0.215 A 
ATOM     32  N   UNL     1      -5.709  -2.233  -0.912  1.00  0.00    -0.212 NA
ATOM     33  N   UNL     1      -6.210  -0.041  -0.943  1.00  0.00    -0.230 N 
ATOM     34  C   UNL     1      -7.056  -2.080  -1.075  1.00  0.00     0.091 A 
ATOM     35  C   UNL     1      -7.415  -0.735  -1.110  1.00  0.00     0.079 A 
ATOM     36  C   UNL     1      -8.044  -3.067  -1.223  1.00  0.00     0.031 A 
ATOM     37  C   UNL     1      -8.741  -0.338  -1.360  1.00  0.00     0.029 A 
ATOM     38  C   UNL     1      -9.368  -2.678  -1.444  1.00  0.00     0.002 A 
ATOM     39  C   UNL     1      -9.710  -1.332  -1.523  1.00  0.00     0.002 A 
BRANCH  33  40
ATOM     40  C   UNL     1      -6.006   1.354  -0.995  1.00  0.00     0.331 C 
ATOM     41  N   UNL     1      -7.040   2.091  -0.407  1.00  0.00    -0.319 N 
ATOM     42  C   UNL     1      -7.135   3.512  -0.770  1.00  0.00     0.150 C 
ATOM     43  C   UNL     1      -7.380   1.819   1.004  1.00  0.00     0.150 C 
ATOM     44  C   UNL     1      -6.979   4.426   0.445  1.00  0.00     0.181 C 
ATOM     45  C   UNL     1      -8.421   2.815   1.514  1.00  0.00     0.181 C 
ATOM     46  O   UNL     1      -7.964   4.178   1.460  1.00  0.00    -0.378 OA
ATOM     47  O   UNL     1      -5.027   1.826  -1.555  1.00  0.00    -0.248 OA
ENDBRANCH  33  40
ENDBRANCH  30  31
ENDBRANCH  23  25
ENDBRANCH   7  23
TORSDOF 7
