REMARK SMILES Cc1c(C=c2cc3c(cn2)=C(NC2CCN(c4nc5ccccc5n4C(=O)CN4CCOCC4)CC2)NN=C3)cccc1C(C)C
REMARK SMILES IDX 12 1 11 3 5 4 6 5 10 6 7 7 9 8 8 9 39 10 38 11 37 12 4 14
REMARK SMILES IDX 3 15 2 16 43 17 40 18 42 19 41 20 1 21 44 22 45 23 46 24
REMARK SMILES IDX 13 25 14 26 36 27 15 28 35 29 16 30 17 31 18 32 25 33 19 34
REMARK SMILES IDX 24 35 20 36 23 37 21 38 22 39 26 40 27 41 28 42 29 43 30 44
REMARK SMILES IDX 34 45 31 46 33 47 32 48
REMARK H PARENT 12 2 37 13
ROOT
ATOM      1  N   UNL     1      -0.238  -2.297  -1.989  1.00  0.00    -0.367 N 
ATOM      2  H   UNL     1      -0.022  -2.110  -2.967  1.00  0.00     0.162 HD
ENDROOT
BRANCH   1   3
ATOM      3  C   UNL     1       0.956  -2.377  -1.278  1.00  0.00     0.129 C 
ATOM      4  C   UNL     1       4.402  -0.130  -2.027  1.00  0.00     0.064 A 
ATOM      5  C   UNL     1       4.349  -1.132  -0.964  1.00  0.00     0.039 A 
ATOM      6  N   UNL     1       3.269   0.104  -2.786  1.00  0.00    -0.256 NA
ATOM      7  C   UNL     1       3.241  -1.847  -0.734  1.00  0.00     0.009 A 
ATOM      8  C   UNL     1       2.193  -0.585  -2.555  1.00  0.00     0.124 A 
ATOM      9  C   UNL     1       2.061  -1.640  -1.529  1.00  0.00     0.044 A 
ATOM     10  C   UNL     1       3.161  -2.884   0.318  1.00  0.00     0.142 C 
ATOM     11  N   UNL     1       2.103  -3.603   0.542  1.00  0.00    -0.182 NA
ATOM     12  N   UNL     1       1.029  -3.320  -0.258  1.00  0.00    -0.263 N 
ATOM     13  H   UNL     1       0.230  -3.948  -0.229  1.00  0.00     0.192 HD
BRANCH   4  14
ATOM     14  C   UNL     1       5.507   0.588  -2.302  1.00  0.00     0.036 C 
BRANCH  14  15
ATOM     15  C   UNL     1       6.800   0.491  -1.609  1.00  0.00    -0.020 A 
ATOM     16  C   UNL     1       7.134   1.322  -0.513  1.00  0.00    -0.040 A 
ATOM     17  C   UNL     1       8.369   1.118   0.155  1.00  0.00    -0.042 A 
ATOM     18  C   UNL     1       7.695  -0.490  -2.058  1.00  0.00     0.008 A 
ATOM     19  C   UNL     1       9.250   0.130  -0.332  1.00  0.00     0.004 A 
ATOM     20  C   UNL     1       8.918  -0.667  -1.425  1.00  0.00     0.001 A 
ATOM     21  C   UNL     1       6.177   2.394  -0.048  1.00  0.00     0.045 C 
BRANCH  17  22
ATOM     22  C   UNL     1       8.784   1.957   1.363  1.00  0.00     0.013 C 
ATOM     23  C   UNL     1       9.286   1.100   2.538  1.00  0.00     0.012 C 
ATOM     24  C   UNL     1       9.836   2.994   0.965  1.00  0.00     0.012 C 
ENDBRANCH  17  22
ENDBRANCH  14  15
ENDBRANCH   4  14
ENDBRANCH   1   3
BRANCH   1  25
ATOM     25  C   UNL     1      -1.311  -1.359  -1.571  1.00  0.00     0.084 C 
ATOM     26  C   UNL     1      -1.770  -1.594  -0.127  1.00  0.00     0.046 C 
ATOM     27  C   UNL     1      -2.481  -1.499  -2.546  1.00  0.00     0.046 C 
ATOM     28  C   UNL     1      -3.283  -1.556   0.036  1.00  0.00     0.122 C 
ATOM     29  C   UNL     1      -3.599  -0.520  -2.200  1.00  0.00     0.122 C 
ATOM     30  N   UNL     1      -3.929  -0.496  -0.757  1.00  0.00    -0.342 N 
BRANCH  30  31
ATOM     31  C   UNL     1      -3.886   0.749  -0.197  1.00  0.00     0.213 A 
ATOM     32  N   UNL     1      -2.796   1.473  -0.101  1.00  0.00    -0.212 NA
ATOM     33  N   UNL     1      -5.020   1.425   0.276  1.00  0.00    -0.247 N 
ATOM     34  C   UNL     1      -3.191   2.677   0.403  1.00  0.00     0.091 A 
ATOM     35  C   UNL     1      -4.562   2.700   0.635  1.00  0.00     0.078 A 
ATOM     36  C   UNL     1      -2.412   3.813   0.678  1.00  0.00     0.031 A 
ATOM     37  C   UNL     1      -5.200   3.847   1.141  1.00  0.00     0.029 A 
ATOM     38  C   UNL     1      -3.036   4.960   1.180  1.00  0.00     0.002 A 
ATOM     39  C   UNL     1      -4.411   4.974   1.404  1.00  0.00     0.002 A 
BRANCH  33  40
ATOM     40  C   UNL     1      -6.358   0.977   0.390  1.00  0.00     0.248 C 
ATOM     41  O   UNL     1      -7.227   1.773   0.742  1.00  0.00    -0.273 OA
BRANCH  40  42
ATOM     42  C   UNL     1      -6.594  -0.498   0.092  1.00  0.00     0.186 C 
BRANCH  42  43
ATOM     43  N   UNL     1      -7.993  -0.922   0.357  1.00  0.00    -0.290 NA
ATOM     44  C   UNL     1      -8.335  -0.931   1.798  1.00  0.00     0.113 C 
ATOM     45  C   UNL     1      -8.245  -2.251  -0.243  1.00  0.00     0.113 C 
ATOM     46  C   UNL     1      -8.271  -2.327   2.447  1.00  0.00     0.175 C 
ATOM     47  C   UNL     1      -9.407  -2.984   0.443  1.00  0.00     0.175 C 
ATOM     48  O   UNL     1      -9.116  -3.299   1.812  1.00  0.00    -0.379 OA
ENDBRANCH  42  43
ENDBRANCH  40  42
ENDBRANCH  33  40
ENDBRANCH  30  31
ENDBRANCH   1  25
TORSDOF 9
