REMARK SMILES Cc1cc(CN2CCN(C(=O)[C@H]3C[C@@H]3F)CC2)ccc1S(=O)(=O)Nc1ccc(N2CCCCC2)cc1
REMARK SMILES IDX 1 1 2 2 3 3 4 4 18 5 19 6 20 7 21 8 22 9 23 10 24 11 25 13
REMARK SMILES IDX 26 14 36 15 27 16 35 17 28 18 29 19 30 20 34 21 31 22 33 23
REMARK SMILES IDX 32 24 5 25 6 26 7 27 17 28 8 29 16 30 9 31 10 32 11 33 12 34
REMARK SMILES IDX 13 35 14 36 15 37
REMARK H PARENT 24 12
ROOT
ATOM      1  C   UNL     1       0.968  -2.391  -3.850  1.00  0.00     0.046 C 
ATOM      2  C   UNL     1       0.853  -1.521  -2.628  1.00  0.00    -0.030 A 
ATOM      3  C   UNL     1       1.471  -0.258  -2.641  1.00  0.00     0.010 A 
ATOM      4  C   UNL     1       1.404   0.610  -1.537  1.00  0.00    -0.034 A 
ATOM      5  C   UNL     1       0.699   0.195  -0.401  1.00  0.00     0.006 A 
ATOM      6  C   UNL     1       0.078  -1.056  -0.366  1.00  0.00     0.023 A 
ATOM      7  C   UNL     1       0.140  -1.908  -1.477  1.00  0.00     0.090 A 
ENDROOT
BRANCH   7   8
ATOM      8  S   UNL     1      -0.684  -3.494  -1.433  1.00  0.00     0.262 S 
ATOM      9  O   UNL     1       0.356  -4.478  -1.210  1.00  0.00    -0.201 OA
ATOM     10  O   UNL     1      -1.566  -3.577  -2.578  1.00  0.00    -0.201 OA
BRANCH   8  11
ATOM     11  N   UNL     1      -1.603  -3.504  -0.035  1.00  0.00    -0.280 N 
ATOM     12  H   UNL     1      -1.351  -4.269   0.590  1.00  0.00     0.180 HD
BRANCH  11  13
ATOM     13  C   UNL     1      -2.868  -2.870   0.129  1.00  0.00     0.049 A 
ATOM     14  C   UNL     1      -3.376  -1.895  -0.722  1.00  0.00     0.029 A 
ATOM     15  C   UNL     1      -3.579  -3.174   1.291  1.00  0.00     0.029 A 
ATOM     16  C   UNL     1      -4.596  -1.261  -0.434  1.00  0.00     0.028 A 
ATOM     17  C   UNL     1      -4.793  -2.536   1.573  1.00  0.00     0.028 A 
ATOM     18  C   UNL     1      -5.332  -1.563   0.718  1.00  0.00     0.037 A 
BRANCH  18  19
ATOM     19  N   UNL     1      -6.545  -0.945   1.048  1.00  0.00    -0.372 N 
ATOM     20  C   UNL     1      -6.513  -0.246   2.349  1.00  0.00     0.116 C 
ATOM     21  C   UNL     1      -7.362  -0.329  -0.008  1.00  0.00     0.116 C 
ATOM     22  C   UNL     1      -7.712   0.686   2.508  1.00  0.00     0.021 C 
ATOM     23  C   UNL     1      -7.254   1.191   0.054  1.00  0.00     0.021 C 
ATOM     24  C   UNL     1      -7.772   1.729   1.390  1.00  0.00     0.004 C 
ENDBRANCH  18  19
ENDBRANCH  11  13
ENDBRANCH   8  11
ENDBRANCH   7   8
BRANCH   4  25
ATOM     25  C   UNL     1       2.093   1.959  -1.595  1.00  0.00     0.120 C 
BRANCH  25  26
ATOM     26  N   UNL     1       3.393   2.050  -0.931  1.00  0.00    -0.296 NA
ATOM     27  C   UNL     1       4.379   1.040  -1.332  1.00  0.00     0.106 C 
ATOM     28  C   UNL     1       3.347   2.308   0.516  1.00  0.00     0.106 C 
ATOM     29  C   UNL     1       5.730   1.242  -0.617  1.00  0.00     0.135 C 
ATOM     30  C   UNL     1       4.239   1.385   1.367  1.00  0.00     0.135 C 
ATOM     31  N   UNL     1       5.599   1.303   0.843  1.00  0.00    -0.340 N 
ATOM     32  C   UNL     1       6.670   1.298   1.720  1.00  0.00     0.228 C 
ATOM     33  O   UNL     1       6.559   1.375   2.939  1.00  0.00    -0.274 OA
BRANCH  32  34
ATOM     34  C   UNL     1       8.026   1.201   1.123  1.00  0.00     0.116 C 
ATOM     35  C   UNL     1       8.706   2.436   0.573  1.00  0.00     0.055 C 
ATOM     36  C   UNL     1       9.186   1.824   1.846  1.00  0.00     0.180 C 
ATOM     37  F   UNL     1      10.397   1.156   1.797  1.00  0.00    -0.247 F 
ENDBRANCH  32  34
ENDBRANCH  25  26
ENDBRANCH   4  25
TORSDOF 7
