MODEL        5USER    Run = 5USERUSER    Estimated Free Energy of Binding    = -12.36 kcal/mol  [=(1)+(2)+(3)-(4)]USERUSER    (1) Final Intermolecular Energy     = -14.45 kcal/molUSER        vdW + Hbond + desolv Energy     = -14.29 kcal/molUSER        Electrostatic Energy            =  -0.16 kcal/molUSER        Moving Ligand-Fixed Receptor    = -14.45 kcal/molUSER        Moving Ligand-Moving Receptor   =  +0.00 kcal/molUSER    (2) Final Total Internal Energy     =  -1.33 kcal/molUSER    (3) Torsional Free Energy           =  +2.09 kcal/molUSER    (4) Unbound System's Energy         =  -1.33 kcal/molUSERUSERREMARK SMILES Cc1c(C=c2cc3c(cn2)=C(NC2CCN(c4nc5ccccc5n4C(=O)N4CCOCC4)CC2)NN=C3)cccc1C(C)CREMARK SMILES IDX 5 1 6 2 7 3 8 4 9 5 10 6 11 7 36 8 37 9 38 10 4 12 3 13 2 14REMARK SMILES IDX 42 15 39 16 41 17 40 18 1 19 43 20 44 21 45 22 12 23 13 25REMARK SMILES IDX 14 26 35 27 15 28 34 29 16 30 17 31 18 32 25 33 19 34 24 35REMARK SMILES IDX 20 36 23 37 21 38 22 39 26 40 28 41 29 42 33 43 30 44 32 45REMARK SMILES IDX 31 46 27 47REMARK H PARENT 36 11 12 24USER                              x       y       z     vdW  Elec       q    TypeUSER                           _______ _______ _______ _____ _____    ______ ____ROOTATOM      1  C   UNL     1      39.252  45.982  15.863 -0.31 -0.01    +0.064 A  ATOM      2  C   UNL     1      38.836  46.496  14.560 -0.41 -0.01    +0.039 A  ATOM      3  C   UNL     1      37.549  46.537  14.202 -0.43 -0.00    +0.009 A  ATOM      4  C   UNL     1      36.523  46.090  15.106 -0.35 -0.03    +0.044 A  ATOM      5  C   UNL     1      37.045  45.525  16.371 -0.27 -0.05    +0.124 A  ATOM      6  N   UNL     1      38.295  45.471  16.717 -0.20 +0.07    -0.256 NA ATOM      7  C   UNL     1      35.222  46.189  14.738 -0.34 -0.11    +0.129 C  ATOM      8  N   UNL     1      34.964  46.675  13.452 -0.31 +0.21    -0.263 N  ATOM      9  N   UNL     1      35.868  47.112  12.520 -0.53 +0.10    -0.182 NA ATOM     10  C   UNL     1      37.111  47.048  12.887 -0.56 -0.05    +0.142 C  ATOM     11  H   UNL     1      33.993  46.627  13.153 -0.34 -0.18    +0.192 HD ENDROOTBRANCH   1  12ATOM     12  C   UNL     1      40.536  45.987  16.270 -0.31 -0.00    +0.036 C  BRANCH  12  13ATOM     13  C   UNL     1      40.988  46.120  17.663 -0.46 +0.00    -0.020 A  ATOM     14  C   UNL     1      40.583  45.218  18.677 -0.43 +0.00    -0.040 A  ATOM     15  C   UNL     1      40.995  45.453  20.017 -0.37 -0.00    -0.042 A  ATOM     16  C   UNL     1      41.783  47.230  17.980 -0.43 -0.00    +0.008 A  ATOM     17  C   UNL     1      41.765  46.600  20.299 -0.34 +0.00    +0.004 A  ATOM     18  C   UNL     1      42.162  47.476  19.292 -0.31 +0.00    +0.001 A  ATOM     19  C   UNL     1      39.752  44.001  18.337 -0.20 -0.00    +0.045 C  BRANCH  15  20ATOM     20  C   UNL     1      40.600  44.521  21.160 -0.36 +0.00    +0.013 C  ATOM     21  C   UNL     1      40.025  45.319  22.332 -0.31 +0.00    +0.012 C  ATOM     22  C   UNL     1      41.757  43.627  21.628 -0.39 +0.00    +0.012 C  ENDBRANCH  15  20ENDBRANCH  12  13ENDBRANCH   1  12BRANCH   7  23ATOM     23  N   UNL     1      34.172  45.829  15.577 -0.05 +0.41    -0.367 N  ATOM     24  H   UNL     1      33.453  46.542  15.652 -0.27 -0.37    +0.162 HD BRANCH  23  25ATOM     25  C   UNL     1      33.654  44.472  15.784 -0.31 -0.05    +0.084 C  ATOM     26  C   UNL     1      32.215  44.366  15.277 -0.35 -0.03    +0.046 C  ATOM     27  C   UNL     1      33.790  44.074  17.260 -0.33 -0.02    +0.046 C  ATOM     28  C   UNL     1      31.602  43.069  15.783 -0.32 -0.06    +0.122 C  ATOM     29  C   UNL     1      32.439  43.948  17.967 -0.29 -0.03    +0.122 C  ATOM     30  N   UNL     1      31.532  43.058  17.243 -0.08 +0.10    -0.342 N  BRANCH  30  31ATOM     31  C   UNL     1      31.254  41.848  17.813 -0.16 -0.04    +0.215 A  ATOM     32  N   UNL     1      31.962  41.277  18.760 -0.25 +0.01    -0.212 NA ATOM     33  N   UNL     1      30.134  41.086  17.465 -0.17 +0.03    -0.230 N  ATOM     34  C   UNL     1      31.326  40.103  19.047 -0.31 +0.00    +0.091 A  ATOM     35  C   UNL     1      30.189  39.935  18.260 -0.27 +0.00    +0.079 A  ATOM     36  C   UNL     1      31.685  39.108  19.970 -0.38 +0.01    +0.031 A  ATOM     37  C   UNL     1      29.426  38.755  18.320 -0.33 +0.01    +0.029 A  ATOM     38  C   UNL     1      30.915  37.945  20.053 -0.47 +0.00    +0.002 A  ATOM     39  C   UNL     1      29.807  37.766  19.231 -0.38 +0.00    +0.002 A  BRANCH  33  40ATOM     40  C   UNL     1      29.222  41.373  16.427 -0.18 -0.08    +0.331 C  ATOM     41  N   UNL     1      28.058  42.011  16.869 -0.06 +0.07    -0.319 N  ATOM     42  C   UNL     1      26.895  41.974  15.971 -0.22 -0.05    +0.150 C  ATOM     43  C   UNL     1      28.193  43.284  17.605 -0.16 -0.02    +0.150 C  ATOM     44  C   UNL     1      26.450  43.374  15.550 -0.21 -0.08    +0.181 C  ATOM     45  C   UNL     1      26.822  43.905  17.873 -0.27 -0.02    +0.181 C  ATOM     46  O   UNL     1      26.100  44.207  16.666 -0.19 +0.02    -0.378 OA ATOM     47  O   UNL     1      29.451  41.031  15.276 -0.35 +0.10    -0.248 OA ENDBRANCH  33  40ENDBRANCH  30  31ENDBRANCH  23  25ENDBRANCH   7  23TORSDOF 7TERENDMDL