MODEL        5USER    Run = 5USERUSER    Estimated Free Energy of Binding    = -13.00 kcal/mol  [=(1)+(2)+(3)-(4)]USERUSER    (1) Final Intermolecular Energy     = -15.68 kcal/molUSER        vdW + Hbond + desolv Energy     = -15.65 kcal/molUSER        Electrostatic Energy            =  -0.03 kcal/molUSER        Moving Ligand-Fixed Receptor    = -15.68 kcal/molUSER        Moving Ligand-Moving Receptor   =  +0.00 kcal/molUSER    (2) Final Total Internal Energy     =  -2.18 kcal/molUSER    (3) Torsional Free Energy           =  +2.68 kcal/molUSER    (4) Unbound System's Energy         =  -2.18 kcal/molUSERUSERREMARK SMILES Cc1c(C=c2cc3c(cn2)=C(NC2CCN(c4nc5ccccc5n4C(=O)CN4CCOCC4)CC2)NN=C3)cccc1C(C)CREMARK SMILES IDX 12 1 11 3 5 4 6 5 10 6 7 7 9 8 8 9 39 10 38 11 37 12 4 14REMARK SMILES IDX 3 15 2 16 43 17 40 18 42 19 41 20 1 21 44 22 45 23 46 24REMARK SMILES IDX 13 25 14 26 36 27 15 28 35 29 16 30 17 31 18 32 25 33 19 34REMARK SMILES IDX 24 35 20 36 23 37 21 38 22 39 26 40 27 41 28 42 29 43 30 44REMARK SMILES IDX 34 45 31 46 33 47 32 48REMARK H PARENT 12 2 37 13USER                              x       y       z     vdW  Elec       q    TypeUSER                           _______ _______ _______ _____ _____    ______ ____ROOTATOM      1  N   UNL     1      41.841  46.372  18.847 -0.24 -0.02    -0.367 N  ATOM      2  H   UNL     1      42.129  45.476  18.456 +0.07 +0.02    +0.162 HD ENDROOTBRANCH   1   3ATOM      3  C   UNL     1      41.170  47.091  17.862 -0.48 -0.01    +0.129 C  ATOM      4  C   UNL     1      37.283  46.348  16.512 -0.33 -0.03    +0.064 A  ATOM      5  C   UNL     1      38.105  47.418  15.949 -0.40 -0.02    +0.039 A  ATOM      6  N   UNL     1      37.795  45.580  17.543 -0.21 +0.07    -0.256 NA ATOM      7  C   UNL     1      39.349  47.646  16.388 -0.47 -0.00    +0.009 A  ATOM      8  C   UNL     1      38.999  45.809  17.972 -0.34 -0.02    +0.124 A  ATOM      9  C   UNL     1      39.911  46.842  17.439 -0.45 -0.01    +0.044 A  ATOM     10  C   UNL     1      40.215  48.706  15.826 -0.53 -0.04    +0.142 C  ATOM     11  N   UNL     1      41.431  48.928  16.222 -0.99 +0.00    -0.182 NA ATOM     12  N   UNL     1      41.868  48.119  17.236 -0.19 +0.00    -0.263 N  ATOM     13  H   UNL     1      42.854  48.148  17.482 -0.27 +0.01    +0.192 HD BRANCH   4  14ATOM     14  C   UNL     1      36.039  46.075  16.077 -0.40 -0.03    +0.036 C  BRANCH  14  15ATOM     15  C   UNL     1      35.240  44.890  16.421 -0.30 +0.01    -0.020 A  ATOM     16  C   UNL     1      34.117  44.959  17.280 -0.30 +0.02    -0.040 A  ATOM     17  C   UNL     1      33.348  43.789  17.505 -0.28 +0.01    -0.042 A  ATOM     18  C   UNL     1      35.615  43.673  15.836 -0.38 -0.00    +0.008 A  ATOM     19  C   UNL     1      33.762  42.579  16.909 -0.38 -0.00    +0.004 A  ATOM     20  C   UNL     1      34.881  42.520  16.083 -0.34 -0.00    +0.001 A  ATOM     21  C   UNL     1      33.731  46.268  17.928 -0.45 -0.04    +0.045 C  BRANCH  17  22ATOM     22  C   UNL     1      32.106  43.794  18.396 -0.37 -0.00    +0.013 C  ATOM     23  C   UNL     1      31.067  42.740  17.975 -0.31 -0.00    +0.012 C  ATOM     24  C   UNL     1      32.494  43.611  19.864 -0.51 +0.00    +0.012 C  ENDBRANCH  17  22ENDBRANCH  14  15ENDBRANCH   4  14ENDBRANCH   1   3BRANCH   1  25ATOM     25  C   UNL     1      41.206  46.113  20.165 -0.37 +0.01    +0.084 C  ATOM     26  C   UNL     1      42.105  46.514  21.341 -0.35 +0.01    +0.046 C  ATOM     27  C   UNL     1      40.838  44.630  20.239 -0.40 +0.00    +0.046 C  ATOM     28  C   UNL     1      42.127  45.481  22.459 -0.20 +0.02    +0.122 C  ATOM     29  C   UNL     1      40.132  44.310  21.554 -0.27 +0.01    +0.122 C  ATOM     30  N   UNL     1      40.805  44.892  22.736 -0.05 -0.02    -0.342 N  BRANCH  30  31ATOM     31  C   UNL     1      39.989  45.655  23.522 -0.12 +0.01    +0.213 A  ATOM     32  N   UNL     1      39.929  46.964  23.465 -0.19 -0.02    -0.212 NA ATOM     33  N   UNL     1      39.068  45.117  24.432 -0.09 -0.01    -0.247 N  ATOM     34  C   UNL     1      38.926  47.330  24.313 -0.31 +0.01    +0.091 A  ATOM     35  C   UNL     1      38.351  46.219  24.920 -0.25 +0.01    +0.078 A  ATOM     36  C   UNL     1      38.444  48.617  24.601 -0.39 +0.00    +0.031 A  ATOM     37  C   UNL     1      37.283  46.350  25.826 -0.33 -0.00    +0.029 A  ATOM     38  C   UNL     1      37.380  48.759  25.499 -0.44 +0.00    +0.002 A  ATOM     39  C   UNL     1      36.809  47.639  26.098 -0.37 -0.00    +0.002 A  BRANCH  33  40ATOM     40  C   UNL     1      38.856  43.771  24.817 -0.12 +0.01    +0.248 C  ATOM     41  O   UNL     1      39.801  43.120  25.258 -0.12 -0.00    -0.273 OA BRANCH  40  42ATOM     42  C   UNL     1      37.446  43.233  24.608 -0.27 +0.01    +0.186 C  BRANCH  42  43ATOM     43  N   UNL     1      36.697  43.074  25.881 -0.18 +0.02    -0.290 NA ATOM     44  C   UNL     1      37.557  43.190  27.081 -0.31 -0.01    +0.113 C  ATOM     45  C   UNL     1      35.971  41.784  25.887 -0.42 -0.02    +0.113 C  ATOM     46  C   UNL     1      37.972  41.835  27.686 -0.36 -0.03    +0.175 C  ATOM     47  C   UNL     1      35.668  41.298  27.312 -0.55 -0.07    +0.175 C  ATOM     48  O   UNL     1      36.862  40.999  28.048 -0.36 +0.13    -0.379 OA ENDBRANCH  42  43ENDBRANCH  40  42ENDBRANCH  33  40ENDBRANCH  30  31ENDBRANCH   1  25TORSDOF 9TERENDMDL