MODEL        7USER    Run = 7USERUSER    Estimated Free Energy of Binding    = -11.31 kcal/mol  [=(1)+(2)+(3)-(4)]USERUSER    (1) Final Intermolecular Energy     = -13.40 kcal/molUSER        vdW + Hbond + desolv Energy     = -13.48 kcal/molUSER        Electrostatic Energy            =  +0.08 kcal/molUSER        Moving Ligand-Fixed Receptor    = -13.40 kcal/molUSER        Moving Ligand-Moving Receptor   =  +0.00 kcal/molUSER    (2) Final Total Internal Energy     =  -2.16 kcal/molUSER    (3) Torsional Free Energy           =  +2.09 kcal/molUSER    (4) Unbound System's Energy         =  -2.16 kcal/molUSERUSERREMARK SMILES Cc1cc(CN2CCN(C(=O)[C@H]3C[C@@H]3F)CC2)ccc1S(=O)(=O)Nc1ccc(N2CCCCC2)cc1REMARK SMILES IDX 1 1 2 2 3 3 4 4 18 5 19 6 20 7 21 8 22 9 23 10 24 11 25 13REMARK SMILES IDX 26 14 36 15 27 16 35 17 28 18 29 19 30 20 34 21 31 22 33 23REMARK SMILES IDX 32 24 5 25 6 26 7 27 17 28 8 29 16 30 9 31 10 32 11 33 12 34REMARK SMILES IDX 13 35 14 36 15 37REMARK H PARENT 24 12USER                              x       y       z     vdW  Elec       q    TypeUSER                           _______ _______ _______ _____ _____    ______ ____ROOTATOM      1  C   UNL     1      37.272  45.391  12.774 -0.49 -0.01    +0.046 C  ATOM      2  C   UNL     1      36.763  45.653  14.165 -0.40 +0.01    -0.030 A  ATOM      3  C   UNL     1      36.368  44.559  14.955 -0.37 -0.00    +0.010 A  ATOM      4  C   UNL     1      35.885  44.727  16.265 -0.31 +0.02    -0.034 A  ATOM      5  C   UNL     1      35.801  46.023  16.786 -0.36 -0.00    +0.006 A  ATOM      6  C   UNL     1      36.186  47.126  16.018 -0.26 -0.02    +0.023 A  ATOM      7  C   UNL     1      36.679  46.945  14.719 -0.36 -0.06    +0.090 A  ENDROOTBRANCH   7   8ATOM      8  S   UNL     1      37.199  48.360  13.757 -0.56 -0.13    +0.262 S  ATOM      9  O   UNL     1      36.632  49.520  14.415 -0.37 +0.20    -0.201 OA ATOM     10  O   UNL     1      36.931  48.081  12.362 -1.15 +0.05    -0.201 OA BRANCH   8  11ATOM     11  N   UNL     1      38.851  48.494  13.979 -0.30 +0.10    -0.280 N  ATOM     12  H   UNL     1      39.333  48.800  13.135 +0.07 -0.03    +0.180 HD BRANCH  11  13ATOM     13  C   UNL     1      39.603  47.856  15.007 -0.49 -0.01    +0.049 A  ATOM     14  C   UNL     1      39.750  46.480  15.137 -0.43 -0.00    +0.029 A  ATOM     15  C   UNL     1      40.122  48.677  16.010 -0.54 -0.01    +0.029 A  ATOM     16  C   UNL     1      40.438  45.934  16.233 -0.23 -0.00    +0.028 A  ATOM     17  C   UNL     1      40.804  48.126  17.102 -0.47 -0.00    +0.028 A  ATOM     18  C   UNL     1      40.979  46.741  17.241 -0.42 -0.00    +0.037 A  BRANCH  18  19ATOM     19  N   UNL     1      41.660  46.237  18.357 -0.23 -0.00    -0.372 N  ATOM     20  C   UNL     1      42.355  47.279  19.140 -0.50 +0.01    +0.116 C  ATOM     21  C   UNL     1      41.087  45.116  19.117 -0.41 +0.01    +0.116 C  ATOM     22  C   UNL     1      42.783  46.751  20.508 -0.44 +0.01    +0.021 C  ATOM     23  C   UNL     1      40.507  45.611  20.438 -0.40 +0.00    +0.021 C  ATOM     24  C   UNL     1      41.590  46.240  21.318 -0.35 +0.00    +0.004 C  ENDBRANCH  18  19ENDBRANCH  11  13ENDBRANCH   8  11ENDBRANCH   7   8BRANCH   4  25ATOM     25  C   UNL     1      35.464  43.517  17.075 -0.33 -0.04    +0.120 C  BRANCH  25  26ATOM     26  N   UNL     1      35.688  43.596  18.518 -0.13 +0.06    -0.296 NA ATOM     27  C   UNL     1      37.034  44.011  18.927 -0.31 -0.02    +0.106 C  ATOM     28  C   UNL     1      35.133  42.484  19.305 -0.41 -0.01    +0.106 C  ATOM     29  C   UNL     1      37.163  44.111  20.460 -0.35 -0.00    +0.135 C  ATOM     30  C   UNL     1      36.107  41.864  20.325 -0.39 -0.00    +0.135 C  ATOM     31  N   UNL     1      36.757  42.880  21.148 -0.20 -0.01    -0.340 N  ATOM     32  C   UNL     1      36.945  42.647  22.499 -0.35 +0.02    +0.228 C  ATOM     33  O   UNL     1      36.582  41.627  23.077 -0.42 -0.01    -0.274 OA BRANCH  32  34ATOM     34  C   UNL     1      37.623  43.714  23.277 -0.32 +0.01    +0.116 C  ATOM     35  C   UNL     1      37.530  43.733  24.787 -0.33 +0.00    +0.055 C  ATOM     36  C   UNL     1      38.811  43.356  24.123 -0.19 +0.01    +0.180 C  ATOM     37  F   UNL     1      39.842  44.277  24.192 +0.01 -0.01    -0.247 F  ENDBRANCH  32  34ENDBRANCH  25  26ENDBRANCH   4  25TORSDOF 7TERENDMDL