MODEL        7USER    Run = 7USERUSER    Estimated Free Energy of Binding    = -11.06 kcal/mol  [=(1)+(2)+(3)-(4)]USERUSER    (1) Final Intermolecular Energy     = -12.85 kcal/molUSER        vdW + Hbond + desolv Energy     = -12.64 kcal/molUSER        Electrostatic Energy            =  -0.22 kcal/molUSER        Moving Ligand-Fixed Receptor    = -12.85 kcal/molUSER        Moving Ligand-Moving Receptor   =  +0.00 kcal/molUSER    (2) Final Total Internal Energy     =  -1.33 kcal/molUSER    (3) Torsional Free Energy           =  +1.79 kcal/molUSER    (4) Unbound System's Energy         =  -1.33 kcal/molUSERUSERREMARK SMILES C=C1C=C(c2nnc3sc(C(N)=O)cc3c2CCCN2CCOCC2)C[C@@H]1CREMARK SMILES IDX 17 1 16 2 5 3 6 4 7 5 15 6 8 7 14 8 9 9 10 10 4 11 2 12 3 13REMARK SMILES IDX 27 14 26 15 1 16 28 17 11 18 12 19 13 20 18 23 19 24 20 25REMARK SMILES IDX 21 26 25 27 22 28 24 29 23 30REMARK H PARENT 12 21 12 22USER                              x       y       z     vdW  Elec       q    TypeUSER                           _______ _______ _______ _____ _____    ______ ____ROOTATOM      1  C   UNL     1      36.864  45.868  17.063 -0.39 -0.02    +0.040 C  ENDROOTBRANCH   1   2ATOM      2  C   UNL     1      38.093  45.936  17.936 -0.34 +0.00    -0.010 A  ATOM      3  C   UNL     1      38.271  45.184  19.115 -0.29 -0.01    +0.093 A  ATOM      4  N   UNL     1      39.421  45.247  19.845 -0.30 +0.00    -0.149 NA ATOM      5  N   UNL     1      40.444  46.008  19.498 -0.33 -0.00    -0.139 NA ATOM      6  C   UNL     1      39.203  46.743  17.558 -0.39 -0.00    +0.019 A  ATOM      7  C   UNL     1      40.319  46.728  18.375 -0.33 -0.01    +0.147 A  ATOM      8  C   UNL     1      39.442  47.614  16.437 -0.45 -0.01    +0.036 A  ATOM      9  S   UNL     1      41.580  47.727  17.831 -0.61 +0.01    -0.108 S  ATOM     10  C   UNL     1      40.689  48.216  16.457 -0.49 -0.02    +0.094 A  BRANCH   3  11ATOM     11  C   UNL     1      37.283  44.270  19.723 -0.42 +0.00    -0.019 C  ATOM     12  C   UNL     1      35.549  42.762  19.842 -0.47 +0.00    -0.052 C  ATOM     13  C   UNL     1      36.286  43.695  19.033 -0.41 -0.00    +0.009 C  ATOM     14  C   UNL     1      36.255  42.639  21.169 -0.51 +0.00    +0.020 C  ATOM     15  C   UNL     1      37.291  43.784  21.142 -0.43 +0.00    +0.046 C  ATOM     16  C   UNL     1      34.437  42.125  19.461 -0.44 -0.00    +0.013 C  ATOM     17  C   UNL     1      36.927  41.277  21.342 -0.59 +0.00    +0.013 C  ENDBRANCH   3  11BRANCH  10  18ATOM     18  C   UNL     1      41.215  49.141  15.470 -0.45 -0.03    +0.258 C  ATOM     19  N   UNL     1      41.520  50.402  15.898 -0.30 +0.06    -0.365 N  ATOM     20  O   UNL     1      41.397  48.847  14.291 -0.46 +0.03    -0.269 OA ATOM     21  H   UNL     1      41.891  51.056  15.223 -0.09 -0.04    +0.159 HD ATOM     22  H   UNL     1      41.393  50.691  16.857 -0.43 -0.04    +0.159 HD ENDBRANCH  10  18ENDBRANCH   1   2BRANCH   1  23ATOM     23  C   UNL     1      37.054  44.931  15.866 -0.40 -0.01    +0.020 C  BRANCH  23  24ATOM     24  C   UNL     1      35.861  45.025  14.906 -0.35 -0.04    +0.085 C  BRANCH  24  25ATOM     25  N   UNL     1      36.268  45.472  13.569 -0.22 +0.13    -0.299 NA ATOM     26  C   UNL     1      37.700  45.840  13.476 -0.40 -0.04    +0.113 C  ATOM     27  C   UNL     1      35.416  46.588  13.106 -0.51 -0.07    +0.113 C  ATOM     28  C   UNL     1      37.948  47.358  13.458 -0.44 -0.05    +0.175 C  ATOM     29  C   UNL     1      36.079  47.374  11.967 -0.49 -0.09    +0.175 C  ATOM     30  O   UNL     1      37.286  48.030  12.378 -0.91 +0.03    -0.379 OA ENDBRANCH  24  25ENDBRANCH  23  24ENDBRANCH   1  23TORSDOF 6TERENDMDL