REMARK SMILES C=C1C=C(c2nnc3sc(C(N)=O)cc3c2CCCN2CCOCC2)C[C@@H]1C
REMARK SMILES IDX 17 1 16 2 5 3 6 4 7 5 15 6 8 7 14 8 9 9 10 10 4 11 2 12 3 13
REMARK SMILES IDX 27 14 26 15 1 16 28 17 11 18 12 19 13 20 18 23 19 24 20 25
REMARK SMILES IDX 21 26 25 27 22 28 24 29 23 30
REMARK H PARENT 12 21 12 22
ROOT
ATOM      1  C   UNL     1      -0.265   0.851  -0.685  1.00  0.00     0.040 C 
ENDROOT
BRANCH   1   2
ATOM      2  C   UNL     1      -1.313   1.230   0.332  1.00  0.00    -0.010 A 
ATOM      3  C   UNL     1      -2.287   0.343   0.835  1.00  0.00     0.093 A 
ATOM      4  N   UNL     1      -3.184   0.722   1.790  1.00  0.00    -0.149 NA
ATOM      5  N   UNL     1      -3.200   1.937   2.310  1.00  0.00    -0.139 NA
ATOM      6  C   UNL     1      -1.324   2.532   0.906  1.00  0.00     0.019 A 
ATOM      7  C   UNL     1      -2.281   2.805   1.868  1.00  0.00     0.147 A 
ATOM      8  C   UNL     1      -0.502   3.696   0.706  1.00  0.00     0.036 A 
ATOM      9  S   UNL     1      -2.204   4.387   2.481  1.00  0.00    -0.108 S 
ATOM     10  C   UNL     1      -0.866   4.776   1.492  1.00  0.00     0.094 A 
BRANCH   3  11
ATOM     11  C   UNL     1      -2.489  -1.058   0.416  1.00  0.00    -0.019 C 
ATOM     12  C   UNL     1      -3.171  -3.253   0.535  1.00  0.00    -0.052 C 
ATOM     13  C   UNL     1      -2.961  -2.013   1.233  1.00  0.00     0.009 C 
ATOM     14  C   UNL     1      -2.924  -3.008  -0.933  1.00  0.00     0.020 C 
ATOM     15  C   UNL     1      -2.291  -1.600  -0.969  1.00  0.00     0.046 C 
ATOM     16  C   UNL     1      -3.526  -4.407   1.109  1.00  0.00     0.013 C 
ATOM     17  C   UNL     1      -4.212  -3.067  -1.753  1.00  0.00     0.013 C 
ENDBRANCH   3  11
BRANCH  10  18
ATOM     18  C   UNL     1      -0.230   6.081   1.512  1.00  0.00     0.258 C 
ATOM     19  N   UNL     1      -0.748   7.014   2.365  1.00  0.00    -0.365 N 
ATOM     20  O   UNL     1       0.735   6.379   0.812  1.00  0.00    -0.269 OA
ATOM     21  H   UNL     1      -0.314   7.925   2.393  1.00  0.00     0.159 HD
ATOM     22  H   UNL     1      -1.537   6.817   2.964  1.00  0.00     0.159 HD
ENDBRANCH  10  18
ENDBRANCH   1   2
BRANCH   1  23
ATOM     23  C   UNL     1       0.876   0.037  -0.067  1.00  0.00     0.020 C 
BRANCH  23  24
ATOM     24  C   UNL     1       1.927  -0.319  -1.127  1.00  0.00     0.085 C 
BRANCH  24  25
ATOM     25  N   UNL     1       2.993  -1.164  -0.579  1.00  0.00    -0.299 NA
ATOM     26  C   UNL     1       3.944  -0.432   0.289  1.00  0.00     0.113 C 
ATOM     27  C   UNL     1       3.716  -1.866  -1.662  1.00  0.00     0.113 C 
ATOM     28  C   UNL     1       5.290  -0.124  -0.389  1.00  0.00     0.175 C 
ATOM     29  C   UNL     1       5.090  -2.366  -1.196  1.00  0.00     0.175 C 
ATOM     30  O   UNL     1       5.978  -1.296  -0.846  1.00  0.00    -0.379 OA
ENDBRANCH  24  25
ENDBRANCH  23  24
ENDBRANCH   1  23
TORSDOF 6
