REMARK SMILES Cc1ccc(F)cc1NC1=C(c2c(F)cnc(Nc3ccc(O)cc3)c2C)CCNC1=O
REMARK SMILES IDX 12 1 13 2 14 3 15 4 16 5 17 6 26 7 27 8 11 9 10 10 31 11
REMARK SMILES IDX 28 12 30 13 29 14 32 15 9 17 8 19 2 20 3 21 4 22 7 23 5 24
REMARK SMILES IDX 1 25 6 26 18 27 19 29 20 30 25 31 21 32 24 33 22 34 23 35
REMARK H PARENT 30 16 9 18 18 28 23 36
ROOT
ATOM      1  C   UNL     1      -0.052   0.142  -1.924  1.00  0.00     0.024 A 
ATOM      2  C   UNL     1       0.349  -0.931  -2.718  1.00  0.00     0.149 A 
ATOM      3  F   UNL     1      -0.347  -1.288  -3.806  1.00  0.00    -0.205 F 
ATOM      4  C   UNL     1       1.476  -1.637  -2.363  1.00  0.00     0.153 A 
ATOM      5  N   UNL     1       2.219  -1.352  -1.274  1.00  0.00    -0.236 NA
ATOM      6  C   UNL     1       1.852  -0.312  -0.489  1.00  0.00     0.134 A 
ATOM      7  C   UNL     1       0.724   0.483  -0.794  1.00  0.00     0.002 A 
ATOM      8  C   UNL     1       0.364   1.651   0.090  1.00  0.00     0.049 C 
ENDROOT
BRANCH   1   9
ATOM      9  C   UNL     1      -1.297   0.853  -2.288  1.00  0.00    -0.006 C 
ATOM     10  C   UNL     1      -2.468   0.602  -1.653  1.00  0.00     0.108 C 
ATOM     11  C   UNL     1      -3.705   1.373  -2.113  1.00  0.00     0.268 C 
ATOM     12  C   UNL     1      -1.158   1.849  -3.413  1.00  0.00     0.060 C 
ATOM     13  N   UNL     1      -3.560   2.212  -3.188  1.00  0.00    -0.350 N 
ATOM     14  C   UNL     1      -2.483   2.046  -4.128  1.00  0.00     0.121 C 
ATOM     15  O   UNL     1      -4.802   1.277  -1.572  1.00  0.00    -0.268 OA
ATOM     16  H   UNL     1      -4.444   2.590  -3.507  1.00  0.00     0.163 HD
BRANCH  10  17
ATOM     17  N   UNL     1      -2.634  -0.358  -0.656  1.00  0.00    -0.350 N 
ATOM     18  H   UNL     1      -1.900  -1.060  -0.673  1.00  0.00     0.167 HD
BRANCH  17  19
ATOM     19  C   UNL     1      -3.005  -0.106   0.695  1.00  0.00     0.044 A 
ATOM     20  C   UNL     1      -3.118  -1.197   1.593  1.00  0.00    -0.027 A 
ATOM     21  C   UNL     1      -3.495  -0.973   2.930  1.00  0.00     0.008 A 
ATOM     22  C   UNL     1      -3.779   0.314   3.379  1.00  0.00     0.039 A 
ATOM     23  C   UNL     1      -3.321   1.176   1.165  1.00  0.00     0.065 A 
ATOM     24  C   UNL     1      -3.693   1.374   2.491  1.00  0.00     0.125 A 
ATOM     25  C   UNL     1      -2.846  -2.612   1.150  1.00  0.00     0.046 C 
ATOM     26  F   UNL     1      -3.965   2.614   2.921  1.00  0.00    -0.207 F 
ENDBRANCH  17  19
ENDBRANCH  10  17
ENDBRANCH   1   9
BRANCH   6  27
ATOM     27  N   UNL     1       2.611  -0.002   0.665  1.00  0.00    -0.340 N 
ATOM     28  H   UNL     1       1.991   0.107   1.460  1.00  0.00     0.168 HD
BRANCH  27  29
ATOM     29  C   UNL     1       3.874  -0.491   1.067  1.00  0.00     0.040 A 
ATOM     30  C   UNL     1       4.834  -0.967   0.165  1.00  0.00     0.030 A 
ATOM     31  C   UNL     1       4.242  -0.380   2.418  1.00  0.00     0.030 A 
ATOM     32  C   UNL     1       6.098  -1.381   0.600  1.00  0.00     0.048 A 
ATOM     33  C   UNL     1       5.504  -0.789   2.860  1.00  0.00     0.048 A 
ATOM     34  C   UNL     1       6.419  -1.294   1.948  1.00  0.00     0.115 A 
BRANCH  34  35
ATOM     35  O   UNL     1       7.637  -1.686   2.417  1.00  0.00    -0.508 OA
ATOM     36  H   UNL     1       8.154  -2.036   1.673  1.00  0.00     0.293 HD
ENDBRANCH  34  35
ENDBRANCH  27  29
ENDBRANCH   6  27
TORSDOF 6
