MODEL        8USER    Run = 8USERUSER    Estimated Free Energy of Binding    =  -7.06 kcal/mol  [=(1)+(2)+(3)-(4)]USERUSER    (1) Final Intermolecular Energy     =  -9.15 kcal/molUSER        vdW + Hbond + desolv Energy     =  -8.83 kcal/molUSER        Electrostatic Energy            =  -0.31 kcal/molUSER        Moving Ligand-Fixed Receptor    =  -9.15 kcal/molUSER        Moving Ligand-Moving Receptor   =  +0.00 kcal/molUSER    (2) Final Total Internal Energy     =  -2.28 kcal/molUSER    (3) Torsional Free Energy           =  +2.09 kcal/molUSER    (4) Unbound System's Energy         =  -2.28 kcal/molUSERUSERREMARK SMILES O=[N+]([O-])c1cc(O)cc2[nH]c(-c3ccnc(NCCO)n3)cc12REMARK SMILES IDX 17 1 16 3 12 4 13 5 21 6 14 7 15 8 11 9 4 10 5 11 23 12 6 13REMARK SMILES IDX 22 14 9 15 8 16 10 17 2 19 1 20 3 21 7 22 18 24 19 25 20 26REMARK H PARENT 17 2 10 18 7 23 20 27USER                              x       y       z     vdW  Elec       q    TypeUSER                           _______ _______ _______ _____ _____    ______ ____ROOTATOM      1  N   UNL     1      38.628  46.568  14.095 -0.17 +0.09    -0.352 N  ATOM      2  H   UNL     1      38.793  46.962  13.171 +0.11 -0.02    +0.163 HD ENDROOTBRANCH   1   3ATOM      3  C   UNL     1      39.453  47.323  14.923 -0.31 -0.06    +0.223 A  ATOM      4  C   UNL     1      40.710  47.606  16.815 -0.46 -0.01    +0.092 A  ATOM      5  C   UNL     1      41.065  48.881  16.445 -0.51 -0.01    +0.051 A  ATOM      6  N   UNL     1      39.904  46.815  16.076 -0.30 +0.04    -0.211 NA ATOM      7  C   UNL     1      40.549  49.303  15.248 -0.51 -0.04    +0.117 A  ATOM      8  N   UNL     1      39.747  48.547  14.475 -0.35 +0.07    -0.222 NA BRANCH   4   9ATOM      9  C   UNL     1      41.185  46.981  18.046 -0.47 -0.00    +0.066 A  ATOM     10  C   UNL     1      42.871  46.196  21.236 -0.15 +0.09    +0.282 A  ATOM     11  C   UNL     1      42.754  45.012  21.975 -0.18 +0.03    +0.132 A  ATOM     12  C   UNL     1      42.167  46.380  20.023 -0.36 +0.01    +0.078 A  ATOM     13  C   UNL     1      41.924  44.005  21.506 -0.25 +0.02    +0.124 A  ATOM     14  C   UNL     1      42.060  47.402  19.031 -0.42 +0.00    +0.045 A  ATOM     15  C   UNL     1      41.344  45.331  19.598 -0.37 +0.01    +0.057 A  ATOM     16  C   UNL     1      41.200  44.134  20.317 -0.27 +0.01    +0.073 A  ATOM     17  N   UNL     1      40.766  45.722  18.414 -0.22 +0.01    -0.353 N  ATOM     18  H   UNL     1      40.123  45.173  17.859 +0.11 -0.01    +0.167 HD BRANCH  10  19ATOM     19  N   UNL     1      43.746  47.253  21.718 -0.34 +0.02    +0.063 N  ATOM     20  O   UNL     1      43.215  48.202  22.312 -0.42 -0.04    -0.258 OA ATOM     21  O   UNL     1      44.962  47.154  21.496 -0.78 -0.27    -0.258 OA ENDBRANCH  10  19BRANCH  13  22ATOM     22  O   UNL     1      41.835  42.868  22.257 -0.15 +0.00    -0.508 OA ATOM     23  H   UNL     1      42.211  42.126  21.757 -0.41 -0.05    +0.293 HD ENDBRANCH  13  22ENDBRANCH   4   9ENDBRANCH   1   3BRANCH   1  24ATOM     24  C   UNL     1      37.216  46.587  14.481 -0.38 -0.07    +0.144 C  BRANCH  24  25ATOM     25  C   UNL     1      36.523  47.852  13.965 -0.41 -0.12    +0.177 C  BRANCH  25  26ATOM     26  O   UNL     1      37.398  48.570  13.095 -0.65 +0.09    -0.395 OA ATOM     27  H   UNL     1      37.848  49.214  13.680 -0.21 -0.11    +0.210 HD ENDBRANCH  25  26ENDBRANCH  24  25ENDBRANCH   1  24TORSDOF 7TERENDMDL