REMARK SMILES O=[N+]([O-])c1cc(O)cc2[nH]c(-c3ccnc(NCCO)n3)cc12
REMARK SMILES IDX 17 1 16 3 12 4 13 5 21 6 14 7 15 8 11 9 4 10 5 11 23 12 6 13
REMARK SMILES IDX 22 14 9 15 8 16 10 17 2 19 1 20 3 21 7 22 18 24 19 25 20 26
REMARK H PARENT 17 2 10 18 7 23 20 27
ROOT
ATOM      1  N   UNL     1       4.236   0.013   0.364  1.00  0.00    -0.352 N 
ATOM      2  H   UNL     1       5.055   0.616   0.407  1.00  0.00     0.163 HD
ENDROOT
BRANCH   1   3
ATOM      3  C   UNL     1       3.174   0.892   0.551  1.00  0.00     0.223 A 
ATOM      4  C   UNL     1       0.942   1.399   0.555  1.00  0.00     0.092 A 
ATOM      5  C   UNL     1       1.188   2.688   0.963  1.00  0.00     0.051 A 
ATOM      6  N   UNL     1       1.916   0.490   0.338  1.00  0.00    -0.211 NA
ATOM      7  C   UNL     1       2.510   2.996   1.152  1.00  0.00     0.117 A 
ATOM      8  N   UNL     1       3.513   2.120   0.955  1.00  0.00    -0.222 NA
BRANCH   4   9
ATOM      9  C   UNL     1      -0.406   0.887   0.328  1.00  0.00     0.066 A 
ATOM     10  C   UNL     1      -4.049   0.490  -0.126  1.00  0.00     0.282 A 
ATOM     11  C   UNL     1      -4.737  -0.707  -0.364  1.00  0.00     0.132 A 
ATOM     12  C   UNL     1      -2.643   0.513   0.027  1.00  0.00     0.078 A 
ATOM     13  C   UNL     1      -4.018  -1.889  -0.457  1.00  0.00     0.124 A 
ATOM     14  C   UNL     1      -1.645   1.501   0.290  1.00  0.00     0.045 A 
ATOM     15  C   UNL     1      -1.970  -0.709  -0.076  1.00  0.00     0.057 A 
ATOM     16  C   UNL     1      -2.628  -1.925  -0.319  1.00  0.00     0.073 A 
ATOM     17  N   UNL     1      -0.632  -0.452   0.104  1.00  0.00    -0.353 N 
ATOM     18  H   UNL     1       0.110  -1.140   0.090  1.00  0.00     0.167 HD
BRANCH  10  19
ATOM     19  N   UNL     1      -4.797   1.733  -0.020  1.00  0.00     0.063 N 
ATOM     20  O   UNL     1      -5.931   1.672   0.476  1.00  0.00    -0.258 OA
ATOM     21  O   UNL     1      -4.269   2.772  -0.441  1.00  0.00    -0.258 OA
ENDBRANCH  10  19
BRANCH  13  22
ATOM     22  O   UNL     1      -4.726  -3.033  -0.693  1.00  0.00    -0.508 OA
ATOM     23  H   UNL     1      -4.114  -3.787  -0.716  1.00  0.00     0.293 HD
ENDBRANCH  13  22
ENDBRANCH   4   9
ENDBRANCH   1   3
BRANCH   1  24
ATOM     24  C   UNL     1       4.160  -0.761  -0.876  1.00  0.00     0.144 C 
BRANCH  24  25
ATOM     25  C   UNL     1       3.416  -2.082  -0.654  1.00  0.00     0.177 C 
BRANCH  25  26
ATOM     26  O   UNL     1       3.963  -2.769   0.472  1.00  0.00    -0.395 OA
ATOM     27  H   UNL     1       4.097  -2.068   1.143  1.00  0.00     0.210 HD
ENDBRANCH  25  26
ENDBRANCH  24  25
ENDBRANCH   1  24
TORSDOF 7
