REMARK SMILES O=C(O)C=CC1=C(c2n[nH]c3cc(NCC4CC4)ncc23)C=C1
REMARK SMILES IDX 6 1 7 2 22 3 23 4 5 5 4 6 2 7 1 8 3 9 8 11 9 12 21 13 10 14
REMARK SMILES IDX 20 15 11 16 19 17 12 18 13 19 14 21 15 23 16 24 17 25 18 26
REMARK H PARENT 3 10 10 20 14 22
ROOT
ATOM      1  C   UNL     1       3.868  -0.426  -0.349  1.00  0.00    -0.016 C 
ATOM      2  C   UNL     1       2.544  -0.503  -0.188  1.00  0.00     0.010 C 
ATOM      3  C   UNL     1       2.518  -1.704  -0.958  1.00  0.00     0.012 C 
ATOM      4  C   UNL     1       3.857  -1.625  -1.119  1.00  0.00     0.009 C 
ENDROOT
BRANCH   1   5
ATOM      5  C   UNL     1       5.041   0.478   0.046  1.00  0.00     0.016 C 
BRANCH   5   6
ATOM      6  C   UNL     1       6.314   0.255  -0.301  1.00  0.00     0.094 C 
BRANCH   6   7
ATOM      7  C   UNL     1       7.362   1.185   0.131  1.00  0.00     0.328 C 
ATOM      8  O   UNL     1       7.236   2.191   0.802  1.00  0.00    -0.247 OA
BRANCH   7   9
ATOM      9  O   UNL     1       8.556   0.776  -0.325  1.00  0.00    -0.478 OA
ATOM     10  H   UNL     1       9.177   1.455   0.012  1.00  0.00     0.297 HD
ENDBRANCH   7   9
ENDBRANCH   6   7
ENDBRANCH   5   6
ENDBRANCH   1   5
BRANCH   2  11
ATOM     11  C   UNL     1       1.415   0.278   0.493  1.00  0.00     0.102 A 
ATOM     12  N   UNL     1       1.671   1.407   1.167  1.00  0.00    -0.174 NA
ATOM     13  C   UNL     1       0.037  -0.055   0.510  1.00  0.00     0.046 A 
ATOM     14  N   UNL     1       0.464   1.799   1.603  1.00  0.00    -0.277 N 
ATOM     15  C   UNL     1      -0.788  -1.058   0.005  1.00  0.00     0.126 A 
ATOM     16  C   UNL     1      -0.555   0.960   1.252  1.00  0.00     0.071 A 
ATOM     17  N   UNL     1      -2.126  -1.034   0.243  1.00  0.00    -0.239 NA
ATOM     18  C   UNL     1      -1.925   1.001   1.504  1.00  0.00     0.075 A 
ATOM     19  C   UNL     1      -2.680  -0.045   0.975  1.00  0.00     0.128 A 
ATOM     20  H   UNL     1       0.405   2.655   2.143  1.00  0.00     0.190 HD
BRANCH  19  21
ATOM     21  N   UNL     1      -4.069  -0.003   1.188  1.00  0.00    -0.370 N 
ATOM     22  H   UNL     1      -4.240   0.117   2.181  1.00  0.00     0.162 HD
BRANCH  21  23
ATOM     23  C   UNL     1      -4.844  -1.115   0.649  1.00  0.00     0.118 C 
BRANCH  23  24
ATOM     24  C   UNL     1      -5.467  -0.821  -0.688  1.00  0.00     0.008 C 
ATOM     25  C   UNL     1      -6.079   0.525  -0.999  1.00  0.00     0.006 C 
ATOM     26  C   UNL     1      -4.844   0.076  -1.732  1.00  0.00     0.006 C 
ENDBRANCH  23  24
ENDBRANCH  21  23
ENDBRANCH  19  21
ENDBRANCH   2  11
TORSDOF 8
