REMARK SMILES O=Cc1c(Cl)cccc1Cc1ccc(CN2CCOCC2)[nH]c1=O
REMARK SMILES IDX 10 1 9 2 3 3 4 4 6 5 8 6 7 7 5 8 2 9 1 10 11 11 12 12 23 13
REMARK SMILES IDX 13 14 22 15 14 16 24 17 15 19 16 20 17 21 21 22 18 23 20 24
REMARK SMILES IDX 19 25
REMARK H PARENT 22 18
ROOT
ATOM      1  C   UNL     1      -2.819  -0.796   1.046  1.00  0.00     0.077 C 
ENDROOT
BRANCH   1   2
ATOM      2  C   UNL     1      -3.823  -0.346  -0.008  1.00  0.00    -0.031 A 
ATOM      3  C   UNL     1      -4.946  -1.141  -0.346  1.00  0.00     0.036 A 
ATOM      4  C   UNL     1      -5.834  -0.722  -1.352  1.00  0.00     0.051 A 
ATOM      5  C   UNL     1      -5.636   0.498  -2.002  1.00  0.00     0.021 A 
ATOM      6  C   UNL     1      -3.672   0.896  -0.658  1.00  0.00     0.005 A 
ATOM      7  C   UNL     1      -4.563   1.310  -1.649  1.00  0.00     0.002 A 
ATOM      8  Cl  UNL     1      -7.229  -1.634  -1.821  1.00  0.00    -0.084 Cl
BRANCH   3   9
ATOM      9  C   UNL     1      -5.228  -2.413   0.363  1.00  0.00     0.261 C 
ATOM     10  O   UNL     1      -4.940  -2.586   1.542  1.00  0.00    -0.298 OA
ENDBRANCH   3   9
ENDBRANCH   1   2
BRANCH   1  11
ATOM     11  C   UNL     1      -1.437  -0.211   0.944  1.00  0.00     0.022 A 
ATOM     12  C   UNL     1      -0.925   0.678   1.814  1.00  0.00     0.011 A 
ATOM     13  C   UNL     1      -0.563  -0.697  -0.169  1.00  0.00     0.251 A 
ATOM     14  C   UNL     1       0.420   1.183   1.673  1.00  0.00     0.023 A 
ATOM     15  N   UNL     1       0.702  -0.163  -0.224  1.00  0.00    -0.325 N 
ATOM     16  C   UNL     1       1.209   0.751   0.676  1.00  0.00     0.032 A 
ATOM     17  O   UNL     1      -0.944  -1.521  -0.993  1.00  0.00    -0.269 OA
ATOM     18  H   UNL     1       1.276  -0.504  -0.984  1.00  0.00     0.170 HD
BRANCH  16  19
ATOM     19  C   UNL     1       2.626   1.246   0.467  1.00  0.00     0.138 C 
BRANCH  19  20
ATOM     20  N   UNL     1       3.618   0.567   1.315  1.00  0.00    -0.293 NA
ATOM     21  C   UNL     1       4.937   1.235   1.237  1.00  0.00     0.113 C 
ATOM     22  C   UNL     1       3.812  -0.862   0.982  1.00  0.00     0.113 C 
ATOM     23  C   UNL     1       5.696   0.968  -0.075  1.00  0.00     0.175 C 
ATOM     24  C   UNL     1       4.584  -1.100  -0.327  1.00  0.00     0.175 C 
ATOM     25  O   UNL     1       5.853  -0.435  -0.314  1.00  0.00    -0.379 OA
ENDBRANCH  19  20
ENDBRANCH  16  19
ENDBRANCH   1  11
TORSDOF 5
