REMARK SMILES CO[C@H]1CC=C(c2nc(NCc3cccnc3)c3ncn(C(C)C)c3n2)N=N1
REMARK SMILES IDX 7 1 8 2 9 3 18 4 19 5 20 6 21 7 25 8 26 9 6 10 3 11 4 12
REMARK SMILES IDX 28 13 5 14 27 15 2 16 1 17 10 18 11 20 12 21 13 22 17 23
REMARK SMILES IDX 14 24 16 25 15 26 22 27 23 28 24 29
REMARK H PARENT 10 19
ROOT
ATOM      1  C   UNL     1       0.803  -0.093  -0.316  1.00  0.00     0.183 A 
ATOM      2  N   UNL     1      -0.415   0.499  -0.191  1.00  0.00    -0.207 NA
ATOM      3  C   UNL     1      -1.489  -0.241   0.188  1.00  0.00     0.158 A 
ATOM      4  C   UNL     1      -1.289  -1.612   0.424  1.00  0.00     0.150 A 
ATOM      5  N   UNL     1      -2.152  -2.623   0.790  1.00  0.00    -0.231 NA
ATOM      6  C   UNL     1      -1.397  -3.700   0.856  1.00  0.00     0.202 A 
ATOM      7  N   UNL     1      -0.089  -3.432   0.543  1.00  0.00    -0.313 N 
ATOM      8  C   UNL     1      -0.004  -2.095   0.258  1.00  0.00     0.166 A 
ATOM      9  N   UNL     1       1.081  -1.398  -0.104  1.00  0.00    -0.206 NA
ENDROOT
BRANCH   1  10
ATOM     10  C   UNL     1       1.950   0.778  -0.721  1.00  0.00     0.126 C 
ATOM     11  C   UNL     1       4.244   2.283  -0.821  1.00  0.00     0.260 C 
ATOM     12  C   UNL     1       2.949   2.931  -1.322  1.00  0.00     0.088 C 
ATOM     13  N   UNL     1       4.231   0.830  -1.110  1.00  0.00    -0.156 NA
ATOM     14  C   UNL     1       1.774   2.095  -0.941  1.00  0.00     0.012 C 
ATOM     15  N   UNL     1       3.178   0.172  -0.921  1.00  0.00    -0.150 NA
BRANCH  11  16
ATOM     16  O   UNL     1       5.330   3.036  -1.388  1.00  0.00    -0.358 OA
ATOM     17  C   UNL     1       6.592   2.563  -0.939  1.00  0.00     0.198 C 
ENDBRANCH  11  16
ENDBRANCH   1  10
BRANCH   3  18
ATOM     18  N   UNL     1      -2.748   0.350   0.345  1.00  0.00    -0.364 N 
ATOM     19  H   UNL     1      -3.465  -0.374   0.368  1.00  0.00     0.162 HD
BRANCH  18  20
ATOM     20  C   UNL     1      -3.018   1.450  -0.562  1.00  0.00     0.152 C 
BRANCH  20  21
ATOM     21  C   UNL     1      -4.427   1.943  -0.364  1.00  0.00    -0.010 A 
ATOM     22  C   UNL     1      -4.895   2.348   0.891  1.00  0.00     0.009 A 
ATOM     23  C   UNL     1      -5.307   2.049  -1.436  1.00  0.00     0.116 A 
ATOM     24  C   UNL     1      -6.198   2.817   1.026  1.00  0.00     0.020 A 
ATOM     25  N   UNL     1      -6.577   2.504  -1.336  1.00  0.00    -0.264 NA
ATOM     26  C   UNL     1      -6.993   2.876  -0.106  1.00  0.00     0.111 A 
ENDBRANCH  20  21
ENDBRANCH  18  20
ENDBRANCH   3  18
BRANCH   7  27
ATOM     27  C   UNL     1       0.989  -4.410   0.522  1.00  0.00     0.084 C 
ATOM     28  C   UNL     1       1.580  -4.588  -0.876  1.00  0.00     0.031 C 
ATOM     29  C   UNL     1       2.072  -4.096   1.555  1.00  0.00     0.031 C 
ENDBRANCH   7  27
TORSDOF 6
