REMARK SMILES Nc1ncc(-c2ccccc2)cc1N=NC=CCN(F)C(=O)c1ccccc1
REMARK SMILES IDX 16 1 15 2 14 3 13 4 2 5 3 6 4 7 12 8 5 9 1 10 6 13 7 14
REMARK SMILES IDX 11 15 8 16 10 17 9 18 17 19 18 20 19 21 20 22 21 23 22 24
REMARK SMILES IDX 23 25 24 26 28 27 25 28 27 29 26 30
REMARK H PARENT 1 11 1 12
ROOT
ATOM      1  C   UNL     1       1.322  -2.995  -0.819  1.00  0.00     0.133 C 
ENDROOT
BRANCH   1   2
ATOM      2  N   UNL     1       0.144  -2.398  -1.169  1.00  0.00    -0.159 NA
BRANCH   2   3
ATOM      3  N   UNL     1      -0.877  -3.093  -0.981  1.00  0.00    -0.147 NA
BRANCH   3   4
ATOM      4  C   UNL     1      -2.023  -2.360  -1.357  1.00  0.00     0.128 A 
ATOM      5  C   UNL     1      -2.765  -2.710  -2.497  1.00  0.00     0.151 A 
ATOM      6  N   UNL     1      -3.869  -2.043  -2.879  1.00  0.00    -0.237 NA
ATOM      7  C   UNL     1      -4.253  -0.987  -2.120  1.00  0.00     0.122 A 
ATOM      8  C   UNL     1      -2.466  -1.272  -0.590  1.00  0.00     0.044 A 
ATOM      9  C   UNL     1      -3.604  -0.548  -0.965  1.00  0.00     0.002 A 
BRANCH   5  10
ATOM     10  N   UNL     1      -2.357  -3.789  -3.311  1.00  0.00    -0.382 N 
ATOM     11  H   UNL     1      -2.325  -4.624  -2.733  1.00  0.00     0.158 HD
ATOM     12  H   UNL     1      -1.398  -3.604  -3.603  1.00  0.00     0.158 HD
ENDBRANCH   5  10
BRANCH   9  13
ATOM     13  C   UNL     1      -4.079   0.609  -0.194  1.00  0.00    -0.017 A 
ATOM     14  C   UNL     1      -3.192   1.623   0.216  1.00  0.00     0.009 A 
ATOM     15  C   UNL     1      -5.433   0.742   0.161  1.00  0.00     0.009 A 
ATOM     16  C   UNL     1      -3.643   2.730   0.943  1.00  0.00     0.001 A 
ATOM     17  C   UNL     1      -5.886   1.849   0.889  1.00  0.00     0.001 A 
ATOM     18  C   UNL     1      -4.990   2.843   1.276  1.00  0.00     0.000 A 
ENDBRANCH   9  13
ENDBRANCH   3   4
ENDBRANCH   2   3
ENDBRANCH   1   2
BRANCH   1  19
ATOM     19  C   UNL     1       2.518  -2.411  -0.963  1.00  0.00     0.019 C 
BRANCH  19  20
ATOM     20  C   UNL     1       2.744  -1.031  -1.506  1.00  0.00     0.188 C 
BRANCH  20  21
ATOM     21  N   UNL     1       3.569  -0.288  -0.578  1.00  0.00    -0.170 N 
ATOM     22  F   UNL     1       4.892  -0.678  -0.470  1.00  0.00    -0.097 F 
BRANCH  21  23
ATOM     23  C   UNL     1       3.015   0.579   0.354  1.00  0.00     0.281 C 
ATOM     24  O   UNL     1       1.810   0.807   0.444  1.00  0.00    -0.266 OA
BRANCH  23  25
ATOM     25  C   UNL     1       3.943   1.257   1.302  1.00  0.00     0.042 A 
ATOM     26  C   UNL     1       5.218   1.688   0.917  1.00  0.00     0.014 A 
ATOM     27  C   UNL     1       3.491   1.510   2.606  1.00  0.00     0.014 A 
ATOM     28  C   UNL     1       6.042   2.342   1.836  1.00  0.00     0.001 A 
ATOM     29  C   UNL     1       4.317   2.166   3.518  1.00  0.00     0.001 A 
ATOM     30  C   UNL     1       5.593   2.578   3.134  1.00  0.00     0.000 A 
ENDBRANCH  23  25
ENDBRANCH  21  23
ENDBRANCH  20  21
ENDBRANCH  19  20
ENDBRANCH   1  19
TORSDOF 10
