MODEL        10USER    Run = 10USERUSER    Estimated Free Energy of Binding    =  -8.14 kcal/mol  [=(1)+(2)+(3)-(4)]USERUSER    (1) Final Intermolecular Energy     = -10.23 kcal/molUSER        vdW + Hbond + desolv Energy     =  -9.77 kcal/molUSER        Electrostatic Energy            =  -0.46 kcal/molUSER        Moving Ligand-Fixed Receptor    = -10.23 kcal/molUSER        Moving Ligand-Moving Receptor   =  +0.00 kcal/molUSER    (2) Final Total Internal Energy     =  -1.80 kcal/molUSER    (3) Torsional Free Energy           =  +2.09 kcal/molUSER    (4) Unbound System's Energy         =  -1.80 kcal/molUSERUSERREMARK SMILES Cc1cc(C(F)(F)F)ccc1C(=O)NC1=CC(=CC(=O)O)[C@H]1OREMARK SMILES IDX 15 1 16 2 17 3 22 4 14 5 12 6 13 7 11 9 2 10 3 11 4 12 10 13REMARK SMILES IDX 9 14 1 15 5 16 6 17 7 18 8 19 23 20 18 22 19 23 20 24 21 25REMARK H PARENT 14 8 23 21 21 26USER                              x       y       z     vdW  Elec       q    TypeUSER                           _______ _______ _______ _____ _____    ______ ____ROOTATOM      1  C   UNL     1      41.356  46.533  19.193 -0.49 +0.00    +0.052 C  ATOM      2  C   UNL     1      41.494  45.603  20.171 -0.42 +0.00    +0.031 C  ATOM      3  C   UNL     1      42.579  46.322  20.791 -0.40 -0.00    -0.005 C  ATOM      4  C   UNL     1      42.532  47.368  19.700 -0.36 +0.02    +0.191 C  ENDROOTBRANCH   1   5ATOM      5  N   UNL     1      40.415  46.662  18.058 -0.27 +0.03    -0.323 N  ATOM      6  C   UNL     1      40.636  47.534  17.011 -0.39 -0.04    +0.255 C  ATOM      7  O   UNL     1      41.565  48.328  16.932 -0.78 +0.00    -0.269 OA ATOM      8  H   UNL     1      39.605  46.057  18.051 +0.10 -0.02    +0.170 HD BRANCH   6   9ATOM      9  C   UNL     1      39.621  47.468  15.928 -0.47 -0.01    +0.043 A  ATOM     10  C   UNL     1      39.729  48.281  14.786 -0.51 +0.01    -0.038 A  ATOM     11  C   UNL     1      38.728  48.200  13.802 -0.39 -0.01    +0.017 A  ATOM     12  C   UNL     1      37.644  47.315  13.935 -0.47 -0.02    +0.056 A  ATOM     13  C   UNL     1      38.534  46.593  16.076 -0.40 -0.01    +0.015 A  ATOM     14  C   UNL     1      37.554  46.518  15.086 -0.39 -0.01    +0.014 A  ATOM     15  C   UNL     1      40.865  49.250  14.603 -0.66 -0.01    +0.045 C  BRANCH  12  16ATOM     16  C   UNL     1      36.568  47.257  12.876 -0.36 -0.19    +0.416 C  ATOM     17  F   UNL     1      36.955  46.576  11.761 -0.26 +0.06    -0.166 F  ATOM     18  F   UNL     1      35.439  46.640  13.318 -0.19 +0.11    -0.166 F  ATOM     19  F   UNL     1      36.179  48.489  12.441 -0.29 +0.07    -0.166 F  ENDBRANCH  12  16ENDBRANCH   6   9ENDBRANCH   1   5BRANCH   4  20ATOM     20  O   UNL     1      43.693  47.352  18.850 -0.34 -0.12    -0.382 OA ATOM     21  H   UNL     1      43.297  47.389  17.960 -0.46 -0.02    +0.212 HD ENDBRANCH   4  20BRANCH   3  22ATOM     22  C   UNL     1      43.310  46.102  21.888 -0.27 +0.04    +0.100 C  BRANCH  22  23ATOM     23  C   UNL     1      44.397  46.997  22.282 -0.18 +0.17    +0.328 C  ATOM     24  O   UNL     1      44.579  47.373  23.427 -0.15 -0.07    -0.247 OA BRANCH  23  25ATOM     25  O   UNL     1      45.218  47.386  21.293 -0.64 -0.57    -0.478 OA ATOM     26  H   UNL     1      44.630  47.919  20.716 -0.35 +0.11    +0.297 HD ENDBRANCH  23  25ENDBRANCH  22  23ENDBRANCH   3  22TORSDOF 7TERENDMDL