REMARK SMILES Cc1c(CCn2cc(-c3ccc4[nH]ncc4c3)nn2)cccc1C(F)(F)F
REMARK SMILES IDX 4 1 3 2 2 3 23 4 20 5 22 6 21 7 1 8 24 9 25 10 26 11 27 12
REMARK SMILES IDX 5 13 6 14 7 15 19 16 8 17 18 18 9 19 10 20 17 21 11 22 16 23
REMARK SMILES IDX 12 24 15 25 13 26 14 27
REMARK H PARENT 13 28
ROOT
ATOM      1  C   UNL     1      -1.742  -0.473   0.608  1.00  0.00     0.059 C 
ENDROOT
BRANCH   1   2
ATOM      2  C   UNL     1      -3.174  -0.811   0.242  1.00  0.00    -0.043 A 
ATOM      3  C   UNL     1      -4.253   0.088   0.430  1.00  0.00    -0.036 A 
ATOM      4  C   UNL     1      -5.554  -0.291  -0.000  1.00  0.00     0.059 A 
ATOM      5  C   UNL     1      -3.416  -2.071  -0.334  1.00  0.00     0.004 A 
ATOM      6  C   UNL     1      -5.755  -1.564  -0.565  1.00  0.00     0.013 A 
ATOM      7  C   UNL     1      -4.695  -2.447  -0.728  1.00  0.00     0.001 A 
ATOM      8  C   UNL     1      -4.041   1.462   1.023  1.00  0.00     0.045 C 
BRANCH   4   9
ATOM      9  C   UNL     1      -6.749   0.634   0.141  1.00  0.00     0.416 C 
ATOM     10  F   UNL     1      -6.521   1.877  -0.371  1.00  0.00    -0.166 F 
ATOM     11  F   UNL     1      -7.118   0.821   1.439  1.00  0.00    -0.166 F 
ATOM     12  F   UNL     1      -7.867   0.180  -0.496  1.00  0.00    -0.166 F 
ENDBRANCH   4   9
ENDBRANCH   1   2
BRANCH   1  13
ATOM     13  C   UNL     1      -1.083   0.419  -0.442  1.00  0.00     0.151 C 
BRANCH  13  14
ATOM     14  N   UNL     1       0.293   0.710  -0.109  1.00  0.00    -0.252 N 
ATOM     15  C   UNL     1       1.422   0.179  -0.658  1.00  0.00     0.139 A 
ATOM     16  N   UNL     1       0.582   1.605   0.848  1.00  0.00    -0.067 NA
ATOM     17  C   UNL     1       2.446   0.799   0.024  1.00  0.00     0.113 A 
ATOM     18  N   UNL     1       1.903   1.667   0.942  1.00  0.00    -0.130 NA
BRANCH  17  19
ATOM     19  C   UNL     1       3.877   0.606  -0.153  1.00  0.00     0.004 A 
ATOM     20  C   UNL     1       4.391  -0.270  -1.123  1.00  0.00     0.013 A 
ATOM     21  C   UNL     1       4.769   1.319   0.671  1.00  0.00     0.022 A 
ATOM     22  C   UNL     1       5.770  -0.459  -1.297  1.00  0.00     0.029 A 
ATOM     23  C   UNL     1       6.155   1.142   0.512  1.00  0.00     0.020 A 
ATOM     24  C   UNL     1       6.620   0.266  -0.460  1.00  0.00     0.065 A 
ATOM     25  C   UNL     1       7.324   1.653   1.118  1.00  0.00     0.143 A 
ATOM     26  N   UNL     1       7.987   0.316  -0.366  1.00  0.00    -0.278 N 
ATOM     27  N   UNL     1       8.442   1.151   0.586  1.00  0.00    -0.183 NA
ATOM     28  H   UNL     1       8.664  -0.194  -0.920  1.00  0.00     0.190 HD
ENDBRANCH  17  19
ENDBRANCH  13  14
ENDBRANCH   1  13
TORSDOF 5
