MODEL        2USER    Run = 2USERUSER    Estimated Free Energy of Binding    =  -9.68 kcal/mol  [=(1)+(2)+(3)-(4)]USERUSER    (1) Final Intermolecular Energy     = -12.66 kcal/molUSER        vdW + Hbond + desolv Energy     = -12.56 kcal/molUSER        Electrostatic Energy            =  -0.10 kcal/molUSER        Moving Ligand-Fixed Receptor    = -12.66 kcal/molUSER        Moving Ligand-Moving Receptor   =  +0.00 kcal/molUSER    (2) Final Total Internal Energy     =  -2.59 kcal/molUSER    (3) Torsional Free Energy           =  +2.98 kcal/molUSER    (4) Unbound System's Energy         =  -2.59 kcal/molUSERUSERREMARK SMILES Nc1ncc(-c2ccccc2)cc1N=NC=CCN(F)C(=O)c1ccccc1REMARK SMILES IDX 16 1 15 2 14 3 13 4 2 5 3 6 4 7 12 8 5 9 1 10 6 13 7 14REMARK SMILES IDX 11 15 8 16 10 17 9 18 17 19 18 20 19 21 20 22 21 23 22 24REMARK SMILES IDX 23 25 24 26 28 27 25 28 27 29 26 30REMARK H PARENT 1 11 1 12USER                              x       y       z     vdW  Elec       q    TypeUSER                           _______ _______ _______ _____ _____    ______ ____ROOTATOM      1  C   UNL     1      41.361  49.435  16.056 -0.46 -0.01    +0.133 C  ENDROOTBRANCH   1   2ATOM      2  N   UNL     1      41.471  48.616  17.144 -0.86 +0.00    -0.159 NA BRANCH   2   3ATOM      3  N   UNL     1      41.224  47.411  16.925 -0.34 +0.02    -0.147 NA BRANCH   3   4ATOM      4  C   UNL     1      41.030  46.738  18.151 -0.42 -0.01    +0.128 A  ATOM      5  C   UNL     1      42.036  46.714  19.131 -0.40 +0.01    +0.151 A  ATOM      6  N   UNL     1      41.882  46.095  20.315 -0.24 -0.04    -0.237 NA ATOM      7  C   UNL     1      40.702  45.467  20.542 -0.29 +0.01    +0.122 A  ATOM      8  C   UNL     1      39.818  46.092  18.434 -0.42 -0.00    +0.044 A  ATOM      9  C   UNL     1      39.628  45.427  19.651 -0.40 -0.00    +0.002 A  BRANCH   5  10ATOM     10  N   UNL     1      43.279  47.339  18.893 -0.30 -0.07    -0.382 N  ATOM     11  H   UNL     1      43.326  48.175  19.469 -0.50 -0.01    +0.158 HD ATOM     12  H   UNL     1      43.280  47.657  17.925 -0.40 -0.01    +0.158 HD ENDBRANCH   5  10BRANCH   9  13ATOM     13  C   UNL     1      38.378  44.723  19.966 -0.36 +0.00    -0.017 A  ATOM     14  C   UNL     1      38.207  44.059  21.197 -0.35 +0.00    +0.009 A  ATOM     15  C   UNL     1      37.311  44.687  19.051 -0.35 -0.00    +0.009 A  ATOM     16  C   UNL     1      37.015  43.395  21.503 -0.42 +0.00    +0.001 A  ATOM     17  C   UNL     1      36.117  44.022  19.356 -0.38 -0.00    +0.001 A  ATOM     18  C   UNL     1      35.970  43.379  20.583 -0.43 -0.00    +0.000 A  ENDBRANCH   9  13ENDBRANCH   3   4ENDBRANCH   2   3ENDBRANCH   1   2BRANCH   1  19ATOM     19  C   UNL     1      40.247  49.542  15.321 -0.53 -0.01    +0.019 C  BRANCH  19  20ATOM     20  C   UNL     1      39.734  48.498  14.375 -0.38 -0.06    +0.188 C  BRANCH  20  21ATOM     21  N   UNL     1      38.287  48.532  14.373 -0.41 +0.09    -0.170 N  ATOM     22  F   UNL     1      37.682  49.341  15.318 -0.27 +0.09    -0.097 F  BRANCH  21  23ATOM     23  C   UNL     1      37.539  47.606  13.660 -0.38 -0.11    +0.281 C  ATOM     24  O   UNL     1      37.307  47.696  12.456 -1.08 +0.05    -0.266 OA BRANCH  23  25ATOM     25  C   UNL     1      37.002  46.433  14.405 -0.39 -0.02    +0.042 A  ATOM     26  C   UNL     1      37.838  45.501  15.031 -0.37 -0.00    +0.014 A  ATOM     27  C   UNL     1      35.610  46.300  14.518 -0.40 -0.01    +0.014 A  ATOM     28  C   UNL     1      37.286  44.431  15.740 -0.33 -0.00    +0.001 A  ATOM     29  C   UNL     1      35.064  45.232  15.230 -0.33 -0.00    +0.001 A  ATOM     30  C   UNL     1      35.902  44.296  15.836 -0.36 -0.00    +0.000 A  ENDBRANCH  23  25ENDBRANCH  21  23ENDBRANCH  20  21ENDBRANCH  19  20ENDBRANCH   1  19TORSDOF 10TERENDMDL