REMARK SMILES FC(F)(F)c1cccc(CNc2ncc3ccc4ocnc4c3n2)c1
REMARK SMILES IDX 5 1 6 2 7 3 8 4 9 5 25 6 2 7 1 8 3 9 4 10 10 11 11 12 12 14
REMARK SMILES IDX 13 15 24 16 14 17 23 18 15 19 22 20 16 21 21 22 18 23 17 24
REMARK SMILES IDX 20 25 19 26
REMARK H PARENT 11 13
ROOT
ATOM      1  C   UNL     1       4.418   0.416  -0.714  1.00  0.00     0.056 A 
ATOM      2  C   UNL     1       4.646  -0.918  -1.083  1.00  0.00     0.013 A 
ATOM      3  C   UNL     1       3.870  -1.944  -0.544  1.00  0.00     0.001 A 
ATOM      4  C   UNL     1       2.856  -1.649   0.367  1.00  0.00     0.005 A 
ATOM      5  C   UNL     1       2.604  -0.326   0.751  1.00  0.00    -0.028 A 
ATOM      6  C   UNL     1       3.389   0.700   0.199  1.00  0.00     0.018 A 
ENDROOT
BRANCH   1   7
ATOM      7  C   UNL     1       5.234   1.529  -1.321  1.00  0.00     0.416 C 
ATOM      8  F   UNL     1       6.517   1.157  -1.597  1.00  0.00    -0.166 F 
ATOM      9  F   UNL     1       5.335   2.624  -0.516  1.00  0.00    -0.166 F 
ATOM     10  F   UNL     1       4.716   1.976  -2.499  1.00  0.00    -0.166 F 
ENDBRANCH   1   7
BRANCH   5  11
ATOM     11  C   UNL     1       1.510  -0.006   1.746  1.00  0.00     0.152 C 
BRANCH  11  12
ATOM     12  N   UNL     1       0.501   0.848   1.158  1.00  0.00    -0.350 N 
ATOM     13  H   UNL     1       0.137   1.569   1.771  1.00  0.00     0.164 HD
BRANCH  12  14
ATOM     14  C   UNL     1      -0.617   0.200   0.658  1.00  0.00     0.223 A 
ATOM     15  N   UNL     1      -0.518  -1.012   0.090  1.00  0.00    -0.221 NA
ATOM     16  N   UNL     1      -1.766   0.868   0.798  1.00  0.00    -0.211 NA
ATOM     17  C   UNL     1      -1.646  -1.565  -0.399  1.00  0.00     0.125 A 
ATOM     18  C   UNL     1      -2.877   0.281   0.302  1.00  0.00     0.105 A 
ATOM     19  C   UNL     1      -2.891  -0.967  -0.330  1.00  0.00     0.021 A 
ATOM     20  C   UNL     1      -4.101   0.972   0.433  1.00  0.00     0.135 A 
ATOM     21  C   UNL     1      -4.085  -1.528  -0.833  1.00  0.00     0.016 A 
ATOM     22  N   UNL     1      -4.431   2.191   0.997  1.00  0.00    -0.214 NA
ATOM     23  C   UNL     1      -5.250   0.383  -0.077  1.00  0.00     0.156 A 
ATOM     24  C   UNL     1      -5.304  -0.852  -0.715  1.00  0.00     0.050 A 
ATOM     25  C   UNL     1      -5.727   2.281   0.802  1.00  0.00     0.309 A 
ATOM     26  O   UNL     1      -6.298   1.224   0.160  1.00  0.00    -0.443 OA
ENDBRANCH  12  14
ENDBRANCH  11  12
ENDBRANCH   5  11
TORSDOF 4
