MODEL        7USER    Run = 7USERUSER    Estimated Free Energy of Binding    = -10.28 kcal/mol  [=(1)+(2)+(3)-(4)]USERUSER    (1) Final Intermolecular Energy     = -12.07 kcal/molUSER        vdW + Hbond + desolv Energy     = -11.86 kcal/molUSER        Electrostatic Energy            =  -0.20 kcal/molUSER        Moving Ligand-Fixed Receptor    = -12.07 kcal/molUSER        Moving Ligand-Moving Receptor   =  +0.00 kcal/molUSER    (2) Final Total Internal Energy     =  -1.21 kcal/molUSER    (3) Torsional Free Energy           =  +1.79 kcal/molUSER    (4) Unbound System's Energy         =  -1.21 kcal/molUSERUSERREMARK SMILES CO[C@H]1CC=C(c2nc(NCc3cccnc3)c3ncn(C(C)C)c3n2)N=N1REMARK SMILES IDX 7 1 8 2 9 3 18 4 19 5 20 6 21 7 25 8 26 9 6 10 3 11 4 12REMARK SMILES IDX 28 13 5 14 27 15 2 16 1 17 10 18 11 20 12 21 13 22 17 23REMARK SMILES IDX 14 24 16 25 15 26 22 27 23 28 24 29REMARK H PARENT 10 19USER                              x       y       z     vdW  Elec       q    TypeUSER                           _______ _______ _______ _____ _____    ______ ____ROOTATOM      1  C   UNL     1      39.377  46.916  16.841 -0.33 -0.05    +0.183 A  ATOM      2  N   UNL     1      38.252  46.528  16.182 -0.25 +0.08    -0.207 NA ATOM      3  C   UNL     1      37.420  45.616  16.747 -0.26 -0.06    +0.158 A  ATOM      4  C   UNL     1      37.775  45.096  18.004 -0.27 -0.03    +0.150 A  ATOM      5  N   UNL     1      37.176  44.160  18.821 -0.20 +0.03    -0.231 NA ATOM      6  C   UNL     1      37.968  44.076  19.870 -0.20 -0.01    +0.202 A  ATOM      7  N   UNL     1      39.053  44.908  19.764 -0.19 +0.01    -0.313 N  ATOM      8  C   UNL     1      38.947  45.567  18.568 -0.30 -0.02    +0.166 A  ATOM      9  N   UNL     1      39.787  46.471  18.049 -0.32 +0.03    -0.206 NA ENDROOTBRANCH   1  10ATOM     10  C   UNL     1      40.245  47.935  16.174 -0.51 -0.03    +0.126 C  ATOM     11  C   UNL     1      41.411  50.241  15.244 -0.51 -0.06    +0.260 C  ATOM     12  C   UNL     1      41.068  49.156  14.217 -0.54 -0.02    +0.088 C  ATOM     13  N   UNL     1      41.793  49.618  16.533 -0.98 -0.03    -0.156 NA ATOM     14  C   UNL     1      40.202  48.114  14.839 -0.60 -0.00    +0.012 C  ATOM     15  N   UNL     1      41.135  48.640  16.966 -0.71 +0.01    -0.150 NA BRANCH  11  16ATOM     16  O   UNL     1      42.394  51.094  14.633 -0.45 +0.07    -0.358 OA ATOM     17  C   UNL     1      42.638  50.734  13.280 -0.54 -0.07    +0.198 C  ENDBRANCH  11  16ENDBRANCH   1  10BRANCH   3  18ATOM     18  N   UNL     1      36.245  45.217  16.099 -0.09 +0.18    -0.364 N  ATOM     19  H   UNL     1      36.429  44.387  15.538 +0.11 -0.06    +0.162 HD BRANCH  18  20ATOM     20  C   UNL     1      35.546  46.282  15.404 -0.29 -0.14    +0.152 C  BRANCH  20  21ATOM     21  C   UNL     1      36.163  46.500  14.048 -0.46 +0.01    -0.010 A  ATOM     22  C   UNL     1      36.381  45.441  13.160 -0.45 -0.00    +0.009 A  ATOM     23  C   UNL     1      36.505  47.776  13.613 -0.46 -0.07    +0.116 A  ATOM     24  C   UNL     1      36.935  45.689  11.908 -0.55 -0.01    +0.020 A  ATOM     25  N   UNL     1      37.041  48.049  12.401 -0.94 +0.05    -0.264 NA ATOM     26  C   UNL     1      37.245  46.997  11.577 -0.50 -0.03    +0.111 A  ENDBRANCH  20  21ENDBRANCH  18  20ENDBRANCH   3  18BRANCH   7  27ATOM     27  C   UNL     1      40.111  45.042  20.756 -0.35 +0.00    +0.084 C  ATOM     28  C   UNL     1      41.409  45.571  20.147 -0.42 +0.00    +0.031 C  ATOM     29  C   UNL     1      39.671  45.879  21.957 -0.30 +0.00    +0.031 C  ENDBRANCH   7  27TORSDOF 6TERENDMDL