MODEL        7USER    Run = 7USERUSER    Estimated Free Energy of Binding    =  -8.55 kcal/mol  [=(1)+(2)+(3)-(4)]USERUSER    (1) Final Intermolecular Energy     = -10.04 kcal/molUSER        vdW + Hbond + desolv Energy     =  -9.99 kcal/molUSER        Electrostatic Energy            =  -0.05 kcal/molUSER        Moving Ligand-Fixed Receptor    = -10.04 kcal/molUSER        Moving Ligand-Moving Receptor   =  +0.00 kcal/molUSER    (2) Final Total Internal Energy     =  -1.05 kcal/molUSER    (3) Torsional Free Energy           =  +1.49 kcal/molUSER    (4) Unbound System's Energy         =  -1.05 kcal/molUSERUSERREMARK SMILES O=Cc1c(Cl)cccc1Cc1ccc(CN2CCOCC2)[nH]c1=OREMARK SMILES IDX 10 1 9 2 3 3 4 4 6 5 8 6 7 7 5 8 2 9 1 10 11 11 12 12 23 13REMARK SMILES IDX 13 14 22 15 14 16 24 17 15 19 16 20 17 21 21 22 18 23 20 24REMARK SMILES IDX 19 25REMARK H PARENT 22 18USER                              x       y       z     vdW  Elec       q    TypeUSER                           _______ _______ _______ _____ _____    ______ ____ROOTATOM      1  C   UNL     1      36.296  46.704  16.124 -0.38 -0.07    +0.077 C  ENDROOTBRANCH   1   2ATOM      2  C   UNL     1      37.776  47.008  16.316 -0.36 +0.02    -0.031 A  ATOM      3  C   UNL     1      38.471  47.880  15.442 -0.47 -0.02    +0.036 A  ATOM      4  C   UNL     1      39.847  48.111  15.617 -0.51 -0.02    +0.051 A  ATOM      5  C   UNL     1      40.532  47.510  16.674 -0.51 -0.00    +0.021 A  ATOM      6  C   UNL     1      38.490  46.446  17.394 -0.37 -0.00    +0.005 A  ATOM      7  C   UNL     1      39.853  46.687  17.567 -0.47 -0.00    +0.002 A  ATOM      8  Cl  UNL     1      40.766  49.163  14.594 -0.83 +0.02    -0.084 Cl BRANCH   3   9ATOM      9  C   UNL     1      37.768  48.588  14.344 -0.36 -0.16    +0.261 C  ATOM     10  O   UNL     1      37.668  48.117  13.217 -0.83 +0.07    -0.298 OA ENDBRANCH   3   9ENDBRANCH   1   2BRANCH   1  11ATOM     11  C   UNL     1      35.737  45.568  16.937 -0.33 -0.01    +0.022 A  ATOM     12  C   UNL     1      35.980  44.269  16.690 -0.33 -0.00    +0.011 A  ATOM     13  C   UNL     1      34.902  45.919  18.128 -0.23 -0.15    +0.251 A  ATOM     14  C   UNL     1      35.432  43.227  17.525 -0.34 -0.01    +0.023 A  ATOM     15  N   UNL     1      34.424  44.862  18.866 -0.19 +0.11    -0.325 N  ATOM     16  C   UNL     1      34.682  43.535  18.595 -0.33 -0.01    +0.032 A  ATOM     17  O   UNL     1      34.648  47.078  18.436 -0.85 +0.21    -0.269 OA ATOM     18  H   UNL     1      33.861  45.121  19.666 -0.16 -0.07    +0.170 HD BRANCH  16  19ATOM     19  C   UNL     1      34.070  42.490  19.507 -0.36 -0.00    +0.138 C  BRANCH  19  20ATOM     20  N   UNL     1      32.600  42.519  19.533 -0.46 -0.02    -0.293 NA ATOM     21  C   UNL     1      32.034  41.154  19.440 -0.28 +0.01    +0.113 C  ATOM     22  C   UNL     1      31.998  43.335  18.455 -0.31 -0.02    +0.113 C  ATOM     23  C   UNL     1      32.118  40.538  18.032 -0.36 -0.03    +0.175 C  ATOM     24  C   UNL     1      32.084  42.691  17.061 -0.25 -0.06    +0.175 C  ATOM     25  O   UNL     1      31.502  41.382  17.053 -0.14 +0.14    -0.379 OA ENDBRANCH  19  20ENDBRANCH  16  19ENDBRANCH   1  11TORSDOF 5TERENDMDL