MODEL        10USER    Run = 10USERUSER    Estimated Free Energy of Binding    = -13.07 kcal/mol  [=(1)+(2)+(3)-(4)]USERUSER    (1) Final Intermolecular Energy     = -14.86 kcal/molUSER        vdW + Hbond + desolv Energy     = -14.80 kcal/molUSER        Electrostatic Energy            =  -0.06 kcal/molUSER        Moving Ligand-Fixed Receptor    = -14.86 kcal/molUSER        Moving Ligand-Moving Receptor   =  +0.00 kcal/molUSER    (2) Final Total Internal Energy     =  -1.97 kcal/molUSER    (3) Torsional Free Energy           =  +1.79 kcal/molUSER    (4) Unbound System's Energy         =  -1.97 kcal/molUSERUSERREMARK SMILES Oc1nc2ccccc2n1C1CCN(Cc2ccc(-c3cc4ccccc4nc3-c3ccccc3)cc2)CC1REMARK SMILES IDX 11 1 12 2 13 3 14 4 38 5 39 6 10 7 2 8 3 9 4 10 9 11 5 12REMARK SMILES IDX 8 13 6 14 7 15 1 16 15 18 16 19 17 20 37 21 18 22 36 23REMARK SMILES IDX 19 24 20 25 21 26 29 27 22 28 28 29 23 30 27 31 24 32 26 33REMARK SMILES IDX 25 34 30 35 31 36 35 37 32 38 34 39 33 40REMARK H PARENT 1 17USER                              x       y       z     vdW  Elec       q    TypeUSER                           _______ _______ _______ _____ _____    ______ ____ROOTATOM      1  C   UNL     1      38.977  46.518  15.676 -0.42 -0.03    +0.095 C  ATOM      2  C   UNL     1      38.653  47.047  14.271 -0.50 -0.01    +0.041 C  ATOM      3  C   UNL     1      37.353  47.838  14.174 -0.53 -0.05    +0.087 C  ATOM      4  N   UNL     1      36.217  47.212  14.856 -0.18 +0.27    -0.299 NA ATOM      5  C   UNL     1      36.515  47.008  16.276 -0.32 -0.08    +0.087 C  ATOM      6  C   UNL     1      37.760  46.167  16.546 -0.41 -0.02    +0.041 C  ENDROOTBRANCH   1   7ATOM      7  N   UNL     1      40.021  47.268  16.372 -0.28 +0.06    -0.291 N  ATOM      8  C   UNL     1      40.464  48.503  15.962 -0.33 -0.07    +0.295 A  ATOM      9  N   UNL     1      41.418  48.990  16.702 -0.98 -0.00    -0.195 NA ATOM     10  C   UNL     1      41.620  48.034  17.661 -0.37 -0.00    +0.092 A  ATOM     11  C   UNL     1      40.756  46.943  17.493 -0.46 -0.01    +0.072 A  ATOM     12  C   UNL     1      42.543  48.044  18.720 -0.38 +0.00    +0.031 A  ATOM     13  C   UNL     1      40.786  45.856  18.376 -0.46 -0.00    +0.029 A  ATOM     14  C   UNL     1      42.581  46.960  19.598 -0.50 +0.00    +0.002 A  ATOM     15  C   UNL     1      41.712  45.885  19.427 -0.42 +0.00    +0.002 A  BRANCH   8  16ATOM     16  O   UNL     1      39.996  49.168  14.925 -0.20 +0.21    -0.480 OA ATOM     17  H   UNL     1      39.712  49.998  15.349 -0.15 -0.21    +0.296 HD ENDBRANCH   8  16ENDBRANCH   1   7BRANCH   4  18ATOM     18  C   UNL     1      35.752  45.998  14.164 -0.40 -0.08    +0.120 C  BRANCH  18  19ATOM     19  C   UNL     1      35.053  45.019  15.082 -0.25 +0.02    -0.034 A  ATOM     20  C   UNL     1      35.686  43.839  15.492 -0.31 -0.00    +0.006 A  ATOM     21  C   UNL     1      33.754  45.281  15.536 -0.31 -0.00    +0.006 A  ATOM     22  C   UNL     1      35.030  42.939  16.338 -0.43 -0.00    +0.009 A  ATOM     23  C   UNL     1      33.098  44.377  16.375 -0.32 -0.00    +0.009 A  ATOM     24  C   UNL     1      33.724  43.191  16.784 -0.34 +0.01    -0.016 A  BRANCH  24  25ATOM     25  C   UNL     1      33.035  42.245  17.674 -0.36 -0.00    +0.009 A  ATOM     26  C   UNL     1      31.883  41.588  17.215 -0.24 -0.01    +0.021 A  ATOM     27  C   UNL     1      33.480  41.920  18.966 -0.33 -0.00    +0.079 A  ATOM     28  C   UNL     1      31.225  40.645  18.014 -0.36 -0.00    +0.001 A  ATOM     29  N   UNL     1      32.856  40.994  19.750 -0.25 -0.06    -0.247 NA ATOM     30  C   UNL     1      30.072  39.974  17.572 -0.35 +0.00    +0.010 A  ATOM     31  C   UNL     1      31.758  40.377  19.287 -0.31 +0.01    +0.071 A  ATOM     32  C   UNL     1      29.444  39.036  18.390 -0.34 +0.00    +0.001 A  ATOM     33  C   UNL     1      31.115  39.438  20.083 -0.36 +0.00    +0.029 A  ATOM     34  C   UNL     1      29.968  38.767  19.650 -0.35 +0.00    +0.002 A  BRANCH  27  35ATOM     35  C   UNL     1      34.653  42.537  19.613 -0.43 -0.00    +0.001 A  ATOM     36  C   UNL     1      35.508  41.766  20.421 -0.27 -0.00    +0.010 A  ATOM     37  C   UNL     1      34.944  43.904  19.468 -0.39 -0.00    +0.010 A  ATOM     38  C   UNL     1      36.625  42.335  21.039 -0.48 +0.00    +0.001 A  ATOM     39  C   UNL     1      36.061  44.476  20.085 -0.28 -0.00    +0.001 A  ATOM     40  C   UNL     1      36.904  43.689  20.867 -0.41 +0.00    +0.000 A  ENDBRANCH  27  35ENDBRANCH  24  25ENDBRANCH  18  19ENDBRANCH   4  18TORSDOF 6TERENDMDL