MODEL        8USER    Run = 8USERUSER    Estimated Free Energy of Binding    = -12.29 kcal/mol  [=(1)+(2)+(3)-(4)]USERUSER    (1) Final Intermolecular Energy     = -14.08 kcal/molUSER        vdW + Hbond + desolv Energy     = -13.94 kcal/molUSER        Electrostatic Energy            =  -0.14 kcal/molUSER        Moving Ligand-Fixed Receptor    = -14.08 kcal/molUSER        Moving Ligand-Moving Receptor   =  +0.00 kcal/molUSER    (2) Final Total Internal Energy     =  -1.88 kcal/molUSER    (3) Torsional Free Energy           =  +1.79 kcal/molUSER    (4) Unbound System's Energy         =  -1.88 kcal/molUSERUSERREMARK SMILES Cn1ccc2ccc3c4[nH]c5c(CCCN[C@H]6CC[C@H](O)CC6)cccc5c4c4c(c3c21)C(=O)NC4=OREMARK SMILES IDX 15 1 14 2 13 3 12 4 2 5 3 6 32 7 4 8 31 9 5 10 30 11 8 12REMARK SMILES IDX 6 13 29 14 33 15 7 16 9 17 28 18 36 19 35 20 10 21 27 22REMARK SMILES IDX 11 23 26 24 25 25 24 26 1 27 34 28 37 29 16 32 17 34 23 35REMARK SMILES IDX 18 36 22 37 19 38 20 39 21 40REMARK H PARENT 35 30 10 31 16 33 21 41USER                              x       y       z     vdW  Elec       q    TypeUSER                           _______ _______ _______ _____ _____    ______ ____ROOTATOM      1  C   UNL     1      36.256  42.261  20.757 -0.49 -0.00    +0.081 C  ENDROOTBRANCH   1   2ATOM      2  C   UNL     1      36.722  42.978  22.027 -0.45 +0.00    +0.020 C  BRANCH   2   3ATOM      3  C   UNL     1      37.949  42.322  22.670 -0.42 +0.00    +0.039 C  BRANCH   3   4ATOM      4  C   UNL     1      39.234  43.087  22.467 -0.26 -0.00    -0.024 A  ATOM      5  N   UNL     1      39.575  47.794  15.191 -0.23 +0.10    -0.350 N  ATOM      6  C   UNL     1      38.586  48.211  14.331 -0.45 -0.04    +0.086 A  ATOM      7  C   UNL     1      39.023  47.206  16.323 -0.41 -0.02    +0.057 A  ATOM      8  C   UNL     1      37.397  47.707  14.786 -0.47 -0.02    +0.028 A  ATOM      9  C   UNL     1      39.561  46.748  17.583 -0.43 -0.00    +0.022 A  ATOM     10  C   UNL     1      37.669  47.009  15.990 -0.41 -0.00    +0.000 A  ATOM     11  C   UNL     1      40.801  47.053  18.169 -0.44 -0.01    +0.063 A  ATOM     12  C   UNL     1      38.711  45.881  18.337 -0.38 -0.00    +0.009 A  ATOM     13  C   UNL     1      36.848  46.232  16.824 -0.36 -0.01    +0.011 A  ATOM     14  C   UNL     1      41.255  46.432  19.338 -0.39 +0.00    +0.063 A  ATOM     15  C   UNL     1      41.794  48.101  17.876 -0.29 -0.01    +0.259 C  ATOM     16  C   UNL     1      37.383  45.632  17.959 -0.32 -0.00    +0.012 A  ATOM     17  C   UNL     1      39.209  45.259  19.525 -0.36 -0.00    +0.055 A  ATOM     18  C   UNL     1      40.490  45.497  20.040 -0.39 +0.00    +0.022 A  ATOM     19  C   UNL     1      42.563  46.995  19.669 -0.37 +0.05    +0.259 C  ATOM     20  N   UNL     1      42.859  47.881  18.688 -0.37 -0.01    -0.288 N  ATOM     21  N   UNL     1      38.614  44.359  20.383 -0.13 +0.00    -0.354 N  ATOM     22  C   UNL     1      40.645  44.691  21.218 -0.31 +0.00    +0.008 A  ATOM     23  C   UNL     1      39.454  43.988  21.405 -0.23 +0.00    +0.050 A  ATOM     24  C   UNL     1      41.684  44.486  22.149 -0.25 +0.00    +0.011 A  ATOM     25  C   UNL     1      41.501  43.602  23.216 -0.23 +0.00    +0.001 A  ATOM     26  C   UNL     1      40.299  42.919  23.370 -0.25 +0.00    +0.006 A  ATOM     27  C   UNL     1      40.958  47.770  14.760 -0.31 -0.01    +0.149 C  ATOM     28  O   UNL     1      41.661  49.057  17.141 -0.91 -0.03    -0.269 OA ATOM     29  O   UNL     1      43.239  46.777  20.654 -0.31 -0.11    -0.269 OA ATOM     30  H   UNL     1      43.614  48.544  18.779 -0.44 -0.01    +0.173 HD ATOM     31  H   UNL     1      37.682  43.992  20.268 +0.11 -0.01    +0.167 HD ENDBRANCH   3   4ENDBRANCH   2   3ENDBRANCH   1   2BRANCH   1  32ATOM     32  N   UNL     1      35.803  43.255  19.782 -0.19 +0.03    -0.314 NA ATOM     33  H   UNL     1      35.282  43.994  20.252 +0.07 -0.01    +0.122 HD BRANCH  32  34ATOM     34  C   UNL     1      34.986  42.669  18.709 -0.42 -0.01    +0.053 C  ATOM     35  C   UNL     1      33.559  43.255  18.649 -0.41 -0.00    +0.021 C  ATOM     36  C   UNL     1      35.755  42.883  17.390 -0.39 -0.01    +0.021 C  ATOM     37  C   UNL     1      33.448  44.416  17.662 -0.36 -0.01    +0.033 C  ATOM     38  C   UNL     1      34.818  42.830  16.191 -0.44 -0.01    +0.033 C  ATOM     39  C   UNL     1      33.793  43.968  16.236 -0.31 -0.06    +0.114 C  BRANCH  39  40ATOM     40  O   UNL     1      32.613  43.516  15.573 -0.17 +0.21    -0.393 OA ATOM     41  H   UNL     1      32.663  42.547  15.511 -0.36 -0.14    +0.210 HD ENDBRANCH  39  40ENDBRANCH  32  34ENDBRANCH   1  32TORSDOF 6TERENDMDL