MODEL        5USER    Run = 5USERUSER    Estimated Free Energy of Binding    =  -6.86 kcal/mol  [=(1)+(2)+(3)-(4)]USERUSER    (1) Final Intermolecular Energy     = -11.04 kcal/molUSER        vdW + Hbond + desolv Energy     = -11.42 kcal/molUSER        Electrostatic Energy            =  -0.21 kcal/molUSER        Moving Ligand-Fixed Receptor    = -11.62 kcal/molUSER        Moving Ligand-Moving Receptor   =  +0.58 kcal/molUSER    (2) Final Total Internal Energy     =  -2.75 kcal/molUSER    (3) Torsional Free Energy           =  +4.18 kcal/molUSER    (4) Unbound System's Energy         =  -2.75 kcal/molUSERUSERREMARK SMILES COc1ccc(O)c(C(=O)c2ccc(C(=O)N[C@@H]3CCCNC[C@H]3NC(=O)c3ccncc3)cc2)c1FREMARK SMILES IDX 15 1 16 2 17 3 14 5 11 6 12 7 35 8 13 9 34 10 9 11 10 12REMARK SMILES IDX 8 13 3 14 4 15 36 16 5 17 6 18 37 19 2 20 1 21 7 22 18 24REMARK SMILES IDX 19 25 24 27 23 28 22 29 21 31 20 32 25 34 26 35 27 37 28 38REMARK SMILES IDX 29 39 33 40 30 41 32 42 31 43REMARK H PARENT 17 4 7 23 22 30 25 36REMARK Flexibility Score:   88.900USER                              x       y       z     vdW  Elec       q    TypeUSER                           _______ _______ _______ _____ _____    ______ ____ROOTATOM      1  C   UNL     1      39.388  45.942  16.143 -0.23 -0.05    +0.251 C  ATOM      2  O   UNL     1      40.043  45.987  15.107 -0.32 +0.03    -0.269 OA ATOM      3  N   UNL     1      38.008  45.945  16.168 -0.13 +0.12    -0.347 N  ATOM      4  H   UNL     1      37.551  46.115  17.053 +0.10 -0.07    +0.164 HD ENDROOTBRANCH   1   5ATOM      5  C   UNL     1      40.073  45.958  17.466 -0.43 -0.00    +0.039 A  ATOM      6  C   UNL     1      41.359  45.847  19.955 -0.39 +0.00    +0.023 A  ATOM      7  C   UNL     1      40.359  44.922  19.641 -0.40 +0.00    +0.013 A  ATOM      8  C   UNL     1      41.716  46.830  19.024 -0.49 +0.00    +0.013 A  ATOM      9  C   UNL     1      39.709  44.985  18.405 -0.41 -0.00    +0.014 A  ATOM     10  C   UNL     1      41.066  46.893  17.784 -0.50 -0.00    +0.014 A  BRANCH   6  11ATOM     11  C   UNL     1      42.071  45.690  21.241 -0.25 +0.04    +0.199 C  ATOM     12  O   UNL     1      42.533  44.581  21.516 -0.18 -0.07    -0.288 OA BRANCH  11  13ATOM     13  C   UNL     1      42.305  46.794  22.201 -0.23 +0.02    +0.104 A  ATOM     14  C   UNL     1      41.515  48.411  23.850 -0.27 +0.03    +0.155 A  ATOM     15  C   UNL     1      42.821  48.881  24.017 -0.34 +0.01    +0.053 A  ATOM     16  C   UNL     1      41.270  47.366  22.943 -0.05 +0.02    +0.179 A  ATOM     17  C   UNL     1      43.869  48.298  23.301 -0.28 +0.01    +0.051 A  ATOM     18  C   UNL     1      43.613  47.255  22.414 -0.26 +0.04    +0.130 A  ATOM     19  F   UNL     1      40.016  46.903  22.822 -0.05 -0.02    -0.202 F  BRANCH  14  20ATOM     20  O   UNL     1      40.412  48.891  24.505 -0.13 -0.08    -0.494 OA ATOM     21  C   UNL     1      39.900  48.105  25.577 -0.17 +0.03    +0.278 C  ENDBRANCH  14  20BRANCH  18  22ATOM     22  O   UNL     1      44.705  46.724  21.779 -0.58 -0.46    -0.507 OA ATOM     23  H   UNL     1      44.483  45.793  21.540 +0.12 +0.30    +0.293 HD ENDBRANCH  18  22ENDBRANCH  11  13ENDBRANCH   6  11ENDBRANCH   1   5BRANCH   3  24ATOM     24  C   UNL     1      37.233  46.209  14.949 -0.37 -0.05    +0.106 C  BRANCH  24  25ATOM     25  C   UNL     1      37.886  47.349  14.157 -0.54 -0.01    +0.028 CG0ATOM     26  G   UNL     1      37.666  47.314  12.635 +0.00 +0.00    +0.000 G0 ENDBRANCH  24  25BRANCH  24  27ATOM     27  C   UNL     1      35.739  46.459  15.301 -0.32 -0.11    +0.118 C  BRANCH  27  28ATOM     28  C   UNL     1      34.804  46.641  14.082 -0.26 -0.10    +0.108 C  BRANCH  28  29ATOM     29  N   UNL     1      35.347  46.297  12.765 -0.28 +0.20    -0.315 NA ATOM     30  H   UNL     1      35.829  45.402  12.811 +0.08 -0.06    +0.122 HD BRANCH  29  31ATOM     31  C   UNL     1      36.216  47.293  12.147 -0.67 -0.04    +0.081 C  BRANCH  31  32ATOM     32  C   UNL     1      37.661  47.313  12.637 -0.55 -0.00    +0.017 CG0ATOM     33  G   UNL     1      37.880  47.349  14.158 +0.00 +0.00    +0.000 G0 ENDBRANCH  31  32ENDBRANCH  29  31ENDBRANCH  28  29ENDBRANCH  27  28BRANCH  27  34ATOM     34  N   UNL     1      35.246  45.401  16.192 -0.10 +0.24    -0.346 N  ATOM     35  C   UNL     1      35.250  45.550  17.559 -0.25 -0.14    +0.251 C  ATOM     36  H   UNL     1      34.657  44.693  15.781 +0.11 -0.10    +0.164 HD ATOM     37  O   UNL     1      35.738  46.513  18.136 -0.09 +0.15    -0.269 OA BRANCH  35  38ATOM     38  C   UNL     1      34.592  44.475  18.341 -0.32 -0.01    +0.042 A  ATOM     39  C   UNL     1      33.367  44.754  18.949 -0.40 -0.01    +0.034 A  ATOM     40  C   UNL     1      35.174  43.217  18.505 -0.33 -0.01    +0.034 A  ATOM     41  C   UNL     1      32.761  43.750  19.678 -0.37 -0.00    +0.112 A  ATOM     42  C   UNL     1      34.487  42.281  19.257 -0.32 -0.01    +0.112 A  ATOM     43  N   UNL     1      33.291  42.519  19.842 -0.56 -0.04    -0.265 NA ENDBRANCH  35  38ENDBRANCH  27  34ENDBRANCH  24  27ENDBRANCH   3  24TORSDOF 8TERENDMDL