MODEL        2USER    Run = 2USERUSER    Estimated Free Energy of Binding    =  -6.70 kcal/mol  [=(1)+(2)+(3)-(4)]USERUSER    (1) Final Intermolecular Energy     = -11.17 kcal/molUSER        vdW + Hbond + desolv Energy     = -11.02 kcal/molUSER        Electrostatic Energy            =  -0.30 kcal/molUSER        Moving Ligand-Fixed Receptor    = -11.32 kcal/molUSER        Moving Ligand-Moving Receptor   =  +0.14 kcal/molUSER    (2) Final Total Internal Energy     =  -2.87 kcal/molUSER    (3) Torsional Free Energy           =  +4.47 kcal/molUSER    (4) Unbound System's Energy         =  -2.87 kcal/molUSERUSERREMARK SMILES COc1ccc(O)c(C(=O)c2ccc(NC[C@@H]3CCCNC[C@@H]3NC(=O)c3ccncc3)cc2)c1FREMARK SMILES IDX 16 1 15 2 14 4 11 5 12 6 34 7 13 8 33 9 9 10 10 11 8 12 3 13REMARK SMILES IDX 4 14 35 15 5 16 6 17 36 18 2 19 1 20 7 21 17 23 18 24 23 26REMARK SMILES IDX 22 27 21 28 20 30 19 31 24 33 25 34 26 36 27 37 28 38 32 39REMARK SMILES IDX 29 40 31 41 30 42REMARK H PARENT 15 3 7 22 21 29 24 35REMARK Flexibility Score:   99.900USER                              x       y       z     vdW  Elec       q    TypeUSER                           _______ _______ _______ _____ _____    ______ ____ROOTATOM      1  C   UNL     1      38.213  44.835  16.163 -0.07 -0.03    +0.118 C  ENDROOTBRANCH   1   2ATOM      2  N   UNL     1      38.259  45.872  17.197 -0.14 +0.11    -0.385 N  ATOM      3  H   UNL     1      38.029  46.797  16.848 +0.10 -0.07    +0.160 HD BRANCH   2   4ATOM      4  C   UNL     1      39.212  45.878  18.212 -0.40 -0.00    +0.034 A  ATOM      5  C   UNL     1      41.094  45.728  20.321 -0.37 +0.00    +0.023 A  ATOM      6  C   UNL     1      41.460  46.257  19.081 -0.48 +0.00    +0.014 A  ATOM      7  C   UNL     1      39.806  45.220  20.494 -0.36 +0.00    +0.014 A  ATOM      8  C   UNL     1      40.528  46.322  18.038 -0.47 -0.00    +0.026 A  ATOM      9  C   UNL     1      38.882  45.294  19.443 -0.37 -0.00    +0.026 A  BRANCH   5  10ATOM     10  C   UNL     1      42.122  45.646  21.386 -0.24 +0.04    +0.199 C  ATOM     11  O   UNL     1      42.750  44.597  21.534 -0.17 -0.08    -0.288 OA BRANCH  10  12ATOM     12  C   UNL     1      42.401  46.751  22.330 -0.22 +0.02    +0.104 A  ATOM     13  C   UNL     1      41.676  48.403  23.972 -0.28 +0.03    +0.155 A  ATOM     14  C   UNL     1      42.996  48.834  24.116 -0.33 +0.01    +0.053 A  ATOM     15  C   UNL     1      41.390  47.366  23.069 -0.12 +0.02    +0.179 A  ATOM     16  C   UNL     1      44.011  48.249  23.356 -0.28 +0.01    +0.051 A  ATOM     17  C   UNL     1      43.712  47.226  22.460 -0.25 +0.04    +0.130 A  ATOM     18  F   UNL     1      40.111  46.989  22.908 -0.06 -0.02    -0.202 F  BRANCH  13  19ATOM     19  O   UNL     1      40.597  48.910  24.646 -0.14 -0.08    -0.494 OA ATOM     20  C   UNL     1      40.630  48.853  26.067 -0.20 +0.04    +0.278 C  ENDBRANCH  13  19BRANCH  17  21ATOM     21  O   UNL     1      44.759  46.730  21.731 -0.62 -0.49    -0.507 OA ATOM     22  H   UNL     1      44.572  45.783  21.540 +0.12 +0.32    +0.293 HD ENDBRANCH  17  21ENDBRANCH  10  12ENDBRANCH   5  10ENDBRANCH   2   4ENDBRANCH   1   2BRANCH   1  23ATOM     23  C   UNL     1      37.783  45.405  14.788 -0.42 -0.01    +0.032 C  BRANCH  23  24ATOM     24  C   UNL     1      38.815  46.442  14.300 -0.48 -0.00    +0.009 CG0ATOM     25  G   UNL     1      39.183  47.602  15.225 +0.00 +0.00    +0.000 G0 ENDBRANCH  23  24BRANCH  23  26ATOM     26  C   UNL     1      36.320  45.900  14.844 -0.38 -0.06    +0.101 C  BRANCH  26  27ATOM     27  C   UNL     1      36.228  47.429  14.630 -0.30 -0.09    +0.106 C  BRANCH  27  28ATOM     28  N   UNL     1      36.838  48.245  15.688 -0.13 +0.36    -0.315 NA ATOM     29  H   UNL     1      36.233  49.056  15.835 -0.02 -0.27    +0.122 HD BRANCH  28  30ATOM     30  C   UNL     1      38.170  48.736  15.334 -0.50 -0.06    +0.081 C  BRANCH  30  31ATOM     31  C   UNL     1      39.183  47.602  15.225 -0.56 -0.01    +0.016 CG0ATOM     32  G   UNL     1      38.817  46.442  14.300 +0.00 +0.00    +0.000 G0 ENDBRANCH  30  31ENDBRANCH  28  30ENDBRANCH  27  28ENDBRANCH  26  27BRANCH  26  33ATOM     33  N   UNL     1      35.639  45.539  16.086 -0.10 +0.23    -0.348 N  ATOM     34  C   UNL     1      35.265  44.254  16.395 -0.22 -0.11    +0.251 C  ATOM     35  H   UNL     1      35.352  46.325  16.656 +0.09 -0.16    +0.164 HD ATOM     36  O   UNL     1      35.467  43.302  15.650 -0.31 +0.10    -0.269 OA BRANCH  34  37ATOM     37  C   UNL     1      34.565  44.052  17.691 -0.27 -0.02    +0.042 A  ATOM     38  C   UNL     1      35.009  43.022  18.523 -0.35 -0.01    +0.034 A  ATOM     39  C   UNL     1      33.512  44.866  18.110 -0.35 -0.01    +0.034 A  ATOM     40  C   UNL     1      34.364  42.835  19.731 -0.33 -0.00    +0.112 A  ATOM     41  C   UNL     1      32.935  44.597  19.339 -0.28 -0.02    +0.112 A  ATOM     42  N   UNL     1      33.333  43.598  20.154 -0.77 -0.02    -0.265 NA ENDBRANCH  34  37ENDBRANCH  26  33ENDBRANCH  23  26ENDBRANCH   1  23TORSDOF 9TERENDMDL