MODEL        10USER    Run = 10USERUSER    Estimated Free Energy of Binding    =  -6.93 kcal/mol  [=(1)+(2)+(3)-(4)]USERUSER    (1) Final Intermolecular Energy     = -11.40 kcal/molUSER        vdW + Hbond + desolv Energy     = -11.42 kcal/molUSER        Electrostatic Energy            =  -0.32 kcal/molUSER        Moving Ligand-Fixed Receptor    = -11.74 kcal/molUSER        Moving Ligand-Moving Receptor   =  +0.34 kcal/molUSER    (2) Final Total Internal Energy     =  -3.21 kcal/molUSER    (3) Torsional Free Energy           =  +4.47 kcal/molUSER    (4) Unbound System's Energy         =  -3.21 kcal/molUSERUSERREMARK SMILES COc1ccc(O)c(C(=O)c2ccc(CO[C@@H]3CCCNC[C@@H]3NC(=O)c3ccncc3)cc2)c1FREMARK SMILES IDX 16 1 15 2 14 3 11 4 12 5 34 6 13 7 33 8 9 9 10 10 8 11 3 12REMARK SMILES IDX 4 13 35 14 5 15 6 16 36 17 2 18 1 19 7 20 17 22 18 23 23 25REMARK SMILES IDX 22 26 21 27 20 29 19 30 24 32 25 33 26 35 27 36 28 37 32 38REMARK SMILES IDX 29 39 31 40 30 41REMARK H PARENT 7 21 21 28 24 34REMARK Flexibility Score:   99.900USER                              x       y       z     vdW  Elec       q    TypeUSER                           _______ _______ _______ _____ _____    ______ ____ROOTATOM      1  O   UNL     1      38.737  46.940  16.299 -0.21 +0.13    -0.371 OA ENDROOTBRANCH   1   2ATOM      2  C   UNL     1      40.109  47.015  15.916 -0.40 -0.03    +0.196 C  BRANCH   2   3ATOM      3  C   UNL     1      40.949  47.006  17.166 -0.45 +0.00    -0.022 A  ATOM      4  C   UNL     1      42.544  46.996  19.479 -0.50 +0.00    +0.023 A  ATOM      5  C   UNL     1      42.533  48.116  18.642 -0.35 +0.00    +0.012 A  ATOM      6  C   UNL     1      41.733  45.896  19.178 -0.43 +0.00    +0.012 A  ATOM      7  C   UNL     1      41.745  48.115  17.490 -0.37 -0.00    +0.007 A  ATOM      8  C   UNL     1      40.945  45.899  18.025 -0.48 -0.00    +0.007 A  BRANCH   4   9ATOM      9  C   UNL     1      43.338  46.964  20.731 -0.31 +0.08    +0.199 C  ATOM     10  O   UNL     1      44.552  47.178  20.676 -0.53 -0.29    -0.288 OA BRANCH   9  11ATOM     11  C   UNL     1      42.761  46.625  22.049 -0.24 +0.02    +0.104 A  ATOM     12  C   UNL     1      41.737  45.042  23.596 -0.07 +0.01    +0.155 A  ATOM     13  C   UNL     1      41.690  46.035  24.577 -0.09 +0.00    +0.053 A  ATOM     14  C   UNL     1      42.268  45.351  22.335 -0.14 +0.03    +0.179 A  ATOM     15  C   UNL     1      42.150  47.323  24.292 -0.18 +0.01    +0.051 A  ATOM     16  C   UNL     1      42.668  47.617  23.033 -0.25 +0.02    +0.130 A  ATOM     17  F   UNL     1      42.275  44.398  21.388 -0.08 -0.04    -0.202 F  BRANCH  12  18ATOM     18  O   UNL     1      41.303  43.753  23.752 -0.02 -0.01    -0.494 OA ATOM     19  C   UNL     1      40.707  43.411  24.997 -0.10 -0.00    +0.278 C  ENDBRANCH  12  18BRANCH  16  20ATOM     20  O   UNL     1      43.068  48.910  22.827 -0.73 -0.15    -0.507 OA ATOM     21  H   UNL     1      43.671  48.919  22.047 -0.43 +0.00    +0.293 HD ENDBRANCH  16  20ENDBRANCH   9  11ENDBRANCH   4   9ENDBRANCH   2   3ENDBRANCH   1   2BRANCH   1  22ATOM     22  C   UNL     1      38.014  45.877  15.641 -0.33 -0.05    +0.142 C  BRANCH  22  23ATOM     23  C   UNL     1      37.672  46.442  14.255 -0.47 -0.01    +0.035 CG0ATOM     24  G   UNL     1      36.525  45.826  13.462 +0.00 +0.00    +0.000 G0 ENDBRANCH  22  23BRANCH  22  25ATOM     25  C   UNL     1      36.810  45.457  16.518 -0.32 -0.06    +0.125 C  BRANCH  25  26ATOM     26  C   UNL     1      35.573  46.341  16.223 -0.31 -0.10    +0.108 C  BRANCH  26  27ATOM     27  N   UNL     1      34.699  45.907  15.136 -0.15 +0.30    -0.315 NA ATOM     28  H   UNL     1      33.753  46.240  15.330 -0.23 -0.19    +0.122 HD BRANCH  27  29ATOM     29  C   UNL     1      35.129  46.324  13.809 -0.44 -0.06    +0.081 C  BRANCH  29  30ATOM     30  C   UNL     1      36.525  45.829  13.462 -0.55 -0.01    +0.018 CG0ATOM     31  G   UNL     1      37.672  46.443  14.258 +0.00 +0.00    +0.000 G0 ENDBRANCH  29  30ENDBRANCH  27  29ENDBRANCH  26  27ENDBRANCH  25  26BRANCH  25  32ATOM     32  N   UNL     1      37.183  45.398  17.939 -0.14 +0.10    -0.345 N  ATOM     33  C   UNL     1      36.913  44.282  18.705 -0.23 -0.04    +0.251 C  ATOM     34  H   UNL     1      38.034  45.896  18.171 +0.09 -0.04    +0.164 HD ATOM     35  O   UNL     1      36.264  43.324  18.306 -0.18 +0.06    -0.269 OA BRANCH  33  36ATOM     36  C   UNL     1      37.496  44.268  20.074 -0.34 -0.00    +0.042 A  ATOM     37  C   UNL     1      36.892  43.465  21.041 -0.40 +0.00    +0.034 A  ATOM     38  C   UNL     1      38.595  45.054  20.419 -0.31 -0.00    +0.034 A  ATOM     39  C   UNL     1      37.427  43.469  22.316 -0.31 +0.01    +0.112 A  ATOM     40  C   UNL     1      39.053  44.989  21.723 -0.27 +0.01    +0.112 A  ATOM     41  N   UNL     1      38.497  44.211  22.675 -0.16 -0.02    -0.265 NA ENDBRANCH  33  36ENDBRANCH  25  32ENDBRANCH  22  25ENDBRANCH   1  22TORSDOF 9TERENDMDL