MODEL        9USER    Run = 9USERUSER    Estimated Free Energy of Binding    =  -7.64 kcal/mol  [=(1)+(2)+(3)-(4)]USERUSER    (1) Final Intermolecular Energy     = -12.12 kcal/molUSER        vdW + Hbond + desolv Energy     = -11.96 kcal/molUSER        Electrostatic Energy            =  -0.20 kcal/molUSER        Moving Ligand-Fixed Receptor    = -12.16 kcal/molUSER        Moving Ligand-Moving Receptor   =  +0.05 kcal/molUSER    (2) Final Total Internal Energy     =  -1.35 kcal/molUSER    (3) Torsional Free Energy           =  +4.47 kcal/molUSER    (4) Unbound System's Energy         =  -1.35 kcal/molUSERUSERREMARK SMILES COc1ccc(O)c(C(=O)c2ccc(CN[C@@H]3CCCNC[C@H]3NC(=O)c3ccncc3)cc2)c1FREMARK SMILES IDX 16 1 15 3 14 4 11 5 12 6 34 7 13 8 33 9 9 10 10 11 8 12 3 13REMARK SMILES IDX 4 14 35 15 5 16 6 17 36 18 2 19 1 20 7 21 17 23 18 24 23 26REMARK SMILES IDX 22 27 21 28 20 30 19 31 24 33 25 34 26 36 27 37 28 38 32 39REMARK SMILES IDX 29 40 31 41 30 42REMARK H PARENT 16 2 7 22 21 29 24 35REMARK Flexibility Score:   99.900USER                              x       y       z     vdW  Elec       q    TypeUSER                           _______ _______ _______ _____ _____    ______ ____ROOTATOM      1  N   UNL     1      35.824  29.267  21.417 -0.18 +0.09    -0.308 NA ATOM      2  H   UNL     1      35.488  29.585  20.505 -0.26 -0.09    +0.123 HD ENDROOTBRANCH   1   3ATOM      3  C   UNL     1      36.993  28.409  21.213 -0.24 -0.02    +0.117 C  BRANCH   3   4ATOM      4  C   UNL     1      37.575  28.499  19.824 -0.24 +0.00    -0.034 A  ATOM      5  C   UNL     1      38.674  28.683  17.241 -0.25 +0.00    +0.023 A  ATOM      6  C   UNL     1      38.811  29.748  18.138 -0.28 +0.00    +0.012 A  ATOM      7  C   UNL     1      37.965  27.539  17.627 -0.21 -0.00    +0.012 A  ATOM      8  C   UNL     1      38.271  29.649  19.423 -0.34 +0.00    +0.006 A  ATOM      9  C   UNL     1      37.425  27.445  18.912 -0.21 -0.00    +0.006 A  BRANCH   5  10ATOM     10  C   UNL     1      39.192  28.755  15.854 -0.25 +0.01    +0.199 C  ATOM     11  O   UNL     1      38.398  28.678  14.915 -0.85 -0.00    -0.288 OA BRANCH  10  12ATOM     12  C   UNL     1      40.618  28.978  15.531 -0.27 -0.01    +0.104 A  ATOM     13  C   UNL     1      42.947  29.254  16.197 -0.23 +0.04    +0.155 A  ATOM     14  C   UNL     1      43.308  29.414  14.858 -0.41 -0.02    +0.053 A  ATOM     15  C   UNL     1      41.600  29.030  16.521 -0.19 +0.05    +0.179 A  ATOM     16  C   UNL     1      42.338  29.328  13.856 -0.42 -0.04    +0.051 A  ATOM     17  C   UNL     1      41.007  29.095  14.191 -0.38 -0.07    +0.130 A  ATOM     18  F   UNL     1      41.270  28.838  17.809 -0.05 -0.14    -0.202 F  BRANCH  13  19ATOM     19  O   UNL     1      43.809  29.295  17.261 -0.14 -0.40    -0.494 OA ATOM     20  C   UNL     1      45.143  28.860  17.035 -0.17 +0.10    +0.278 C  ENDBRANCH  13  19BRANCH  17  21ATOM     21  O   UNL     1      40.126  28.989  13.147 -0.28 +0.38    -0.507 OA ATOM     22  H   UNL     1      39.648  28.133  13.245 +0.18 -0.17    +0.293 HD ENDBRANCH  17  21ENDBRANCH  10  12ENDBRANCH   5  10ENDBRANCH   3   4ENDBRANCH   1   3BRANCH   1  23ATOM     23  C   UNL     1      36.099  30.465  22.257 -0.37 -0.01    +0.077 C  BRANCH  23  24ATOM     24  C   UNL     1      37.622  30.638  22.318 -0.49 +0.00    +0.022 CG0ATOM     25  G   UNL     1      38.338  29.758  23.342 +0.00 +0.00    +0.000 G0 ENDBRANCH  23  24BRANCH  23  26ATOM     26  C   UNL     1      35.435  30.294  23.659 -0.31 +0.00    +0.113 C  BRANCH  26  27ATOM     27  C   UNL     1      36.118  31.178  24.732 -0.45 +0.01    +0.107 C  BRANCH  27  28ATOM     28  N   UNL     1      37.270  30.645  25.452 -0.18 -0.04    -0.315 NA ATOM     29  H   UNL     1      37.007  29.760  25.890 +0.08 +0.03    +0.122 HD BRANCH  28  30ATOM     30  C   UNL     1      38.499  30.438  24.699 -0.41 +0.02    +0.081 C  BRANCH  30  31ATOM     31  C   UNL     1      38.338  29.758  23.342 -0.38 +0.00    +0.017 CG0ATOM     32  G   UNL     1      37.622  30.637  22.318 +0.00 +0.00    +0.000 G0 ENDBRANCH  30  31ENDBRANCH  28  30ENDBRANCH  27  28ENDBRANCH  26  27BRANCH  26  33ATOM     33  N   UNL     1      34.003  30.641  23.573 -0.08 -0.03    -0.346 N  ATOM     34  C   UNL     1      33.157  29.994  22.698 -0.42 +0.00    +0.251 C  ATOM     35  H   UNL     1      33.643  31.308  24.240 +0.11 +0.03    +0.164 HD ATOM     36  O   UNL     1      33.541  29.170  21.877 -0.61 +0.02    -0.269 OA BRANCH  34  37ATOM     37  C   UNL     1      31.719  30.362  22.762 -0.58 +0.00    +0.042 A  ATOM     38  C   UNL     1      31.130  30.492  24.020 -0.59 +0.01    +0.034 A  ATOM     39  C   UNL     1      30.962  30.610  21.616 -0.55 -0.00    +0.034 A  ATOM     40  C   UNL     1      29.794  30.835  24.081 -0.44 +0.05    +0.112 A  ATOM     41  C   UNL     1      29.631  30.951  21.785 -0.40 -0.03    +0.112 A  ATOM     42  N   UNL     1      29.030  31.058  22.989 -0.24 -0.00    -0.265 NA ENDBRANCH  34  37ENDBRANCH  26  33ENDBRANCH  23  26ENDBRANCH   1  23TORSDOF 9TERENDMDL