MODEL        4USER    Run = 4USERUSER    Estimated Free Energy of Binding    =  -6.95 kcal/mol  [=(1)+(2)+(3)-(4)]USERUSER    (1) Final Intermolecular Energy     = -11.43 kcal/molUSER        vdW + Hbond + desolv Energy     = -12.95 kcal/molUSER        Electrostatic Energy            =  -0.21 kcal/molUSER        Moving Ligand-Fixed Receptor    = -13.16 kcal/molUSER        Moving Ligand-Moving Receptor   =  +1.73 kcal/molUSER    (2) Final Total Internal Energy     =  -3.52 kcal/molUSER    (3) Torsional Free Energy           =  +4.47 kcal/molUSER    (4) Unbound System's Energy         =  -3.52 kcal/molUSERUSERREMARK SMILES COc1ccc(O)c(C(=O)c2ccc(C(=O)O[C@@H]3CCCNC[C@H]3NC(=O)c3ccncc3)cc2)c1FREMARK SMILES IDX 17 1 15 2 16 3 14 4 11 5 12 6 35 7 13 8 34 9 9 10 10 11 8 12REMARK SMILES IDX 3 13 4 14 36 15 5 16 6 17 37 18 2 19 1 20 7 21 18 23 24 25REMARK SMILES IDX 23 26 22 27 21 29 20 30 19 31 25 33 26 34 27 36 28 37 29 38REMARK SMILES IDX 33 39 30 40 32 41 31 42REMARK H PARENT 7 22 22 28 25 35REMARK Flexibility Score:   99.900USER                              x       y       z     vdW  Elec       q    TypeUSER                           _______ _______ _______ _____ _____    ______ ____ROOTATOM      1  O   UNL     1      37.855  44.974  16.329 -0.09 +0.13    -0.457 OA ENDROOTBRANCH   1   2ATOM      2  C   UNL     1      37.394  44.716  17.579 -0.18 -0.09    +0.338 C  ATOM      3  O   UNL     1      38.017  44.816  18.626 -0.27 +0.03    -0.246 OA BRANCH   2   4ATOM      4  C   UNL     1      35.964  44.325  17.511 -0.27 -0.02    +0.060 A  ATOM      5  C   UNL     1      33.247  43.620  17.455 -0.30 -0.01    +0.023 A  ATOM      6  C   UNL     1      34.135  43.075  16.518 -0.37 -0.01    +0.013 A  ATOM      7  C   UNL     1      33.726  44.515  18.422 -0.37 -0.00    +0.013 A  ATOM      8  C   UNL     1      35.489  43.427  16.547 -0.39 -0.01    +0.016 A  ATOM      9  C   UNL     1      35.081  44.859  18.457 -0.36 -0.01    +0.016 A  BRANCH   5  10ATOM     10  C   UNL     1      31.793  43.301  17.452 -0.22 -0.05    +0.199 C  ATOM     11  O   UNL     1      30.956  44.170  17.232 -0.31 +0.05    -0.288 OA BRANCH  10  12ATOM     12  C   UNL     1      31.327  41.935  17.718 -0.24 -0.02    +0.104 A  ATOM     13  C   UNL     1      31.444  39.938  19.089 -0.29 +0.01    +0.155 A  ATOM     14  C   UNL     1      30.521  39.317  18.237 -0.35 +0.01    +0.053 A  ATOM     15  C   UNL     1      31.846  41.250  18.814 -0.22 -0.01    +0.179 A  ATOM     16  C   UNL     1      29.987  40.011  17.143 -0.32 +0.00    +0.051 A  ATOM     17  C   UNL     1      30.385  41.323  16.891 -0.25 -0.03    +0.130 A  ATOM     18  F   UNL     1      32.705  41.866  19.642 -0.08 -0.03    -0.202 F  BRANCH  13  19ATOM     19  O   UNL     1      31.990  39.376  20.212 -0.94 -0.17    -0.494 OA ATOM     20  C   UNL     1      32.014  37.956  20.288 -0.24 +0.07    +0.278 C  ENDBRANCH  13  19BRANCH  17  21ATOM     21  O   UNL     1      29.852  42.013  15.840 -0.10 +0.23    -0.507 OA ATOM     22  H   UNL     1      29.927  42.968  15.996 +0.18 -0.14    +0.293 HD ENDBRANCH  17  21ENDBRANCH  10  12ENDBRANCH   5  10ENDBRANCH   2   4ENDBRANCH   1   2BRANCH   1  23ATOM     23  C   UNL     1      37.600  46.304  15.804 -0.30 -0.09    +0.200 CG0ATOM     24  G   UNL     1      36.849  46.128  14.484 +0.00 +0.00    +0.000 G0 BRANCH  23  25ATOM     25  C   UNL     1      38.965  47.008  15.670 -0.41 -0.04    +0.137 C  BRANCH  25  26ATOM     26  C   UNL     1      38.881  48.533  15.457 -0.50 -0.06    +0.109 C  BRANCH  26  27ATOM     27  N   UNL     1      37.620  48.992  14.872 -0.28 +0.25    -0.315 NA ATOM     28  H   UNL     1      37.630  50.012  14.852 -0.51 -0.13    +0.122 HD BRANCH  27  29ATOM     29  C   UNL     1      37.322  48.503  13.522 -0.49 -0.03    +0.081 C  BRANCH  29  30ATOM     30  C   UNL     1      37.293  46.986  13.293 -0.60 -0.01    +0.019 C  BRANCH  30  31ATOM     31  C   UNL     1      36.838  46.123  14.476 -0.44 -0.02    +0.049 CG0ATOM     32  G   UNL     1      37.605  46.307  15.785 +0.00 +0.00    +0.000 G0 ENDBRANCH  30  31ENDBRANCH  29  30ENDBRANCH  27  29ENDBRANCH  26  27ENDBRANCH  25  26BRANCH  25  33ATOM     33  N   UNL     1      39.780  46.707  16.854 -0.22 +0.07    -0.344 N  ATOM     34  C   UNL     1      40.882  47.452  17.195 -0.38 -0.03    +0.251 C  ATOM     35  H   UNL     1      39.333  46.144  17.564 +0.10 -0.03    +0.164 HD ATOM     36  O   UNL     1      41.308  48.387  16.531 -0.76 +0.02    -0.269 OA BRANCH  34  37ATOM     37  C   UNL     1      41.555  47.069  18.459 -0.50 -0.00    +0.042 A  ATOM     38  C   UNL     1      42.731  47.726  18.815 -0.49 +0.00    +0.034 A  ATOM     39  C   UNL     1      41.057  46.047  19.265 -0.43 +0.00    +0.034 A  ATOM     40  C   UNL     1      43.352  47.347  19.990 -0.27 +0.03    +0.112 A  ATOM     41  C   UNL     1      41.757  45.739  20.416 -0.29 +0.02    +0.112 A  ATOM     42  N   UNL     1      42.888  46.371  20.800 -0.21 -0.09    -0.265 NA ENDBRANCH  34  37ENDBRANCH  25  33ENDBRANCH  23  25ENDBRANCH   1  23TORSDOF 9TERENDMDL