MODEL        10USER    Run = 10USERUSER    Estimated Free Energy of Binding    = -13.01 kcal/mol  [=(1)+(2)+(3)-(4)]USERUSER    (1) Final Intermolecular Energy     = -14.80 kcal/molUSER        vdW + Hbond + desolv Energy     = -14.81 kcal/molUSER        Electrostatic Energy            =  +0.01 kcal/molUSER        Moving Ligand-Fixed Receptor    = -14.80 kcal/molUSER        Moving Ligand-Moving Receptor   =  +0.00 kcal/molUSER    (2) Final Total Internal Energy     =  -2.67 kcal/molUSER    (3) Torsional Free Energy           =  +1.79 kcal/molUSER    (4) Unbound System's Energy         =  -2.67 kcal/molUSERUSERREMARK SMILES Oc1nc2ccccc2n1C1CCN(Cc2ccc(-c3nc4ccccc4nc3-c3ccccc3)cc2)CC1REMARK SMILES IDX 11 1 12 2 13 3 14 4 38 5 39 6 10 7 2 8 3 9 4 10 9 11 5 12REMARK SMILES IDX 8 13 6 14 7 15 1 16 15 18 16 19 17 20 37 21 18 22 36 23REMARK SMILES IDX 19 24 20 25 21 26 29 27 22 28 28 29 23 30 27 31 24 32 26 33REMARK SMILES IDX 25 34 30 35 31 36 35 37 32 38 34 39 33 40REMARK H PARENT 1 17USER                              x       y       z     vdW  Elec       q    TypeUSER                           _______ _______ _______ _____ _____    ______ ____ROOTATOM      1  C   UNL     1      38.588  47.166  15.380 -0.45 -0.04    +0.095 C  ATOM      2  C   UNL     1      37.768  48.377  14.905 -0.58 -0.03    +0.041 C  ATOM      3  C   UNL     1      37.257  48.194  13.476 -0.55 -0.04    +0.087 C  ATOM      4  N   UNL     1      36.714  46.859  13.209 -0.32 +0.14    -0.299 NA ATOM      5  C   UNL     1      37.678  45.783  13.490 -0.43 -0.03    +0.087 C  ATOM      6  C   UNL     1      38.949  46.230  14.221 -0.42 -0.01    +0.041 C  ENDROOTBRANCH   1   7ATOM      7  N   UNL     1      39.740  47.550  16.181 -0.27 +0.08    -0.291 N  ATOM      8  C   UNL     1      40.558  48.624  15.966 -0.33 -0.06    +0.295 A  ATOM      9  N   UNL     1      41.512  48.733  16.848 -0.90 -0.01    -0.195 NA ATOM     10  C   UNL     1      41.308  47.677  17.702 -0.44 -0.01    +0.092 A  ATOM     11  C   UNL     1      40.202  46.916  17.317 -0.45 -0.01    +0.072 A  ATOM     12  C   UNL     1      42.034  47.307  18.845 -0.49 +0.00    +0.031 A  ATOM     13  C   UNL     1      39.778  45.788  18.034 -0.43 -0.00    +0.029 A  ATOM     14  C   UNL     1      41.627  46.183  19.572 -0.44 +0.00    +0.002 A  ATOM     15  C   UNL     1      40.518  45.438  19.171 -0.45 +0.00    +0.002 A  BRANCH   8  16ATOM     16  O   UNL     1      40.419  49.489  14.983 -0.24 +0.19    -0.480 OA ATOM     17  H   UNL     1      40.883  49.032  14.258 +0.25 -0.06    +0.296 HD ENDBRANCH   8  16ENDBRANCH   1   7BRANCH   4  18ATOM     18  C   UNL     1      35.412  46.600  13.848 -0.44 -0.09    +0.120 C  BRANCH  18  19ATOM     19  C   UNL     1      35.514  45.885  15.178 -0.34 +0.03    -0.034 A  ATOM     20  C   UNL     1      35.622  44.491  15.234 -0.29 -0.00    +0.006 A  ATOM     21  C   UNL     1      35.486  46.608  16.377 -0.25 -0.01    +0.006 A  ATOM     22  C   UNL     1      35.720  43.837  16.467 -0.36 -0.00    +0.011 A  ATOM     23  C   UNL     1      35.586  45.952  17.607 -0.36 -0.01    +0.011 A  ATOM     24  C   UNL     1      35.721  44.555  17.674 -0.31 -0.00    +0.002 A  BRANCH  24  25ATOM     25  C   UNL     1      35.845  43.849  18.960 -0.30 -0.02    +0.097 A  ATOM     26  N   UNL     1      36.993  44.139  19.638 -0.22 +0.02    -0.244 NA ATOM     27  C   UNL     1      34.907  42.939  19.474 -0.35 -0.01    +0.097 A  ATOM     28  C   UNL     1      37.209  43.493  20.797 -0.33 -0.00    +0.089 A  ATOM     29  N   UNL     1      35.140  42.280  20.646 -0.32 -0.02    -0.244 NA ATOM     30  C   UNL     1      38.371  43.747  21.516 -0.30 +0.00    +0.030 A  ATOM     31  C   UNL     1      36.280  42.557  21.301 -0.40 +0.00    +0.089 A  ATOM     32  C   UNL     1      38.636  43.096  22.722 -0.31 +0.00    +0.002 A  ATOM     33  C   UNL     1      36.552  41.914  22.503 -0.51 +0.00    +0.030 A  ATOM     34  C   UNL     1      37.722  42.176  23.217 -0.37 +0.00    +0.002 A  BRANCH  27  35ATOM     35  C   UNL     1      33.609  42.613  18.855 -0.39 -0.00    +0.002 A  ATOM     36  C   UNL     1      32.570  43.561  18.845 -0.38 -0.00    +0.010 A  ATOM     37  C   UNL     1      33.371  41.376  18.231 -0.38 -0.00    +0.010 A  ATOM     38  C   UNL     1      31.332  43.275  18.261 -0.28 -0.00    +0.001 A  ATOM     39  C   UNL     1      32.133  41.086  17.650 -0.36 -0.00    +0.001 A  ATOM     40  C   UNL     1      31.113  42.034  17.667 -0.29 -0.00    +0.000 A  ENDBRANCH  27  35ENDBRANCH  24  25ENDBRANCH  18  19ENDBRANCH   4  18TORSDOF 6TERENDMDL