MODEL        10USER    Run = 10USERUSER    Estimated Free Energy of Binding    =  -7.07 kcal/mol  [=(1)+(2)+(3)-(4)]USERUSER    (1) Final Intermolecular Energy     = -11.54 kcal/molUSER        vdW + Hbond + desolv Energy     = -11.60 kcal/molUSER        Electrostatic Energy            =  -0.11 kcal/molUSER        Moving Ligand-Fixed Receptor    = -11.70 kcal/molUSER        Moving Ligand-Moving Receptor   =  +0.16 kcal/molUSER    (2) Final Total Internal Energy     =  -3.35 kcal/molUSER    (3) Torsional Free Energy           =  +4.47 kcal/molUSER    (4) Unbound System's Energy         =  -3.35 kcal/molUSERUSERREMARK SMILES COc1ccc(O)c(C(=O)c2ccc(/C=C/[C@@H]3CCCNC[C@H]3NC(=O)c3ccncc3)cc2)c1FREMARK SMILES IDX 16 1 15 2 14 3 11 4 12 5 34 6 13 7 33 8 9 9 10 10 8 11 3 12REMARK SMILES IDX 4 13 35 14 5 15 6 16 36 17 2 18 1 19 7 20 17 22 18 23 23 25REMARK SMILES IDX 22 26 21 27 20 29 19 30 24 32 25 33 26 35 27 36 28 37 32 38REMARK SMILES IDX 29 39 31 40 30 41REMARK H PARENT 7 21 21 28 24 34REMARK Flexibility Score:   99.900USER                              x       y       z     vdW  Elec       q    TypeUSER                           _______ _______ _______ _____ _____    ______ ____ROOTATOM      1  C   UNL     1      33.963  43.796  16.090 -0.38 +0.01    -0.021 C  ENDROOTBRANCH   1   2ATOM      2  C   UNL     1      34.308  44.852  15.336 -0.31 -0.00    +0.004 C  BRANCH   2   3ATOM      3  C   UNL     1      35.620  45.507  15.414 -0.33 +0.02    -0.026 A  ATOM      4  C   UNL     1      38.124  46.754  15.644 -0.39 -0.01    +0.023 A  ATOM      5  C   UNL     1      37.138  46.987  16.606 -0.21 -0.01    +0.013 A  ATOM      6  C   UNL     1      37.877  45.870  14.590 -0.39 -0.00    +0.013 A  ATOM      7  C   UNL     1      35.892  46.360  16.490 -0.36 -0.01    +0.009 A  ATOM      8  C   UNL     1      36.628  45.257  14.472 -0.40 -0.00    +0.009 A  BRANCH   4   9ATOM      9  C   UNL     1      39.462  47.373  15.749 -0.41 -0.06    +0.199 C  ATOM     10  O   UNL     1      39.936  47.937  14.762 -0.34 +0.07    -0.288 OA BRANCH   9  11ATOM     11  C   UNL     1      40.287  47.302  16.977 -0.43 -0.02    +0.104 A  ATOM     12  C   UNL     1      40.818  46.306  19.139 -0.33 +0.00    +0.155 A  ATOM     13  C   UNL     1      41.875  47.204  19.289 -0.30 +0.00    +0.053 A  ATOM     14  C   UNL     1      40.029  46.366  17.981 -0.34 -0.02    +0.179 A  ATOM     15  C   UNL     1      42.124  48.164  18.304 -0.27 -0.00    +0.051 A  ATOM     16  C   UNL     1      41.327  48.220  17.165 -0.37 -0.01    +0.130 A  ATOM     17  F   UNL     1      38.990  45.522  17.866 -0.10 +0.03    -0.202 F  BRANCH  12  18ATOM     18  O   UNL     1      40.466  45.338  20.041 -0.11 -0.02    -0.494 OA ATOM     19  C   UNL     1      41.020  44.042  19.856 -0.14 +0.02    +0.278 C  ENDBRANCH  12  18BRANCH  16  20ATOM     20  O   UNL     1      41.621  49.210  16.265 -0.80 -0.05    -0.507 OA ATOM     21  H   UNL     1      40.993  49.126  15.510 +0.25 -0.05    +0.293 HD ENDBRANCH  16  20ENDBRANCH   9  11ENDBRANCH   4   9ENDBRANCH   2   3ENDBRANCH   1   2BRANCH   1  22ATOM     22  C   UNL     1      34.517  43.458  17.472 -0.36 -0.01    +0.035 C  BRANCH  22  23ATOM     23  C   UNL     1      33.992  42.055  17.832 -0.47 -0.00    +0.011 CG0ATOM     24  G   UNL     1      33.476  41.815  19.247 +0.00 +0.00    +0.000 G0 ENDBRANCH  22  23BRANCH  22  25ATOM     25  C   UNL     1      34.307  44.526  18.589 -0.36 -0.03    +0.103 C  BRANCH  25  26ATOM     26  C   UNL     1      32.797  44.699  18.925 -0.31 -0.02    +0.106 C  BRANCH  26  27ATOM     27  N   UNL     1      32.214  43.825  19.936 -0.44 -0.01    -0.315 NA ATOM     28  H   UNL     1      31.297  44.185  20.205 +0.06 +0.01    +0.122 HD BRANCH  27  29ATOM     29  C   UNL     1      32.119  42.422  19.563 -0.21 +0.00    +0.081 C  BRANCH  29  30ATOM     30  C   UNL     1      33.478  41.815  19.247 -0.37 +0.00    +0.016 CG0ATOM     31  G   UNL     1      33.992  42.054  17.831 +0.00 +0.00    +0.000 G0 ENDBRANCH  29  30ENDBRANCH  27  29ENDBRANCH  26  27ENDBRANCH  25  26BRANCH  25  32ATOM     32  N   UNL     1      35.019  44.157  19.821 -0.18 +0.05    -0.347 N  ATOM     33  C   UNL     1      36.393  44.085  19.872 -0.28 -0.02    +0.251 C  ATOM     34  H   UNL     1      34.490  44.143  20.683 +0.02 -0.00    +0.164 HD ATOM     35  O   UNL     1      37.120  44.313  18.914 -0.23 +0.04    -0.269 OA BRANCH  33  36ATOM     36  C   UNL     1      36.980  43.739  21.191 -0.38 +0.00    +0.042 A  ATOM     37  C   UNL     1      37.882  44.585  21.837 -0.34 +0.00    +0.034 A  ATOM     38  C   UNL     1      36.583  42.551  21.802 -0.45 +0.00    +0.034 A  ATOM     39  C   UNL     1      38.371  44.185  23.066 -0.25 +0.01    +0.112 A  ATOM     40  C   UNL     1      37.134  42.241  23.031 -0.38 +0.01    +0.112 A  ATOM     41  N   UNL     1      38.026  43.028  23.671 -0.16 -0.02    -0.265 NA ENDBRANCH  33  36ENDBRANCH  25  32ENDBRANCH  22  25ENDBRANCH   1  22TORSDOF 9TERENDMDL