REMARK SMILES O=[N+]([O-])c1c([C@@H]2C=NCC2=CCO)cccc1C(F)(F)F
REMARK SMILES IDX 6 1 7 2 8 3 9 4 10 5 5 6 4 7 17 8 14 9 16 10 15 11 2 12 1 13
REMARK SMILES IDX 3 14 18 15 19 16 20 17 21 18 11 19 12 20 13 21
REMARK H PARENT 13 22
ROOT
ATOM      1  C   UNL     1      -0.634  -0.054   1.319  1.00  0.00     0.095 C 
ATOM      2  C   UNL     1      -0.947  -1.028   2.418  1.00  0.00     0.091 C 
ATOM      3  N   UNL     1      -1.968  -1.815   2.297  1.00  0.00    -0.292 NA
ATOM      4  C   UNL     1      -2.597  -1.477   1.011  1.00  0.00     0.173 C 
ATOM      5  C   UNL     1      -1.844  -0.301   0.465  1.00  0.00    -0.038 C 
ENDROOT
BRANCH   1   6
ATOM      6  C   UNL     1       0.686  -0.346   0.628  1.00  0.00     0.043 A 
ATOM      7  C   UNL     1       1.621   0.665   0.307  1.00  0.00     0.285 A 
ATOM      8  C   UNL     1       2.828   0.400  -0.371  1.00  0.00     0.133 A 
ATOM      9  C   UNL     1       1.003  -1.659   0.229  1.00  0.00     0.012 A 
ATOM     10  C   UNL     1       3.096  -0.925  -0.745  1.00  0.00     0.020 A 
ATOM     11  C   UNL     1       2.193  -1.944  -0.445  1.00  0.00     0.001 A 
BRANCH   7  12
ATOM     12  N   UNL     1       1.334   2.037   0.688  1.00  0.00     0.063 N 
ATOM     13  O   UNL     1       0.978   2.802  -0.212  1.00  0.00    -0.258 OA
ATOM     14  O   UNL     1       1.452   2.315   1.887  1.00  0.00    -0.258 OA
ENDBRANCH   7  12
BRANCH   8  15
ATOM     15  C   UNL     1       3.807   1.493  -0.716  1.00  0.00     0.423 C 
ATOM     16  F   UNL     1       4.044   2.339   0.320  1.00  0.00    -0.166 F 
ATOM     17  F   UNL     1       3.388   2.258  -1.756  1.00  0.00    -0.166 F 
ATOM     18  F   UNL     1       5.030   1.013  -1.080  1.00  0.00    -0.166 F 
ENDBRANCH   8  15
ENDBRANCH   1   6
BRANCH   5  19
ATOM     19  C   UNL     1      -2.214   0.469  -0.574  1.00  0.00     0.003 C 
BRANCH  19  20
ATOM     20  C   UNL     1      -3.422   0.270  -1.433  1.00  0.00     0.183 C 
BRANCH  20  21
ATOM     21  O   UNL     1      -4.256   1.406  -1.292  1.00  0.00    -0.392 OA
ATOM     22  H   UNL     1      -4.444   1.508  -0.343  1.00  0.00     0.210 HD
ENDBRANCH  20  21
ENDBRANCH  19  20
ENDBRANCH   5  19
TORSDOF 6
