REMARK SMILES COCCNCc1ccccc1C=Cc1cncc(-c2ccccc2C#N)n1
REMARK SMILES IDX 7 1 8 2 9 3 10 4 11 5 12 6 6 7 5 8 4 10 3 11 2 12 1 13 13 14
REMARK SMILES IDX 14 15 15 16 16 17 28 18 17 19 19 20 18 21 20 22 21 23 25 24
REMARK SMILES IDX 22 25 24 26 23 27 26 28 27 29
REMARK H PARENT 5 9
ROOT
ATOM      1  C   UNL     1       1.935  -0.578  -2.870  1.00  0.00    -0.027 A 
ATOM      2  C   UNL     1       2.749  -1.064  -3.912  1.00  0.00     0.005 A 
ATOM      3  C   UNL     1       2.449  -2.262  -4.560  1.00  0.00     0.000 A 
ATOM      4  C   UNL     1       1.332  -2.997  -4.176  1.00  0.00     0.001 A 
ATOM      5  C   UNL     1       0.520  -2.538  -3.139  1.00  0.00     0.008 A 
ATOM      6  C   UNL     1       0.814  -1.339  -2.470  1.00  0.00    -0.021 A 
ENDROOT
BRANCH   1   7
ATOM      7  C   UNL     1       2.309   0.734  -2.214  1.00  0.00     0.117 C 
BRANCH   7   8
ATOM      8  N   UNL     1       3.190   0.510  -1.070  1.00  0.00    -0.310 NA
ATOM      9  H   UNL     1       4.062   0.089  -1.380  1.00  0.00     0.123 HD
BRANCH   8  10
ATOM     10  C   UNL     1       3.439   1.747  -0.325  1.00  0.00     0.109 C 
BRANCH  10  11
ATOM     11  C   UNL     1       4.272   1.488   0.941  1.00  0.00     0.175 C 
BRANCH  11  12
ATOM     12  O   UNL     1       3.501   0.751   1.895  1.00  0.00    -0.383 OA
ATOM     13  C   UNL     1       4.242   0.492   3.079  1.00  0.00     0.194 C 
ENDBRANCH  11  12
ENDBRANCH  10  11
ENDBRANCH   8  10
ENDBRANCH   7   8
ENDBRANCH   1   7
BRANCH   6  14
ATOM     14  C   UNL     1      -0.100  -0.941  -1.389  1.00  0.00     0.011 C 
BRANCH  14  15
ATOM     15  C   UNL     1       0.307  -0.818  -0.115  1.00  0.00     0.030 C 
BRANCH  15  16
ATOM     16  C   UNL     1      -0.558  -0.401   0.993  1.00  0.00     0.082 A 
ATOM     17  C   UNL     1      -0.026  -0.140   2.252  1.00  0.00     0.139 A 
ATOM     18  N   UNL     1      -1.889  -0.285   0.753  1.00  0.00    -0.245 NA
ATOM     19  N   UNL     1      -0.786   0.233   3.312  1.00  0.00    -0.260 NA
ATOM     20  C   UNL     1      -2.665   0.110   1.795  1.00  0.00     0.091 A 
ATOM     21  C   UNL     1      -2.110   0.353   3.051  1.00  0.00     0.140 A 
BRANCH  20  22
ATOM     22  C   UNL     1      -4.105   0.203   1.512  1.00  0.00     0.020 A 
ATOM     23  C   UNL     1      -4.769  -0.932   1.001  1.00  0.00     0.012 A 
ATOM     24  C   UNL     1      -4.863   1.376   1.704  1.00  0.00     0.061 A 
ATOM     25  C   UNL     1      -6.137  -0.913   0.718  1.00  0.00     0.001 A 
ATOM     26  C   UNL     1      -6.240   1.388   1.418  1.00  0.00     0.020 A 
ATOM     27  C   UNL     1      -6.873   0.247   0.930  1.00  0.00     0.001 A 
BRANCH  24  28
ATOM     28  C   UNL     1      -4.266   2.595   2.172  1.00  0.00     0.100 C 
ATOM     29  N   UNL     1      -3.801   3.580   2.573  1.00  0.00    -0.192 NA
ENDBRANCH  24  28
ENDBRANCH  20  22
ENDBRANCH  15  16
ENDBRANCH  14  15
ENDBRANCH   6  14
TORSDOF 10
