MODEL        6USER    Run = 6USERUSER    Estimated Free Energy of Binding    =  -6.10 kcal/mol  [=(1)+(2)+(3)-(4)]USERUSER    (1) Final Intermolecular Energy     =  -7.89 kcal/molUSER        vdW + Hbond + desolv Energy     =  -7.50 kcal/molUSER        Electrostatic Energy            =  -0.40 kcal/molUSER        Moving Ligand-Fixed Receptor    =  -7.89 kcal/molUSER        Moving Ligand-Moving Receptor   =  +0.00 kcal/molUSER    (2) Final Total Internal Energy     =  -2.48 kcal/molUSER    (3) Torsional Free Energy           =  +1.79 kcal/molUSER    (4) Unbound System's Energy         =  -2.48 kcal/molUSERUSERREMARK SMILES O=[N+]([O-])c1c([C@@H]2C=NCC2=CCO)cccc1C(F)(F)FREMARK SMILES IDX 6 1 7 2 8 3 9 4 10 5 5 6 4 7 17 8 14 9 16 10 15 11 2 12 1 13REMARK SMILES IDX 3 14 18 15 19 16 20 17 21 18 11 19 12 20 13 21REMARK H PARENT 13 22USER                              x       y       z     vdW  Elec       q    TypeUSER                           _______ _______ _______ _____ _____    ______ ____ROOTATOM      1  C   UNL     1      12.190  -0.927   1.035 -0.41 -0.01    +0.095 C  ATOM      2  C   UNL     1      13.106  -0.410  -0.037 -0.40 +0.01    +0.091 C  ATOM      3  N   UNL     1      13.227   0.869  -0.205 -0.44 -0.07    -0.292 NA ATOM      4  C   UNL     1      12.331   1.499   0.777 -0.44 +0.01    +0.173 C  ATOM      5  C   UNL     1      11.595   0.384   1.458 -0.57 +0.00    -0.038 C  ENDROOTBRANCH   1   6ATOM      6  C   UNL     1      12.929  -1.662   2.139 -0.27 -0.01    +0.043 A  ATOM      7  C   UNL     1      12.276  -2.512   3.061 -0.16 -0.05    +0.285 A  ATOM      8  C   UNL     1      12.954  -3.162   4.112 -0.16 -0.04    +0.133 A  ATOM      9  C   UNL     1      14.313  -1.472   2.316 -0.17 -0.00    +0.012 A  ATOM     10  C   UNL     1      14.333  -2.940   4.243 -0.13 -0.01    +0.020 A  ATOM     11  C   UNL     1      15.005  -2.105   3.351 -0.13 -0.00    +0.001 A  BRANCH   7  12ATOM     12  N   UNL     1      10.846  -2.731   2.927 -0.54 -0.00    +0.063 N  ATOM     13  O   UNL     1      10.460  -3.268   1.885 -0.71 +0.01    -0.258 OA ATOM     14  O   UNL     1      10.140  -2.379   3.879 -0.46 -0.01    -0.258 OA ENDBRANCH   7  12BRANCH   8  15ATOM     15  C   UNL     1      12.239  -4.055   5.093 -0.16 -0.03    +0.423 C  ATOM     16  F   UNL     1      13.065  -4.573   6.039 -0.13 -0.03    -0.166 F  ATOM     17  F   UNL     1      11.629  -5.107   4.490 -0.11 +0.02    -0.166 F  ATOM     18  F   UNL     1      11.259  -3.406   5.783 +0.01 -0.06    -0.166 F  ENDBRANCH   8  15ENDBRANCH   1   6BRANCH   5  19ATOM     19  C   UNL     1      10.525   0.512   2.263 -0.60 -0.00    +0.003 C  BRANCH  19  20ATOM     20  C   UNL     1       9.099   0.275   1.878 -0.57 -0.04    +0.183 C  BRANCH  20  21ATOM     21  O   UNL     1       8.633  -0.859   2.587 -0.71 -0.05    -0.392 OA ATOM     22  H   UNL     1       9.035  -1.642   2.173 -0.23 -0.05    +0.210 HD ENDBRANCH  20  21ENDBRANCH  19  20ENDBRANCH   5  19TORSDOF 6TERENDMDL