MODEL        2USER    Run = 2USERUSER    Estimated Free Energy of Binding    =  -5.36 kcal/mol  [=(1)+(2)+(3)-(4)]USERUSER    (1) Final Intermolecular Energy     =  -8.04 kcal/molUSER        vdW + Hbond + desolv Energy     =  -8.29 kcal/molUSER        Electrostatic Energy            =  -0.08 kcal/molUSER        Moving Ligand-Fixed Receptor    =  -8.38 kcal/molUSER        Moving Ligand-Moving Receptor   =  +0.33 kcal/molUSER    (2) Final Total Internal Energy     =  -0.86 kcal/molUSER    (3) Torsional Free Energy           =  +2.68 kcal/molUSER    (4) Unbound System's Energy         =  -0.86 kcal/molUSERUSERREMARK SMILES C[C@@H]1CC=C(c2cnc3cc(-c4ccc(N5CCN(C)CC5)cc4)ncn23)C=NC1REMARK SMILES IDX 5 1 4 2 3 3 2 4 1 5 6 7 7 8 27 9 8 10 26 11 9 12 25 13 10 14REMARK SMILES IDX 11 15 12 16 13 17 24 18 14 19 23 20 15 21 16 22 17 23 22 24REMARK SMILES IDX 18 25 21 26 19 27 20 28 28 29 29 30 30 31REMARK H PARENTREMARK Flexibility Score:   72.900USER                              x       y       z     vdW  Elec       q    TypeUSER                           _______ _______ _______ _____ _____    ______ ____ROOTATOM      1  C   UNL     1       2.285   3.103  -7.116 -0.36 -0.00    +0.014 C  ENDROOTBRANCH   1   2ATOM      2  C   UNL     1       3.091   4.101  -7.512 -0.20 +0.00    -0.015 C  BRANCH   2   3ATOM      3  C   UNL     1       4.570   4.112  -7.776 -0.48 -0.01    +0.033 C  BRANCH   3   4ATOM      4  C   UNL     1       5.420   2.998  -7.155 -0.60 -0.00    +0.011 CG0ATOM      5  C   UNL     1       5.331   3.073  -5.628 -0.59 -0.00    +0.010 C  ATOM      6  G   UNL     1       4.955   1.628  -7.651 +0.00 +0.00    +0.000 G0 ENDBRANCH   3   4ENDBRANCH   2   3ENDBRANCH   1   2BRANCH   1   7ATOM      7  C   UNL     1       0.912   3.408  -6.927 -0.27 -0.01    +0.075 A  ATOM      8  C   UNL     1      -0.007   4.141  -7.652 -0.19 -0.01    +0.140 A  ATOM      9  N   UNL     1       0.206   2.949  -5.834 -0.20 -0.00    -0.283 N  ATOM     10  N   UNL     1      -1.233   4.151  -7.036 -0.15 +0.01    -0.236 NA ATOM     11  C   UNL     1       0.602   2.149  -4.768 -0.23 +0.02    +0.206 A  ATOM     12  C   UNL     1      -1.080   3.432  -5.946 -0.22 -0.00    +0.140 A  ATOM     13  N   UNL     1      -0.221   1.833  -3.813 -0.28 -0.02    -0.238 NA ATOM     14  C   UNL     1      -1.968   3.090  -4.905 -0.22 -0.00    +0.076 A  ATOM     15  C   UNL     1      -1.518   2.316  -3.896 -0.28 +0.00    +0.076 A  BRANCH  15  16ATOM     16  C   UNL     1      -2.430   1.993  -2.776 -0.28 +0.00    +0.000 A  ATOM     17  C   UNL     1      -2.241   2.603  -1.533 -0.27 -0.00    +0.012 A  ATOM     18  C   UNL     1      -3.479   1.079  -2.910 -0.28 +0.00    +0.012 A  ATOM     19  C   UNL     1      -3.096   2.317  -0.461 -0.19 -0.00    +0.026 A  ATOM     20  C   UNL     1      -4.329   0.795  -1.828 -0.27 -0.00    +0.026 A  ATOM     21  C   UNL     1      -4.160   1.406  -0.578 -0.21 -0.00    +0.037 A  BRANCH  21  22ATOM     22  N   UNL     1      -4.985   1.161   0.524 -0.08 +0.05    -0.369 N  ATOM     23  C   UNL     1      -4.283   1.231   1.834 -0.09 -0.03    +0.132 C  ATOM     24  C   UNL     1      -6.065   0.158   0.461 -0.20 -0.02    +0.132 C  ATOM     25  C   UNL     1      -5.107   0.566   2.962 -0.18 -0.05    +0.105 C  ATOM     26  C   UNL     1      -5.702  -1.106   1.274 -0.26 -0.03    +0.105 C  ATOM     27  N   UNL     1      -5.419  -0.860   2.709 -0.18 +0.16    -0.303 NA ATOM     28  C   UNL     1      -6.515  -1.301   3.566 -0.24 -0.06    +0.105 C  ENDBRANCH  21  22ENDBRANCH  15  16ENDBRANCH   1   7BRANCH   1  29ATOM     29  C   UNL     1       2.703   1.681  -6.899 -0.33 -0.01    +0.115 C  BRANCH  29  30ATOM     30  N   UNL     1       3.857   1.126  -6.836 -0.73 +0.00    -0.292 NA BRANCH  30  31ATOM     31  C   UNL     1       4.955   1.626  -7.650 -0.23 -0.07    +0.145 CG0ATOM     32  G   UNL     1       5.419   2.996  -7.152 +0.00 +0.00    +0.000 G0 ENDBRANCH  30  31ENDBRANCH  29  30ENDBRANCH   1  29TORSDOF 3TERENDMDL