REMARK SMILES COc1cc(Nc2cc(-c3cnc4cccnn34)ccn2)ccc1C(=O)O
REMARK SMILES IDX 3 1 4 2 5 3 22 4 23 5 24 6 2 7 1 8 25 9 26 10 27 11 6 13
REMARK SMILES IDX 7 15 8 16 21 17 9 18 20 19 19 20 10 21 11 22 18 23 12 24
REMARK SMILES IDX 17 25 13 26 16 27 14 28 15 29
REMARK H PARENT 27 12 6 14
ROOT
ATOM      1  C   UNL     1       4.315   0.272  -0.406  1.00  0.00     0.135 A 
ATOM      2  C   UNL     1       2.921   0.103  -0.400  1.00  0.00     0.073 A 
ATOM      3  C   UNL     1       2.074   0.963   0.313  1.00  0.00     0.043 A 
ATOM      4  C   UNL     1       2.650   2.060   0.967  1.00  0.00     0.027 A 
ATOM      5  C   UNL     1       4.033   2.254   0.961  1.00  0.00     0.022 A 
ATOM      6  C   UNL     1       4.873   1.361   0.280  1.00  0.00     0.102 A 
ENDROOT
BRANCH   1   7
ATOM      7  O   UNL     1       5.166  -0.540  -1.110  1.00  0.00    -0.496 OA
ATOM      8  C   UNL     1       4.699  -1.849  -1.414  1.00  0.00     0.278 C 
ENDBRANCH   1   7
BRANCH   6   9
ATOM      9  C   UNL     1       6.344   1.571   0.317  1.00  0.00     0.339 C 
ATOM     10  O   UNL     1       7.226   0.738   0.240  1.00  0.00    -0.246 OA
BRANCH   9  11
ATOM     11  O   UNL     1       6.653   2.877   0.461  1.00  0.00    -0.478 OA
ATOM     12  H   UNL     1       7.633   2.872   0.443  1.00  0.00     0.297 HD
ENDBRANCH   9  11
ENDBRANCH   6   9
BRANCH   3  13
ATOM     13  N   UNL     1       0.666   0.844   0.292  1.00  0.00    -0.340 N 
ATOM     14  H   UNL     1       0.225   1.428   0.994  1.00  0.00     0.168 HD
BRANCH  13  15
ATOM     15  C   UNL     1      -0.123  -0.318   0.100  1.00  0.00     0.130 A 
ATOM     16  C   UNL     1      -1.497  -0.138  -0.073  1.00  0.00     0.057 A 
ATOM     17  N   UNL     1       0.431  -1.547   0.064  1.00  0.00    -0.239 NA
ATOM     18  C   UNL     1      -2.334  -1.241  -0.263  1.00  0.00     0.007 A 
ATOM     19  C   UNL     1      -0.384  -2.606  -0.124  1.00  0.00     0.114 A 
ATOM     20  C   UNL     1      -1.752  -2.507  -0.291  1.00  0.00     0.030 A 
BRANCH  18  21
ATOM     21  C   UNL     1      -3.779  -1.090  -0.453  1.00  0.00     0.093 A 
ATOM     22  C   UNL     1      -4.648  -1.790  -1.275  1.00  0.00     0.142 A 
ATOM     23  N   UNL     1      -4.598  -0.188   0.206  1.00  0.00    -0.213 N 
ATOM     24  N   UNL     1      -5.941  -1.357  -1.152  1.00  0.00    -0.235 NA
ATOM     25  N   UNL     1      -4.207   0.726   1.155  1.00  0.00    -0.175 NA
ATOM     26  C   UNL     1      -5.890  -0.396  -0.257  1.00  0.00     0.154 A 
ATOM     27  C   UNL     1      -5.192   1.431   1.614  1.00  0.00     0.134 A 
ATOM     28  C   UNL     1      -6.916   0.413   0.281  1.00  0.00     0.051 A 
ATOM     29  C   UNL     1      -6.613   1.328   1.209  1.00  0.00     0.026 A 
ENDBRANCH  18  21
ENDBRANCH  13  15
ENDBRANCH   3  13
TORSDOF 6
