REMARK SMILES CCCCCOC(=O)c1ccc(-c2cc(O)cc(Br)c2)cc1N
REMARK SMILES IDX 6 1 5 2 4 3 3 4 2 5 1 6 7 7 8 8 9 9 10 10 22 11 11 12 21 13
REMARK SMILES IDX 12 14 23 15 13 18 14 19 20 20 15 21 18 22 17 23 19 24 16 25
REMARK H PARENT 23 16 23 17 16 26
ROOT
ATOM      1  O   UNL     1       2.240  -0.855  -0.504  1.00  0.00    -0.462 OA
ENDROOT
BRANCH   1   2
ATOM      2  C   UNL     1       3.590  -1.343  -0.544  1.00  0.00     0.233 C 
BRANCH   2   3
ATOM      3  C   UNL     1       4.234  -1.333   0.842  1.00  0.00     0.042 C 
BRANCH   3   4
ATOM      4  C   UNL     1       4.147   0.008   1.580  1.00  0.00     0.003 C 
BRANCH   4   5
ATOM      5  C   UNL     1       4.749   1.207   0.845  1.00  0.00    -0.003 C 
ATOM      6  C   UNL     1       6.233   1.054   0.551  1.00  0.00     0.004 C 
ENDBRANCH   4   5
ENDBRANCH   3   4
ENDBRANCH   2   3
ENDBRANCH   1   2
BRANCH   1   7
ATOM      7  C   UNL     1       1.295  -1.765  -0.149  1.00  0.00     0.340 C 
ATOM      8  O   UNL     1       1.507  -2.938   0.119  1.00  0.00    -0.246 OA
BRANCH   7   9
ATOM      9  C   UNL     1      -0.072  -1.171  -0.187  1.00  0.00     0.083 A 
ATOM     10  C   UNL     1      -1.133  -2.083  -0.318  1.00  0.00     0.018 A 
ATOM     11  C   UNL     1      -0.345   0.209  -0.111  1.00  0.00     0.047 A 
ATOM     12  C   UNL     1      -2.458  -1.641  -0.349  1.00  0.00     0.010 A 
ATOM     13  C   UNL     1      -1.690   0.624  -0.092  1.00  0.00     0.035 A 
ATOM     14  C   UNL     1      -2.759  -0.280  -0.228  1.00  0.00    -0.016 A 
BRANCH  11  15
ATOM     15  N   UNL     1       0.637   1.177   0.176  1.00  0.00    -0.398 N 
ATOM     16  H   UNL     1       1.568   0.883  -0.125  1.00  0.00     0.156 HD
ATOM     17  H   UNL     1       0.410   2.111  -0.152  1.00  0.00     0.156 HD
ENDBRANCH  11  15
BRANCH  14  18
ATOM     18  C   UNL     1      -4.153   0.190  -0.224  1.00  0.00    -0.014 A 
ATOM     19  C   UNL     1      -4.656   0.946   0.849  1.00  0.00     0.055 A 
ATOM     20  C   UNL     1      -5.016  -0.107  -1.293  1.00  0.00     0.024 A 
ATOM     21  C   UNL     1      -5.979   1.385   0.843  1.00  0.00     0.117 A 
ATOM     22  C   UNL     1      -6.338   0.344  -1.284  1.00  0.00     0.022 A 
ATOM     23  C   UNL     1      -6.826   1.091  -0.217  1.00  0.00     0.061 A 
ATOM     24  Br  UNL     1      -7.475  -0.067  -2.738  1.00  0.00    -0.051 Br
BRANCH  21  25
ATOM     25  O   UNL     1      -6.488   2.116   1.876  1.00  0.00    -0.508 OA
ATOM     26  H   UNL     1      -5.802   2.222   2.556  1.00  0.00     0.293 HD
ENDBRANCH  21  25
ENDBRANCH  14  18
ENDBRANCH   7   9
ENDBRANCH   1   7
TORSDOF 9
