MODEL        1USER    Run = 1USERUSER    Estimated Free Energy of Binding    =  -6.60 kcal/mol  [=(1)+(2)+(3)-(4)]USERUSER    (1) Final Intermolecular Energy     =  -8.99 kcal/molUSER        vdW + Hbond + desolv Energy     =  -9.42 kcal/molUSER        Electrostatic Energy            =  -0.04 kcal/molUSER        Moving Ligand-Fixed Receptor    =  -9.45 kcal/molUSER        Moving Ligand-Moving Receptor   =  +0.46 kcal/molUSER    (2) Final Total Internal Energy     =  -1.27 kcal/molUSER    (3) Torsional Free Energy           =  +2.39 kcal/molUSER    (4) Unbound System's Energy         =  -1.27 kcal/molUSERUSERREMARK SMILES C=C1N=C(Nc2cccc(-c3ccncc3)c2)NC=C(Br)C1=CBrREMARK SMILES IDX 19 1 18 2 4 3 5 4 3 7 2 8 1 9 6 11 7 12 17 13 8 14 10 15REMARK SMILES IDX 9 16 11 17 12 18 16 19 13 20 15 21 14 22 20 23 21 24 22 25REMARK SMILES IDX 23 27 24 28REMARK H PARENT 5 5 18 6REMARK Flexibility Score:   66.900USER                              x       y       z     vdW  Elec       q    TypeUSER                           _______ _______ _______ _____ _____    ______ ____ROOTATOM      1  C   UNL     1      14.937 -15.758 -14.457 -0.26 -0.05    +0.102 C  ENDROOTBRANCH   1   2ATOM      2  N   UNL     1      15.774 -15.432 -13.413 -0.15 +0.16    -0.331 N  ATOM      3  C   UNL     1      15.482 -15.078 -12.107 -0.30 -0.06    +0.205 C  ATOM      4  N   UNL     1      16.652 -15.172 -11.374 -0.17 +0.07    -0.326 N  ATOM      5  H   UNL     1      17.204 -15.980 -11.625 +0.15 -0.03    +0.170 HD ATOM      6  H   UNL     1      16.738 -15.277 -13.683 -0.34 -0.13    +0.169 HD BRANCH   3   7ATOM      7  N   UNL     1      14.347 -14.727 -11.582 -0.15 +0.07    -0.215 NA BRANCH   7   8ATOM      8  C   UNL     1      13.219 -14.613 -12.348 -0.28 -0.02    +0.069 CG0ATOM      9  C   UNL     1      12.472 -13.503 -12.288 -0.34 -0.02    +0.040 C  ATOM     10  G   UNL     1      12.852 -15.746 -13.203 +0.00 +0.00    +0.000 G0 ENDBRANCH   7   8ENDBRANCH   3   7BRANCH   4  11ATOM     11  C   UNL     1      16.875 -14.768 -10.039 -0.35 -0.01    +0.041 A  ATOM     12  C   UNL     1      17.387 -15.615  -9.052 -0.36 -0.00    +0.026 A  ATOM     13  C   UNL     1      16.472 -13.476  -9.649 -0.35 -0.01    +0.034 A  ATOM     14  C   UNL     1      17.544 -15.177  -7.735 -0.40 -0.00    +0.003 A  ATOM     15  C   UNL     1      16.621 -13.012  -8.327 -0.37 +0.00    -0.016 A  ATOM     16  C   UNL     1      17.169 -13.883  -7.377 -0.38 -0.00    +0.009 A  BRANCH  15  17ATOM     17  C   UNL     1      16.210 -11.651  -7.955 -0.44 +0.00    -0.015 A  ATOM     18  C   UNL     1      16.244 -10.606  -8.885 -0.52 -0.01    +0.029 A  ATOM     19  C   UNL     1      15.773 -11.356  -6.659 -0.49 -0.01    +0.029 A  ATOM     20  C   UNL     1      15.844  -9.340  -8.490 -0.59 -0.03    +0.111 A  ATOM     21  C   UNL     1      15.396 -10.057  -6.356 -0.51 -0.04    +0.111 A  ATOM     22  N   UNL     1      15.419  -9.042  -7.243 -0.58 +0.09    -0.265 NA ENDBRANCH  15  17ENDBRANCH   4  11ENDBRANCH   1   2BRANCH   1  23ATOM     23  C   UNL     1      13.605 -15.935 -14.444 -0.33 -0.01    +0.044 C  ATOM     24  Br  UNL     1      12.684 -16.329 -16.031 -0.66 +0.00    -0.048 Br BRANCH  23  25ATOM     25  C   UNL     1      12.854 -15.745 -13.201 -0.27 -0.01    +0.022 CG0ATOM     26  G   UNL     1      13.220 -14.615 -12.342 +0.00 +0.00    +0.000 G0 BRANCH  25  27ATOM     27  C   UNL     1      11.861 -16.595 -12.864 -0.29 -0.01    +0.063 C  ATOM     28  Br  UNL     1      12.011 -18.378 -12.353 -0.68 +0.01    -0.059 Br ENDBRANCH  25  27ENDBRANCH  23  25ENDBRANCH   1  23TORSDOF 3TERENDMDL