REMARK SMILES C[C@@H]1CC=C(c2cnc3cc(-c4ccc(N5CCN(C)CC5)cc4)ncn23)C=NC1
REMARK SMILES IDX 5 1 4 2 3 3 2 4 1 5 6 7 7 8 27 9 8 10 26 11 9 12 25 13 10 14
REMARK SMILES IDX 11 15 12 16 13 17 24 18 14 19 23 20 15 21 16 22 17 23 22 24
REMARK SMILES IDX 18 25 21 26 19 27 20 28 28 29 29 30 30 31
REMARK H PARENT
REMARK Flexibility Score:   72.900
ROOT
ATOM      1  C   UNL     1       5.233  -0.708  -0.534  1.00  0.00     0.014 C 
ENDROOT
BRANCH   1   2
ATOM      2  C   UNL     1       5.843  -0.767   0.661  1.00  0.00    -0.015 C 
BRANCH   2   3
ATOM      3  C   UNL     1       6.988   0.035   1.210  1.00  0.00     0.033 C 
BRANCH   3   4
ATOM      4  C   UNL     1       7.504   1.215   0.379  1.00  0.00     0.011 CG0
ATOM      5  C   UNL     1       8.752   1.805   1.042  1.00  0.00     0.010 C 
ATOM      6  G   UNL     1       7.817   0.769  -1.050  1.00  0.00     0.000 G0
ENDBRANCH   3   4
ENDBRANCH   2   3
ENDBRANCH   1   2
BRANCH   1   7
ATOM      7  C   UNL     1       4.141  -1.587  -0.753  1.00  0.00     0.075 A 
ATOM      8  C   UNL     1       4.048  -2.914  -1.123  1.00  0.00     0.140 A 
ATOM      9  N   UNL     1       2.832  -1.175  -0.607  1.00  0.00    -0.283 N 
ATOM     10  N   UNL     1       2.739  -3.316  -1.215  1.00  0.00    -0.236 NA
ATOM     11  C   UNL     1       2.304   0.057  -0.235  1.00  0.00     0.206 A 
ATOM     12  C   UNL     1       2.028  -2.254  -0.904  1.00  0.00     0.140 A 
ATOM     13  N   UNL     1       1.021   0.254  -0.168  1.00  0.00    -0.238 NA
ATOM     14  C   UNL     1       0.636  -2.034  -0.834  1.00  0.00     0.076 A 
ATOM     15  C   UNL     1       0.190  -0.813  -0.473  1.00  0.00     0.076 A 
BRANCH  15  16
ATOM     16  C   UNL     1      -1.268  -0.561  -0.445  1.00  0.00     0.000 A 
ATOM     17  C   UNL     1      -1.790   0.554  -1.106  1.00  0.00     0.012 A 
ATOM     18  C   UNL     1      -2.155  -1.398   0.239  1.00  0.00     0.012 A 
ATOM     19  C   UNL     1      -3.168   0.808  -1.097  1.00  0.00     0.026 A 
ATOM     20  C   UNL     1      -3.535  -1.133   0.246  1.00  0.00     0.026 A 
ATOM     21  C   UNL     1      -4.076  -0.025  -0.421  1.00  0.00     0.037 A 
BRANCH  21  22
ATOM     22  N   UNL     1      -5.441   0.274  -0.449  1.00  0.00    -0.369 N 
ATOM     23  C   UNL     1      -5.768   1.657  -0.009  1.00  0.00     0.132 C 
ATOM     24  C   UNL     1      -6.452  -0.738  -0.087  1.00  0.00     0.132 C 
ATOM     25  C   UNL     1      -7.268   1.810   0.334  1.00  0.00     0.105 C 
ATOM     26  C   UNL     1      -7.077  -0.435   1.294  1.00  0.00     0.105 C 
ATOM     27  N   UNL     1      -7.731   0.892   1.401  1.00  0.00    -0.303 NA
ATOM     28  C   UNL     1      -9.187   0.786   1.385  1.00  0.00     0.105 C 
ENDBRANCH  21  22
ENDBRANCH  15  16
ENDBRANCH   1   7
BRANCH   1  29
ATOM     29  C   UNL     1       5.579   0.239  -1.641  1.00  0.00     0.115 C 
BRANCH  29  30
ATOM     30  N   UNL     1       6.644   0.904  -1.901  1.00  0.00    -0.292 NA
BRANCH  30  31
ATOM     31  C   UNL     1       7.817   0.769  -1.050  1.00  0.00     0.145 CG0
ATOM     32  G   UNL     1       7.504   1.215   0.379  1.00  0.00     0.000 G0
ENDBRANCH  30  31
ENDBRANCH  29  30
ENDBRANCH   1  29
TORSDOF 3
