MODEL        9USER    Run = 9USERUSER    Estimated Free Energy of Binding    =  -9.93 kcal/mol  [=(1)+(2)+(3)-(4)]USERUSER    (1) Final Intermolecular Energy     = -11.13 kcal/molUSER        vdW + Hbond + desolv Energy     = -10.83 kcal/molUSER        Electrostatic Energy            =  -0.30 kcal/molUSER        Moving Ligand-Fixed Receptor    = -11.13 kcal/molUSER        Moving Ligand-Moving Receptor   =  +0.00 kcal/molUSER    (2) Final Total Internal Energy     =  -0.71 kcal/molUSER    (3) Torsional Free Energy           =  +1.19 kcal/molUSER    (4) Unbound System's Energy         =  -0.71 kcal/molUSERUSERREMARK SMILES Cc1c(C(=O)O)cccc1-c1c[nH]c2ccc(-c3nnc[nH]3)cc12REMARK SMILES IDX 1 1 2 2 3 3 7 4 8 5 9 6 10 7 4 8 5 9 6 10 11 12 12 13 24 14REMARK SMILES IDX 13 15 23 16 14 17 17 18 15 19 16 20 18 22 19 23 22 24 20 25REMARK SMILES IDX 21 26REMARK H PARENT 6 11 13 21 22 27USER                              x       y       z     vdW  Elec       q    TypeUSER                           _______ _______ _______ _____ _____    ______ ____ROOTATOM      1  C   UNL     1      16.798 -13.522  -6.844 -0.38 -0.01    +0.046 C  ATOM      2  C   UNL     1      16.235 -12.156  -7.151 -0.41 +0.01    -0.029 A  ATOM      3  C   UNL     1      15.945 -11.244  -6.107 -0.48 -0.02    +0.063 A  ATOM      4  C   UNL     1      15.463  -9.956  -6.404 -0.61 -0.01    +0.016 A  ATOM      5  C   UNL     1      15.252  -9.563  -7.722 -0.70 -0.00    +0.002 A  ATOM      6  C   UNL     1      15.500 -10.462  -8.754 -0.57 -0.00    +0.009 A  ATOM      7  C   UNL     1      15.976 -11.756  -8.482 -0.43 +0.00    -0.012 A  ENDROOTBRANCH   3   8ATOM      8  C   UNL     1      16.099 -11.628  -4.676 -0.31 -0.05    +0.335 C  ATOM      9  O   UNL     1      17.122 -11.625  -4.020 -0.95 -0.04    -0.246 OA BRANCH   8  10ATOM     10  O   UNL     1      14.928 -11.995  -4.122 -0.77 +0.09    -0.478 OA ATOM     11  H   UNL     1      14.556 -11.153  -3.784 -0.26 -0.19    +0.297 HD ENDBRANCH   8  10ENDBRANCH   3   8BRANCH   7  12ATOM     12  C   UNL     1      16.179 -12.640  -9.618 -0.38 -0.00    +0.007 A  ATOM     13  C   UNL     1      17.420 -13.127  -9.976 -0.17 -0.02    +0.092 A  ATOM     14  C   UNL     1      15.222 -13.209 -10.513 -0.31 -0.00    +0.008 A  ATOM     15  N   UNL     1      17.255 -13.943 -11.063 -0.22 +0.08    -0.361 N  ATOM     16  C   UNL     1      13.821 -13.112 -10.650 -0.32 -0.01    +0.023 A  ATOM     17  C   UNL     1      15.924 -14.013 -11.409 -0.36 -0.01    +0.046 A  ATOM     18  C   UNL     1      13.153 -13.813 -11.670 -0.29 -0.01    +0.020 A  ATOM     19  C   UNL     1      15.295 -14.727 -12.433 -0.38 -0.01    +0.027 A  ATOM     20  C   UNL     1      13.901 -14.613 -12.546 -0.30 -0.01    +0.014 A  ATOM     21  H   UNL     1      17.999 -14.433 -11.539 +0.10 -0.04    +0.166 HD BRANCH  18  22ATOM     22  C   UNL     1      11.698 -13.686 -11.779 -0.20 -0.07    +0.161 A  ATOM     23  N   UNL     1      10.886 -14.448 -12.493 -0.66 +0.01    -0.131 NA ATOM     24  N   UNL     1      10.928 -12.752 -11.132 -0.14 +0.20    -0.328 N  ATOM     25  N   UNL     1       9.597 -14.003 -12.319 -0.66 -0.02    -0.139 NA ATOM     26  C   UNL     1       9.639 -12.987 -11.495 -0.23 +0.01    +0.223 A  ATOM     27  H   UNL     1      11.253 -12.045 -10.492 -0.45 -0.18    +0.169 HD ENDBRANCH  18  22ENDBRANCH   7  12TORSDOF 4TERENDMDL