MODEL        2USER    Run = 2USERUSER    Estimated Free Energy of Binding    =  -8.34 kcal/mol  [=(1)+(2)+(3)-(4)]USERUSER    (1) Final Intermolecular Energy     =  -9.83 kcal/molUSER        vdW + Hbond + desolv Energy     =  -9.59 kcal/molUSER        Electrostatic Energy            =  -0.24 kcal/molUSER        Moving Ligand-Fixed Receptor    =  -9.83 kcal/molUSER        Moving Ligand-Moving Receptor   =  +0.00 kcal/molUSER    (2) Final Total Internal Energy     =  -1.46 kcal/molUSER    (3) Torsional Free Energy           =  +1.49 kcal/molUSER    (4) Unbound System's Energy         =  -1.46 kcal/molUSERUSERREMARK SMILES O=C(Nc1ccc(-c2ccc(-c3ccccc3)cc2)cc1)[C@@H]1CNC[C@@H]1OREMARK SMILES IDX 1 1 2 2 3 3 22 5 23 6 26 7 24 8 25 9 27 11 4 13 5 14 21 15REMARK SMILES IDX 6 16 20 17 7 18 8 19 9 20 19 21 10 22 18 23 11 24 12 25REMARK SMILES IDX 13 26 17 27 14 28 16 29 15 30REMARK H PARENT 3 4 24 10 27 12USER                              x       y       z     vdW  Elec       q    TypeUSER                           _______ _______ _______ _____ _____    ______ ____ROOTATOM      1  O   UNL     1      10.149 -10.512 -10.875 -0.79 +0.00    -0.274 OA ATOM      2  C   UNL     1       9.863 -10.656 -12.064 -0.39 -0.06    +0.231 C  ATOM      3  N   UNL     1       9.016  -9.843 -12.794 -0.25 +0.14    -0.326 N  ATOM      4  H   UNL     1       9.034  -9.967 -13.804 -0.40 -0.20    +0.169 HD ENDROOTBRANCH   2   5ATOM      5  C   UNL     1      10.345 -11.892 -12.815 -0.36 -0.06    +0.122 C  ATOM      6  C   UNL     1       9.423 -13.102 -12.588 -0.35 -0.01    +0.097 C  ATOM      7  C   UNL     1      11.746 -12.427 -12.536 -0.34 -0.07    +0.142 C  ATOM      8  N   UNL     1      10.301 -14.269 -12.393 -0.68 -0.02    -0.313 NA ATOM      9  C   UNL     1      11.615 -13.895 -12.939 -0.25 -0.04    +0.113 C  ATOM     10  H   UNL     1       9.933 -15.083 -12.896 +0.08 +0.02    +0.122 HD BRANCH   7  11ATOM     11  O   UNL     1      12.104 -12.310 -11.155 -0.20 +0.28    -0.391 OA ATOM     12  H   UNL     1      11.254 -12.380 -10.657 -0.31 -0.22    +0.211 HD ENDBRANCH   7  11ENDBRANCH   2   5BRANCH   3  13ATOM     13  C   UNL     1       8.278  -8.730 -12.343 -0.41 -0.01    +0.041 A  ATOM     14  C   UNL     1       8.640  -7.936 -11.255 -0.41 -0.00    +0.027 A  ATOM     15  C   UNL     1       7.096  -8.425 -13.034 -0.31 -0.00    +0.027 A  ATOM     16  C   UNL     1       7.844  -6.847 -10.874 -0.42 -0.00    +0.011 A  ATOM     17  C   UNL     1       6.297  -7.341 -12.647 -0.27 -0.00    +0.011 A  ATOM     18  C   UNL     1       6.658  -6.528 -11.561 -0.37 +0.00    -0.018 A  BRANCH  18  19ATOM     19  C   UNL     1       5.827  -5.381 -11.154 -0.29 +0.01    -0.018 A  ATOM     20  C   UNL     1       6.078  -4.091 -11.644 -0.32 -0.01    +0.009 A  ATOM     21  C   UNL     1       4.757  -5.540 -10.259 -0.32 -0.00    +0.009 A  ATOM     22  C   UNL     1       5.289  -3.000 -11.255 -0.27 -0.01    +0.009 A  ATOM     23  C   UNL     1       3.968  -4.450  -9.867 -0.32 -0.00    +0.009 A  ATOM     24  C   UNL     1       4.212  -3.159 -10.369 -0.25 +0.01    -0.018 A  BRANCH  24  25ATOM     25  C   UNL     1       3.380  -2.013  -9.954 -0.23 +0.01    -0.018 A  ATOM     26  C   UNL     1       2.961  -1.040 -10.883 -0.19 -0.01    +0.009 A  ATOM     27  C   UNL     1       2.982  -1.851  -8.614 -0.27 -0.00    +0.009 A  ATOM     28  C   UNL     1       2.193   0.059 -10.482 -0.18 -0.00    +0.001 A  ATOM     29  C   UNL     1       2.210  -0.754  -8.214 -0.30 -0.00    +0.001 A  ATOM     30  C   UNL     1       1.820   0.201  -9.150 -0.21 -0.00    +0.000 A  ENDBRANCH  24  25ENDBRANCH  18  19ENDBRANCH   3  13TORSDOF 5TERENDMDL