REMARK SMILES CNC(=O)c1ccc(Cl)cc1NC1=N/C(=C\c2ccc3c(c2)OCO3)C(=O)N1C
REMARK SMILES IDX 5 1 6 2 7 3 8 4 9 5 10 6 11 7 3 8 2 9 1 10 4 12 12 13 13 14
REMARK SMILES IDX 14 15 28 16 15 17 26 18 29 20 27 21 16 22 17 23 18 24 22 25
REMARK SMILES IDX 19 26 21 27 20 28 23 29 25 30 24 31
REMARK H PARENT 2 11 12 19
ROOT
ATOM      1  C   UNL     1      -3.500   0.624  -0.513  1.00  0.00     0.063 A 
ATOM      2  C   UNL     1      -3.961   1.931  -0.751  1.00  0.00     0.017 A 
ATOM      3  C   UNL     1      -3.053   2.974  -0.930  1.00  0.00     0.021 A 
ATOM      4  C   UNL     1      -1.689   2.712  -0.875  1.00  0.00     0.043 A 
ATOM      5  Cl  UNL     1      -0.568   4.001  -1.089  1.00  0.00    -0.084 Cl
ATOM      6  C   UNL     1      -1.220   1.414  -0.659  1.00  0.00     0.047 A 
ATOM      7  C   UNL     1      -2.107   0.338  -0.497  1.00  0.00     0.055 A 
ENDROOT
BRANCH   1   8
ATOM      8  C   UNL     1      -4.489  -0.481  -0.301  1.00  0.00     0.253 C 
ATOM      9  N   UNL     1      -5.710  -0.133   0.239  1.00  0.00    -0.355 N 
ATOM     10  C   UNL     1      -6.675  -1.147   0.587  1.00  0.00     0.143 C 
ATOM     11  H   UNL     1      -5.806   0.769   0.687  1.00  0.00     0.163 HD
ATOM     12  O   UNL     1      -4.175  -1.641  -0.562  1.00  0.00    -0.269 OA
ENDBRANCH   1   8
BRANCH   7  13
ATOM     13  N   UNL     1      -1.665  -0.987  -0.273  1.00  0.00    -0.325 N 
ATOM     14  C   UNL     1      -0.407  -1.490  -0.097  1.00  0.00     0.210 C 
ATOM     15  N   UNL     1       0.697  -0.811   0.029  1.00  0.00    -0.209 NA
ATOM     16  N   UNL     1      -0.226  -2.845  -0.025  1.00  0.00    -0.280 N 
ATOM     17  C   UNL     1       1.691  -1.745   0.191  1.00  0.00     0.133 C 
ATOM     18  C   UNL     1       1.101  -3.107   0.161  1.00  0.00     0.279 C 
ATOM     19  H   UNL     1      -2.425  -1.663  -0.370  1.00  0.00     0.170 HD
ATOM     20  C   UNL     1      -1.230  -3.880  -0.122  1.00  0.00     0.157 C 
ATOM     21  O   UNL     1       1.678  -4.171   0.278  1.00  0.00    -0.267 OA
BRANCH  17  22
ATOM     22  C   UNL     1       3.002  -1.540   0.373  1.00  0.00     0.042 C 
BRANCH  22  23
ATOM     23  C   UNL     1       3.681  -0.236   0.435  1.00  0.00    -0.019 A 
ATOM     24  C   UNL     1       3.314   0.847  -0.396  1.00  0.00     0.012 A 
ATOM     25  C   UNL     1       4.768  -0.089   1.311  1.00  0.00     0.058 A 
ATOM     26  C   UNL     1       3.994   2.069  -0.340  1.00  0.00     0.051 A 
ATOM     27  C   UNL     1       5.421   1.126   1.345  1.00  0.00     0.166 A 
ATOM     28  C   UNL     1       5.043   2.176   0.544  1.00  0.00     0.165 A 
ATOM     29  O   UNL     1       6.482   1.434   2.139  1.00  0.00    -0.454 OA
ATOM     30  O   UNL     1       5.817   3.278   0.732  1.00  0.00    -0.454 OA
ATOM     31  C   UNL     1       6.722   2.802   1.749  1.00  0.00     0.468 C 
ENDBRANCH  22  23
ENDBRANCH  17  22
ENDBRANCH   7  13
TORSDOF 4
