REMARK SMILES C=C1N=C(Nc2cccc(-c3ccncc3)c2)NC=C(Br)C1=CBr
REMARK SMILES IDX 19 1 18 2 4 3 5 4 3 7 2 8 1 9 6 11 7 12 17 13 8 14 10 15
REMARK SMILES IDX 9 16 11 17 12 18 16 19 13 20 15 21 14 22 20 23 21 24 22 25
REMARK SMILES IDX 23 27 24 28
REMARK H PARENT 5 5 18 6
REMARK Flexibility Score:   66.900
ROOT
ATOM      1  C   UNL     1      -4.009  -2.137  -0.560  1.00  0.00     0.102 C 
ENDROOT
BRANCH   1   2
ATOM      2  N   UNL     1      -2.704  -1.749  -0.772  1.00  0.00    -0.331 N 
ATOM      3  C   UNL     1      -2.049  -0.580  -0.426  1.00  0.00     0.205 C 
ATOM      4  N   UNL     1      -0.690  -0.804  -0.558  1.00  0.00    -0.326 N 
ATOM      5  H   UNL     1      -0.413  -1.719  -0.231  1.00  0.00     0.170 HD
ATOM      6  H   UNL     1      -2.191  -2.342  -1.413  1.00  0.00     0.169 HD
BRANCH   3   7
ATOM      7  N   UNL     1      -2.542   0.553  -0.025  1.00  0.00    -0.215 NA
BRANCH   7   8
ATOM      8  C   UNL     1      -3.893   0.744   0.065  1.00  0.00     0.069 CG0
ATOM      9  C   UNL     1      -4.462   1.819  -0.497  1.00  0.00     0.040 C 
ATOM     10  G   UNL     1      -4.678  -0.243   0.812  1.00  0.00     0.000 G0
ENDBRANCH   7   8
ENDBRANCH   3   7
BRANCH   4  11
ATOM     11  C   UNL     1       0.359   0.137  -0.460  1.00  0.00     0.041 A 
ATOM     12  C   UNL     1       0.196   1.502  -0.709  1.00  0.00     0.026 A 
ATOM     13  C   UNL     1       1.661  -0.329  -0.195  1.00  0.00     0.034 A 
ATOM     14  C   UNL     1       1.278   2.383  -0.643  1.00  0.00     0.003 A 
ATOM     15  C   UNL     1       2.768   0.539  -0.124  1.00  0.00    -0.016 A 
ATOM     16  C   UNL     1       2.553   1.905  -0.347  1.00  0.00     0.009 A 
BRANCH  15  17
ATOM     17  C   UNL     1       4.112   0.025   0.176  1.00  0.00    -0.015 A 
ATOM     18  C   UNL     1       4.837   0.496   1.276  1.00  0.00     0.029 A 
ATOM     19  C   UNL     1       4.709  -0.952  -0.629  1.00  0.00     0.029 A 
ATOM     20  C   UNL     1       6.099  -0.021   1.521  1.00  0.00     0.111 A 
ATOM     21  C   UNL     1       5.978  -1.406  -0.305  1.00  0.00     0.111 A 
ATOM     22  N   UNL     1       6.686  -0.964   0.754  1.00  0.00    -0.265 NA
ENDBRANCH  15  17
ENDBRANCH   4  11
ENDBRANCH   1   2
BRANCH   1  23
ATOM     23  C   UNL     1      -4.960  -1.528   0.167  1.00  0.00     0.044 C 
ATOM     24  Br  UNL     1      -6.683  -2.263   0.283  1.00  0.00    -0.048 Br
BRANCH  23  25
ATOM     25  C   UNL     1      -4.678  -0.243   0.812  1.00  0.00     0.022 CG0
ATOM     26  G   UNL     1      -3.893   0.744   0.065  1.00  0.00     0.000 G0
BRANCH  25  27
ATOM     27  C   UNL     1      -5.126   0.010   2.059  1.00  0.00     0.063 C 
ATOM     28  Br  UNL     1      -4.867   1.548   3.074  1.00  0.00    -0.059 Br
ENDBRANCH  25  27
ENDBRANCH  23  25
ENDBRANCH   1  23
TORSDOF 3
