REMARK SMILES O=C(Nc1ccc(-c2ccc(-c3ccccc3)cc2)cc1)[C@@H]1CNC[C@@H]1O
REMARK SMILES IDX 1 1 2 2 3 3 22 5 23 6 26 7 24 8 25 9 27 11 4 13 5 14 21 15
REMARK SMILES IDX 6 16 20 17 7 18 8 19 9 20 19 21 10 22 18 23 11 24 12 25
REMARK SMILES IDX 13 26 17 27 14 28 16 29 15 30
REMARK H PARENT 3 4 24 10 27 12
ROOT
ATOM      1  O   UNL     1       4.243  -1.978   0.917  1.00  0.00    -0.274 OA
ATOM      2  C   UNL     1       4.511  -1.092   0.105  1.00  0.00     0.231 C 
ATOM      3  N   UNL     1       3.602  -0.227  -0.475  1.00  0.00    -0.326 N 
ATOM      4  H   UNL     1       3.994   0.574  -0.967  1.00  0.00     0.169 HD
ENDROOT
BRANCH   2   5
ATOM      5  C   UNL     1       5.926  -0.976  -0.450  1.00  0.00     0.122 C 
ATOM      6  C   UNL     1       6.991  -1.308   0.609  1.00  0.00     0.097 C 
ATOM      7  C   UNL     1       6.382   0.355  -1.040  1.00  0.00     0.142 C 
ATOM      8  N   UNL     1       8.064  -0.309   0.454  1.00  0.00    -0.313 NA
ATOM      9  C   UNL     1       7.900   0.270  -0.888  1.00  0.00     0.113 C 
ATOM     10  H   UNL     1       8.983  -0.755   0.532  1.00  0.00     0.122 HD
BRANCH   7  11
ATOM     11  O   UNL     1       5.862   1.474  -0.315  1.00  0.00    -0.391 OA
ATOM     12  H   UNL     1       6.375   1.501   0.529  1.00  0.00     0.211 HD
ENDBRANCH   7  11
ENDBRANCH   2   5
BRANCH   3  13
ATOM     13  C   UNL     1       2.203  -0.196  -0.306  1.00  0.00     0.041 A 
ATOM     14  C   UNL     1       1.487  -1.099   0.479  1.00  0.00     0.027 A 
ATOM     15  C   UNL     1       1.499   0.804  -0.992  1.00  0.00     0.027 A 
ATOM     16  C   UNL     1       0.093  -0.995   0.589  1.00  0.00     0.011 A 
ATOM     17  C   UNL     1       0.105   0.902  -0.888  1.00  0.00     0.011 A 
ATOM     18  C   UNL     1      -0.625   0.006  -0.092  1.00  0.00    -0.018 A 
BRANCH  18  19
ATOM     19  C   UNL     1      -2.090   0.108   0.029  1.00  0.00    -0.018 A 
ATOM     20  C   UNL     1      -2.712   1.331   0.320  1.00  0.00     0.009 A 
ATOM     21  C   UNL     1      -2.914  -1.016  -0.140  1.00  0.00     0.009 A 
ATOM     22  C   UNL     1      -4.105   1.428   0.438  1.00  0.00     0.009 A 
ATOM     23  C   UNL     1      -4.307  -0.922  -0.021  1.00  0.00     0.009 A 
ATOM     24  C   UNL     1      -4.931   0.307   0.258  1.00  0.00    -0.018 A 
BRANCH  24  25
ATOM     25  C   UNL     1      -6.398   0.403   0.383  1.00  0.00    -0.018 A 
ATOM     26  C   UNL     1      -6.997   1.084   1.462  1.00  0.00     0.009 A 
ATOM     27  C   UNL     1      -7.249  -0.189  -0.569  1.00  0.00     0.009 A 
ATOM     28  C   UNL     1      -8.388   1.152   1.591  1.00  0.00     0.001 A 
ATOM     29  C   UNL     1      -8.641  -0.116  -0.442  1.00  0.00     0.001 A 
ATOM     30  C   UNL     1      -9.208   0.551   0.641  1.00  0.00     0.000 A 
ENDBRANCH  24  25
ENDBRANCH  18  19
ENDBRANCH   3  13
TORSDOF 5
