MODEL        5USER    Run = 5USERUSER    Estimated Free Energy of Binding    =  -6.80 kcal/mol  [=(1)+(2)+(3)-(4)]USERUSER    (1) Final Intermolecular Energy     =  -9.49 kcal/molUSER        vdW + Hbond + desolv Energy     =  -9.39 kcal/molUSER        Electrostatic Energy            =  -0.10 kcal/molUSER        Moving Ligand-Fixed Receptor    =  -9.49 kcal/molUSER        Moving Ligand-Moving Receptor   =  +0.00 kcal/molUSER    (2) Final Total Internal Energy     =  -1.71 kcal/molUSER    (3) Torsional Free Energy           =  +2.68 kcal/molUSER    (4) Unbound System's Energy         =  -1.71 kcal/molUSERUSERREMARK SMILES CCCCCOC(=O)c1ccc(-c2cc(O)cc(Br)c2)cc1NREMARK SMILES IDX 6 1 5 2 4 3 3 4 2 5 1 6 7 7 8 8 9 9 10 10 22 11 11 12 21 13REMARK SMILES IDX 12 14 23 15 13 18 14 19 20 20 15 21 18 22 17 23 19 24 16 25REMARK H PARENT 23 16 23 17 16 26USER                              x       y       z     vdW  Elec       q    TypeUSER                           _______ _______ _______ _____ _____    ______ ____ROOTATOM      1  O   UNL     1      15.530 -16.274 -13.427 -0.15 +0.17    -0.462 OA ENDROOTBRANCH   1   2ATOM      2  C   UNL     1      14.981 -17.594 -13.289 -0.29 -0.06    +0.233 C  BRANCH   2   3ATOM      3  C   UNL     1      15.438 -18.262 -11.993 -0.42 -0.01    +0.042 C  BRANCH   3   4ATOM      4  C   UNL     1      14.966 -17.565 -10.711 -0.45 -0.00    +0.003 C  BRANCH   4   5ATOM      5  C   UNL     1      16.074 -17.007  -9.816 -0.39 +0.00    -0.003 C  ATOM      6  C   UNL     1      17.113 -18.044  -9.421 -0.44 +0.00    +0.004 C  ENDBRANCH   4   5ENDBRANCH   3   4ENDBRANCH   2   3ENDBRANCH   1   2BRANCH   1   7ATOM      7  C   UNL     1      14.667 -15.250 -13.192 -0.18 -0.13    +0.340 C  ATOM      8  O   UNL     1      13.704 -14.962 -13.886 -0.21 +0.11    -0.246 OA BRANCH   7   9ATOM      9  C   UNL     1      15.077 -14.459 -11.996 -0.31 -0.03    +0.083 A  ATOM     10  C   UNL     1      14.034 -14.031 -11.158 -0.30 -0.01    +0.018 A  ATOM     11  C   UNL     1      16.408 -14.122 -11.680 -0.42 -0.01    +0.047 A  ATOM     12  C   UNL     1      14.301 -13.296 -10.000 -0.35 -0.01    +0.010 A  ATOM     13  C   UNL     1      16.654 -13.425 -10.482 -0.38 -0.01    +0.035 A  ATOM     14  C   UNL     1      15.617 -12.988  -9.639 -0.36 +0.01    -0.016 A  BRANCH  11  15ATOM     15  N   UNL     1      17.522 -14.636 -12.373 -0.23 +0.12    -0.398 N  ATOM     16  H   UNL     1      17.255 -15.090 -13.248 -0.21 -0.09    +0.156 HD ATOM     17  H   UNL     1      18.275 -13.968 -12.506 +0.08 -0.05    +0.156 HD ENDBRANCH  11  15BRANCH  14  18ATOM     18  C   UNL     1      15.909 -12.245  -8.403 -0.41 +0.00    -0.014 A  ATOM     19  C   UNL     1      15.392 -10.953  -8.199 -0.47 -0.02    +0.055 A  ATOM     20  C   UNL     1      16.713 -12.808  -7.397 -0.39 -0.01    +0.024 A  ATOM     21  C   UNL     1      15.676 -10.258  -7.025 -0.52 -0.04    +0.117 A  ATOM     22  C   UNL     1      16.985 -12.098  -6.225 -0.44 -0.00    +0.022 A  ATOM     23  C   UNL     1      16.469 -10.820  -6.033 -0.45 -0.01    +0.061 A  ATOM     24  Br  UNL     1      18.066 -12.882  -4.887 -0.96 -0.01    -0.051 Br BRANCH  21  25ATOM     25  O   UNL     1      15.189  -9.002  -6.809 -0.46 +0.21    -0.508 OA ATOM     26  H   UNL     1      14.614  -9.017  -6.025 -0.29 -0.24    +0.293 HD ENDBRANCH  21  25ENDBRANCH  14  18ENDBRANCH   7   9ENDBRANCH   1   7TORSDOF 9TERENDMDL