REMARK SMILES Cc1ccccc1CC(=O)N(CS)CCNC(=O)C1=Cc2ccc(NCCN)c(C)c21
REMARK SMILES IDX 16 1 17 2 18 3 15 5 14 6 11 7 9 8 10 9 8 10 7 11 2 12 3 13
REMARK SMILES IDX 4 14 6 15 5 16 1 17 12 18 13 19 19 21 20 22 31 23 21 24
REMARK SMILES IDX 29 25 22 26 24 27 23 28 30 29 25 30 26 32 27 33 28 34
REMARK H PARENT 16 4 13 20 25 31 28 35 28 36
ROOT
ATOM      1  N   UNL     1      -0.265   1.263  -0.997  1.00  0.00    -0.350 N 
ATOM      2  C   UNL     1       0.966   0.733  -1.327  1.00  0.00     0.252 C 
ATOM      3  O   UNL     1       1.134   0.096  -2.363  1.00  0.00    -0.269 OA
ATOM      4  H   UNL     1      -0.410   1.584  -0.048  1.00  0.00     0.163 HD
ENDROOT
BRANCH   1   5
ATOM      5  C   UNL     1      -1.441   1.004  -1.807  1.00  0.00     0.137 C 
BRANCH   5   6
ATOM      6  C   UNL     1      -2.006  -0.409  -1.605  1.00  0.00     0.141 C 
BRANCH   6   7
ATOM      7  N   UNL     1      -2.789  -0.577  -0.368  1.00  0.00    -0.332 N 
BRANCH   7   8
ATOM      8  C   UNL     1      -4.129  -0.181  -0.400  1.00  0.00     0.227 C 
ATOM      9  O   UNL     1      -4.590   0.392  -1.389  1.00  0.00    -0.274 OA
BRANCH   8  10
ATOM     10  C   UNL     1      -4.986  -0.510   0.821  1.00  0.00     0.136 C 
BRANCH  10  11
ATOM     11  C   UNL     1      -6.428  -0.049   0.723  1.00  0.00    -0.036 A 
ATOM     12  C   UNL     1      -7.423  -0.820   0.086  1.00  0.00    -0.047 A 
ATOM     13  C   UNL     1      -8.741  -0.335   0.040  1.00  0.00     0.004 A 
ATOM     14  C   UNL     1      -9.070   0.900   0.598  1.00  0.00     0.000 A 
ATOM     15  C   UNL     1      -6.775   1.200   1.269  1.00  0.00     0.004 A 
ATOM     16  C   UNL     1      -8.086   1.669   1.209  1.00  0.00     0.000 A 
ATOM     17  C   UNL     1      -7.118  -2.154  -0.539  1.00  0.00     0.044 C 
ENDBRANCH  10  11
ENDBRANCH   8  10
ENDBRANCH   7   8
BRANCH   7  18
ATOM     18  C   UNL     1      -2.108  -1.108   0.805  1.00  0.00     0.186 C 
BRANCH  18  19
ATOM     19  S   UNL     1      -1.439   0.208   1.853  1.00  0.00    -0.158 SA
ATOM     20  H   UNL     1      -2.595   0.848   2.067  1.00  0.00     0.104 HD
ENDBRANCH  18  19
ENDBRANCH   7  18
ENDBRANCH   6   7
ENDBRANCH   5   6
ENDBRANCH   1   5
BRANCH   2  21
ATOM     21  C   UNL     1       1.978   0.999  -0.303  1.00  0.00     0.048 C 
ATOM     22  C   UNL     1       2.067   1.799   0.791  1.00  0.00     0.023 C 
ATOM     23  C   UNL     1       3.366   0.490  -0.096  1.00  0.00    -0.001 A 
ATOM     24  C   UNL     1       3.470   1.291   1.000  1.00  0.00    -0.016 A 
ATOM     25  C   UNL     1       4.353  -0.348  -0.529  1.00  0.00    -0.019 A 
ATOM     26  C   UNL     1       4.563   1.366   1.790  1.00  0.00     0.011 A 
ATOM     27  C   UNL     1       5.568  -0.276   0.206  1.00  0.00     0.038 A 
ATOM     28  C   UNL     1       5.628   0.551   1.377  1.00  0.00     0.026 A 
ATOM     29  C   UNL     1       4.150  -1.226  -1.721  1.00  0.00     0.047 C 
BRANCH  27  30
ATOM     30  N   UNL     1       6.637  -1.107  -0.159  1.00  0.00    -0.384 N 
ATOM     31  H   UNL     1       6.610  -1.357  -1.144  1.00  0.00     0.160 HD
BRANCH  30  32
ATOM     32  C   UNL     1       8.004  -0.876   0.312  1.00  0.00     0.128 C 
BRANCH  32  33
ATOM     33  C   UNL     1       8.639   0.367  -0.341  1.00  0.00     0.098 C 
BRANCH  33  34
ATOM     34  N   UNL     1      10.054   0.519   0.008  1.00  0.00    -0.329 NA
ATOM     35  H   UNL     1      10.419   1.354  -0.450  1.00  0.00     0.118 HD
ATOM     36  H   UNL     1      10.585  -0.264  -0.370  1.00  0.00     0.118 HD
ENDBRANCH  33  34
ENDBRANCH  32  33
ENDBRANCH  30  32
ENDBRANCH  27  30
ENDBRANCH   2  21
TORSDOF 13
