MODEL        4USER    Run = 4USERUSER    Estimated Free Energy of Binding    =  -8.01 kcal/mol  [=(1)+(2)+(3)-(4)]USERUSER    (1) Final Intermolecular Energy     =  -9.80 kcal/molUSER        vdW + Hbond + desolv Energy     =  -9.65 kcal/molUSER        Electrostatic Energy            =  -0.15 kcal/molUSER        Moving Ligand-Fixed Receptor    =  -9.80 kcal/molUSER        Moving Ligand-Moving Receptor   =  +0.00 kcal/molUSER    (2) Final Total Internal Energy     =  -0.62 kcal/molUSER    (3) Torsional Free Energy           =  +1.79 kcal/molUSER    (4) Unbound System's Energy         =  -0.62 kcal/molUSERUSERREMARK SMILES COc1cc(Nc2cc(-c3cnc4cccnn34)ccn2)ccc1C(=O)OREMARK SMILES IDX 3 1 4 2 5 3 22 4 23 5 24 6 2 7 1 8 25 9 26 10 27 11 6 13REMARK SMILES IDX 7 15 8 16 21 17 9 18 20 19 19 20 10 21 11 22 18 23 12 24REMARK SMILES IDX 17 25 13 26 16 27 14 28 15 29REMARK H PARENT 27 12 6 14USER                              x       y       z     vdW  Elec       q    TypeUSER                           _______ _______ _______ _____ _____    ______ ____ROOTATOM      1  C   UNL     1      15.554 -15.603 -10.953 -0.23 -0.03    +0.135 A  ATOM      2  C   UNL     1      15.182 -14.564 -10.084 -0.28 -0.02    +0.073 A  ATOM      3  C   UNL     1      14.304 -13.546 -10.482 -0.31 -0.02    +0.043 A  ATOM      4  C   UNL     1      13.736 -13.629 -11.759 -0.30 -0.01    +0.027 A  ATOM      5  C   UNL     1      14.082 -14.662 -12.633 -0.30 -0.01    +0.022 A  ATOM      6  C   UNL     1      14.994 -15.651 -12.238 -0.27 -0.03    +0.102 A  ENDROOTBRANCH   1   7ATOM      7  O   UNL     1      16.393 -16.623 -10.586 -0.05 +0.06    -0.496 OA ATOM      8  C   UNL     1      17.098 -16.465  -9.361 -0.23 -0.01    +0.278 C  ENDBRANCH   1   7BRANCH   6   9ATOM      9  C   UNL     1      15.372 -16.721 -13.199 -0.21 -0.10    +0.339 C  ATOM     10  O   UNL     1      15.751 -17.850 -12.958 -0.29 +0.06    -0.246 OA BRANCH   9  11ATOM     11  O   UNL     1      15.255 -16.301 -14.476 -0.14 +0.20    -0.478 OA ATOM     12  H   UNL     1      16.032 -15.714 -14.585 -0.37 -0.27    +0.297 HD ENDBRANCH   9  11ENDBRANCH   6   9BRANCH   3  13ATOM     13  N   UNL     1      13.875 -12.520  -9.610 -0.10 +0.28    -0.340 N  ATOM     14  H   UNL     1      13.017 -12.084  -9.929 -0.07 -0.18    +0.168 HD BRANCH  13  15ATOM     15  C   UNL     1      14.654 -11.552  -8.927 -0.24 -0.07    +0.130 A  ATOM     16  C   UNL     1      15.362 -11.978  -7.801 -0.38 -0.03    +0.057 A  ATOM     17  N   UNL     1      14.728 -10.277  -9.359 -0.30 +0.10    -0.239 NA ATOM     18  C   UNL     1      16.146 -11.074  -7.079 -0.50 -0.00    +0.007 A  ATOM     19  C   UNL     1      15.492  -9.412  -8.658 -0.60 -0.04    +0.114 A  ATOM     20  C   UNL     1      16.210  -9.757  -7.529 -0.55 -0.01    +0.030 A  BRANCH  18  21ATOM     21  C   UNL     1      16.906 -11.486  -5.895 -0.40 -0.01    +0.093 A  ATOM     22  C   UNL     1      16.955 -10.927  -4.628 -0.35 -0.01    +0.142 A  ATOM     23  N   UNL     1      17.745 -12.585  -5.807 -0.29 -0.00    -0.213 N  ATOM     24  N   UNL     1      17.779 -11.623  -3.785 -0.86 -0.07    -0.235 NA ATOM     25  N   UNL     1      18.016 -13.487  -6.808 -0.28 +0.00    -0.175 NA ATOM     26  C   UNL     1      18.242 -12.616  -4.511 -0.37 +0.03    +0.154 A  ATOM     27  C   UNL     1      18.827 -14.426  -6.436 -0.35 +0.02    +0.134 A  ATOM     28  C   UNL     1      19.127 -13.664  -4.175 -0.52 +0.02    +0.051 A  ATOM     29  C   UNL     1      19.441 -14.581  -5.097 -0.53 +0.01    +0.026 A  ENDBRANCH  18  21ENDBRANCH  13  15ENDBRANCH   3  13TORSDOF 6TERENDMDL