MODEL        8USER    Run = 8USERUSER    Estimated Free Energy of Binding    =  -8.19 kcal/mol  [=(1)+(2)+(3)-(4)]USERUSER    (1) Final Intermolecular Energy     =  -9.38 kcal/molUSER        vdW + Hbond + desolv Energy     =  -9.37 kcal/molUSER        Electrostatic Energy            =  -0.01 kcal/molUSER        Moving Ligand-Fixed Receptor    =  -9.38 kcal/molUSER        Moving Ligand-Moving Receptor   =  +0.00 kcal/molUSER    (2) Final Total Internal Energy     =  -1.46 kcal/molUSER    (3) Torsional Free Energy           =  +1.19 kcal/molUSER    (4) Unbound System's Energy         =  -1.46 kcal/molUSERUSERREMARK SMILES CNC(=O)c1ccc(Cl)cc1NC1=N/C(=C\c2ccc3c(c2)OCO3)C(=O)N1CREMARK SMILES IDX 5 1 6 2 7 3 8 4 9 5 10 6 11 7 3 8 2 9 1 10 4 12 12 13 13 14REMARK SMILES IDX 14 15 28 16 15 17 26 18 29 20 27 21 16 22 17 23 18 24 22 25REMARK SMILES IDX 19 26 21 27 20 28 23 29 25 30 24 31REMARK H PARENT 2 11 12 19USER                              x       y       z     vdW  Elec       q    TypeUSER                           _______ _______ _______ _____ _____    ______ ____ROOTATOM      1  C   UNL     1      12.712 -14.270 -13.699 -0.24 -0.03    +0.063 A  ATOM      2  C   UNL     1      11.728 -13.575 -14.426 -0.29 -0.01    +0.017 A  ATOM      3  C   UNL     1      11.114 -12.450 -13.877 -0.24 -0.02    +0.021 A  ATOM      4  C   UNL     1      11.483 -12.018 -12.609 -0.39 -0.02    +0.043 A  ATOM      5  Cl  UNL     1      10.719 -10.633 -11.929 -0.83 +0.03    -0.084 Cl ATOM      6  C   UNL     1      12.473 -12.689 -11.886 -0.32 -0.02    +0.047 A  ATOM      7  C   UNL     1      13.127 -13.811 -12.419 -0.27 -0.02    +0.055 A  ENDROOTBRANCH   1   8ATOM      8  C   UNL     1      13.346 -15.489 -14.294 -0.17 -0.08    +0.253 C  ATOM      9  N   UNL     1      13.810 -15.385 -15.590 -0.08 +0.14    -0.355 N  ATOM     10  C   UNL     1      14.325 -16.542 -16.281 -0.40 -0.00    +0.143 C  ATOM     11  H   UNL     1      13.498 -14.608 -16.158 -0.37 -0.09    +0.163 HD ATOM     12  O   UNL     1      13.391 -16.534 -13.646 -0.13 +0.06    -0.269 OA ENDBRANCH   1   8BRANCH   7  13ATOM     13  N   UNL     1      14.130 -14.515 -11.712 -0.09 +0.12    -0.325 N  ATOM     14  C   UNL     1      15.032 -14.086 -10.780 -0.24 -0.07    +0.210 C  ATOM     15  N   UNL     1      15.086 -12.909 -10.227 -0.21 +0.08    -0.209 NA ATOM     16  N   UNL     1      15.999 -14.945 -10.332 -0.15 +0.06    -0.280 N  ATOM     17  C   UNL     1      16.147 -12.956  -9.356 -0.34 -0.04    +0.133 C  ATOM     18  C   UNL     1      16.770 -14.303  -9.406 -0.24 -0.05    +0.279 C  ATOM     19  H   UNL     1      14.238 -15.471 -12.057 +0.12 -0.05    +0.170 HD ATOM     20  C   UNL     1      16.222 -16.316 -10.731 -0.24 -0.02    +0.157 C  ATOM     21  O   UNL     1      17.725 -14.706  -8.770 -0.24 +0.02    -0.267 OA BRANCH  17  22ATOM     22  C   UNL     1      16.598 -11.992  -8.543 -0.45 -0.01    +0.042 C  BRANCH  22  23ATOM     23  C   UNL     1      16.446 -11.942  -7.080 -0.43 +0.00    -0.019 A  ATOM     24  C   UNL     1      17.556 -11.888  -6.206 -0.37 -0.00    +0.012 A  ATOM     25  C   UNL     1      15.152 -12.010  -6.540 -0.37 -0.03    +0.058 A  ATOM     26  C   UNL     1      17.387 -11.871  -4.817 -0.48 +0.00    +0.051 A  ATOM     27  C   UNL     1      15.015 -11.993  -5.167 -0.12 -0.06    +0.166 A  ATOM     28  C   UNL     1      16.101 -11.923  -4.330 -0.39 -0.01    +0.165 A  ATOM     29  O   UNL     1      13.837 -12.043  -4.487 -0.85 +0.24    -0.454 OA ATOM     30  O   UNL     1      15.747 -11.920  -3.017 -0.52 -0.08    -0.454 OA ATOM     31  C   UNL     1      14.310 -11.990  -3.125 -0.05 -0.05    +0.468 C  ENDBRANCH  22  23ENDBRANCH  17  22ENDBRANCH   7  13TORSDOF 4TERENDMDL