MODEL        10USER    Run = 10USERUSER    Estimated Free Energy of Binding    =  -9.21 kcal/mol  [=(1)+(2)+(3)-(4)]USERUSER    (1) Final Intermolecular Energy     = -13.09 kcal/molUSER        vdW + Hbond + desolv Energy     = -13.02 kcal/molUSER        Electrostatic Energy            =  -0.07 kcal/molUSER        Moving Ligand-Fixed Receptor    = -13.09 kcal/molUSER        Moving Ligand-Moving Receptor   =  +0.00 kcal/molUSER    (2) Final Total Internal Energy     =  -1.93 kcal/molUSER    (3) Torsional Free Energy           =  +3.88 kcal/molUSER    (4) Unbound System's Energy         =  -1.93 kcal/molUSERUSERREMARK SMILES Cc1ccccc1CC(=O)N(CS)CCNC(=O)C1=Cc2ccc(NCCN)c(C)c21REMARK SMILES IDX 16 1 17 2 18 3 15 5 14 6 11 7 9 8 10 9 8 10 7 11 2 12 3 13REMARK SMILES IDX 4 14 6 15 5 16 1 17 12 18 13 19 19 21 20 22 31 23 21 24REMARK SMILES IDX 29 25 22 26 24 27 23 28 30 29 25 30 26 32 27 33 28 34REMARK H PARENT 16 4 13 20 25 31 28 35 28 36USER                              x       y       z     vdW  Elec       q    TypeUSER                           _______ _______ _______ _____ _____    ______ ____ROOTATOM      1  N   UNL     1      16.549 -13.905 -10.933 -0.18 +0.08    -0.350 N  ATOM      2  C   UNL     1      15.943 -14.106  -9.709 -0.24 -0.07    +0.252 C  ATOM      3  O   UNL     1      15.677 -15.234  -9.302 -0.22 +0.06    -0.269 OA ATOM      4  H   UNL     1      16.549 -12.970 -11.320 +0.10 -0.04    +0.163 HD ENDROOTBRANCH   1   5ATOM      5  C   UNL     1      16.804 -15.008 -11.841 -0.37 -0.04    +0.137 C  BRANCH   5   6ATOM      6  C   UNL     1      15.772 -15.101 -12.974 -0.36 -0.06    +0.141 C  BRANCH   6   7ATOM      7  N   UNL     1      14.416 -15.465 -12.529 -0.09 +0.10    -0.332 N  BRANCH   7   8ATOM      8  C   UNL     1      13.394 -14.543 -12.770 -0.19 -0.08    +0.227 C  ATOM      9  O   UNL     1      13.171 -14.137 -13.912 -0.20 +0.14    -0.274 OA BRANCH   8  10ATOM     10  C   UNL     1      12.564 -14.088 -11.570 -0.26 -0.06    +0.136 C  BRANCH  10  11ATOM     11  C   UNL     1      11.642 -12.916 -11.848 -0.34 +0.02    -0.036 A  ATOM     12  C   UNL     1      10.457 -13.053 -12.601 -0.32 +0.01    -0.047 A  ATOM     13  C   UNL     1       9.645 -11.925 -12.812 -0.34 -0.00    +0.004 A  ATOM     14  C   UNL     1      10.005 -10.678 -12.303 -0.53 -0.00    +0.000 A  ATOM     15  C   UNL     1      11.996 -11.648 -11.354 -0.43 -0.00    +0.004 A  ATOM     16  C   UNL     1      11.183 -10.538 -11.577 -0.48 -0.00    +0.000 A  ATOM     17  C   UNL     1      10.028 -14.374 -13.179 -0.29 -0.00    +0.044 C  ENDBRANCH  10  11ENDBRANCH   8  10ENDBRANCH   7   8BRANCH   7  18ATOM     18  C   UNL     1      14.240 -16.739 -11.844 -0.25 -0.04    +0.186 C  BRANCH  18  19ATOM     19  S   UNL     1      13.259 -17.905 -12.822 -0.43 +0.03    -0.158 SA ATOM     20  H   UNL     1      14.252 -18.759 -13.098 -0.48 -0.04    +0.104 HD ENDBRANCH  18  19ENDBRANCH   7  18ENDBRANCH   6   7ENDBRANCH   5   6ENDBRANCH   1   5BRANCH   2  21ATOM     21  C   UNL     1      15.653 -12.848  -9.019 -0.41 -0.02    +0.048 C  ATOM     22  C   UNL     1      14.889 -11.754  -9.274 -0.46 -0.01    +0.023 C  ATOM     23  C   UNL     1      16.141 -12.261  -7.737 -0.42 +0.00    -0.001 A  ATOM     24  C   UNL     1      15.384 -11.157  -7.982 -0.47 +0.01    -0.016 A  ATOM     25  C   UNL     1      16.911 -12.429  -6.622 -0.42 +0.00    -0.019 A  ATOM     26  C   UNL     1      15.306 -10.086  -7.162 -0.64 -0.00    +0.011 A  ATOM     27  C   UNL     1      16.944 -11.315  -5.740 -0.44 -0.00    +0.038 A  ATOM     28  C   UNL     1      16.104 -10.184  -6.012 -0.44 -0.01    +0.026 A  ATOM     29  C   UNL     1      17.687 -13.688  -6.405 -0.45 -0.00    +0.047 C  BRANCH  27  30ATOM     30  N   UNL     1      17.701 -11.398  -4.563 -0.19 -0.04    -0.384 N  ATOM     31  H   UNL     1      18.688 -11.551  -4.751 +0.13 +0.02    +0.160 HD BRANCH  30  32ATOM     32  C   UNL     1      17.492 -10.492  -3.432 -0.52 +0.01    +0.128 C  BRANCH  32  33ATOM     33  C   UNL     1      18.805 -10.182  -2.687 -0.73 +0.03    +0.098 C  BRANCH  33  34ATOM     34  N   UNL     1      18.852  -8.804  -2.191 -0.97 -0.12    -0.329 NA ATOM     35  H   UNL     1      17.952  -8.358  -2.368 -0.15 +0.01    +0.118 HD ATOM     36  H   UNL     1      19.539  -8.273  -2.723 -0.51 +0.04    +0.118 HD ENDBRANCH  33  34ENDBRANCH  32  33ENDBRANCH  30  32ENDBRANCH  27  30ENDBRANCH   2  21TORSDOF 13TERENDMDL