REMARK SMILES Cc1c(C(=O)O)cccc1-c1c[nH]c2ccc(-c3nnc[nH]3)cc12
REMARK SMILES IDX 1 1 2 2 3 3 7 4 8 5 9 6 10 7 4 8 5 9 6 10 11 12 12 13 24 14
REMARK SMILES IDX 13 15 23 16 14 17 17 18 15 19 16 20 18 22 19 23 22 24 20 25
REMARK SMILES IDX 21 26
REMARK H PARENT 6 11 13 21 22 27
ROOT
ATOM      1  C   UNL     1       2.662  -1.245  -1.168  1.00  0.00     0.046 C 
ATOM      2  C   UNL     1       2.632  -0.296   0.005  1.00  0.00    -0.029 A 
ATOM      3  C   UNL     1       3.715   0.583   0.250  1.00  0.00     0.063 A 
ATOM      4  C   UNL     1       3.660   1.497   1.318  1.00  0.00     0.016 A 
ATOM      5  C   UNL     1       2.551   1.542   2.157  1.00  0.00     0.002 A 
ATOM      6  C   UNL     1       1.496   0.660   1.948  1.00  0.00     0.009 A 
ATOM      7  C   UNL     1       1.531  -0.265   0.891  1.00  0.00    -0.012 A 
ENDROOT
BRANCH   3   8
ATOM      8  C   UNL     1       4.951   0.542  -0.581  1.00  0.00     0.335 C 
ATOM      9  O   UNL     1       5.398  -0.411  -1.189  1.00  0.00    -0.246 OA
BRANCH   8  10
ATOM     10  O   UNL     1       5.575   1.735  -0.618  1.00  0.00    -0.478 OA
ATOM     11  H   UNL     1       6.344   1.577  -1.205  1.00  0.00     0.297 HD
ENDBRANCH   8  10
ENDBRANCH   3   8
BRANCH   7  12
ATOM     12  C   UNL     1       0.400  -1.170   0.764  1.00  0.00     0.007 A 
ATOM     13  C   UNL     1       0.487  -2.521   1.035  1.00  0.00     0.092 A 
ATOM     14  C   UNL     1      -0.957  -0.890   0.417  1.00  0.00     0.008 A 
ATOM     15  N   UNL     1      -0.752  -3.070   0.842  1.00  0.00    -0.361 N 
ATOM     16  C   UNL     1      -1.662   0.279   0.059  1.00  0.00     0.023 A 
ATOM     17  C   UNL     1      -1.652  -2.097   0.468  1.00  0.00     0.046 A 
ATOM     18  C   UNL     1      -3.035   0.221  -0.240  1.00  0.00     0.020 A 
ATOM     19  C   UNL     1      -3.017  -2.193   0.181  1.00  0.00     0.027 A 
ATOM     20  C   UNL     1      -3.693  -1.016  -0.172  1.00  0.00     0.014 A 
ATOM     21  H   UNL     1      -0.980  -4.046   0.966  1.00  0.00     0.166 HD
BRANCH  18  22
ATOM     22  C   UNL     1      -3.731   1.456  -0.608  1.00  0.00     0.161 A 
ATOM     23  N   UNL     1      -3.283   2.692  -0.466  1.00  0.00    -0.131 NA
ATOM     24  N   UNL     1      -4.973   1.529  -1.187  1.00  0.00    -0.328 N 
ATOM     25  N   UNL     1      -4.235   3.564  -0.940  1.00  0.00    -0.139 NA
ATOM     26  C   UNL     1      -5.242   2.849  -1.373  1.00  0.00     0.223 A 
ATOM     27  H   UNL     1      -5.562   0.754  -1.446  1.00  0.00     0.169 HD
ENDBRANCH  18  22
ENDBRANCH   7  12
TORSDOF 4
