MODEL        6USER    Run = 6USERUSER    Estimated Free Energy of Binding    =  -7.21 kcal/mol  [=(1)+(2)+(3)-(4)]USERUSER    (1) Final Intermolecular Energy     = -11.39 kcal/molUSER        vdW + Hbond + desolv Energy     = -11.74 kcal/molUSER        Electrostatic Energy            =  -0.13 kcal/molUSER        Moving Ligand-Fixed Receptor    = -11.87 kcal/molUSER        Moving Ligand-Moving Receptor   =  +0.48 kcal/molUSER    (2) Final Total Internal Energy     =  -3.38 kcal/molUSER    (3) Torsional Free Energy           =  +4.18 kcal/molUSER    (4) Unbound System's Energy         =  -3.38 kcal/molUSERUSERREMARK SMILES COc1ccc(O)c(C(=O)c2ccc(C(=O)N[C@@H]3CCCNC[C@H]3NC(=O)c3ccncc3)cc2)c1FREMARK SMILES IDX 15 1 16 2 17 3 14 5 11 6 12 7 35 8 13 9 34 10 9 11 10 12REMARK SMILES IDX 8 13 3 14 4 15 36 16 5 17 6 18 37 19 2 20 1 21 7 22 18 24REMARK SMILES IDX 19 25 24 27 23 28 22 29 21 31 20 32 25 34 26 35 27 37 28 38REMARK SMILES IDX 29 39 33 40 30 41 32 42 31 43REMARK H PARENT 17 4 7 23 22 30 25 36REMARK Flexibility Score:   88.900USER                              x       y       z     vdW  Elec       q    TypeUSER                           _______ _______ _______ _____ _____    ______ ____ROOTATOM      1  C   UNL     1      38.101  45.180  17.992 -0.27 -0.05    +0.251 C  ATOM      2  O   UNL     1      37.774  45.864  17.028 -0.25 +0.09    -0.269 OA ATOM      3  N   UNL     1      37.329  44.148  18.485 -0.11 +0.06    -0.347 N  ATOM      4  H   UNL     1      37.564  43.773  19.394 +0.11 -0.01    +0.164 HD ENDROOTBRANCH   1   5ATOM      5  C   UNL     1      39.350  45.488  18.743 -0.40 -0.00    +0.039 A  ATOM      6  C   UNL     1      41.718  46.180  20.074 -0.39 +0.00    +0.023 A  ATOM      7  C   UNL     1      41.609  46.373  18.693 -0.50 +0.00    +0.013 A  ATOM      8  C   UNL     1      40.644  45.639  20.790 -0.33 +0.00    +0.013 A  ATOM      9  C   UNL     1      40.433  46.017  18.028 -0.47 -0.00    +0.014 A  ATOM     10  C   UNL     1      39.464  45.282  20.123 -0.37 -0.00    +0.014 A  BRANCH   6  11ATOM     11  C   UNL     1      42.952  46.646  20.744 -0.30 +0.07    +0.199 C  ATOM     12  O   UNL     1      43.741  47.332  20.092 -0.38 -0.12    -0.288 OA BRANCH  11  13ATOM     13  C   UNL     1      43.276  46.381  22.165 -0.23 +0.03    +0.104 A  ATOM     14  C   UNL     1      43.758  44.859  24.011 -0.04 +0.02    +0.155 A  ATOM     15  C   UNL     1      43.902  45.948  24.874 -0.04 +0.01    +0.053 A  ATOM     16  C   UNL     1      43.448  45.087  22.660 -0.12 +0.05    +0.179 A  ATOM     17  C   UNL     1      43.759  47.250  24.385 -0.13 +0.01    +0.051 A  ATOM     18  C   UNL     1      43.464  47.461  23.041 -0.23 +0.03    +0.130 A  ATOM     19  F   UNL     1      43.350  44.031  21.836 -0.07 -0.06    -0.202 F  BRANCH  14  20ATOM     20  O   UNL     1      43.890  43.543  24.369 +0.00 -0.02    -0.494 OA ATOM     21  C   UNL     1      45.000  42.831  23.830 -0.11 +0.01    +0.278 C  ENDBRANCH  14  20BRANCH  18  22ATOM     22  O   UNL     1      43.373  48.770  22.645 -0.57 -0.12    -0.507 OA ATOM     23  H   UNL     1      43.682  48.816  21.709 -0.43 -0.06    +0.293 HD ENDBRANCH  18  22ENDBRANCH  11  13ENDBRANCH   6  11ENDBRANCH   1   5BRANCH   3  24ATOM     24  C   UNL     1      35.958  43.936  18.004 -0.31 -0.03    +0.106 C  BRANCH  24  25ATOM     25  C   UNL     1      35.143  43.195  19.072 -0.43 -0.00    +0.028 CG0ATOM     26  G   UNL     1      33.630  43.471  19.066 +0.00 +0.00    +0.000 G0 ENDBRANCH  24  25BRANCH  24  27ATOM     27  C   UNL     1      35.973  43.230  16.618 -0.38 -0.04    +0.118 C  BRANCH  27  28ATOM     28  C   UNL     1      34.651  42.524  16.232 -0.35 -0.05    +0.108 C  BRANCH  28  29ATOM     29  N   UNL     1      33.402  43.220  16.555 -0.14 +0.14    -0.315 NA ATOM     30  H   UNL     1      33.522  44.223  16.434 +0.09 -0.06    +0.122 HD BRANCH  29  31ATOM     31  C   UNL     1      32.834  42.948  17.871 -0.33 -0.02    +0.081 C  BRANCH  31  32ATOM     32  C   UNL     1      33.629  43.477  19.062 -0.44 -0.00    +0.017 CG0ATOM     33  G   UNL     1      35.140  43.196  19.070 +0.00 +0.00    +0.000 G0 ENDBRANCH  31  32ENDBRANCH  29  31ENDBRANCH  28  29ENDBRANCH  27  28BRANCH  27  34ATOM     34  N   UNL     1      36.390  44.175  15.574 -0.16 +0.13    -0.346 N  ATOM     35  C   UNL     1      35.519  45.103  15.053 -0.22 -0.14    +0.251 C  ATOM     36  H   UNL     1      37.381  44.314  15.451 +0.10 -0.05    +0.164 HD ATOM     37  O   UNL     1      34.331  45.157  15.342 -0.23 +0.20    -0.269 OA BRANCH  35  38ATOM     38  C   UNL     1      36.098  46.095  14.114 -0.41 -0.02    +0.042 A  ATOM     39  C   UNL     1      36.594  47.290  14.636 -0.41 -0.03    +0.034 A  ATOM     40  C   UNL     1      36.133  45.876  12.736 -0.52 -0.02    +0.034 A  ATOM     41  C   UNL     1      37.128  48.211  13.756 -0.47 -0.06    +0.112 A  ATOM     42  C   UNL     1      36.687  46.862  11.939 -0.59 -0.04    +0.112 A  ATOM     43  N   UNL     1      37.190  48.021  12.421 -0.91 +0.04    -0.265 NA ENDBRANCH  35  38ENDBRANCH  27  34ENDBRANCH  24  27ENDBRANCH   3  24TORSDOF 8TERENDMDL