MODEL        2USER    Run = 2USERUSER    Estimated Free Energy of Binding    =  -6.33 kcal/mol  [=(1)+(2)+(3)-(4)]USERUSER    (1) Final Intermolecular Energy     = -10.80 kcal/molUSER        vdW + Hbond + desolv Energy     = -11.07 kcal/molUSER        Electrostatic Energy            =  -0.02 kcal/molUSER        Moving Ligand-Fixed Receptor    = -11.10 kcal/molUSER        Moving Ligand-Moving Receptor   =  +0.29 kcal/molUSER    (2) Final Total Internal Energy     =  -3.40 kcal/molUSER    (3) Torsional Free Energy           =  +4.47 kcal/molUSER    (4) Unbound System's Energy         =  -3.40 kcal/molUSERUSERREMARK SMILES COc1ccc(O)c(C(=O)c2ccc(CO[C@@H]3CCCNC[C@@H]3NC(=O)c3ccncc3)cc2)c1FREMARK SMILES IDX 16 1 15 2 14 3 11 4 12 5 34 6 13 7 33 8 9 9 10 10 8 11 3 12REMARK SMILES IDX 4 13 35 14 5 15 6 16 36 17 2 18 1 19 7 20 17 22 18 23 23 25REMARK SMILES IDX 22 26 21 27 20 29 19 30 24 32 25 33 26 35 27 36 28 37 32 38REMARK SMILES IDX 29 39 31 40 30 41REMARK H PARENT 7 21 21 28 24 34REMARK Flexibility Score:   99.900USER                              x       y       z     vdW  Elec       q    TypeUSER                           _______ _______ _______ _____ _____    ______ ____ROOTATOM      1  O   UNL     1      41.672  45.591  19.986 -0.20 -0.05    -0.371 OA ENDROOTBRANCH   1   2ATOM      2  C   UNL     1      42.323  46.557  19.163 -0.39 +0.03    +0.196 C  BRANCH   2   3ATOM      3  C   UNL     1      41.403  46.899  18.020 -0.50 +0.00    -0.022 A  ATOM      4  C   UNL     1      39.672  47.560  15.907 -0.50 -0.01    +0.023 A  ATOM      5  C   UNL     1      40.462  48.550  16.500 -0.49 -0.00    +0.012 A  ATOM      6  C   UNL     1      39.771  46.236  16.348 -0.42 -0.00    +0.012 A  ATOM      7  C   UNL     1      41.316  48.219  17.554 -0.40 -0.00    +0.007 A  ATOM      8  C   UNL     1      40.627  45.909  17.402 -0.46 -0.00    +0.007 A  BRANCH   4   9ATOM      9  C   UNL     1      38.776  47.857  14.764 -0.42 -0.08    +0.199 C  ATOM     10  O   UNL     1      39.154  48.650  13.898 -0.37 +0.10    -0.288 OA BRANCH   9  11ATOM     11  C   UNL     1      37.415  47.295  14.633 -0.38 -0.06    +0.104 A  ATOM     12  C   UNL     1      35.399  46.320  15.597 -0.18 -0.16    +0.155 A  ATOM     13  C   UNL     1      34.825  46.253  14.325 -0.33 -0.05    +0.053 A  ATOM     14  C   UNL     1      36.696  46.835  15.737 -0.26 -0.14    +0.179 A  ATOM     15  C   UNL     1      35.549  46.680  13.209 -0.50 -0.03    +0.051 A  ATOM     16  C   UNL     1      36.839  47.183  13.362 -0.47 -0.06    +0.130 A  ATOM     17  F   UNL     1      37.250  46.861  16.960 -0.08 +0.12    -0.202 F  BRANCH  12  18ATOM     18  O   UNL     1      34.796  45.919  16.759 -0.07 +0.46    -0.494 OA ATOM     19  C   UNL     1      33.415  45.586  16.697 -0.08 -0.25    +0.278 C  ENDBRANCH  12  18BRANCH  16  20ATOM     20  O   UNL     1      37.489  47.550  12.214 -0.83 +0.06    -0.507 OA ATOM     21  H   UNL     1      38.381  47.883  12.466 +0.25 +0.05    +0.293 HD ENDBRANCH  16  20ENDBRANCH   9  11ENDBRANCH   4   9ENDBRANCH   2   3ENDBRANCH   1   2BRANCH   1  22ATOM     22  C   UNL     1      41.059  46.159  21.164 -0.22 +0.01    +0.142 C  BRANCH  22  23ATOM     23  C   UNL     1      42.198  46.911  21.869 -0.31 +0.01    +0.035 CG0ATOM     24  G   UNL     1      43.181  46.131  22.735 +0.00 +0.00    +0.000 G0 ENDBRANCH  22  23BRANCH  22  25ATOM     25  C   UNL     1      40.381  45.034  21.981 -0.24 +0.01    +0.125 C  BRANCH  25  26ATOM     26  C   UNL     1      41.436  44.063  22.570 -0.23 +0.01    +0.108 C  BRANCH  26  27ATOM     27  N   UNL     1      42.670  43.892  21.808 -0.16 -0.05    -0.315 NA ATOM     28  H   UNL     1      42.444  43.937  20.813 +0.05 +0.03    +0.122 HD BRANCH  27  29ATOM     29  C   UNL     1      43.723  44.842  22.139 -0.17 +0.03    +0.081 C  BRANCH  29  30ATOM     30  C   UNL     1      43.182  46.133  22.734 -0.24 +0.00    +0.018 CG0ATOM     31  G   UNL     1      42.195  46.909  21.870 +0.00 +0.00    +0.000 G0 ENDBRANCH  29  30ENDBRANCH  27  29ENDBRANCH  26  27ENDBRANCH  25  26BRANCH  25  32ATOM     32  N   UNL     1      39.324  44.374  21.202 -0.11 -0.01    -0.345 N  ATOM     33  C   UNL     1      38.003  44.428  21.598 -0.27 +0.01    +0.251 C  ATOM     34  H   UNL     1      39.484  44.363  20.202 +0.10 +0.00    +0.164 HD ATOM     35  O   UNL     1      37.629  44.920  22.654 -0.26 -0.03    -0.269 OA BRANCH  33  36ATOM     36  C   UNL     1      37.007  43.880  20.638 -0.38 -0.00    +0.042 A  ATOM     37  C   UNL     1      36.958  44.422  19.354 -0.34 -0.00    +0.034 A  ATOM     38  C   UNL     1      36.108  42.875  20.997 -0.42 +0.00    +0.034 A  ATOM     39  C   UNL     1      36.018  43.920  18.472 -0.26 -0.03    +0.112 A  ATOM     40  C   UNL     1      35.204  42.444  20.041 -0.36 -0.00    +0.112 A  ATOM     41  N   UNL     1      35.144  42.941  18.788 -0.18 +0.05    -0.265 NA ENDBRANCH  33  36ENDBRANCH  25  32ENDBRANCH  22  25ENDBRANCH   1  22TORSDOF 9TERENDMDL