MODEL        5USER    Run = 5USERUSER    Estimated Free Energy of Binding    = -13.00 kcal/mol  [=(1)+(2)+(3)-(4)]USERUSER    (1) Final Intermolecular Energy     = -14.79 kcal/molUSER        vdW + Hbond + desolv Energy     = -14.71 kcal/molUSER        Electrostatic Energy            =  -0.08 kcal/molUSER        Moving Ligand-Fixed Receptor    = -14.79 kcal/molUSER        Moving Ligand-Moving Receptor   =  +0.00 kcal/molUSER    (2) Final Total Internal Energy     =  -1.82 kcal/molUSER    (3) Torsional Free Energy           =  +1.79 kcal/molUSER    (4) Unbound System's Energy         =  -1.82 kcal/molUSERUSERREMARK SMILES Oc1nc2ccccc2n1C1CCN(Cc2ccc(-c3nc4ccccc4nc3-c3ccccc3)cc2)CC1REMARK SMILES IDX 11 1 12 2 13 3 14 4 38 5 39 6 10 7 2 8 3 9 4 10 9 11 5 12REMARK SMILES IDX 8 13 6 14 7 15 1 16 15 18 16 19 17 20 37 21 18 22 36 23REMARK SMILES IDX 19 24 20 25 21 26 29 27 22 28 28 29 23 30 27 31 24 32 26 33REMARK SMILES IDX 25 34 30 35 31 36 35 37 32 38 34 39 33 40REMARK H PARENT 1 17USER                              x       y       z     vdW  Elec       q    TypeUSER                           _______ _______ _______ _____ _____    ______ ____ROOTATOM      1  C   UNL     1      38.960  47.454  15.455 -0.48 -0.03    +0.095 C  ATOM      2  C   UNL     1      37.822  46.920  16.342 -0.42 -0.02    +0.041 C  ATOM      3  C   UNL     1      36.448  47.327  15.810 -0.30 -0.09    +0.087 C  ATOM      4  N   UNL     1      36.307  47.178  14.358 -0.22 +0.22    -0.299 NA ATOM      5  C   UNL     1      37.327  47.925  13.606 -0.56 -0.04    +0.087 C  ATOM      6  C   UNL     1      38.462  48.505  14.456 -0.55 -0.02    +0.041 C  ENDROOTBRANCH   1   7ATOM      7  N   UNL     1      40.107  47.904  16.229 -0.30 +0.07    -0.291 N  ATOM      8  C   UNL     1      40.814  49.058  16.038 -0.34 -0.06    +0.295 A  ATOM      9  N   UNL     1      41.792  49.213  16.886 -0.88 -0.04    -0.195 NA ATOM     10  C   UNL     1      41.722  48.103  17.692 -0.35 -0.00    +0.092 A  ATOM     11  C   UNL     1      40.673  47.262  17.312 -0.47 -0.01    +0.072 A  ATOM     12  C   UNL     1      42.528  47.748  18.785 -0.50 +0.00    +0.031 A  ATOM     13  C   UNL     1      40.386  46.067  17.986 -0.46 -0.00    +0.029 A  ATOM     14  C   UNL     1      42.257  46.557  19.469 -0.46 +0.00    +0.002 A  ATOM     15  C   UNL     1      41.203  45.733  19.073 -0.46 +0.00    +0.002 A  BRANCH   8  16ATOM     16  O   UNL     1      40.554  49.953  15.108 -0.21 +0.21    -0.480 OA ATOM     17  H   UNL     1      39.793  50.421  15.498 -0.21 -0.22    +0.296 HD ENDBRANCH   8  16ENDBRANCH   1   7BRANCH   4  18ATOM     18  C   UNL     1      36.214  45.780  13.904 -0.42 -0.06    +0.120 C  BRANCH  18  19ATOM     19  C   UNL     1      35.514  44.863  14.884 -0.23 +0.02    -0.034 A  ATOM     20  C   UNL     1      34.220  45.150  15.333 -0.30 -0.00    +0.006 A  ATOM     21  C   UNL     1      36.157  43.718  15.370 -0.38 -0.00    +0.006 A  ATOM     22  C   UNL     1      33.577  44.296  16.235 -0.32 -0.01    +0.011 A  ATOM     23  C   UNL     1      35.512  42.866  16.270 -0.45 -0.00    +0.011 A  ATOM     24  C   UNL     1      34.204  43.131  16.707 -0.38 -0.00    +0.002 A  BRANCH  24  25ATOM     25  C   UNL     1      33.503  42.235  17.642 -0.32 -0.03    +0.097 A  ATOM     26  N   UNL     1      32.411  41.620  17.100 -0.04 +0.11    -0.244 NA ATOM     27  C   UNL     1      33.870  42.016  18.979 -0.31 -0.01    +0.097 A  ATOM     28  C   UNL     1      31.683  40.827  17.905 -0.32 -0.02    +0.089 A  ATOM     29  N   UNL     1      33.119  41.219  19.792 -0.08 -0.06    -0.244 NA ATOM     30  C   UNL     1      30.556  40.189  17.400 -0.34 -0.00    +0.030 A  ATOM     31  C   UNL     1      32.036  40.628  19.257 -0.30 +0.01    +0.089 A  ATOM     32  C   UNL     1      29.770  39.360  18.201 -0.34 +0.00    +0.002 A  ATOM     33  C   UNL     1      31.248  39.801  20.047 -0.29 +0.00    +0.030 A  ATOM     34  C   UNL     1      30.118  39.165  19.531 -0.32 +0.00    +0.002 A  BRANCH  27  35ATOM     35  C   UNL     1      35.067  42.576  19.635 -0.44 -0.00    +0.002 A  ATOM     36  C   UNL     1      35.483  43.889  19.351 -0.38 -0.00    +0.010 A  ATOM     37  C   UNL     1      35.810  41.844  20.578 -0.42 -0.00    +0.010 A  ATOM     38  C   UNL     1      36.612  44.441  19.964 -0.32 -0.00    +0.001 A  ATOM     39  C   UNL     1      36.942  42.393  21.190 -0.46 +0.00    +0.001 A  ATOM     40  C   UNL     1      37.344  43.690  20.880 -0.39 +0.00    +0.000 A  ENDBRANCH  27  35ENDBRANCH  24  25ENDBRANCH  18  19ENDBRANCH   4  18TORSDOF 6TERENDMDL