MODEL        2USER    Run = 2USERUSER    Estimated Free Energy of Binding    = -12.50 kcal/mol  [=(1)+(2)+(3)-(4)]USERUSER    (1) Final Intermolecular Energy     = -14.29 kcal/molUSER        vdW + Hbond + desolv Energy     = -14.19 kcal/molUSER        Electrostatic Energy            =  -0.10 kcal/molUSER        Moving Ligand-Fixed Receptor    = -14.29 kcal/molUSER        Moving Ligand-Moving Receptor   =  +0.00 kcal/molUSER    (2) Final Total Internal Energy     =  -1.97 kcal/molUSER    (3) Torsional Free Energy           =  +1.79 kcal/molUSER    (4) Unbound System's Energy         =  -1.97 kcal/molUSERUSERREMARK SMILES Oc1nc2ccccc2n1C1CCN(Cc2ccc(-c3cc4ccccc4nc3-c3ccccc3)cc2)CC1REMARK SMILES IDX 11 1 12 2 13 3 14 4 38 5 39 6 10 7 2 8 3 9 4 10 9 11 5 12REMARK SMILES IDX 8 13 6 14 7 15 1 16 15 18 16 19 17 20 37 21 18 22 36 23REMARK SMILES IDX 19 24 20 25 21 26 29 27 22 28 28 29 23 30 27 31 24 32 26 33REMARK SMILES IDX 25 34 30 35 31 36 35 37 32 38 34 39 33 40REMARK H PARENT 1 17USER                              x       y       z     vdW  Elec       q    TypeUSER                           _______ _______ _______ _____ _____    ______ ____ROOTATOM      1  C   UNL     1      39.225  46.517  15.646 -0.43 -0.02    +0.095 C  ATOM      2  C   UNL     1      39.316  46.867  14.153 -0.37 -0.01    +0.041 C  ATOM      3  C   UNL     1      38.253  47.847  13.665 -0.47 -0.03    +0.087 C  ATOM      4  N   UNL     1      36.898  47.541  14.127 -0.26 +0.18    -0.299 NA ATOM      5  C   UNL     1      36.845  47.514  15.592 -0.39 -0.08    +0.087 C  ATOM      6  C   UNL     1      37.808  46.523  16.240 -0.42 -0.02    +0.041 C  ENDROOTBRANCH   1   7ATOM      7  N   UNL     1      40.231  47.175  16.477 -0.28 +0.05    -0.291 N  ATOM      8  C   UNL     1      40.753  48.414  16.192 -0.32 -0.05    +0.295 A  ATOM      9  N   UNL     1      41.657  48.811  17.042 -0.84 -0.02    -0.195 NA ATOM     10  C   UNL     1      41.739  47.786  17.946 -0.43 -0.00    +0.092 A  ATOM     11  C   UNL     1      40.853  46.745  17.632 -0.46 -0.01    +0.072 A  ATOM     12  C   UNL     1      42.567  47.687  19.077 -0.47 +0.00    +0.031 A  ATOM     13  C   UNL     1      40.767  45.603  18.437 -0.45 -0.00    +0.029 A  ATOM     14  C   UNL     1      42.488  46.546  19.879 -0.41 +0.00    +0.002 A  ATOM     15  C   UNL     1      41.599  45.523  19.561 -0.39 +0.00    +0.002 A  BRANCH   8  16ATOM     16  O   UNL     1      40.402  49.165  15.169 -0.25 +0.16    -0.480 OA ATOM     17  H   UNL     1      39.780  49.783  15.595 +0.04 -0.17    +0.296 HD ENDBRANCH   8  16ENDBRANCH   1   7BRANCH   4  18ATOM     18  C   UNL     1      36.350  46.333  13.488 -0.49 -0.06    +0.120 C  BRANCH  18  19ATOM     19  C   UNL     1      35.657  45.405  14.462 -0.32 +0.02    -0.034 A  ATOM     20  C   UNL     1      36.262  44.211  14.873 -0.30 -0.00    +0.006 A  ATOM     21  C   UNL     1      34.391  45.730  14.969 -0.30 -0.01    +0.006 A  ATOM     22  C   UNL     1      35.612  43.359  15.771 -0.39 -0.00    +0.009 A  ATOM     23  C   UNL     1      33.740  44.873  15.859 -0.32 -0.01    +0.009 A  ATOM     24  C   UNL     1      34.338  43.673  16.270 -0.34 +0.01    -0.016 A  BRANCH  24  25ATOM     25  C   UNL     1      33.656  42.777  17.215 -0.36 -0.00    +0.009 A  ATOM     26  C   UNL     1      32.457  42.160  16.828 -0.13 -0.01    +0.021 A  ATOM     27  C   UNL     1      34.150  42.462  18.491 -0.34 -0.02    +0.079 A  ATOM     28  C   UNL     1      31.800  41.264  17.680 -0.35 -0.00    +0.001 A  ATOM     29  N   UNL     1      33.528  41.581  19.326 -0.24 -0.01    -0.247 NA ATOM     30  C   UNL     1      30.600  40.633  17.311 -0.35 -0.00    +0.010 A  ATOM     31  C   UNL     1      32.383  41.001  18.932 -0.33 +0.00    +0.071 A  ATOM     32  C   UNL     1      29.975  39.741  18.181 -0.33 +0.00    +0.001 A  ATOM     33  C   UNL     1      31.742  40.108  19.781 -0.26 +0.01    +0.029 A  ATOM     34  C   UNL     1      30.548  39.477  19.420 -0.33 +0.00    +0.002 A  BRANCH  27  35ATOM     35  C   UNL     1      35.379  43.042  19.066 -0.40 -0.00    +0.001 A  ATOM     36  C   UNL     1      35.861  44.282  18.610 -0.34 -0.00    +0.010 A  ATOM     37  C   UNL     1      36.115  42.377  20.061 -0.43 -0.00    +0.010 A  ATOM     38  C   UNL     1      37.022  44.846  19.147 -0.26 -0.00    +0.001 A  ATOM     39  C   UNL     1      37.277  42.939  20.598 -0.32 -0.00    +0.001 A  ATOM     40  C   UNL     1      37.728  44.177  20.143 -0.37 -0.00    +0.000 A  ENDBRANCH  27  35ENDBRANCH  24  25ENDBRANCH  18  19ENDBRANCH   4  18TORSDOF 6TERENDMDL