MODEL        10USER    Run = 10USERUSER    Estimated Free Energy of Binding    =  -6.54 kcal/mol  [=(1)+(2)+(3)-(4)]USERUSER    (1) Final Intermolecular Energy     = -11.01 kcal/molUSER        vdW + Hbond + desolv Energy     = -11.94 kcal/molUSER        Electrostatic Energy            =  -0.13 kcal/molUSER        Moving Ligand-Fixed Receptor    = -12.07 kcal/molUSER        Moving Ligand-Moving Receptor   =  +1.06 kcal/molUSER    (2) Final Total Internal Energy     =  -1.92 kcal/molUSER    (3) Torsional Free Energy           =  +4.47 kcal/molUSER    (4) Unbound System's Energy         =  -1.92 kcal/molUSERUSERREMARK SMILES COc1ccc(O)c(C(=O)c2ccc(CN[C@@H]3CCCNC[C@H]3NC(=O)c3ccncc3)cc2)c1FREMARK SMILES IDX 16 1 15 3 14 4 11 5 12 6 34 7 13 8 33 9 9 10 10 11 8 12 3 13REMARK SMILES IDX 4 14 35 15 5 16 6 17 36 18 2 19 1 20 7 21 17 23 18 24 23 26REMARK SMILES IDX 22 27 21 28 20 30 19 31 24 33 25 34 26 36 27 37 28 38 32 39REMARK SMILES IDX 29 40 31 41 30 42REMARK H PARENT 16 2 7 22 21 29 24 35REMARK Flexibility Score:   99.900USER                              x       y       z     vdW  Elec       q    TypeUSER                           _______ _______ _______ _____ _____    ______ ____ROOTATOM      1  N   UNL     1      38.167  44.924  23.874 -0.17 -0.03    -0.308 NA ATOM      2  H   UNL     1      37.570  44.973  23.045 +0.05 +0.02    +0.123 HD ENDROOTBRANCH   1   3ATOM      3  C   UNL     1      39.516  44.535  23.459 -0.19 +0.01    +0.117 C  BRANCH   3   4ATOM      4  C   UNL     1      39.842  44.908  22.033 -0.26 -0.00    -0.034 A  ATOM      5  C   UNL     1      40.428  45.611  19.374 -0.42 +0.00    +0.023 A  ATOM      6  C   UNL     1      39.098  45.464  19.782 -0.37 -0.00    +0.012 A  ATOM      7  C   UNL     1      41.463  45.381  20.287 -0.36 +0.00    +0.012 A  ATOM      8  C   UNL     1      38.810  45.123  21.106 -0.35 +0.00    +0.006 A  ATOM      9  C   UNL     1      41.171  45.038  21.610 -0.28 +0.00    +0.006 A  BRANCH   5  10ATOM     10  C   UNL     1      40.786  45.930  17.971 -0.40 -0.01    +0.199 C  ATOM     11  O   UNL     1      41.817  45.453  17.493 -0.20 -0.01    -0.288 OA BRANCH  10  12ATOM     12  C   UNL     1      39.935  46.751  17.083 -0.41 -0.02    +0.104 A  ATOM     13  C   UNL     1      37.837  47.167  15.912 -0.30 -0.08    +0.155 A  ATOM     14  C   UNL     1      38.370  48.343  15.382 -0.47 -0.03    +0.053 A  ATOM     15  C   UNL     1      38.627  46.383  16.766 -0.29 -0.06    +0.179 A  ATOM     16  C   UNL     1      39.667  48.741  15.720 -0.51 -0.02    +0.051 A  ATOM     17  C   UNL     1      40.435  47.957  16.577 -0.43 -0.03    +0.130 A  ATOM     18  F   UNL     1      38.090  45.274  17.302 -0.08 +0.05    -0.202 F  BRANCH  13  19ATOM     19  O   UNL     1      36.576  46.689  15.671 -0.09 +0.37    -0.494 OA ATOM     20  C   UNL     1      36.135  46.665  14.320 -0.29 -0.19    +0.278 C  ENDBRANCH  13  19BRANCH  17  21ATOM     21  O   UNL     1      41.681  48.436  16.886 -0.60 -0.02    -0.507 OA ATOM     22  H   UNL     1      42.245  47.666  17.130 -0.35 -0.05    +0.293 HD ENDBRANCH  17  21ENDBRANCH  10  12ENDBRANCH   5  10ENDBRANCH   3   4ENDBRANCH   1   3BRANCH   1  23ATOM     23  C   UNL     1      38.109  46.240  24.568 -0.27 +0.01    +0.077 C  BRANCH  23  24ATOM     24  C   UNL     1      39.189  47.132  23.941 -0.38 +0.00    +0.022 CG0ATOM     25  G   UNL     1      38.990  48.634  24.138 +0.00 +0.00    +0.000 G0 ENDBRANCH  23  24BRANCH  23  26ATOM     26  C   UNL     1      38.285  46.037  26.105 -0.25 -0.00    +0.113 C  BRANCH  26  27ATOM     27  C   UNL     1      39.159  47.148  26.737 -0.21 +0.00    +0.107 C  BRANCH  27  28ATOM     28  N   UNL     1      38.711  48.534  26.644 -0.11 -0.02    -0.315 NA ATOM     29  H   UNL     1      39.485  49.152  26.899 +0.04 +0.02    +0.122 HD BRANCH  28  30ATOM     30  C   UNL     1      38.165  48.982  25.372 -0.33 +0.01    +0.081 C  BRANCH  30  31ATOM     31  C   UNL     1      38.993  48.636  24.137 -0.37 +0.00    +0.017 CG0ATOM     32  G   UNL     1      39.171  47.131  23.943 +0.00 +0.00    +0.000 G0 ENDBRANCH  30  31ENDBRANCH  28  30ENDBRANCH  27  28ENDBRANCH  26  27BRANCH  26  33ATOM     33  N   UNL     1      36.960  46.022  26.756 -0.16 +0.06    -0.346 N  ATOM     34  C   UNL     1      36.683  45.174  27.806 -0.30 -0.05    +0.251 C  ATOM     35  H   UNL     1      36.289  46.718  26.463 -0.38 -0.05    +0.164 HD ATOM     36  O   UNL     1      37.466  44.322  28.206 -0.28 +0.05    -0.269 OA BRANCH  34  37ATOM     37  C   UNL     1      35.346  45.310  28.442 -0.33 -0.01    +0.042 A  ATOM     38  C   UNL     1      34.933  46.584  28.834 -0.34 -0.01    +0.034 A  ATOM     39  C   UNL     1      34.494  44.221  28.624 -0.60 -0.01    +0.034 A  ATOM     40  C   UNL     1      33.691  46.712  29.424 -0.21 -0.01    +0.112 A  ATOM     41  C   UNL     1      33.268  44.455  29.221 -0.06 -0.00    +0.112 A  ATOM     42  N   UNL     1      32.854  45.672  29.634 -0.63 -0.01    -0.265 NA ENDBRANCH  34  37ENDBRANCH  26  33ENDBRANCH  23  26ENDBRANCH   1  23TORSDOF 9TERENDMDL