MODEL        1USER    Run = 1USERUSER    Estimated Free Energy of Binding    = -12.87 kcal/mol  [=(1)+(2)+(3)-(4)]USERUSER    (1) Final Intermolecular Energy     = -15.26 kcal/molUSER        vdW + Hbond + desolv Energy     = -15.14 kcal/molUSER        Electrostatic Energy            =  -0.12 kcal/molUSER        Moving Ligand-Fixed Receptor    = -15.26 kcal/molUSER        Moving Ligand-Moving Receptor   =  +0.00 kcal/molUSER    (2) Final Total Internal Energy     =  -2.47 kcal/molUSER    (3) Torsional Free Energy           =  +2.39 kcal/molUSER    (4) Unbound System's Energy         =  -2.47 kcal/molUSERUSERREMARK SMILES N#Cc1cnc(-c2ccc(CNCc3ccc(-c4csnn4)cc3)cc2)c(-c2ccccc2)c1REMARK SMILES IDX 11 1 10 2 7 3 8 4 26 5 9 6 25 7 6 8 3 9 4 10 34 11 5 12REMARK SMILES IDX 27 13 2 14 1 15 28 16 29 17 33 18 30 19 32 20 31 21 12 22REMARK SMILES IDX 13 24 14 25 15 26 24 27 16 28 23 29 17 30 18 31 19 32 22 33REMARK SMILES IDX 20 34 21 35REMARK H PARENT 12 23USER                              x       y       z     vdW  Elec       q    TypeUSER                           _______ _______ _______ _____ _____    ______ ____ROOTATOM      1  C   UNL     1      36.390  43.219  20.252 -0.40 -0.00    +0.117 C  ENDROOTBRANCH   1   2ATOM      2  C   UNL     1      35.499  43.755  19.156 -0.36 +0.01    -0.034 A  ATOM      3  C   UNL     1      33.850  44.746  17.067 -0.32 -0.00    +0.001 A  ATOM      4  C   UNL     1      34.401  45.607  18.033 -0.43 -0.01    +0.011 A  ATOM      5  C   UNL     1      34.130  43.374  17.182 -0.33 -0.00    +0.011 A  ATOM      6  C   UNL     1      35.219  45.122  19.059 -0.33 -0.00    +0.006 A  ATOM      7  C   UNL     1      34.950  42.886  18.205 -0.37 -0.00    +0.006 A  BRANCH   3   8ATOM      8  C   UNL     1      32.991  45.284  15.993 -0.26 -0.06    +0.078 A  ATOM      9  C   UNL     1      31.148  46.187  14.137 -0.51 -0.05    +0.071 A  ATOM     10  C   UNL     1      30.777  45.678  15.366 -0.36 -0.06    +0.131 A  ATOM     11  C   UNL     1      32.509  46.251  13.842 -0.17 -0.03    +0.032 A  ATOM     12  N   UNL     1      31.659  45.236  16.291 -0.65 +0.10    -0.254 NA ATOM     13  C   UNL     1      33.470  45.802  14.771 -0.14 -0.01    +0.009 A  BRANCH   9  14ATOM     14  C   UNL     1      30.163  46.639  13.209 -0.56 -0.05    +0.101 C  ATOM     15  N   UNL     1      29.362  47.008  12.455 -0.70 +0.09    -0.192 NA ENDBRANCH   9  14BRANCH  13  16ATOM     16  C   UNL     1      34.897  45.933  14.432 -0.34 +0.01    -0.016 A  ATOM     17  C   UNL     1      35.840  45.013  14.925 -0.35 -0.00    +0.009 A  ATOM     18  C   UNL     1      35.354  46.964  13.596 -0.43 -0.01    +0.009 A  ATOM     19  C   UNL     1      37.194  45.129  14.603 -0.39 -0.00    +0.001 A  ATOM     20  C   UNL     1      36.708  47.082  13.274 -0.59 -0.00    +0.001 A  ATOM     21  C   UNL     1      37.628  46.165  13.778 -0.45 -0.00    +0.000 A  ENDBRANCH  13  16ENDBRANCH   3   8ENDBRANCH   1   2BRANCH   1  22ATOM     22  N   UNL     1      37.200  44.294  20.825 -0.20 -0.00    -0.309 NA ATOM     23  H   UNL     1      37.070  44.286  21.835 +0.06 +0.01    +0.123 HD BRANCH  22  24ATOM     24  C   UNL     1      38.623  44.130  20.528 -0.28 -0.00    +0.117 C  BRANCH  24  25ATOM     25  C   UNL     1      39.135  45.100  19.488 -0.37 +0.00    -0.034 A  ATOM     26  C   UNL     1      40.423  45.641  19.585 -0.42 +0.00    +0.006 A  ATOM     27  C   UNL     1      38.322  45.490  18.418 -0.38 -0.00    +0.006 A  ATOM     28  C   UNL     1      40.891  46.546  18.625 -0.48 -0.00    +0.011 A  ATOM     29  C   UNL     1      38.788  46.395  17.460 -0.39 -0.00    +0.011 A  ATOM     30  C   UNL     1      40.081  46.930  17.546 -0.48 -0.00    +0.003 A  BRANCH  30  31ATOM     31  C   UNL     1      40.539  47.871  16.528 -0.46 -0.02    +0.105 A  ATOM     32  C   UNL     1      40.141  47.851  15.201 -0.44 -0.03    +0.118 A  ATOM     33  N   UNL     1      41.422  48.901  16.846 -1.02 -0.00    -0.138 NA ATOM     34  S   UNL     1      40.932  49.151  14.406 -0.79 +0.00    -0.020 S  ATOM     35  N   UNL     1      41.714  49.649  15.796 -1.05 -0.00    -0.091 NA ENDBRANCH  30  31ENDBRANCH  24  25ENDBRANCH  22  24ENDBRANCH   1  22TORSDOF 8TERENDMDL