REMARK SMILES O[C@H]1CC=C(c2cnc3[nH]occ(-c4ccc5[nH]ncc5c4Cl)ncc3c2)CC1
REMARK SMILES IDX 6 1 7 2 8 3 9 4 10 5 11 6 12 7 13 8 24 9 25 10 26 11 27 12
REMARK SMILES IDX 5 14 2 15 3 16 29 17 4 18 28 19 1 20 14 22 15 23 22 24 16 25
REMARK SMILES IDX 21 26 17 27 20 28 18 29 19 30 23 31
REMARK H PARENT 10 13 1 21 18 32
ROOT
ATOM      1  C   UNL     1      -2.551  -0.977   0.469  1.00  0.00    -0.004 A 
ATOM      2  C   UNL     1      -2.393  -1.855   1.540  1.00  0.00     0.122 A 
ATOM      3  N   UNL     1      -1.257  -2.531   1.838  1.00  0.00    -0.235 NA
ATOM      4  C   UNL     1      -0.188  -2.310   1.027  1.00  0.00     0.168 A 
ATOM      5  N   UNL     1       1.042  -2.864   1.441  1.00  0.00    -0.204 N 
ATOM      6  O   UNL     1       1.829  -1.956   2.156  1.00  0.00    -0.386 OA
ATOM      7  C   UNL     1       2.735  -1.278   1.385  1.00  0.00     0.255 A 
ATOM      8  C   UNL     1       2.812  -0.917   0.082  1.00  0.00     0.109 A 
ATOM      9  N   UNL     1       2.139  -1.021  -1.083  1.00  0.00    -0.252 NA
ATOM     10  C   UNL     1       0.873  -1.440  -1.189  1.00  0.00     0.124 A 
ATOM     11  C   UNL     1      -0.249  -1.493  -0.096  1.00  0.00     0.039 A 
ATOM     12  C   UNL     1      -1.442  -0.813  -0.362  1.00  0.00     0.023 A 
ATOM     13  H   UNL     1       0.734  -3.551   2.121  1.00  0.00     0.211 HD
ENDROOT
BRANCH   1  14
ATOM     14  C   UNL     1      -3.818  -0.251   0.235  1.00  0.00    -0.043 C 
ATOM     15  C   UNL     1      -6.419   0.971  -0.070  1.00  0.00     0.118 C 
ATOM     16  C   UNL     1      -5.611   0.580  -1.314  1.00  0.00     0.059 C 
ATOM     17  C   UNL     1      -5.509   1.443   1.061  1.00  0.00     0.037 C 
ATOM     18  C   UNL     1      -4.333  -0.142  -1.004  1.00  0.00    -0.020 C 
ATOM     19  C   UNL     1      -4.496   0.363   1.438  1.00  0.00     0.038 C 
BRANCH  15  20
ATOM     20  O   UNL     1      -7.350   2.004  -0.395  1.00  0.00    -0.393 OA
ATOM     21  H   UNL     1      -6.834   2.783  -0.667  1.00  0.00     0.210 HD
ENDBRANCH  15  20
ENDBRANCH   1  14
BRANCH   8  22
ATOM     22  C   UNL     1       4.112  -0.211  -0.171  1.00  0.00     0.023 A 
ATOM     23  C   UNL     1       5.162  -0.955  -0.742  1.00  0.00     0.014 A 
ATOM     24  C   UNL     1       4.336   1.142   0.138  1.00  0.00     0.061 A 
ATOM     25  C   UNL     1       6.418  -0.396  -1.007  1.00  0.00     0.029 A 
ATOM     26  C   UNL     1       5.590   1.732  -0.115  1.00  0.00     0.039 A 
ATOM     27  C   UNL     1       6.595   0.950  -0.677  1.00  0.00     0.067 A 
ATOM     28  C   UNL     1       6.195   3.002   0.047  1.00  0.00     0.145 A 
ATOM     29  N   UNL     1       7.674   1.781  -0.808  1.00  0.00    -0.278 N 
ATOM     30  N   UNL     1       7.468   3.034  -0.364  1.00  0.00    -0.183 NA
ATOM     31  Cl  UNL     1       3.181   2.196   0.848  1.00  0.00    -0.083 Cl
ATOM     32  H   UNL     1       8.582   1.549  -1.190  1.00  0.00     0.190 HD
ENDBRANCH   8  22
TORSDOF 3
