MODEL        1USER    Run = 1USERUSER    Estimated Free Energy of Binding    =  -9.21 kcal/mol  [=(1)+(2)+(3)-(4)]USERUSER    (1) Final Intermolecular Energy     = -10.40 kcal/molUSER        vdW + Hbond + desolv Energy     = -10.36 kcal/molUSER        Electrostatic Energy            =  -0.04 kcal/molUSER        Moving Ligand-Fixed Receptor    = -10.40 kcal/molUSER        Moving Ligand-Moving Receptor   =  +0.00 kcal/molUSER    (2) Final Total Internal Energy     =  -1.50 kcal/molUSER    (3) Torsional Free Energy           =  +1.19 kcal/molUSER    (4) Unbound System's Energy         =  -1.50 kcal/molUSERUSERREMARK SMILES Nc1c(-c2co[nH]c3ncc(C4=CC[C@H](O)CC4)cc3cn2)ccc2[nH]ncc12REMARK SMILES IDX 4 1 5 2 6 3 7 4 8 5 9 6 10 7 11 8 19 9 20 10 21 11 22 12REMARK SMILES IDX 3 14 2 15 29 16 23 17 28 18 25 19 24 20 27 21 26 22 1 24REMARK SMILES IDX 12 27 13 28 18 29 14 30 17 31 15 32 16 33REMARK H PARENT 7 13 26 23 1 25 1 26 16 34USER                              x       y       z     vdW  Elec       q    TypeUSER                           _______ _______ _______ _____ _____    ______ ____ROOTATOM      1  C   UNL     1      38.302  43.955  23.145 -0.25 +0.01    +0.110 A  ATOM      2  C   UNL     1      39.531  44.475  23.368 -0.09 +0.01    +0.255 A  ATOM      3  O   UNL     1      40.593  44.793  22.568 -0.06 -0.02    -0.386 OA ATOM      4  N   UNL     1      40.741  43.922  21.485 -0.19 -0.01    -0.204 N  ATOM      5  C   UNL     1      40.204  44.451  20.295 -0.24 +0.01    +0.168 A  ATOM      6  N   UNL     1      41.086  45.057  19.455 -0.26 -0.02    -0.235 NA ATOM      7  C   UNL     1      40.559  45.732  18.404 -0.39 -0.00    +0.122 A  ATOM      8  C   UNL     1      39.200  45.833  18.112 -0.43 +0.00    -0.004 A  ATOM      9  C   UNL     1      38.335  45.164  18.977 -0.36 -0.00    +0.023 A  ATOM     10  C   UNL     1      38.831  44.451  20.075 -0.32 -0.00    +0.039 A  ATOM     11  C   UNL     1      37.817  43.536  20.846 -0.22 +0.00    +0.124 A  ATOM     12  N   UNL     1      37.526  43.475  22.150 -0.22 -0.02    -0.252 NA ATOM     13  H   UNL     1      41.733  43.906  21.273 +0.11 +0.02    +0.211 HD ENDROOTBRANCH   1  14ATOM     14  C   UNL     1      37.575  43.795  24.459 -0.30 +0.00    +0.027 A  ATOM     15  C   UNL     1      36.849  42.602  24.739 -0.36 +0.00    +0.052 A  ATOM     16  C   UNL     1      36.214  42.491  25.991 -0.40 -0.00    +0.043 A  ATOM     17  C   UNL     1      37.621  44.833  25.406 -0.30 +0.00    +0.015 A  ATOM     18  C   UNL     1      35.424  41.518  26.644 -0.45 -0.05    +0.145 A  ATOM     19  C   UNL     1      36.298  43.536  26.904 -0.38 -0.01    +0.067 A  ATOM     20  C   UNL     1      36.987  44.724  26.648 -0.34 -0.00    +0.029 A  ATOM     21  N   UNL     1      35.041  41.890  27.872 -0.45 +0.07    -0.183 NA ATOM     22  N   UNL     1      35.578  43.118  27.992 -0.27 +0.10    -0.278 N  ATOM     23  H   UNL     1      35.416  43.629  28.850 -0.39 -0.09    +0.190 HD BRANCH  15  24ATOM     24  N   UNL     1      36.761  41.580  23.741 -0.18 -0.00    -0.398 N  ATOM     25  H   UNL     1      36.171  42.033  23.019 +0.08 +0.01    +0.156 HD ATOM     26  H   UNL     1      37.657  41.606  23.246 +0.09 +0.02    +0.156 HD ENDBRANCH  15  24ENDBRANCH   1  14BRANCH   8  27ATOM     27  C   UNL     1      38.692  46.616  16.964 -0.44 +0.01    -0.043 C  ATOM     28  C   UNL     1      37.457  46.408  16.469 -0.43 +0.01    -0.020 C  ATOM     29  C   UNL     1      39.617  47.664  16.383 -0.53 -0.01    +0.038 C  ATOM     30  C   UNL     1      36.880  47.190  15.322 -0.43 -0.04    +0.059 C  ATOM     31  C   UNL     1      39.189  48.139  14.994 -0.58 -0.01    +0.037 C  ATOM     32  C   UNL     1      37.694  48.436  14.957 -0.51 -0.08    +0.118 C  BRANCH  32  33ATOM     33  O   UNL     1      37.321  48.875  13.652 -0.50 +0.19    -0.393 OA ATOM     34  H   UNL     1      37.663  49.779  13.546 -0.37 -0.12    +0.210 HD ENDBRANCH  32  33ENDBRANCH   8  27TORSDOF 4TERENDMDL