MODEL        4USER    Run = 4USERUSER    Estimated Free Energy of Binding    =  -9.63 kcal/mol  [=(1)+(2)+(3)-(4)]USERUSER    (1) Final Intermolecular Energy     = -10.83 kcal/molUSER        vdW + Hbond + desolv Energy     = -10.70 kcal/molUSER        Electrostatic Energy            =  -0.13 kcal/molUSER        Moving Ligand-Fixed Receptor    = -10.83 kcal/molUSER        Moving Ligand-Moving Receptor   =  +0.00 kcal/molUSER    (2) Final Total Internal Energy     =  -0.99 kcal/molUSER    (3) Torsional Free Energy           =  +1.19 kcal/molUSER    (4) Unbound System's Energy         =  -0.99 kcal/molUSERUSERREMARK SMILES Oc1c(-c2co[nH]c3ncc(C4=CC[C@@H](O)CC4)cc3cn2)ccc2[nH]ncc12REMARK SMILES IDX 4 1 5 2 6 3 7 4 8 5 9 6 10 7 11 8 19 9 20 10 21 11 22 12REMARK SMILES IDX 3 14 2 15 29 16 23 17 28 18 25 19 24 20 27 21 26 22 1 24REMARK SMILES IDX 12 26 13 27 18 28 14 29 17 30 15 31 16 32REMARK H PARENT 7 13 26 23 1 25 16 33USER                              x       y       z     vdW  Elec       q    TypeUSER                           _______ _______ _______ _____ _____    ______ ____ROOTATOM      1  C   UNL     1      39.087  46.701  16.698 -0.36 -0.03    +0.112 A  ATOM      2  C   UNL     1      40.170  47.501  16.832 -0.31 -0.05    +0.255 A  ATOM      3  O   UNL     1      41.193  47.575  17.736 -0.34 +0.04    -0.386 OA ATOM      4  N   UNL     1      41.608  46.320  18.188 -0.35 +0.00    -0.204 N  ATOM      5  C   UNL     1      41.082  46.009  19.457 -0.32 +0.01    +0.168 A  ATOM      6  N   UNL     1      41.899  46.238  20.520 -0.24 -0.04    -0.235 NA ATOM      7  C   UNL     1      41.346  46.122  21.751 -0.21 +0.01    +0.122 A  ATOM      8  C   UNL     1      40.022  45.777  22.006 -0.28 -0.00    -0.004 A  ATOM      9  C   UNL     1      39.231  45.503  20.888 -0.33 +0.00    +0.023 A  ATOM     10  C   UNL     1      39.759  45.607  19.595 -0.37 -0.00    +0.039 A  ATOM     11  C   UNL     1      38.878  45.053  18.422 -0.32 -0.01    +0.124 A  ATOM     12  N   UNL     1      38.510  45.622  17.269 -0.22 +0.06    -0.252 NA ATOM     13  H   UNL     1      42.599  46.404  18.385 -0.07 +0.02    +0.211 HD ENDROOTBRANCH   1  14ATOM     14  C   UNL     1      38.303  47.077  15.459 -0.40 -0.02    +0.046 A  ATOM     15  C   UNL     1      37.841  46.081  14.564 -0.31 -0.05    +0.136 A  ATOM     16  C   UNL     1      37.163  46.453  13.394 -0.46 -0.02    +0.062 A  ATOM     17  C   UNL     1      38.013  48.425  15.182 -0.52 -0.01    +0.016 A  ATOM     18  C   UNL     1      36.579  45.787  12.294 -0.49 -0.06    +0.147 A  ATOM     19  C   UNL     1      36.924  47.800  13.149 -0.56 -0.03    +0.069 A  ATOM     20  C   UNL     1      37.325  48.815  14.023 -0.48 -0.02    +0.029 A  ATOM     21  N   UNL     1      36.027  46.625  11.409 -0.41 +0.10    -0.183 NA ATOM     22  N   UNL     1      36.248  47.833  11.960 -0.41 +0.14    -0.278 N  ATOM     23  H   UNL     1      35.906  48.651  11.474 -0.34 -0.13    +0.190 HD BRANCH  15  24ATOM     24  O   UNL     1      38.033  44.747  14.858 -0.01 +0.14    -0.506 OA ATOM     25  H   UNL     1      37.992  44.740  15.851 +0.20 -0.08    +0.293 HD ENDBRANCH  15  24ENDBRANCH   1  14BRANCH   8  26ATOM     26  C   UNL     1      39.481  45.656  23.376 -0.28 -0.00    -0.043 C  ATOM     27  C   UNL     1      39.835  46.552  24.318 -0.25 -0.00    -0.020 C  ATOM     28  C   UNL     1      38.545  44.508  23.671 -0.29 +0.00    +0.038 C  ATOM     29  C   UNL     1      39.311  46.540  25.726 -0.21 +0.00    +0.059 C  ATOM     30  C   UNL     1      38.299  44.289  25.169 -0.25 +0.00    +0.037 C  ATOM     31  C   UNL     1      38.110  45.604  25.921 -0.25 -0.00    +0.118 C  BRANCH  31  32ATOM     32  O   UNL     1      36.904  46.238  25.490 -0.79 -0.02    -0.393 OA ATOM     33  H   UNL     1      36.175  45.871  26.024 -0.48 -0.06    +0.210 HD ENDBRANCH  31  32ENDBRANCH   8  26TORSDOF 4TERENDMDL