REMARK SMILES NCC[C@H]1C(=O)Nc2ccc3ncnc(-c4ccc(Cl)cc4)c3c21
REMARK SMILES IDX 3 1 2 2 1 3 4 6 5 7 24 8 7 9 23 10 8 11 15 12 11 13 9 14
REMARK SMILES IDX 14 15 10 16 12 17 13 18 6 19 16 21 17 22 22 23 18 24 21 25
REMARK SMILES IDX 19 26 20 27
REMARK H PARENT 1 4 1 5 7 20
ROOT
ATOM      1  C   UNL     1      -1.474  -1.232  -0.084  1.00  0.00     0.033 C 
ENDROOT
BRANCH   1   2
ATOM      2  C   UNL     1      -0.987  -2.684  -0.007  1.00  0.00     0.079 C 
BRANCH   2   3
ATOM      3  N   UNL     1      -0.791  -3.320  -1.297  1.00  0.00    -0.330 NA
ATOM      4  H   UNL     1      -0.775  -4.333  -1.196  1.00  0.00     0.118 HD
ATOM      5  H   UNL     1      -1.558  -3.100  -1.942  1.00  0.00     0.118 HD
ENDBRANCH   2   3
ENDBRANCH   1   2
BRANCH   1   6
ATOM      6  C   UNL     1      -0.768  -0.383  -1.152  1.00  0.00     0.113 C 
ATOM      7  C   UNL     1      -1.635  -0.421  -2.439  1.00  0.00     0.232 C 
ATOM      8  C   UNL     1      -0.748   1.106  -0.831  1.00  0.00    -0.000 A 
ATOM      9  N   UNL     1      -2.047   0.871  -2.702  1.00  0.00    -0.325 N 
ATOM     10  C   UNL     1      -0.094   1.853   0.190  1.00  0.00     0.033 A 
ATOM     11  C   UNL     1      -1.557   1.758  -1.766  1.00  0.00     0.046 A 
ATOM     12  C   UNL     1       0.836   1.430   1.172  1.00  0.00     0.082 A 
ATOM     13  C   UNL     1      -0.394   3.233   0.263  1.00  0.00     0.075 A 
ATOM     14  C   UNL     1      -1.813   3.105  -1.725  1.00  0.00     0.029 A 
ATOM     15  N   UNL     1       1.311   2.249   2.142  1.00  0.00    -0.236 NA
ATOM     16  C   UNL     1      -1.233   3.823  -0.684  1.00  0.00     0.031 A 
ATOM     17  N   UNL     1       0.089   4.048   1.201  1.00  0.00    -0.236 NA
ATOM     18  C   UNL     1       0.908   3.516   2.108  1.00  0.00     0.223 A 
ATOM     19  O   UNL     1      -1.964  -1.397  -3.095  1.00  0.00    -0.274 OA
ATOM     20  H   UNL     1      -2.650   1.098  -3.479  1.00  0.00     0.169 HD
BRANCH  12  21
ATOM     21  C   UNL     1       1.473   0.105   1.236  1.00  0.00     0.001 A 
ATOM     22  C   UNL     1       1.336  -0.697   2.385  1.00  0.00     0.012 A 
ATOM     23  C   UNL     1       2.330  -0.343   0.216  1.00  0.00     0.012 A 
ATOM     24  C   UNL     1       2.006  -1.919   2.497  1.00  0.00     0.021 A 
ATOM     25  C   UNL     1       2.994  -1.570   0.321  1.00  0.00     0.021 A 
ATOM     26  C   UNL     1       2.829  -2.352   1.460  1.00  0.00     0.041 A 
ATOM     27  Cl  UNL     1       3.649  -3.858   1.592  1.00  0.00    -0.084 Cl
ENDBRANCH  12  21
ENDBRANCH   1   6
TORSDOF 4
