MODEL        6USER    Run = 6USERUSER    Estimated Free Energy of Binding    =  -9.09 kcal/mol  [=(1)+(2)+(3)-(4)]USERUSER    (1) Final Intermolecular Energy     = -11.18 kcal/molUSER        vdW + Hbond + desolv Energy     = -10.96 kcal/molUSER        Electrostatic Energy            =  -0.22 kcal/molUSER        Moving Ligand-Fixed Receptor    = -11.18 kcal/molUSER        Moving Ligand-Moving Receptor   =  +0.00 kcal/molUSER    (2) Final Total Internal Energy     =  -1.54 kcal/molUSER    (3) Torsional Free Energy           =  +2.09 kcal/molUSER    (4) Unbound System's Energy         =  -1.54 kcal/molUSERUSERREMARK SMILES O=C(CF)N[C@H]1C[C@H]1S(=O)(=O)Nc1cc(-c2ccncc2)cc(-c2nccs2)c1REMARK SMILES IDX 6 1 7 2 8 3 5 4 2 5 1 6 3 8 4 9 9 10 10 11 11 12 12 13 13 15REMARK SMILES IDX 14 16 29 17 15 18 23 19 22 20 16 21 17 22 21 23 18 24 20 25REMARK SMILES IDX 19 26 24 27 25 28 28 29 26 30 27 31REMARK H PARENT 5 7 12 14USER                              x       y       z     vdW  Elec       q    TypeUSER                           _______ _______ _______ _____ _____    ______ ____ROOTATOM      1  C   UNL     1      31.324  40.101  17.796 -0.38 -0.01    +0.103 C  ATOM      2  C   UNL     1      32.739  39.624  17.594 -0.37 -0.02    +0.050 C  ATOM      3  C   UNL     1      32.473  40.895  18.349 -0.36 -0.02    +0.154 C  ENDROOTBRANCH   1   4ATOM      4  N   UNL     1      30.544  40.485  16.656 -0.17 +0.07    -0.350 N  ATOM      5  C   UNL     1      29.156  40.491  16.649 -0.26 -0.01    +0.251 C  ATOM      6  O   UNL     1      28.478  40.162  17.618 -0.17 -0.03    -0.272 OA ATOM      7  H   UNL     1      31.047  40.853  15.845 -0.46 -0.10    +0.163 HD BRANCH   5   8ATOM      8  C   UNL     1      28.568  40.965  15.330 -0.20 -0.11    +0.314 C  ATOM      9  F   UNL     1      27.469  40.252  14.947 -0.09 +0.02    -0.240 F  ENDBRANCH   5   8ENDBRANCH   1   4BRANCH   3  10ATOM     10  S   UNL     1      32.870  42.418  17.463 -0.35 -0.08    +0.237 S  ATOM     11  O   UNL     1      33.234  43.426  18.444 -0.24 +0.04    -0.206 OA ATOM     12  O   UNL     1      31.790  42.654  16.532 -0.25 +0.09    -0.206 OA BRANCH  10  13ATOM     13  N   UNL     1      34.290  42.151  16.559 -0.25 +0.14    -0.283 N  ATOM     14  H   UNL     1      34.657  41.245  16.854 -0.47 -0.13    +0.180 HD BRANCH  13  15ATOM     15  C   UNL     1      35.276  43.185  16.629 -0.38 -0.02    +0.050 A  ATOM     16  C   UNL     1      35.458  44.030  15.534 -0.27 -0.01    +0.035 A  ATOM     17  C   UNL     1      35.991  43.392  17.806 -0.27 -0.01    +0.038 A  ATOM     18  C   UNL     1      36.378  45.088  15.589 -0.34 +0.01    -0.016 A  ATOM     19  C   UNL     1      36.923  44.436  17.904 -0.33 -0.00    +0.013 A  ATOM     20  C   UNL     1      37.111  45.262  16.781 -0.34 -0.01    +0.020 A  BRANCH  18  21ATOM     21  C   UNL     1      36.562  46.003  14.444 -0.40 +0.01    -0.015 A  ATOM     22  C   UNL     1      36.909  47.346  14.640 -0.44 -0.02    +0.029 A  ATOM     23  C   UNL     1      36.392  45.567  13.122 -0.47 -0.01    +0.029 A  ATOM     24  C   UNL     1      37.076  48.171  13.538 -0.48 -0.05    +0.111 A  ATOM     25  C   UNL     1      36.577  46.469  12.083 -0.58 -0.05    +0.111 A  ATOM     26  N   UNL     1      36.919  47.761  12.263 -1.03 +0.07    -0.265 NA ENDBRANCH  18  21BRANCH  19  27ATOM     27  C   UNL     1      37.652  44.613  19.175 -0.27 -0.01    +0.123 A  ATOM     28  N   UNL     1      38.818  45.231  19.273 -0.25 +0.02    -0.245 NA ATOM     29  S   UNL     1      37.060  43.971  20.668 -0.49 +0.00    -0.122 S  ATOM     30  C   UNL     1      39.275  45.197  20.575 -0.29 +0.00    +0.123 A  ATOM     31  C   UNL     1      38.455  44.554  21.473 -0.30 +0.00    +0.087 A  ENDBRANCH  19  27ENDBRANCH  13  15ENDBRANCH  10  13ENDBRANCH   3  10TORSDOF 7TERENDMDL