MODEL        4USER    Run = 4USERUSER    Estimated Free Energy of Binding    =  -9.86 kcal/mol  [=(1)+(2)+(3)-(4)]USERUSER    (1) Final Intermolecular Energy     = -11.95 kcal/molUSER        vdW + Hbond + desolv Energy     = -11.81 kcal/molUSER        Electrostatic Energy            =  -0.14 kcal/molUSER        Moving Ligand-Fixed Receptor    = -11.95 kcal/molUSER        Moving Ligand-Moving Receptor   =  +0.00 kcal/molUSER    (2) Final Total Internal Energy     =  -1.01 kcal/molUSER    (3) Torsional Free Energy           =  +2.09 kcal/molUSER    (4) Unbound System's Energy         =  -1.01 kcal/molUSERUSERREMARK SMILES COc1cc(-c2cc(NS(=O)(=O)[C@@H]3C[C@H]3N)cc(-c3nccs3)c2)ccn1REMARK SMILES IDX 9 1 8 3 6 4 7 5 24 6 18 7 17 8 5 9 3 10 4 11 27 12 26 13REMARK SMILES IDX 25 14 2 15 1 16 19 17 20 18 23 19 21 20 22 21 10 22 11 23REMARK SMILES IDX 12 24 13 25 14 26 15 27 16 28REMARK H PARENT 9 2 16 29 16 30USER                              x       y       z     vdW  Elec       q    TypeUSER                           _______ _______ _______ _____ _____    ______ ____ROOTATOM      1  N   UNL     1      37.018  45.298  13.322 -0.26 +0.10    -0.283 N  ATOM      2  H   UNL     1      37.825  45.527  12.737 +0.14 -0.05    +0.180 HD ENDROOTBRANCH   1   3ATOM      3  C   UNL     1      37.338  45.132  14.704 -0.35 -0.02    +0.050 A  ATOM      4  C   UNL     1      38.706  45.689  16.631 -0.35 +0.00    -0.015 A  ATOM      5  C   UNL     1      38.430  45.796  15.260 -0.35 -0.01    +0.035 A  ATOM      6  C   UNL     1      37.848  44.904  17.426 -0.35 -0.00    +0.020 A  ATOM      7  C   UNL     1      36.738  44.233  16.881 -0.33 -0.00    +0.013 A  ATOM      8  C   UNL     1      36.496  44.367  15.506 -0.35 -0.01    +0.038 A  BRANCH   4   9ATOM      9  C   UNL     1      39.852  46.397  17.226 -0.46 +0.00    -0.011 A  ATOM     10  C   UNL     1      41.384  48.246  17.298 -0.28 -0.01    +0.213 A  ATOM     11  C   UNL     1      40.302  47.615  16.703 -0.47 -0.02    +0.077 A  ATOM     12  N   UNL     1      42.046  47.754  18.366 -0.44 +0.00    -0.222 NA ATOM     13  C   UNL     1      41.604  46.579  18.859 -0.43 +0.00    +0.116 A  ATOM     14  C   UNL     1      40.529  45.876  18.334 -0.46 -0.00    +0.029 A  BRANCH  10  15ATOM     15  O   UNL     1      41.775  49.445  16.736 -0.81 -0.10    -0.481 OA ATOM     16  C   UNL     1      41.044  49.774  15.560 -0.49 -0.07    +0.280 C  ENDBRANCH  10  15ENDBRANCH   4   9BRANCH   7  17ATOM     17  C   UNL     1      35.801  43.427  17.687 -0.25 -0.04    +0.123 A  ATOM     18  N   UNL     1      35.020  42.491  17.177 -0.27 +0.09    -0.245 NA ATOM     19  S   UNL     1      35.667  43.614  19.397 -0.48 +0.02    -0.122 S  ATOM     20  C   UNL     1      34.269  41.897  18.172 -0.32 -0.03    +0.123 A  ATOM     21  C   UNL     1      34.483  42.378  19.443 -0.35 -0.00    +0.087 A  ENDBRANCH   7  17ENDBRANCH   1   3BRANCH   1  22ATOM     22  S   UNL     1      35.805  46.444  12.977 -0.60 -0.13    +0.237 S  ATOM     23  O   UNL     1      35.429  46.284  11.589 -0.53 +0.13    -0.206 OA ATOM     24  O   UNL     1      34.819  46.289  14.026 -0.40 +0.17    -0.206 OA BRANCH  22  25ATOM     25  C   UNL     1      36.552  48.089  13.115 -0.56 -0.07    +0.148 C  ATOM     26  C   UNL     1      38.007  48.072  13.502 -0.47 -0.01    +0.043 C  ATOM     27  C   UNL     1      36.961  48.482  14.506 -0.51 -0.06    +0.072 C  BRANCH  27  28ATOM     28  N   UNL     1      36.926  49.888  14.930 -0.23 +0.37    -0.326 NA ATOM     29  H   UNL     1      36.289  50.041  15.712 -0.31 -0.28    +0.119 HD ATOM     30  H   UNL     1      37.846  50.194  15.250 -0.49 -0.13    +0.119 HD ENDBRANCH  27  28ENDBRANCH  22  25ENDBRANCH   1  22TORSDOF 7TERENDMDL