MODEL        1USER    Run = 1USERUSER    Estimated Free Energy of Binding    =  -9.93 kcal/mol  [=(1)+(2)+(3)-(4)]USERUSER    (1) Final Intermolecular Energy     = -10.82 kcal/molUSER        vdW + Hbond + desolv Energy     = -10.53 kcal/molUSER        Electrostatic Energy            =  -0.29 kcal/molUSER        Moving Ligand-Fixed Receptor    = -10.82 kcal/molUSER        Moving Ligand-Moving Receptor   =  +0.00 kcal/molUSER    (2) Final Total Internal Energy     =  -0.65 kcal/molUSER    (3) Torsional Free Energy           =  +0.89 kcal/molUSER    (4) Unbound System's Energy         =  -0.65 kcal/molUSERUSERREMARK SMILES O[C@H]1CC=C(c2cnc3[nH]occ(-c4ccc5[nH]ncc5c4Cl)ncc3c2)CC1REMARK SMILES IDX 6 1 7 2 8 3 9 4 10 5 11 6 12 7 13 8 24 9 25 10 26 11 27 12REMARK SMILES IDX 5 14 2 15 3 16 29 17 4 18 28 19 1 20 14 22 15 23 22 24 16 25REMARK SMILES IDX 21 26 17 27 20 28 18 29 19 30 23 31REMARK H PARENT 10 13 1 21 18 32USER                              x       y       z     vdW  Elec       q    TypeUSER                           _______ _______ _______ _____ _____    ______ ____ROOTATOM      1  C   UNL     1      32.116  43.400  17.474 -0.30 +0.00    -0.004 A  ATOM      2  C   UNL     1      32.160  42.868  18.762 -0.27 -0.01    +0.122 A  ATOM      3  N   UNL     1      33.289  42.542  19.437 -0.54 -0.01    -0.235 NA ATOM      4  C   UNL     1      34.467  42.775  18.798 -0.28 -0.03    +0.168 A  ATOM      5  N   UNL     1      35.641  42.612  19.564 -0.29 +0.02    -0.204 N  ATOM      6  O   UNL     1      36.095  43.814  20.117 -0.20 +0.02    -0.386 OA ATOM      7  C   UNL     1      37.036  44.455  19.357 -0.18 -0.03    +0.255 A  ATOM      8  C   UNL     1      37.351  44.490  18.040 -0.27 -0.02    +0.109 A  ATOM      9  N   UNL     1      36.984  43.962  16.854 -0.18 +0.07    -0.252 NA ATOM     10  C   UNL     1      35.856  43.273  16.650 -0.32 -0.04    +0.124 A  ATOM     11  C   UNL     1      34.537  43.257  17.496 -0.32 -0.01    +0.039 A  ATOM     12  C   UNL     1      33.345  43.583  16.841 -0.31 -0.01    +0.023 A  ATOM     13  H   UNL     1      35.297  42.066  20.346 +0.13 +0.00    +0.211 HD ENDROOTBRANCH   1  14ATOM     14  C   UNL     1      30.838  43.762  16.823 -0.31 +0.01    -0.043 C  ATOM     15  C   UNL     1      28.330  44.685  15.724 -0.21 -0.05    +0.118 C  ATOM     16  C   UNL     1      28.440  43.258  16.276 -0.26 -0.02    +0.059 C  ATOM     17  C   UNL     1      29.633  45.131  15.067 -0.36 -0.02    +0.037 C  ATOM     18  C   UNL     1      29.764  42.955  16.912 -0.29 +0.01    -0.020 C  ATOM     19  C   UNL     1      30.798  45.062  16.053 -0.37 -0.01    +0.038 C  BRANCH  15  20ATOM     20  O   UNL     1      27.266  44.763  14.774 -0.08 +0.31    -0.393 OA ATOM     21  H   UNL     1      27.669  44.756  13.888 -0.33 -0.44    +0.210 HD ENDBRANCH  15  20ENDBRANCH   1  14BRANCH   8  22ATOM     22  C   UNL     1      38.549  45.369  17.830 -0.38 -0.00    +0.023 A  ATOM     23  C   UNL     1      39.718  45.069  18.555 -0.42 -0.00    +0.014 A  ATOM     24  C   UNL     1      38.562  46.472  16.958 -0.36 -0.02    +0.061 A  ATOM     25  C   UNL     1      40.886  45.833  18.442 -0.46 -0.00    +0.029 A  ATOM     26  C   UNL     1      39.722  47.260  16.825 -0.46 -0.01    +0.039 A  ATOM     27  C   UNL     1      40.848  46.922  17.569 -0.46 -0.01    +0.067 A  ATOM     28  C   UNL     1      40.125  48.404  16.093 -0.44 -0.04    +0.145 A  ATOM     29  N   UNL     1      41.799  47.847  17.232 -0.16 +0.02    -0.278 N  ATOM     30  N   UNL     1      41.387  48.771  16.346 -0.93 +0.00    -0.183 NA ATOM     31  Cl  UNL     1      37.231  46.993  16.007 -0.55 +0.05    -0.083 Cl ATOM     32  H   UNL     1      42.749  47.902  17.578 -0.37 -0.01    +0.190 HD ENDBRANCH   8  22TORSDOF 3TERENDMDL