MODEL        6USER    Run = 6USERUSER    Estimated Free Energy of Binding    = -10.66 kcal/mol  [=(1)+(2)+(3)-(4)]USERUSER    (1) Final Intermolecular Energy     = -12.75 kcal/molUSER        vdW + Hbond + desolv Energy     = -12.32 kcal/molUSER        Electrostatic Energy            =  -0.43 kcal/molUSER        Moving Ligand-Fixed Receptor    = -12.75 kcal/molUSER        Moving Ligand-Moving Receptor   =  +0.00 kcal/molUSER    (2) Final Total Internal Energy     =  -1.44 kcal/molUSER    (3) Torsional Free Energy           =  +2.09 kcal/molUSER    (4) Unbound System's Energy         =  -1.44 kcal/molUSERUSERREMARK SMILES N[C@@H]1C[C@@H]1S(=O)(=O)Nc1cc(-c2ccnc(O)c2)cc(-c2nc(Cl)cs2)c1REMARK SMILES IDX 8 1 5 3 6 4 7 5 4 6 2 7 3 8 1 9 9 12 10 13 27 14 11 15 20 16REMARK SMILES IDX 19 17 12 18 13 19 18 20 14 21 16 22 15 23 17 24 21 26 22 27REMARK SMILES IDX 26 28 23 29 25 30 24 31REMARK H PARENT 8 2 1 10 1 11 17 25USER                              x       y       z     vdW  Elec       q    TypeUSER                           _______ _______ _______ _____ _____    ______ ____ROOTATOM      1  N   UNL     1      32.852  43.122  15.733 -0.16 +0.15    -0.283 N  ATOM      2  H   UNL     1      32.777  42.135  15.989 -0.48 -0.14    +0.180 HD ENDROOTBRANCH   1   3ATOM      3  S   UNL     1      31.394  43.871  16.208 -0.33 -0.10    +0.237 S  ATOM      4  O   UNL     1      31.744  45.022  17.013 -0.65 +0.04    -0.206 OA ATOM      5  O   UNL     1      30.584  42.802  16.757 -0.21 +0.07    -0.206 OA BRANCH   3   6ATOM      6  C   UNL     1      30.607  44.501  14.712 -0.30 -0.12    +0.148 C  ATOM      7  C   UNL     1      30.427  45.981  14.546 -0.52 -0.04    +0.072 C  ATOM      8  C   UNL     1      29.257  45.128  14.949 -0.23 -0.03    +0.043 C  BRANCH   7   9ATOM      9  N   UNL     1      30.928  46.999  15.462 -0.66 +0.14    -0.326 NA ATOM     10  H   UNL     1      31.321  47.809  14.962 -0.44 -0.09    +0.119 HD ATOM     11  H   UNL     1      31.691  46.643  16.038 -0.42 -0.12    +0.119 HD ENDBRANCH   7   9ENDBRANCH   3   6ENDBRANCH   1   3BRANCH   1  12ATOM     12  C   UNL     1      34.054  43.740  16.201 -0.30 -0.02    +0.050 A  ATOM     13  C   UNL     1      34.640  44.733  15.418 -0.25 -0.02    +0.035 A  ATOM     14  C   UNL     1      34.594  43.397  17.441 -0.31 -0.01    +0.038 A  ATOM     15  C   UNL     1      35.797  45.393  15.852 -0.34 +0.01    -0.015 A  ATOM     16  C   UNL     1      35.747  44.038  17.915 -0.31 -0.00    +0.013 A  ATOM     17  C   UNL     1      36.334  45.028  17.100 -0.32 -0.01    +0.020 A  BRANCH  15  18ATOM     18  C   UNL     1      36.431  46.434  15.027 -0.39 +0.01    -0.011 A  ATOM     19  C   UNL     1      37.094  47.522  15.611 -0.39 -0.02    +0.029 A  ATOM     20  C   UNL     1      36.395  46.371  13.631 -0.44 -0.04    +0.077 A  ATOM     21  C   UNL     1      37.677  48.479  14.792 -0.44 -0.08    +0.116 A  ATOM     22  C   UNL     1      37.005  47.382  12.917 -0.44 -0.08    +0.211 A  ATOM     23  N   UNL     1      37.644  48.435  13.444 -0.69 +0.07    -0.222 NA BRANCH  22  24ATOM     24  O   UNL     1      36.992  47.369  11.562 -0.80 +0.16    -0.493 OA ATOM     25  H   UNL     1      36.479  48.181  11.393 -0.12 -0.16    +0.295 HD ENDBRANCH  22  24ENDBRANCH  15  18BRANCH  16  26ATOM     26  C   UNL     1      36.376  43.729  19.216 -0.28 -0.02    +0.125 A  ATOM     27  N   UNL     1      35.941  42.785  20.030 -0.27 +0.01    -0.224 NA ATOM     28  S   UNL     1      37.766  44.575  19.794 -0.43 +0.01    -0.121 S  ATOM     29  C   UNL     1      36.725  42.715  21.164 -0.35 +0.00    +0.140 A  ATOM     30  C   UNL     1      37.767  43.615  21.209 -0.29 +0.00    +0.108 A  ATOM     31  Cl  UNL     1      36.382  41.574  22.390 -0.75 -0.00    -0.061 Cl ENDBRANCH  16  26ENDBRANCH   1  12TORSDOF 7TERENDMDL