REMARK SMILES COc1cc(-c2cc(NS(=O)(=O)[C@@H]3C[C@H]3N)cc(-c3nccs3)c2)ccn1
REMARK SMILES IDX 9 1 8 3 6 4 7 5 24 6 18 7 17 8 5 9 3 10 4 11 27 12 26 13
REMARK SMILES IDX 25 14 2 15 1 16 19 17 20 18 23 19 21 20 22 21 10 22 11 23
REMARK SMILES IDX 12 24 13 25 14 26 15 27 16 28
REMARK H PARENT 9 2 16 29 16 30
ROOT
ATOM      1  N   UNL     1      -1.960  -1.488   1.474  1.00  0.00    -0.283 N 
ATOM      2  H   UNL     1      -1.663  -2.219   2.124  1.00  0.00     0.180 HD
ENDROOT
BRANCH   1   3
ATOM      3  C   UNL     1      -0.971  -0.482   1.250  1.00  0.00     0.050 A 
ATOM      4  C   UNL     1       1.342   0.149   0.867  1.00  0.00    -0.015 A 
ATOM      5  C   UNL     1       0.376  -0.826   1.156  1.00  0.00     0.035 A 
ATOM      6  C   UNL     1       0.913   1.476   0.667  1.00  0.00     0.020 A 
ATOM      7  C   UNL     1      -0.444   1.838   0.751  1.00  0.00     0.013 A 
ATOM      8  C   UNL     1      -1.378   0.833   1.041  1.00  0.00     0.038 A 
BRANCH   4   9
ATOM      9  C   UNL     1       2.766  -0.210   0.756  1.00  0.00    -0.011 A 
ATOM     10  C   UNL     1       4.539  -1.550  -0.155  1.00  0.00     0.213 A 
ATOM     11  C   UNL     1       3.188  -1.249  -0.082  1.00  0.00     0.077 A 
ATOM     12  N   UNL     1       5.492  -0.898   0.542  1.00  0.00    -0.222 NA
ATOM     13  C   UNL     1       5.073   0.099   1.347  1.00  0.00     0.116 A 
ATOM     14  C   UNL     1       3.745   0.475   1.484  1.00  0.00     0.029 A 
BRANCH  10  15
ATOM     15  O   UNL     1       4.888  -2.583  -1.003  1.00  0.00    -0.481 OA
ATOM     16  C   UNL     1       6.288  -2.838  -1.025  1.00  0.00     0.280 C 
ENDBRANCH  10  15
ENDBRANCH   4   9
BRANCH   7  17
ATOM     17  C   UNL     1      -0.934   3.210   0.519  1.00  0.00     0.123 A 
ATOM     18  N   UNL     1      -2.191   3.497   0.230  1.00  0.00    -0.245 NA
ATOM     19  S   UNL     1       0.101   4.586   0.641  1.00  0.00    -0.122 S 
ATOM     20  C   UNL     1      -2.352   4.860   0.084  1.00  0.00     0.123 A 
ATOM     21  C   UNL     1      -1.216   5.614   0.269  1.00  0.00     0.087 A 
ENDBRANCH   7  17
ENDBRANCH   1   3
BRANCH   1  22
ATOM     22  S   UNL     1      -2.554  -2.264   0.078  1.00  0.00     0.237 S 
ATOM     23  O   UNL     1      -1.415  -2.703  -0.700  1.00  0.00    -0.206 OA
ATOM     24  O   UNL     1      -3.529  -3.222   0.554  1.00  0.00    -0.206 OA
BRANCH  22  25
ATOM     25  C   UNL     1      -3.402  -1.014  -0.923  1.00  0.00     0.148 C 
ATOM     26  C   UNL     1      -4.720  -0.562  -0.352  1.00  0.00     0.043 C 
ATOM     27  C   UNL     1      -4.687  -1.474  -1.551  1.00  0.00     0.072 C 
BRANCH  27  28
ATOM     28  N   UNL     1      -5.128  -0.932  -2.843  1.00  0.00    -0.326 NA
ATOM     29  H   UNL     1      -4.774   0.010  -3.009  1.00  0.00     0.119 HD
ATOM     30  H   UNL     1      -4.783  -1.505  -3.614  1.00  0.00     0.119 HD
ENDBRANCH  27  28
ENDBRANCH  22  25
ENDBRANCH   1  22
TORSDOF 7
