REMARK SMILES CC(=O)N[C@H]1C[C@H]1S(=O)(=O)Nc1cc(-c2ccnc(O)c2)cc(-c2nccs2)c1
REMARK SMILES IDX 11 1 8 3 9 4 10 5 7 6 5 7 6 8 4 9 2 10 1 11 3 12 12 14 13 15
REMARK SMILES IDX 29 16 14 17 23 18 22 19 15 20 16 21 21 22 17 23 19 24 18 25
REMARK SMILES IDX 20 26 24 28 25 29 28 30 26 31 27 32
REMARK H PARENT 11 2 4 13 20 27
ROOT
ATOM      1  N   UNL     1       0.905  -1.818  -0.613  1.00  0.00    -0.283 N 
ATOM      2  H   UNL     1       0.942  -2.824  -0.796  1.00  0.00     0.180 HD
ENDROOT
BRANCH   1   3
ATOM      3  S   UNL     1       1.879  -1.515   0.750  1.00  0.00     0.237 S 
ATOM      4  O   UNL     1       1.131  -1.897   1.928  1.00  0.00    -0.206 OA
ATOM      5  O   UNL     1       3.157  -2.139   0.464  1.00  0.00    -0.206 OA
BRANCH   3   6
ATOM      6  C   UNL     1       2.131   0.268   0.865  1.00  0.00     0.154 C 
ATOM      7  C   UNL     1       3.535   0.763   1.077  1.00  0.00     0.103 C 
ATOM      8  C   UNL     1       2.897   0.864  -0.284  1.00  0.00     0.050 C 
BRANCH   7   9
ATOM      9  N   UNL     1       4.690  -0.064   1.256  1.00  0.00    -0.352 N 
ATOM     10  C   UNL     1       5.934   0.444   1.562  1.00  0.00     0.217 C 
ATOM     11  C   UNL     1       7.019  -0.597   1.627  1.00  0.00     0.114 C 
ATOM     12  O   UNL     1       6.161   1.635   1.751  1.00  0.00    -0.275 OA
ATOM     13  H   UNL     1       4.611  -1.054   1.012  1.00  0.00     0.163 HD
ENDBRANCH   7   9
ENDBRANCH   3   6
ENDBRANCH   1   3
BRANCH   1  14
ATOM     14  C   UNL     1      -0.431  -1.310  -0.551  1.00  0.00     0.050 A 
ATOM     15  C   UNL     1      -0.690  -0.019  -1.004  1.00  0.00     0.035 A 
ATOM     16  C   UNL     1      -1.446  -2.072   0.024  1.00  0.00     0.038 A 
ATOM     17  C   UNL     1      -1.978   0.529  -0.907  1.00  0.00    -0.015 A 
ATOM     18  C   UNL     1      -2.748  -1.561   0.141  1.00  0.00     0.013 A 
ATOM     19  C   UNL     1      -2.995  -0.260  -0.336  1.00  0.00     0.020 A 
BRANCH  17  20
ATOM     20  C   UNL     1      -2.256   1.891  -1.390  1.00  0.00    -0.011 A 
ATOM     21  C   UNL     1      -2.878   2.840  -0.567  1.00  0.00     0.029 A 
ATOM     22  C   UNL     1      -1.906   2.287  -2.685  1.00  0.00     0.077 A 
ATOM     23  C   UNL     1      -3.115   4.115  -1.063  1.00  0.00     0.116 A 
ATOM     24  C   UNL     1      -2.191   3.579  -3.071  1.00  0.00     0.211 A 
ATOM     25  N   UNL     1      -2.782   4.510  -2.309  1.00  0.00    -0.222 NA
BRANCH  24  26
ATOM     26  O   UNL     1      -1.872   4.010  -4.316  1.00  0.00    -0.493 OA
ATOM     27  H   UNL     1      -2.199   4.926  -4.263  1.00  0.00     0.295 HD
ENDBRANCH  24  26
ENDBRANCH  17  20
BRANCH  18  28
ATOM     28  C   UNL     1      -3.791  -2.416   0.739  1.00  0.00     0.123 A 
ATOM     29  N   UNL     1      -3.693  -3.729   0.838  1.00  0.00    -0.245 NA
ATOM     30  S   UNL     1      -5.241  -1.758   1.408  1.00  0.00    -0.122 S 
ATOM     31  C   UNL     1      -4.811  -4.250   1.458  1.00  0.00     0.123 A 
ATOM     32  C   UNL     1      -5.761  -3.330   1.837  1.00  0.00     0.087 A 
ENDBRANCH  18  28
ENDBRANCH   1  14
TORSDOF 7
