MODEL        2USER    Run = 2USERUSER    Estimated Free Energy of Binding    =  -8.25 kcal/mol  [=(1)+(2)+(3)-(4)]USERUSER    (1) Final Intermolecular Energy     =  -9.44 kcal/molUSER        vdW + Hbond + desolv Energy     =  -9.40 kcal/molUSER        Electrostatic Energy            =  -0.04 kcal/molUSER        Moving Ligand-Fixed Receptor    =  -9.44 kcal/molUSER        Moving Ligand-Moving Receptor   =  +0.00 kcal/molUSER    (2) Final Total Internal Energy     =  -2.00 kcal/molUSER    (3) Torsional Free Energy           =  +1.19 kcal/molUSER    (4) Unbound System's Energy         =  -2.00 kcal/molUSERUSERREMARK SMILES NCC[C@H]1C(=O)Nc2ccc3ncnc(-c4ccc(Cl)cc4)c3c21REMARK SMILES IDX 3 1 2 2 1 3 4 6 5 7 24 8 7 9 23 10 8 11 15 12 11 13 9 14REMARK SMILES IDX 14 15 10 16 12 17 13 18 6 19 16 21 17 22 22 23 18 24 21 25REMARK SMILES IDX 19 26 20 27REMARK H PARENT 1 4 1 5 7 20USER                              x       y       z     vdW  Elec       q    TypeUSER                           _______ _______ _______ _____ _____    ______ ____ROOTATOM      1  C   UNL     1      39.124  47.379  17.212 -0.35 -0.01    +0.033 C  ENDROOTBRANCH   1   2ATOM      2  C   UNL     1      40.129  48.055  16.273 -0.55 -0.02    +0.079 C  BRANCH   2   3ATOM      3  N   UNL     1      41.423  48.325  16.873 -0.65 +0.01    -0.330 NA ATOM      4  H   UNL     1      41.398  48.136  17.873 +0.03 -0.01    +0.118 HD ATOM      5  H   UNL     1      42.152  47.721  16.477 -0.46 -0.02    +0.118 HD ENDBRANCH   2   3ENDBRANCH   1   2BRANCH   1   6ATOM      6  C   UNL     1      39.319  45.863  17.363 -0.41 -0.02    +0.113 C  ATOM      7  C   UNL     1      40.669  45.628  18.093 -0.36 -0.01    +0.232 C  ATOM      8  C   UNL     1      38.328  45.213  18.320 -0.39 +0.00    -0.000 A  ATOM      9  N   UNL     1      40.391  44.994  19.288 -0.21 -0.00    -0.325 N  ATOM     10  C   UNL     1      36.919  45.021  18.248 -0.32 -0.01    +0.033 A  ATOM     11  C   UNL     1      39.038  44.769  19.439 -0.36 -0.00    +0.046 A  ATOM     12  C   UNL     1      36.016  45.295  17.190 -0.28 -0.04    +0.082 A  ATOM     13  C   UNL     1      36.290  44.472  19.390 -0.30 -0.01    +0.075 A  ATOM     14  C   UNL     1      38.436  44.194  20.529 -0.32 -0.00    +0.029 A  ATOM     15  N   UNL     1      34.675  45.136  17.303 -0.17 +0.13    -0.236 NA ATOM     16  C   UNL     1      37.051  44.072  20.490 -0.38 -0.00    +0.031 A  ATOM     17  N   UNL     1      34.973  44.292  19.496 -0.24 +0.04    -0.236 NA ATOM     18  C   UNL     1      34.223  44.647  18.454 -0.22 -0.08    +0.223 A  ATOM     19  O   UNL     1      41.785  45.974  17.739 -0.25 +0.01    -0.274 OA ATOM     20  H   UNL     1      41.112  44.759  19.956 +0.10 +0.02    +0.169 HD BRANCH  12  21ATOM     21  C   UNL     1      36.392  45.698  15.825 -0.36 -0.00    +0.001 A  ATOM     22  C   UNL     1      36.383  47.056  15.455 -0.35 -0.01    +0.012 A  ATOM     23  C   UNL     1      36.646  44.742  14.826 -0.38 -0.00    +0.012 A  ATOM     24  C   UNL     1      36.651  47.448  14.141 -0.48 -0.01    +0.021 A  ATOM     25  C   UNL     1      36.925  45.132  13.512 -0.45 -0.01    +0.021 A  ATOM     26  C   UNL     1      36.926  46.483  13.175 -0.52 -0.02    +0.041 A  ATOM     27  Cl  UNL     1      37.264  46.963  11.558 -0.78 +0.02    -0.084 Cl ENDBRANCH  12  21ENDBRANCH   1   6TORSDOF 4TERENDMDL