REMARK SMILES NCC[C@H]1C(=O)Nc2ccc3ncnc(-c4ccc(F)c(N)c4)c3c21
REMARK SMILES IDX 4 1 5 2 6 3 7 4 8 5 9 6 10 7 11 8 12 9 13 10 14 11 15 12
REMARK SMILES IDX 24 13 25 14 3 16 2 17 1 18 16 21 17 22 23 23 18 24 21 25
REMARK SMILES IDX 19 26 20 27 22 28
REMARK H PARENT 7 15 1 19 1 20 22 29 22 30
ROOT
ATOM      1  C   UNL     1      -0.956   0.691   0.931  1.00  0.00     0.113 C 
ATOM      2  C   UNL     1      -2.155   0.878   1.881  1.00  0.00     0.232 C 
ATOM      3  O   UNL     1      -2.550   1.926   2.367  1.00  0.00    -0.274 OA
ATOM      4  N   UNL     1      -2.701  -0.373   2.102  1.00  0.00    -0.325 N 
ATOM      5  C   UNL     1      -2.019  -1.351   1.402  1.00  0.00     0.046 A 
ATOM      6  C   UNL     1      -2.346  -2.682   1.355  1.00  0.00     0.029 A 
ATOM      7  C   UNL     1      -1.532  -3.501   0.576  1.00  0.00     0.031 A 
ATOM      8  C   UNL     1      -0.406  -3.024  -0.098  1.00  0.00     0.075 A 
ATOM      9  N   UNL     1       0.280  -3.927  -0.801  1.00  0.00    -0.236 NA
ATOM     10  C   UNL     1       1.374  -3.505  -1.435  1.00  0.00     0.223 A 
ATOM     11  N   UNL     1       1.862  -2.268  -1.403  1.00  0.00    -0.236 NA
ATOM     12  C   UNL     1       1.176  -1.361  -0.666  1.00  0.00     0.082 A 
ATOM     13  C   UNL     1      -0.042  -1.662  -0.006  1.00  0.00     0.033 A 
ATOM     14  C   UNL     1      -0.922  -0.811   0.720  1.00  0.00    -0.000 A 
ATOM     15  H   UNL     1      -3.536  -0.508   2.652  1.00  0.00     0.169 HD
ENDROOT
BRANCH   1  16
ATOM     16  C   UNL     1      -1.132   1.581  -0.309  1.00  0.00     0.033 C 
BRANCH  16  17
ATOM     17  C   UNL     1      -2.195   1.152  -1.327  1.00  0.00     0.079 C 
BRANCH  17  18
ATOM     18  N   UNL     1      -3.539   1.142  -0.774  1.00  0.00    -0.330 NA
ATOM     19  H   UNL     1      -4.217   0.998  -1.522  1.00  0.00     0.118 HD
ATOM     20  H   UNL     1      -3.757   2.052  -0.364  1.00  0.00     0.118 HD
ENDBRANCH  17  18
ENDBRANCH  16  17
ENDBRANCH   1  16
BRANCH  12  21
ATOM     21  C   UNL     1       1.903  -0.085  -0.573  1.00  0.00     0.003 A 
ATOM     22  C   UNL     1       2.219   0.642  -1.736  1.00  0.00     0.013 A 
ATOM     23  C   UNL     1       2.390   0.388   0.662  1.00  0.00     0.039 A 
ATOM     24  C   UNL     1       2.964   1.819  -1.664  1.00  0.00     0.042 A 
ATOM     25  C   UNL     1       3.090   1.596   0.758  1.00  0.00     0.068 A 
ATOM     26  C   UNL     1       3.401   2.276  -0.426  1.00  0.00     0.146 A 
ATOM     27  F   UNL     1       4.125   3.405  -0.370  1.00  0.00    -0.205 F 
BRANCH  25  28
ATOM     28  N   UNL     1       3.647   1.991   1.985  1.00  0.00    -0.396 N 
ATOM     29  H   UNL     1       3.919   2.972   1.994  1.00  0.00     0.156 HD
ATOM     30  H   UNL     1       3.113   1.720   2.803  1.00  0.00     0.156 HD
ENDBRANCH  25  28
ENDBRANCH  12  21
TORSDOF 5
