MODEL        5USER    Run = 5USERUSER    Estimated Free Energy of Binding    =  -8.18 kcal/mol  [=(1)+(2)+(3)-(4)]USERUSER    (1) Final Intermolecular Energy     =  -9.68 kcal/molUSER        vdW + Hbond + desolv Energy     =  -9.50 kcal/molUSER        Electrostatic Energy            =  -0.18 kcal/molUSER        Moving Ligand-Fixed Receptor    =  -9.68 kcal/molUSER        Moving Ligand-Moving Receptor   =  +0.00 kcal/molUSER    (2) Final Total Internal Energy     =  -2.04 kcal/molUSER    (3) Torsional Free Energy           =  +1.49 kcal/molUSER    (4) Unbound System's Energy         =  -2.04 kcal/molUSERUSERREMARK SMILES NCC[C@H]1C(=O)Nc2ccc3ncnc(-c4ccc(F)c(N)c4)c3c21REMARK SMILES IDX 4 1 5 2 6 3 7 4 8 5 9 6 10 7 11 8 12 9 13 10 14 11 15 12REMARK SMILES IDX 24 13 25 14 3 16 2 17 1 18 16 21 17 22 23 23 18 24 21 25REMARK SMILES IDX 19 26 20 27 22 28REMARK H PARENT 7 15 1 19 1 20 22 29 22 30USER                              x       y       z     vdW  Elec       q    TypeUSER                           _______ _______ _______ _____ _____    ______ ____ROOTATOM      1  C   UNL     1      39.003  46.326  17.719 -0.39 -0.02    +0.113 C  ATOM      2  C   UNL     1      40.305  46.859  18.348 -0.30 -0.02    +0.232 C  ATOM      3  O   UNL     1      40.751  46.588  19.452 -0.29 -0.00    -0.274 OA ATOM      4  N   UNL     1      40.877  47.725  17.435 -0.30 +0.04    -0.325 N  ATOM      5  C   UNL     1      40.120  47.812  16.281 -0.50 -0.01    +0.046 A  ATOM      6  C   UNL     1      40.444  48.532  15.159 -0.57 -0.01    +0.029 A  ATOM      7  C   UNL     1      39.546  48.474  14.096 -0.30 -0.01    +0.031 A  ATOM      8  C   UNL     1      38.347  47.760  14.158 -0.45 -0.03    +0.075 A  ATOM      9  N   UNL     1      37.586  47.800  13.063 -0.87 +0.06    -0.236 NA ATOM     10  C   UNL     1      36.424  47.149  13.103 -0.42 -0.11    +0.223 A  ATOM     11  N   UNL     1      35.939  46.488  14.150 -0.27 +0.16    -0.236 NA ATOM     12  C   UNL     1      36.705  46.473  15.269 -0.33 -0.05    +0.082 A  ATOM     13  C   UNL     1      37.993  47.061  15.333 -0.40 -0.02    +0.033 A  ATOM     14  C   UNL     1      38.949  47.052  16.387 -0.44 +0.00    -0.000 A  ATOM     15  H   UNL     1      41.771  48.164  17.594 +0.02 -0.00    +0.169 HD ENDROOTBRANCH   1  16ATOM     16  C   UNL     1      39.029  44.790  17.693 -0.32 -0.00    +0.033 C  BRANCH  16  17ATOM     17  C   UNL     1      38.618  44.067  18.980 -0.25 -0.01    +0.079 C  BRANCH  17  18ATOM     18  N   UNL     1      39.125  44.711  20.180 -0.16 +0.00    -0.330 NA ATOM     19  H   UNL     1      38.905  45.706  20.154 +0.05 -0.00    +0.118 HD ATOM     20  H   UNL     1      40.144  44.645  20.210 +0.07 +0.00    +0.118 HD ENDBRANCH  17  18ENDBRANCH  16  17ENDBRANCH   1  16BRANCH  12  21ATOM     21  C   UNL     1      35.990  45.860  16.400 -0.35 -0.00    +0.003 A  ATOM     22  C   UNL     1      36.049  44.470  16.612 -0.32 -0.01    +0.013 A  ATOM     23  C   UNL     1      35.149  46.627  17.231 -0.27 -0.04    +0.039 A  ATOM     24  C   UNL     1      35.323  43.872  17.642 -0.28 -0.01    +0.042 A  ATOM     25  C   UNL     1      34.458  46.050  18.304 -0.43 -0.04    +0.068 A  ATOM     26  C   UNL     1      34.529  44.661  18.466 -0.27 -0.05    +0.146 A  ATOM     27  F   UNL     1      33.827  44.073  19.448 -0.10 +0.03    -0.205 F  BRANCH  25  28ATOM     28  N   UNL     1      33.553  46.820  19.052 -0.18 +0.25    -0.396 N  ATOM     29  H   UNL     1      32.884  47.316  18.468 -0.42 -0.17    +0.156 HD ATOM     30  H   UNL     1      33.118  46.332  19.827 -0.45 -0.10    +0.156 HD ENDBRANCH  25  28ENDBRANCH  12  21TORSDOF 5TERENDMDL