REMARK SMILES Nc1c(-c2co[nH]c3ncc(C4=CC[C@H](O)CC4)cc3cn2)ccc2[nH]ncc12
REMARK SMILES IDX 4 1 5 2 6 3 7 4 8 5 9 6 10 7 11 8 19 9 20 10 21 11 22 12
REMARK SMILES IDX 3 14 2 15 29 16 23 17 28 18 25 19 24 20 27 21 26 22 1 24
REMARK SMILES IDX 12 27 13 28 18 29 14 30 17 31 15 32 16 33
REMARK H PARENT 7 13 26 23 1 25 1 26 16 34
ROOT
ATOM      1  C   UNL     1       2.645  -0.044   0.284  1.00  0.00     0.110 A 
ATOM      2  C   UNL     1       2.603  -0.789   1.413  1.00  0.00     0.255 A 
ATOM      3  O   UNL     1       1.729  -0.889   2.459  1.00  0.00    -0.386 OA
ATOM      4  N   UNL     1       1.129   0.330   2.788  1.00  0.00    -0.204 N 
ATOM      5  C   UNL     1      -0.165   0.454   2.245  1.00  0.00     0.168 A 
ATOM      6  N   UNL     1      -1.197   0.143   3.074  1.00  0.00    -0.235 NA
ATOM      7  C   UNL     1      -2.429   0.076   2.513  1.00  0.00     0.122 A 
ATOM      8  C   UNL     1      -2.717   0.318   1.171  1.00  0.00    -0.004 A 
ATOM      9  C   UNL     1      -1.634   0.672   0.366  1.00  0.00     0.023 A 
ATOM     10  C   UNL     1      -0.343   0.758   0.900  1.00  0.00     0.039 A 
ATOM     11  C   UNL     1       0.763   1.393  -0.013  1.00  0.00     0.124 A 
ATOM     12  N   UNL     1       1.968   0.930  -0.361  1.00  0.00    -0.252 NA
ATOM     13  H   UNL     1       0.931   0.285   3.782  1.00  0.00     0.211 HD
ENDROOT
BRANCH   1  14
ATOM     14  C   UNL     1       3.909  -0.357  -0.481  1.00  0.00     0.027 A 
ATOM     15  C   UNL     1       4.995   0.564  -0.485  1.00  0.00     0.052 A 
ATOM     16  C   UNL     1       6.161   0.211  -1.190  1.00  0.00     0.043 A 
ATOM     17  C   UNL     1       4.006  -1.567  -1.190  1.00  0.00     0.015 A 
ATOM     18  C   UNL     1       7.417   0.811  -1.438  1.00  0.00     0.145 A 
ATOM     19  C   UNL     1       6.221  -1.003  -1.865  1.00  0.00     0.067 A 
ATOM     20  C   UNL     1       5.164  -1.917  -1.893  1.00  0.00     0.029 A 
ATOM     21  N   UNL     1       8.222   0.053  -2.193  1.00  0.00    -0.183 NA
ATOM     22  N   UNL     1       7.463  -1.031  -2.441  1.00  0.00    -0.278 N 
ATOM     23  H   UNL     1       7.852  -1.765  -3.018  1.00  0.00     0.190 HD
BRANCH  15  24
ATOM     24  N   UNL     1       4.857   1.818   0.191  1.00  0.00    -0.398 N 
ATOM     25  H   UNL     1       3.960   2.172  -0.190  1.00  0.00     0.156 HD
ATOM     26  H   UNL     1       4.541   1.584   1.136  1.00  0.00     0.156 HD
ENDBRANCH  15  24
ENDBRANCH   1  14
BRANCH   8  27
ATOM     27  C   UNL     1      -4.083   0.194   0.618  1.00  0.00    -0.043 C 
ATOM     28  C   UNL     1      -5.153   0.665   1.287  1.00  0.00    -0.020 C 
ATOM     29  C   UNL     1      -4.219  -0.473  -0.734  1.00  0.00     0.038 C 
ATOM     30  C   UNL     1      -6.559   0.589   0.762  1.00  0.00     0.059 C 
ATOM     31  C   UNL     1      -5.651  -0.909  -1.047  1.00  0.00     0.037 C 
ATOM     32  C   UNL     1      -6.642   0.203  -0.719  1.00  0.00     0.118 C 
BRANCH  32  33
ATOM     33  O   UNL     1      -7.969  -0.229  -1.018  1.00  0.00    -0.393 OA
ATOM     34  H   UNL     1      -7.983  -0.477  -1.958  1.00  0.00     0.210 HD
ENDBRANCH  32  33
ENDBRANCH   8  27
TORSDOF 4
