MODEL        1USER    Run = 1USERUSER    Estimated Free Energy of Binding    = -10.18 kcal/mol  [=(1)+(2)+(3)-(4)]USERUSER    (1) Final Intermolecular Energy     = -12.27 kcal/molUSER        vdW + Hbond + desolv Energy     = -11.85 kcal/molUSER        Electrostatic Energy            =  -0.41 kcal/molUSER        Moving Ligand-Fixed Receptor    = -12.27 kcal/molUSER        Moving Ligand-Moving Receptor   =  +0.00 kcal/molUSER    (2) Final Total Internal Energy     =  -1.73 kcal/molUSER    (3) Torsional Free Energy           =  +2.09 kcal/molUSER    (4) Unbound System's Energy         =  -1.73 kcal/molUSERUSERREMARK SMILES CC(=O)N[C@H]1C[C@H]1S(=O)(=O)Nc1cc(-c2ccnc(O)c2)cc(-c2nccs2)c1REMARK SMILES IDX 11 1 8 3 9 4 10 5 7 6 5 7 6 8 4 9 2 10 1 11 3 12 12 14 13 15REMARK SMILES IDX 29 16 14 17 23 18 22 19 15 20 16 21 21 22 17 23 19 24 18 25REMARK SMILES IDX 20 26 24 28 25 29 28 30 26 31 27 32REMARK H PARENT 11 2 4 13 20 27USER                              x       y       z     vdW  Elec       q    TypeUSER                           _______ _______ _______ _____ _____    ______ ____ROOTATOM      1  N   UNL     1      38.180  44.812  17.744 -0.19 +0.05    -0.283 N  ATOM      2  H   UNL     1      38.386  43.830  17.947 +0.11 -0.02    +0.180 HD ENDROOTBRANCH   1   3ATOM      3  S   UNL     1      37.391  44.862  16.236 -0.34 -0.08    +0.237 S  ATOM      4  O   UNL     1      38.399  45.002  15.208 -0.22 +0.05    -0.206 OA ATOM      5  O   UNL     1      36.493  43.722  16.226 -0.31 +0.07    -0.206 OA BRANCH   3   6ATOM      6  C   UNL     1      36.397  46.367  16.181 -0.32 -0.11    +0.154 C  ATOM      7  C   UNL     1      36.188  47.018  14.842 -0.37 -0.09    +0.103 C  ATOM      8  C   UNL     1      35.079  46.218  15.474 -0.28 -0.05    +0.050 C  BRANCH   7   9ATOM      9  N   UNL     1      36.760  46.578  13.605 -0.20 +0.17    -0.352 N  ATOM     10  C   UNL     1      36.706  47.325  12.448 -0.56 -0.09    +0.217 C  ATOM     11  C   UNL     1      37.302  46.636  11.250 -0.46 -0.03    +0.114 C  ATOM     12  O   UNL     1      36.206  48.443  12.376 -0.83 +0.12    -0.275 OA ATOM     13  H   UNL     1      37.100  45.615  13.552 +0.12 -0.06    +0.163 HD ENDBRANCH   7   9ENDBRANCH   3   6ENDBRANCH   1   3BRANCH   1  14ATOM     14  C   UNL     1      39.323  45.662  17.878 -0.40 -0.01    +0.050 A  ATOM     15  C   UNL     1      40.126  45.548  19.010 -0.42 -0.00    +0.035 A  ATOM     16  C   UNL     1      39.587  46.641  16.923 -0.44 -0.01    +0.038 A  ATOM     17  C   UNL     1      41.222  46.403  19.199 -0.45 -0.00    -0.015 A  ATOM     18  C   UNL     1      40.673  47.517  17.074 -0.52 -0.00    +0.013 A  ATOM     19  C   UNL     1      41.482  47.378  18.217 -0.51 -0.00    +0.020 A  BRANCH  17  20ATOM     20  C   UNL     1      42.076  46.282  20.392 -0.38 -0.00    -0.011 A  ATOM     21  C   UNL     1      41.703  45.470  21.472 -0.28 +0.00    +0.029 A  ATOM     22  C   UNL     1      43.291  46.969  20.488 -0.35 +0.03    +0.077 A  ATOM     23  C   UNL     1      42.543  45.381  22.574 -0.15 +0.02    +0.116 A  ATOM     24  C   UNL     1      44.043  46.806  21.631 -0.21 +0.12    +0.211 A  ATOM     25  N   UNL     1      43.716  46.037  22.679 -0.12 -0.08    -0.222 NA BRANCH  24  26ATOM     26  O   UNL     1      45.227  47.452  21.771 -0.67 -0.43    -0.493 OA ATOM     27  H   UNL     1      44.931  48.371  21.645 -0.38 +0.07    +0.295 HD ENDBRANCH  24  26ENDBRANCH  17  20BRANCH  18  28ATOM     28  C   UNL     1      40.920  48.523  16.024 -0.48 -0.02    +0.123 A  ATOM     29  N   UNL     1      41.643  49.613  16.210 -0.95 -0.02    -0.245 NA ATOM     30  S   UNL     1      40.306  48.341  14.420 -0.49 +0.03    -0.122 S  ATOM     31  C   UNL     1      41.712  50.349  15.044 -0.55 -0.02    +0.123 A  ATOM     32  C   UNL     1      41.045  49.815  13.966 -0.26 -0.03    +0.087 A  ENDBRANCH  18  28ENDBRANCH   1  14TORSDOF 7TERENDMDL