REMARK SMILES N[C@@H]1C[C@@H]1S(=O)(=O)Nc1cc(-c2ccnc(O)c2)cc(-c2nc(Cl)cs2)c1
REMARK SMILES IDX 8 1 5 3 6 4 7 5 4 6 2 7 3 8 1 9 9 12 10 13 27 14 11 15 20 16
REMARK SMILES IDX 19 17 12 18 13 19 18 20 14 21 16 22 15 23 17 24 21 26 22 27
REMARK SMILES IDX 26 28 23 29 25 30 24 31
REMARK H PARENT 8 2 1 10 1 11 17 25
ROOT
ATOM      1  N   UNL     1       2.342   1.004  -0.928  1.00  0.00    -0.283 N 
ATOM      2  H   UNL     1       2.661   1.763  -1.534  1.00  0.00     0.180 HD
ENDROOT
BRANCH   1   3
ATOM      3  S   UNL     1       3.179   1.163   0.551  1.00  0.00     0.237 S 
ATOM      4  O   UNL     1       2.585   2.273   1.265  1.00  0.00    -0.206 OA
ATOM      5  O   UNL     1       4.582   1.181   0.189  1.00  0.00    -0.206 OA
BRANCH   3   6
ATOM      6  C   UNL     1       2.837  -0.322   1.518  1.00  0.00     0.148 C 
ATOM      7  C   UNL     1       3.947  -0.956   2.304  1.00  0.00     0.072 C 
ATOM      8  C   UNL     1       3.519  -1.561   0.996  1.00  0.00     0.043 C 
BRANCH   7   9
ATOM      9  N   UNL     1       5.295  -0.418   2.444  1.00  0.00    -0.326 NA
ATOM     10  H   UNL     1       5.556   0.181   1.649  1.00  0.00     0.119 HD
ATOM     11  H   UNL     1       5.995  -1.159   2.463  1.00  0.00     0.119 HD
ENDBRANCH   7   9
ENDBRANCH   3   6
ENDBRANCH   1   3
BRANCH   1  12
ATOM     12  C   UNL     1       0.918   0.913  -0.833  1.00  0.00     0.050 A 
ATOM     13  C   UNL     1       0.330  -0.350  -0.839  1.00  0.00     0.035 A 
ATOM     14  C   UNL     1       0.140   2.062  -0.680  1.00  0.00     0.038 A 
ATOM     15  C   UNL     1      -1.058  -0.491  -0.712  1.00  0.00    -0.015 A 
ATOM     16  C   UNL     1      -1.251   1.964  -0.543  1.00  0.00     0.013 A 
ATOM     17  C   UNL     1      -1.828   0.678  -0.568  1.00  0.00     0.020 A 
BRANCH  15  18
ATOM     18  C   UNL     1      -1.691  -1.820  -0.730  1.00  0.00    -0.011 A 
ATOM     19  C   UNL     1      -1.256  -2.845   0.121  1.00  0.00     0.029 A 
ATOM     20  C   UNL     1      -2.750  -2.104  -1.598  1.00  0.00     0.077 A 
ATOM     21  C   UNL     1      -1.884  -4.082   0.067  1.00  0.00     0.116 A 
ATOM     22  C   UNL     1      -3.295  -3.371  -1.568  1.00  0.00     0.211 A 
ATOM     23  N   UNL     1      -2.902  -4.372  -0.769  1.00  0.00    -0.222 NA
BRANCH  22  24
ATOM     24  O   UNL     1      -4.319  -3.697  -2.394  1.00  0.00    -0.493 OA
ATOM     25  H   UNL     1      -4.463  -4.622  -2.123  1.00  0.00     0.295 HD
ENDBRANCH  22  24
ENDBRANCH  15  18
BRANCH  16  26
ATOM     26  C   UNL     1      -2.139   3.134  -0.376  1.00  0.00     0.125 A 
ATOM     27  N   UNL     1      -3.457   3.058  -0.401  1.00  0.00    -0.224 NA
ATOM     28  S   UNL     1      -1.528   4.727  -0.113  1.00  0.00    -0.121 S 
ATOM     29  C   UNL     1      -4.023   4.302  -0.209  1.00  0.00     0.140 A 
ATOM     30  C   UNL     1      -3.125   5.331  -0.035  1.00  0.00     0.108 A 
ATOM     31  Cl  UNL     1      -5.722   4.491  -0.197  1.00  0.00    -0.061 Cl
ENDBRANCH  16  26
ENDBRANCH   1  12
TORSDOF 7
