REMARK SMILES Oc1c(-c2co[nH]c3ncc(C4=CC[C@@H](O)CC4)cc3cn2)ccc2[nH]ncc12
REMARK SMILES IDX 4 1 5 2 6 3 7 4 8 5 9 6 10 7 11 8 19 9 20 10 21 11 22 12
REMARK SMILES IDX 3 14 2 15 29 16 23 17 28 18 25 19 24 20 27 21 26 22 1 24
REMARK SMILES IDX 12 26 13 27 18 28 14 29 17 30 15 31 16 32
REMARK H PARENT 7 13 26 23 1 25 16 33
ROOT
ATOM      1  C   UNL     1       2.666  -0.197  -0.549  1.00  0.00     0.112 A 
ATOM      2  C   UNL     1       2.491  -1.239  -1.395  1.00  0.00     0.255 A 
ATOM      3  O   UNL     1       1.453  -1.668  -2.174  1.00  0.00    -0.386 OA
ATOM      4  N   UNL     1       0.726  -0.616  -2.736  1.00  0.00    -0.204 N 
ATOM      5  C   UNL     1      -0.470  -0.360  -2.037  1.00  0.00     0.168 A 
ATOM      6  N   UNL     1      -1.600  -0.912  -2.555  1.00  0.00    -0.235 NA
ATOM      7  C   UNL     1      -2.720  -0.833  -1.798  1.00  0.00     0.122 A 
ATOM      8  C   UNL     1      -2.803  -0.224  -0.549  1.00  0.00    -0.004 A 
ATOM      9  C   UNL     1      -1.631   0.372  -0.076  1.00  0.00     0.023 A 
ATOM     10  C   UNL     1      -0.449   0.318  -0.824  1.00  0.00     0.039 A 
ATOM     11  C   UNL     1       0.743   1.212  -0.334  1.00  0.00     0.124 A 
ATOM     12  N   UNL     1       2.022   0.902  -0.100  1.00  0.00    -0.252 NA
ATOM     13  H   UNL     1       0.381  -0.954  -3.627  1.00  0.00     0.211 HD
ENDROOT
BRANCH   1  14
ATOM     14  C   UNL     1       4.066  -0.213   0.026  1.00  0.00     0.046 A 
ATOM     15  C   UNL     1       4.957   0.863  -0.207  1.00  0.00     0.136 A 
ATOM     16  C   UNL     1       6.268   0.805   0.289  1.00  0.00     0.062 A 
ATOM     17  C   UNL     1       4.502  -1.297   0.809  1.00  0.00     0.016 A 
ATOM     18  C   UNL     1       7.409   1.636   0.262  1.00  0.00     0.147 A 
ATOM     19  C   UNL     1       6.661  -0.300   1.034  1.00  0.00     0.069 A 
ATOM     20  C   UNL     1       5.805  -1.367   1.324  1.00  0.00     0.029 A 
ATOM     21  N   UNL     1       8.453   1.111   0.916  1.00  0.00    -0.183 NA
ATOM     22  N   UNL     1       7.964  -0.056   1.375  1.00  0.00    -0.278 N 
ATOM     23  H   UNL     1       8.573  -0.647   1.925  1.00  0.00     0.190 HD
BRANCH  15  24
ATOM     24  O   UNL     1       4.526   1.978  -0.895  1.00  0.00    -0.506 OA
ATOM     25  H   UNL     1       3.539   1.863  -0.890  1.00  0.00     0.293 HD
ENDBRANCH  15  24
ENDBRANCH   1  14
BRANCH   8  26
ATOM     26  C   UNL     1      -4.061  -0.162   0.224  1.00  0.00    -0.043 C 
ATOM     27  C   UNL     1      -4.062  -0.490   1.530  1.00  0.00    -0.020 C 
ATOM     28  C   UNL     1      -5.317   0.265  -0.499  1.00  0.00     0.038 C 
ATOM     29  C   UNL     1      -5.278  -0.422   2.411  1.00  0.00     0.059 C 
ATOM     30  C   UNL     1      -6.601  -0.008   0.295  1.00  0.00     0.037 C 
ATOM     31  C   UNL     1      -6.450   0.337   1.774  1.00  0.00     0.118 C 
BRANCH  31  32
ATOM     32  O   UNL     1      -6.276   1.747   1.925  1.00  0.00    -0.393 OA
ATOM     33  H   UNL     1      -5.362   1.959   1.658  1.00  0.00     0.210 HD
ENDBRANCH  31  32
ENDBRANCH   8  26
TORSDOF 4
