
     RDKit          2D

 34 38  0  0  0  0  0  0  0  0999 V2000
    5.7417   -0.1667    0.0000 N   0  0  0  0  0  0  0  0  0  0  0  0
   -2.7000    0.0625    0.0000 C   0  0  0  0  0  0  0  0  0  0  0  0
   -3.4208    0.4708    0.0000 N   0  0  0  0  0  0  0  0  0  0  0  0
    4.4417    0.1000    0.0000 C   0  0  0  0  0  0  0  0  0  0  0  0
    5.2000    0.4458    0.0000 N   0  0  0  0  0  0  0  0  0  0  0  0
   -2.6958   -0.7667    0.0000 C   0  0  0  0  0  0  0  0  0  0  0  0
    5.3417   -0.8792    0.0000 S   0  0  0  0  0  0  0  0  0  0  0  0
    4.5292   -0.7167    0.0000 C   0  0  0  0  0  0  0  0  0  0  0  0
   -5.5458   -1.6375    0.0000 N   0  0  0  0  0  0  0  0  0  0  0  0
   -4.8333   -1.2125    0.0000 C   0  0  0  0  0  0  0  0  0  0  0  0
    3.7292    0.5083    0.0000 C   0  0  0  0  0  0  0  0  0  0  0  0
   -1.9958    0.4833    0.0000 C   0  0  0  0  0  0  0  0  0  0  0  0
   -3.4000   -1.1875    0.0000 C   0  0  0  0  0  0  0  0  0  0  0  0
   -4.1333   -0.7792    0.0000 C   0  0  0  0  0  0  0  0  0  0  0  0
   -1.9708   -1.1667    0.0000 C   0  0  0  0  0  0  0  0  0  0  0  0
   -4.1333    0.0500    0.0000 C   0  0  0  0  0  0  0  0  0  0  0  0
    3.0167    0.1000    0.0000 C   0  0  0  0  0  0  0  0  0  0  0  0
    3.7167    1.3458    0.0000 C   0  0  0  0  0  0  0  0  0  0  0  0
   -1.2833    0.0708    0.0000 C   0  0  0  0  0  0  0  0  0  0  0  0
   -1.9958    1.3083    0.0000 C   0  0  0  0  0  0  0  0  0  0  0  0
    0.8667    1.3208    0.0000 N   0  0  0  0  0  0  0  0  0  0  0  0
   -1.2833    1.7208    0.0000 C   0  0  0  0  0  0  0  0  0  0  0  0
   -0.5583    0.5000    0.0000 C   0  0  0  0  0  0  0  0  0  0  0  0
    2.3000    0.5000    0.0000 C   0  0  0  0  0  0  0  0  0  0  0  0
    3.0042    1.7458    0.0000 C   0  0  0  0  0  0  0  0  0  0  0  0
   -0.5708    1.3125    0.0000 C   0  0  0  0  0  0  0  0  0  0  0  0
    2.3000    1.3250    0.0000 C   0  0  0  0  0  0  0  0  0  0  0  0
    1.5792    1.7333    0.0000 C   0  0  0  0  0  0  0  0  0  0  0  0
    0.1542    1.7333    0.0000 C   0  0  0  0  0  0  0  0  0  0  0  0
   -1.2583   -0.7500    0.0000 C   0  0  0  0  0  0  0  0  0  0  0  0
   -1.9708   -1.9917    0.0000 C   0  0  0  0  0  0  0  0  0  0  0  0
   -0.5458   -1.1542    0.0000 C   0  0  0  0  0  0  0  0  0  0  0  0
   -1.2458   -2.4000    0.0000 C   0  0  0  0  0  0  0  0  0  0  0  0
   -0.5333   -1.9792    0.0000 C   0  0  0  0  0  0  0  0  0  0  0  0
  2 12  1  0
  3  2  2  0
  4  5  1  0
  5  1  2  0
  6  2  1  0
  7  1  1  0
  8  7  1  0
  9 10  3  0
 10 14  1  0
 11  4  1  0
 12 19  2  0
 13  6  2  0
 14 13  1  0
 15  6  1  0
 16  3  1  0
 17 11  2  0
 18 11  1  0
 19 23  1  0
 20 22  2  0
 21 28  1  0
 22 26  1  0
 23 26  2  0
 24 17  1  0
 25 18  2  0
 26 29  1  0
 27 25  1  0
 28 27  1  0
 29 21  1  0
 30 15  1  0
 31 15  2  0
 32 30  2  0
 33 31  1  0
 34 33  2  0
  8  4  2  0
 24 27  2  0
 20 12  1  0
 14 16  2  0
 34 32  1  0
M  END
> <chembl_id>
CHEMBL360333

> <chembl_pref_name>
None