MODEL        10USER    Run = 10USERUSER    Estimated Free Energy of Binding    =  -8.70 kcal/mol  [=(1)+(2)+(3)-(4)]USERUSER    (1) Final Intermolecular Energy     = -11.09 kcal/molUSER        vdW + Hbond + desolv Energy     = -10.54 kcal/molUSER        Electrostatic Energy            =  -0.55 kcal/molUSER        Moving Ligand-Fixed Receptor    = -11.09 kcal/molUSER        Moving Ligand-Moving Receptor   =  +0.00 kcal/molUSER    (2) Final Total Internal Energy     =  -1.59 kcal/molUSER    (3) Torsional Free Energy           =  +2.39 kcal/molUSER    (4) Unbound System's Energy         =  -1.59 kcal/molUSERUSERREMARK SMILES CC(C)(C)C=C1C=C(C=Cc2nnc(NC(=O)C[C@@H]3CCCN3)o2)O1REMARK SMILES IDX 10 1 9 2 8 3 6 4 7 5 25 6 5 7 2 8 1 9 3 10 4 11 11 12 12 13REMARK SMILES IDX 24 14 13 15 14 16 15 17 16 18 17 20 18 21 19 22 20 23 23 24REMARK SMILES IDX 21 25 22 26REMARK H PARENT 15 19 23 27USER                              x       y       z     vdW  Elec       q    TypeUSER                           _______ _______ _______ _____ _____    ______ ____ROOTATOM      1  C   UNL     1       6.252  -7.866 -12.185 -0.33 -0.00    +0.074 C  ENDROOTBRANCH   1   2ATOM      2  C   UNL     1       5.325  -8.457 -12.950 -0.25 +0.01    +0.053 C  BRANCH   2   3ATOM      3  C   UNL     1       5.444  -9.706 -13.867 -0.20 +0.06    +0.131 C  ATOM      4  C   UNL     1       5.548 -11.224 -14.926 -0.26 +0.07    +0.127 C  ATOM      5  C   UNL     1       6.170  -9.952 -14.965 -0.21 +0.02    +0.093 C  ATOM      6  O   UNL     1       4.904 -10.869 -13.869 -0.56 -0.43    -0.457 OA BRANCH   4   7ATOM      7  C   UNL     1       5.568 -12.357 -15.640 -0.30 +0.01    +0.026 C  BRANCH   7   8ATOM      8  C   UNL     1       6.672 -13.374 -15.868 -0.36 +0.00    -0.016 C  ATOM      9  C   UNL     1       6.052 -14.608 -16.549 -0.41 +0.00    +0.015 C  ATOM     10  C   UNL     1       7.230 -13.788 -14.494 -0.40 +0.00    +0.015 C  ATOM     11  C   UNL     1       7.843 -12.883 -16.735 -0.26 -0.01    +0.015 C  ENDBRANCH   7   8ENDBRANCH   4   7ENDBRANCH   2   3ENDBRANCH   1   2BRANCH   1  12ATOM     12  C   UNL     1       7.583  -8.303 -11.959 -0.25 -0.03    +0.242 A  ATOM     13  N   UNL     1       8.503  -7.839 -11.126 -0.84 +0.00    -0.107 NA ATOM     14  O   UNL     1       8.102  -9.374 -12.674 -0.21 +0.08    -0.404 OA ATOM     15  N   UNL     1       9.644  -8.597 -11.277 -1.16 -0.01    -0.090 NA ATOM     16  C   UNL     1       9.365  -9.489 -12.195 -0.30 -0.09    +0.322 A  BRANCH  16  17ATOM     17  N   UNL     1      10.210 -10.453 -12.661 -0.33 +0.16    -0.278 N  ATOM     18  C   UNL     1      10.550 -11.575 -11.941 -0.39 -0.08    +0.229 C  ATOM     19  H   UNL     1      10.584 -10.286 -13.584 -0.24 -0.21    +0.174 HD ATOM     20  O   UNL     1      10.143 -11.868 -10.823 -0.92 +0.06    -0.275 OA BRANCH  18  21ATOM     21  C   UNL     1      11.501 -12.467 -12.720 -0.35 -0.06    +0.119 C  BRANCH  21  22ATOM     22  C   UNL     1      12.345 -13.358 -11.812 -0.34 -0.03    +0.063 C  ATOM     23  C   UNL     1      13.214 -14.361 -12.574 -0.32 -0.01    +0.021 C  ATOM     24  N   UNL     1      11.484 -14.212 -10.976 -0.19 +0.16    -0.313 NA ATOM     25  C   UNL     1      13.149 -15.650 -11.764 -0.33 -0.00    +0.017 C  ATOM     26  C   UNL     1      12.356 -15.295 -10.522 -0.41 -0.04    +0.081 C  ATOM     27  H   UNL     1      11.130 -13.690 -10.176 -0.43 -0.18    +0.122 HD ENDBRANCH  21  22ENDBRANCH  18  21ENDBRANCH  16  17ENDBRANCH   1  12TORSDOF 8TERENDMDL