REMARK SMILES CC(C)C=C1C=C(C=Cc2nnc(NC(=O)C[C@@H]3CCCN3C)o2)O1
REMARK SMILES IDX 9 1 8 2 7 3 5 4 6 5 25 6 4 7 2 8 1 9 3 10 10 11 11 12 24 13
REMARK SMILES IDX 12 14 13 15 14 16 15 17 16 19 17 20 18 21 19 22 22 23 20 24
REMARK SMILES IDX 21 25 23 26
REMARK H PARENT 14 18
ROOT
ATOM      1  C   UNL     1       2.505   0.361   0.606  1.00  0.00     0.074 C 
ENDROOT
BRANCH   1   2
ATOM      2  C   UNL     1       2.723  -0.931   0.326  1.00  0.00     0.053 C 
BRANCH   2   3
ATOM      3  C   UNL     1       4.092  -1.634   0.537  1.00  0.00     0.131 C 
ATOM      4  C   UNL     1       5.662  -2.594   0.738  1.00  0.00     0.127 C 
ATOM      5  C   UNL     1       5.291  -1.249   0.988  1.00  0.00     0.093 C 
ATOM      6  O   UNL     1       4.468  -2.843   0.326  1.00  0.00    -0.457 OA
BRANCH   4   7
ATOM      7  C   UNL     1       6.762  -3.349   0.860  1.00  0.00     0.023 C 
BRANCH   7   8
ATOM      8  C   UNL     1       8.147  -3.001   1.350  1.00  0.00     0.009 C 
ATOM      9  C   UNL     1       8.446  -3.781   2.633  1.00  0.00     0.012 C 
ATOM     10  C   UNL     1       8.440  -1.516   1.566  1.00  0.00     0.012 C 
ENDBRANCH   7   8
ENDBRANCH   4   7
ENDBRANCH   2   3
ENDBRANCH   1   2
BRANCH   1  11
ATOM     11  C   UNL     1       1.239   0.969   0.400  1.00  0.00     0.242 A 
ATOM     12  N   UNL     1       0.941   2.235   0.651  1.00  0.00    -0.107 NA
ATOM     13  O   UNL     1       0.129   0.306  -0.099  1.00  0.00    -0.404 OA
ATOM     14  N   UNL     1      -0.382   2.430   0.317  1.00  0.00    -0.090 NA
ATOM     15  C   UNL     1      -0.827   1.279  -0.120  1.00  0.00     0.322 A 
BRANCH  15  16
ATOM     16  N   UNL     1      -2.046   0.881  -0.579  1.00  0.00    -0.278 N 
ATOM     17  C   UNL     1      -3.108   1.754  -0.672  1.00  0.00     0.229 C 
ATOM     18  H   UNL     1      -2.128  -0.082  -0.863  1.00  0.00     0.174 HD
ATOM     19  O   UNL     1      -3.093   2.941  -0.374  1.00  0.00    -0.275 OA
BRANCH  17  20
ATOM     20  C   UNL     1      -4.351   1.054  -1.198  1.00  0.00     0.119 C 
BRANCH  20  21
ATOM     21  C   UNL     1      -5.540   2.003  -1.381  1.00  0.00     0.065 C 
ATOM     22  C   UNL     1      -6.147   2.506  -0.067  1.00  0.00     0.021 C 
ATOM     23  N   UNL     1      -6.696   1.445  -2.130  1.00  0.00    -0.303 NA
ATOM     24  C   UNL     1      -7.593   2.844  -0.408  1.00  0.00     0.017 C 
ATOM     25  C   UNL     1      -7.779   2.405  -1.853  1.00  0.00     0.084 C 
ATOM     26  C   UNL     1      -7.087   0.095  -1.724  1.00  0.00     0.105 C 
ENDBRANCH  20  21
ENDBRANCH  17  20
ENDBRANCH  15  16
ENDBRANCH   1  11
TORSDOF 8
