MODEL        7USER    Run = 7USERUSER    Estimated Free Energy of Binding    =  -8.14 kcal/mol  [=(1)+(2)+(3)-(4)]USERUSER    (1) Final Intermolecular Energy     = -10.53 kcal/molUSER        vdW + Hbond + desolv Energy     = -10.42 kcal/molUSER        Electrostatic Energy            =  -0.10 kcal/molUSER        Moving Ligand-Fixed Receptor    = -10.53 kcal/molUSER        Moving Ligand-Moving Receptor   =  +0.00 kcal/molUSER    (2) Final Total Internal Energy     =  -1.35 kcal/molUSER    (3) Torsional Free Energy           =  +2.39 kcal/molUSER    (4) Unbound System's Energy         =  -1.35 kcal/molUSERUSERREMARK SMILES CC(C)C=C1C=C(C=Cc2nnc(NC(=O)C[C@@H]3CCCN3C)o2)O1REMARK SMILES IDX 9 1 8 2 7 3 5 4 6 5 25 6 4 7 2 8 1 9 3 10 10 11 11 12 24 13REMARK SMILES IDX 12 14 13 15 14 16 15 17 16 19 17 20 18 21 19 22 22 23 20 24REMARK SMILES IDX 21 25 23 26REMARK H PARENT 14 18USER                              x       y       z     vdW  Elec       q    TypeUSER                           _______ _______ _______ _____ _____    ______ ____ROOTATOM      1  C   UNL     1      11.233 -10.457 -11.655 -0.46 -0.03    +0.074 C  ENDROOTBRANCH   1   2ATOM      2  C   UNL     1      10.447  -9.874 -12.570 -0.60 -0.03    +0.053 C  BRANCH   2   3ATOM      3  C   UNL     1       9.218  -8.995 -12.208 -0.52 -0.04    +0.131 C  ATOM      4  C   UNL     1       7.827  -7.905 -11.659 -0.43 -0.02    +0.127 C  ATOM      5  C   UNL     1       8.025  -8.765 -12.767 -0.37 -0.02    +0.093 C  ATOM      6  O   UNL     1       8.999  -8.207 -11.219 -1.01 -0.04    -0.457 OA BRANCH   4   7ATOM      7  C   UNL     1       6.860  -7.098 -11.201 -0.42 -0.00    +0.023 C  BRANCH   7   8ATOM      8  C   UNL     1       6.704  -5.599 -11.286 -0.45 -0.00    +0.009 C  ATOM      9  C   UNL     1       6.393  -5.199 -12.731 -0.32 -0.01    +0.012 C  ATOM     10  C   UNL     1       7.868  -4.762 -10.756 -0.57 -0.01    +0.012 C  ENDBRANCH   7   8ENDBRANCH   4   7ENDBRANCH   2   3ENDBRANCH   1   2BRANCH   1  11ATOM     11  C   UNL     1      11.201 -11.857 -11.422 -0.28 -0.13    +0.242 A  ATOM     12  N   UNL     1      10.122 -12.564 -11.122 -0.63 +0.02    -0.107 NA ATOM     13  O   UNL     1      12.314 -12.681 -11.478 -0.16 +0.25    -0.404 OA ATOM     14  N   UNL     1      10.509 -13.879 -10.976 -0.32 +0.02    -0.090 NA ATOM     15  C   UNL     1      11.799 -13.912 -11.192 -0.05 -0.18    +0.322 A  BRANCH  15  16ATOM     16  N   UNL     1      12.706 -14.928 -11.180 -0.14 +0.12    -0.278 N  ATOM     17  C   UNL     1      12.823 -15.785 -10.108 -0.38 -0.10    +0.229 C  ATOM     18  H   UNL     1      13.277 -15.032 -12.004 +0.12 -0.06    +0.174 HD ATOM     19  O   UNL     1      12.158 -15.750  -9.081 -1.03 +0.18    -0.275 OA BRANCH  17  20ATOM     20  C   UNL     1      13.916 -16.816 -10.344 -0.32 -0.03    +0.119 C  BRANCH  20  21ATOM     21  C   UNL     1      14.101 -17.163 -11.825 -0.36 -0.01    +0.065 C  ATOM     22  C   UNL     1      15.028 -18.357 -12.077 -0.40 -0.00    +0.021 C  ATOM     23  N   UNL     1      14.661 -16.078 -12.673 -0.11 +0.09    -0.303 NA ATOM     24  C   UNL     1      15.580 -18.135 -13.480 -0.41 -0.00    +0.017 C  ATOM     25  C   UNL     1      15.048 -16.776 -13.911 -0.41 -0.03    +0.084 C  ATOM     26  C   UNL     1      15.810 -15.385 -12.090 -0.38 -0.03    +0.105 C  ENDBRANCH  20  21ENDBRANCH  17  20ENDBRANCH  15  16ENDBRANCH   1  11TORSDOF 8TERENDMDL