REMARK SMILES Cc1cc(NS(=O)(=O)c2cc(Cl)ccc2Cl)ccc1[C@@H]1N=C(NC2CCN(Cc3ccccc3)CC2)N=C2CN21
REMARK SMILES IDX 1 1 2 2 3 3 4 4 17 5 18 6 19 7 20 8 21 9 40 10 22 11 39 12
REMARK SMILES IDX 38 13 23 14 37 15 24 17 25 18 36 19 26 20 35 21 27 22 28 23
REMARK SMILES IDX 29 24 30 25 34 26 31 27 33 28 32 29 5 30 6 32 7 33 8 34 9 35
REMARK SMILES IDX 10 36 15 37 11 38 14 39 13 40 16 41 12 42
REMARK H PARENT 23 16 5 31
ROOT
ATOM      1  C   UNL     1      -4.418  -2.587   0.730  1.00  0.00     0.045 C 
ATOM      2  C   UNL     1      -3.903  -1.178   0.854  1.00  0.00    -0.042 A 
ATOM      3  C   UNL     1      -4.796  -0.179   1.285  1.00  0.00     0.030 A 
ATOM      4  C   UNL     1      -4.386   1.148   1.387  1.00  0.00     0.049 A 
ATOM      5  C   UNL     1      -3.086   1.506   1.056  1.00  0.00     0.027 A 
ATOM      6  C   UNL     1      -2.195   0.531   0.608  1.00  0.00     0.010 A 
ATOM      7  C   UNL     1      -2.576  -0.824   0.500  1.00  0.00    -0.000 A 
ENDROOT
BRANCH   7   8
ATOM      8  C   UNL     1      -1.570  -1.860  -0.027  1.00  0.00     0.237 C 
ATOM      9  N   UNL     1      -0.172  -1.347   0.026  1.00  0.00    -0.221 NA
ATOM     10  N   UNL     1      -1.990  -2.242  -1.371  1.00  0.00    -0.325 N 
ATOM     11  C   UNL     1       0.670  -1.850  -0.824  1.00  0.00     0.222 C 
ATOM     12  C   UNL     1      -1.989  -3.723  -1.997  1.00  0.00     0.195 C 
ATOM     13  C   UNL     1      -0.914  -2.873  -1.804  1.00  0.00     0.130 C 
ATOM     14  N   UNL     1       1.957  -1.420  -0.919  1.00  0.00    -0.352 N 
ATOM     15  N   UNL     1       0.331  -2.883  -1.662  1.00  0.00    -0.198 NA
ATOM     16  H   UNL     1       2.548  -2.018  -1.484  1.00  0.00     0.163 HD
BRANCH  14  17
ATOM     17  C   UNL     1       2.615  -0.550   0.038  1.00  0.00     0.084 C 
ATOM     18  C   UNL     1       3.564   0.404  -0.698  1.00  0.00     0.040 C 
ATOM     19  C   UNL     1       3.341  -1.396   1.089  1.00  0.00     0.040 C 
ATOM     20  C   UNL     1       5.006  -0.093  -0.653  1.00  0.00     0.087 C 
ATOM     21  C   UNL     1       4.493  -0.605   1.700  1.00  0.00     0.087 C 
ATOM     22  N   UNL     1       5.527  -0.255   0.713  1.00  0.00    -0.299 NA
BRANCH  22  23
ATOM     23  C   UNL     1       6.300   0.909   1.180  1.00  0.00     0.120 C 
BRANCH  23  24
ATOM     24  C   UNL     1       7.606   1.115   0.442  1.00  0.00    -0.034 A 
ATOM     25  C   UNL     1       8.579   0.104   0.417  1.00  0.00     0.005 A 
ATOM     26  C   UNL     1       7.879   2.332  -0.198  1.00  0.00     0.005 A 
ATOM     27  C   UNL     1       9.795   0.308  -0.237  1.00  0.00     0.000 A 
ATOM     28  C   UNL     1       9.095   2.533  -0.854  1.00  0.00     0.000 A 
ATOM     29  C   UNL     1      10.054   1.522  -0.871  1.00  0.00     0.000 A 
ENDBRANCH  23  24
ENDBRANCH  22  23
ENDBRANCH  14  17
ENDBRANCH   7   8
BRANCH   4  30
ATOM     30  N   UNL     1      -5.322   2.132   1.801  1.00  0.00    -0.280 N 
ATOM     31  H   UNL     1      -5.098   2.684   2.628  1.00  0.00     0.180 HD
BRANCH  30  32
ATOM     32  S   UNL     1      -6.072   3.068   0.612  1.00  0.00     0.263 S 
ATOM     33  O   UNL     1      -5.112   3.357  -0.434  1.00  0.00    -0.201 OA
ATOM     34  O   UNL     1      -6.748   4.155   1.285  1.00  0.00    -0.201 OA
BRANCH  32  35
ATOM     35  C   UNL     1      -7.299   1.974  -0.043  1.00  0.00     0.107 A 
ATOM     36  C   UNL     1      -7.143   1.527  -1.365  1.00  0.00     0.044 A 
ATOM     37  C   UNL     1      -8.403   1.569   0.711  1.00  0.00     0.061 A 
ATOM     38  C   UNL     1      -8.094   0.680  -1.926  1.00  0.00     0.042 A 
ATOM     39  C   UNL     1      -9.355   0.722   0.129  1.00  0.00     0.023 A 
ATOM     40  C   UNL     1      -9.203   0.280  -1.187  1.00  0.00     0.022 A 
ATOM     41  Cl  UNL     1      -8.668   2.000   2.360  1.00  0.00    -0.083 Cl
ATOM     42  Cl  UNL     1      -7.897   0.121  -3.539  1.00  0.00    -0.084 Cl
ENDBRANCH  32  35
ENDBRANCH  30  32
ENDBRANCH   4  30
TORSDOF 7
