REMARK SMILES CC(=O)Nc1cccc(-c2nc3c(F)c(-c4c(F)cccc4F)ccc3n2C)c1
REMARK SMILES IDX 10 1 11 2 12 3 13 4 14 5 15 6 24 7 25 8 26 9 27 10 28 11
REMARK SMILES IDX 9 12 5 13 6 14 29 15 7 16 8 17 4 18 2 19 1 20 3 21 16 23
REMARK SMILES IDX 17 24 22 25 19 26 21 27 20 28 18 29 23 30
REMARK H PARENT 4 22
ROOT
ATOM      1  C   UNL     1       0.822   0.474   0.593  1.00  0.00     0.141 A 
ATOM      2  N   UNL     1      -0.186   1.298   0.363  1.00  0.00    -0.225 NA
ATOM      3  C   UNL     1      -1.301   0.516   0.179  1.00  0.00     0.125 A 
ATOM      4  C   UNL     1      -2.628   0.875  -0.121  1.00  0.00     0.159 A 
ATOM      5  F   UNL     1      -2.949   2.171  -0.282  1.00  0.00    -0.204 F 
ATOM      6  C   UNL     1      -3.618  -0.114  -0.274  1.00  0.00     0.026 A 
ATOM      7  C   UNL     1      -3.246  -1.462  -0.123  1.00  0.00     0.014 A 
ATOM      8  C   UNL     1      -1.933  -1.847   0.183  1.00  0.00     0.029 A 
ATOM      9  C   UNL     1      -0.983  -0.829   0.329  1.00  0.00     0.071 A 
ATOM     10  N   UNL     1       0.362  -0.831   0.632  1.00  0.00    -0.327 N 
ATOM     11  C   UNL     1       1.122  -2.006   0.992  1.00  0.00     0.152 C 
ENDROOT
BRANCH   1  12
ATOM     12  C   UNL     1       2.205   0.917   0.811  1.00  0.00     0.019 A 
ATOM     13  C   UNL     1       4.611   0.672   0.488  1.00  0.00     0.041 A 
ATOM     14  C   UNL     1       4.819   1.836   1.237  1.00  0.00     0.026 A 
ATOM     15  C   UNL     1       3.302   0.235   0.262  1.00  0.00     0.038 A 
ATOM     16  C   UNL     1       3.737   2.541   1.764  1.00  0.00     0.003 A 
ATOM     17  C   UNL     1       2.438   2.083   1.551  1.00  0.00     0.012 A 
BRANCH  13  18
ATOM     18  N   UNL     1       5.752   0.011  -0.013  1.00  0.00    -0.326 N 
ATOM     19  C   UNL     1       5.795  -1.224  -0.635  1.00  0.00     0.221 C 
ATOM     20  C   UNL     1       7.186  -1.596  -1.086  1.00  0.00     0.114 C 
ATOM     21  O   UNL     1       4.857  -1.998  -0.796  1.00  0.00    -0.275 OA
ATOM     22  H   UNL     1       6.638   0.467   0.160  1.00  0.00     0.169 HD
ENDBRANCH  13  18
ENDBRANCH   1  12
BRANCH   6  23
ATOM     23  C   UNL     1      -5.006   0.251  -0.588  1.00  0.00     0.056 A 
ATOM     24  C   UNL     1      -5.764   1.060   0.270  1.00  0.00     0.134 A 
ATOM     25  C   UNL     1      -5.636  -0.193  -1.758  1.00  0.00     0.134 A 
ATOM     26  C   UNL     1      -7.082   1.417  -0.024  1.00  0.00     0.040 A 
ATOM     27  C   UNL     1      -6.952   0.155  -2.067  1.00  0.00     0.040 A 
ATOM     28  C   UNL     1      -7.679   0.965  -1.198  1.00  0.00     0.006 A 
ATOM     29  F   UNL     1      -5.237   1.496   1.425  1.00  0.00    -0.206 F 
ATOM     30  F   UNL     1      -4.973  -0.976  -2.624  1.00  0.00    -0.206 F 
ENDBRANCH   6  23
TORSDOF 3
