REMARK SMILES Cn1c(-c2cccc(NC(=O)CF)c2)nc2c(F)c(-c3c(F)cccc3F)ccc21
REMARK SMILES IDX 4 1 5 2 6 3 7 4 8 5 14 6 3 7 2 8 30 9 15 10 29 11 16 12
REMARK SMILES IDX 28 13 17 14 19 15 1 16 18 17 20 18 21 19 26 20 23 21 25 22
REMARK SMILES IDX 24 23 22 24 27 25 9 26 10 27 11 29 12 30 13 31
REMARK H PARENT 9 28
ROOT
ATOM      1  C   UNL     1       2.229   0.988   0.863  1.00  0.00     0.019 A 
ATOM      2  C   UNL     1       2.597   2.157   1.538  1.00  0.00     0.012 A 
ATOM      3  C   UNL     1       3.943   2.496   1.655  1.00  0.00     0.003 A 
ATOM      4  C   UNL     1       4.923   1.669   1.094  1.00  0.00     0.026 A 
ATOM      5  C   UNL     1       4.568   0.494   0.414  1.00  0.00     0.041 A 
ATOM      6  C   UNL     1       3.216   0.163   0.300  1.00  0.00     0.038 A 
ENDROOT
BRANCH   1   7
ATOM      7  C   UNL     1       0.821   0.637   0.721  1.00  0.00     0.141 A 
ATOM      8  N   UNL     1       0.116  -0.141   1.618  1.00  0.00    -0.327 N 
ATOM      9  C   UNL     1      -1.180  -0.257   1.168  1.00  0.00     0.071 A 
ATOM     10  N   UNL     1       0.046   1.009  -0.278  1.00  0.00    -0.225 NA
ATOM     11  C   UNL     1      -2.318  -0.905   1.665  1.00  0.00     0.029 A 
ATOM     12  C   UNL     1      -1.191   0.463  -0.026  1.00  0.00     0.125 A 
ATOM     13  C   UNL     1      -3.495  -0.812   0.906  1.00  0.00     0.014 A 
ATOM     14  C   UNL     1      -2.384   0.534  -0.769  1.00  0.00     0.159 A 
ATOM     15  C   UNL     1      -3.553  -0.100  -0.307  1.00  0.00     0.026 A 
ATOM     16  C   UNL     1       0.658  -0.720   2.824  1.00  0.00     0.152 C 
ATOM     17  F   UNL     1      -2.404   1.201  -1.939  1.00  0.00    -0.204 F 
BRANCH  15  18
ATOM     18  C   UNL     1      -4.804  -0.015  -1.074  1.00  0.00     0.056 A 
ATOM     19  C   UNL     1      -5.459  -1.163  -1.542  1.00  0.00     0.134 A 
ATOM     20  C   UNL     1      -5.397   1.221  -1.378  1.00  0.00     0.134 A 
ATOM     21  C   UNL     1      -6.638  -1.090  -2.287  1.00  0.00     0.040 A 
ATOM     22  C   UNL     1      -6.574   1.311  -2.123  1.00  0.00     0.040 A 
ATOM     23  C   UNL     1      -7.197   0.151  -2.582  1.00  0.00     0.006 A 
ATOM     24  F   UNL     1      -4.957  -2.381  -1.279  1.00  0.00    -0.206 F 
ATOM     25  F   UNL     1      -4.845   2.362  -0.936  1.00  0.00    -0.206 F 
ENDBRANCH  15  18
ENDBRANCH   1   7
BRANCH   5  26
ATOM     26  N   UNL     1       5.613  -0.277  -0.130  1.00  0.00    -0.324 N 
ATOM     27  C   UNL     1       5.522  -1.492  -0.791  1.00  0.00     0.255 C 
ATOM     28  H   UNL     1       6.552   0.104  -0.060  1.00  0.00     0.170 HD
ATOM     29  O   UNL     1       4.507  -2.159  -0.974  1.00  0.00    -0.272 OA
BRANCH  27  30
ATOM     30  C   UNL     1       6.870  -1.965  -1.301  1.00  0.00     0.314 C 
ATOM     31  F   UNL     1       7.876  -1.095  -0.981  1.00  0.00    -0.240 F 
ENDBRANCH  27  30
ENDBRANCH   5  26
TORSDOF 4
