REMARK SMILES Cc1cc(NS(=O)(=O)c2ccc(F)cc2)ccc1[C@H]1N=C(NC2CCN(C)CC2)N=C2CN21
REMARK SMILES IDX 1 1 2 2 3 3 4 4 16 5 17 6 18 7 19 8 20 9 33 10 21 11 32 12
REMARK SMILES IDX 31 13 22 14 30 15 23 17 24 18 29 19 25 20 28 21 26 22 27 23
REMARK SMILES IDX 5 24 6 26 7 27 8 28 9 29 10 30 15 31 11 32 14 33 12 34 13 35
REMARK H PARENT 22 16 5 25
ROOT
ATOM      1  C   UNL     1       2.557  -1.721   1.805  1.00  0.00     0.045 C 
ATOM      2  C   UNL     1       2.173  -0.997   0.542  1.00  0.00    -0.042 A 
ATOM      3  C   UNL     1       3.171  -0.294  -0.159  1.00  0.00     0.030 A 
ATOM      4  C   UNL     1       2.872   0.407  -1.327  1.00  0.00     0.049 A 
ATOM      5  C   UNL     1       1.571   0.404  -1.817  1.00  0.00     0.027 A 
ATOM      6  C   UNL     1       0.570  -0.291  -1.137  1.00  0.00     0.010 A 
ATOM      7  C   UNL     1       0.843  -0.994   0.054  1.00  0.00    -0.000 A 
ENDROOT
BRANCH   7   8
ATOM      8  C   UNL     1      -0.279  -1.775   0.753  1.00  0.00     0.237 C 
ATOM      9  N   UNL     1      -1.592  -1.137   0.599  1.00  0.00    -0.221 NA
ATOM     10  N   UNL     1      -0.173  -3.171   0.360  1.00  0.00    -0.325 N 
ATOM     11  C   UNL     1      -2.463  -1.716  -0.151  1.00  0.00     0.222 C 
ATOM     12  C   UNL     1      -1.058  -4.122   0.955  1.00  0.00     0.195 C 
ATOM     13  C   UNL     1      -1.230  -3.565  -0.400  1.00  0.00     0.130 C 
ATOM     14  N   UNL     1      -3.699  -1.181  -0.369  1.00  0.00    -0.352 N 
ATOM     15  N   UNL     1      -2.228  -2.884  -0.814  1.00  0.00    -0.198 NA
ATOM     16  H   UNL     1      -4.165  -1.631  -1.146  1.00  0.00     0.163 HD
BRANCH  14  17
ATOM     17  C   UNL     1      -4.010   0.226  -0.140  1.00  0.00     0.084 C 
ATOM     18  C   UNL     1      -4.351   0.439   1.341  1.00  0.00     0.040 C 
ATOM     19  C   UNL     1      -5.153   0.680  -1.063  1.00  0.00     0.040 C 
ATOM     20  C   UNL     1      -5.207   1.688   1.535  1.00  0.00     0.086 C 
ATOM     21  C   UNL     1      -6.488   0.701  -0.325  1.00  0.00     0.086 C 
ATOM     22  N   UNL     1      -6.470   1.665   0.783  1.00  0.00    -0.306 NA
ATOM     23  C   UNL     1      -7.628   1.476   1.652  1.00  0.00     0.105 C 
ENDBRANCH  14  17
ENDBRANCH   7   8
BRANCH   4  24
ATOM     24  N   UNL     1       3.873   1.113  -2.054  1.00  0.00    -0.280 N 
ATOM     25  H   UNL     1       3.687   1.307  -3.038  1.00  0.00     0.180 HD
BRANCH  24  26
ATOM     26  S   UNL     1       4.657   2.426  -1.337  1.00  0.00     0.261 S 
ATOM     27  O   UNL     1       3.780   3.043  -0.366  1.00  0.00    -0.201 OA
ATOM     28  O   UNL     1       5.231   3.188  -2.426  1.00  0.00    -0.201 OA
BRANCH  26  29
ATOM     29  C   UNL     1       6.018   1.668  -0.484  1.00  0.00     0.088 A 
ATOM     30  C   UNL     1       6.168   1.849   0.896  1.00  0.00     0.025 A 
ATOM     31  C   UNL     1       6.935   0.901  -1.213  1.00  0.00     0.025 A 
ATOM     32  C   UNL     1       7.242   1.246   1.552  1.00  0.00     0.040 A 
ATOM     33  C   UNL     1       8.003   0.300  -0.549  1.00  0.00     0.040 A 
ATOM     34  C   UNL     1       8.146   0.477   0.825  1.00  0.00     0.123 A 
ATOM     35  F   UNL     1       9.173  -0.103   1.459  1.00  0.00    -0.207 F 
ENDBRANCH  26  29
ENDBRANCH  24  26
ENDBRANCH   4  24
TORSDOF 5
