REMARK SMILES Cc1cc(NS(=O)(=O)c2ccccc2)ccc1[C@H]1N=C(NC2CCN(C3CCCCC3)CC2)N=C2CN21
REMARK SMILES IDX 1 1 2 2 3 3 4 4 15 5 16 6 17 7 18 8 19 9 37 10 20 11 36 12
REMARK SMILES IDX 35 13 21 14 34 15 22 17 23 18 33 19 24 20 32 21 25 22 26 23
REMARK SMILES IDX 27 24 31 25 28 26 30 27 29 28 5 29 6 31 7 32 8 33 9 34 10 35
REMARK SMILES IDX 14 36 11 37 13 38 12 39
REMARK H PARENT 21 16 5 30
ROOT
ATOM      1  C   UNL     1       2.602  -4.131   1.503  1.00  0.00     0.045 C 
ATOM      2  C   UNL     1       2.875  -2.701   1.134  1.00  0.00    -0.042 A 
ATOM      3  C   UNL     1       3.963  -2.049   1.742  1.00  0.00     0.030 A 
ATOM      4  C   UNL     1       4.282  -0.731   1.413  1.00  0.00     0.049 A 
ATOM      5  C   UNL     1       3.523  -0.040   0.479  1.00  0.00     0.027 A 
ATOM      6  C   UNL     1       2.438  -0.671  -0.127  1.00  0.00     0.010 A 
ATOM      7  C   UNL     1       2.094  -2.005   0.182  1.00  0.00    -0.000 A 
ENDROOT
BRANCH   7   8
ATOM      8  C   UNL     1       0.943  -2.663  -0.586  1.00  0.00     0.237 C 
ATOM      9  N   UNL     1      -0.191  -1.765  -0.701  1.00  0.00    -0.221 NA
ATOM     10  N   UNL     1       1.449  -3.052  -1.875  1.00  0.00    -0.325 N 
ATOM     11  C   UNL     1      -0.838  -1.915  -1.806  1.00  0.00     0.222 C 
ATOM     12  C   UNL     1       1.674  -4.346  -2.252  1.00  0.00     0.195 C 
ATOM     13  C   UNL     1       0.472  -3.659  -2.707  1.00  0.00     0.130 C 
ATOM     14  N   UNL     1      -1.912  -1.142  -2.131  1.00  0.00    -0.352 N 
ATOM     15  N   UNL     1      -0.559  -2.876  -2.732  1.00  0.00    -0.198 NA
ATOM     16  H   UNL     1      -2.421  -1.520  -2.915  1.00  0.00     0.163 HD
BRANCH  14  17
ATOM     17  C   UNL     1      -2.643  -0.239  -1.262  1.00  0.00     0.084 C 
ATOM     18  C   UNL     1      -3.304  -0.959  -0.083  1.00  0.00     0.040 C 
ATOM     19  C   UNL     1      -1.798   0.942  -0.799  1.00  0.00     0.040 C 
ATOM     20  C   UNL     1      -3.349  -0.069   1.163  1.00  0.00     0.087 C 
ATOM     21  C   UNL     1      -2.649   1.932   0.012  1.00  0.00     0.087 C 
ATOM     22  N   UNL     1      -3.696   1.330   0.872  1.00  0.00    -0.300 NA
BRANCH  22  23
ATOM     23  C   UNL     1      -5.085   1.564   0.391  1.00  0.00     0.056 C 
ATOM     24  C   UNL     1      -6.199   0.969   1.298  1.00  0.00     0.019 C 
ATOM     25  C   UNL     1      -5.342   3.090   0.191  1.00  0.00     0.019 C 
ATOM     26  C   UNL     1      -6.660   1.948   2.377  1.00  0.00     0.002 C 
ATOM     27  C   UNL     1      -6.810   3.483   0.346  1.00  0.00     0.002 C 
ATOM     28  C   UNL     1      -7.316   3.187   1.759  1.00  0.00     0.000 C 
ENDBRANCH  22  23
ENDBRANCH  14  17
ENDBRANCH   7   8
BRANCH   4  29
ATOM     29  N   UNL     1       5.441  -0.116   1.965  1.00  0.00    -0.280 N 
ATOM     30  H   UNL     1       5.569  -0.193   2.975  1.00  0.00     0.180 HD
BRANCH  29  31
ATOM     31  S   UNL     1       6.916  -0.405   1.181  1.00  0.00     0.261 S 
ATOM     32  O   UNL     1       7.945   0.115   2.061  1.00  0.00    -0.201 OA
ATOM     33  O   UNL     1       6.961  -1.783   0.741  1.00  0.00    -0.201 OA
BRANCH  31  34
ATOM     34  C   UNL     1       6.827   0.663  -0.231  1.00  0.00     0.087 A 
ATOM     35  C   UNL     1       6.519   0.129  -1.488  1.00  0.00     0.022 A 
ATOM     36  C   UNL     1       7.097   2.027  -0.078  1.00  0.00     0.022 A 
ATOM     37  C   UNL     1       6.455   0.974  -2.594  1.00  0.00     0.001 A 
ATOM     38  C   UNL     1       7.038   2.864  -1.192  1.00  0.00     0.001 A 
ATOM     39  C   UNL     1       6.712   2.339  -2.444  1.00  0.00     0.000 A 
ENDBRANCH  31  34
ENDBRANCH  29  31
ENDBRANCH   4  29
TORSDOF 6
