MODEL        1USER    Run = 1USERUSER    Estimated Free Energy of Binding    = -11.33 kcal/mol  [=(1)+(2)+(3)-(4)]USERUSER    (1) Final Intermolecular Energy     = -13.12 kcal/molUSER        vdW + Hbond + desolv Energy     = -13.04 kcal/molUSER        Electrostatic Energy            =  -0.08 kcal/molUSER        Moving Ligand-Fixed Receptor    = -13.12 kcal/molUSER        Moving Ligand-Moving Receptor   =  +0.00 kcal/molUSER    (2) Final Total Internal Energy     =  -2.16 kcal/molUSER    (3) Torsional Free Energy           =  +1.79 kcal/molUSER    (4) Unbound System's Energy         =  -2.16 kcal/molUSERUSERREMARK SMILES Cc1cc(NS(=O)(=O)c2ccccc2)ccc1[C@H]1N=C(NC2CCN(C3CCCCC3)CC2)N=C2CN21REMARK SMILES IDX 1 1 2 2 3 3 4 4 15 5 16 6 17 7 18 8 19 9 37 10 20 11 36 12REMARK SMILES IDX 35 13 21 14 34 15 22 17 23 18 33 19 24 20 32 21 25 22 26 23REMARK SMILES IDX 27 24 31 25 28 26 30 27 29 28 5 29 6 31 7 32 8 33 9 34 10 35REMARK SMILES IDX 14 36 11 37 13 38 12 39REMARK H PARENT 21 16 5 30USER                              x       y       z     vdW  Elec       q    TypeUSER                           _______ _______ _______ _____ _____    ______ ____ROOTATOM      1  C   UNL     1      17.223 -14.843 -11.724 -0.40 -0.01    +0.045 C  ATOM      2  C   UNL     1      16.183 -14.355 -10.757 -0.35 +0.01    -0.042 A  ATOM      3  C   UNL     1      16.131 -12.980 -10.467 -0.26 -0.01    +0.030 A  ATOM      4  C   UNL     1      15.164 -12.467  -9.601 -0.35 -0.02    +0.049 A  ATOM      5  C   UNL     1      14.238 -13.313  -9.007 -0.20 -0.02    +0.027 A  ATOM      6  C   UNL     1      14.281 -14.679  -9.280 -0.33 -0.01    +0.010 A  ATOM      7  C   UNL     1      15.244 -15.226 -10.155 -0.32 +0.00    -0.000 A  ENDROOTBRANCH   7   8ATOM      8  C   UNL     1      15.178 -16.723 -10.477 -0.25 -0.04    +0.237 C  ATOM      9  N   UNL     1      14.816 -16.945 -11.864 -0.18 +0.04    -0.221 NA ATOM     10  N   UNL     1      16.462 -17.290 -10.163 -0.15 +0.01    -0.325 N  ATOM     11  C   UNL     1      15.375 -17.992 -12.366 -0.29 -0.04    +0.222 C  ATOM     12  C   UNL     1      16.696 -18.118  -9.101 -0.22 +0.01    +0.195 C  ATOM     13  C   UNL     1      16.550 -18.680 -10.438 -0.36 +0.00    +0.130 C  ATOM     14  N   UNL     1      15.201 -18.358 -13.667 -0.15 +0.11    -0.352 N  ATOM     15  N   UNL     1      16.148 -18.862 -11.655 -0.26 +0.01    -0.198 NA ATOM     16  H   UNL     1      15.530 -19.296 -13.839 -0.35 -0.09    +0.163 HD BRANCH  14  17ATOM     17  C   UNL     1      14.229 -17.833 -14.607 -0.37 -0.02    +0.084 C  ATOM     18  C   UNL     1      14.722 -16.574 -15.326 -0.39 -0.01    +0.040 C  ATOM     19  C   UNL     1      13.735 -18.887 -15.591 -0.37 -0.00    +0.040 C  ATOM     20  C   UNL     1      14.173 -16.492 -16.754 -0.40 +0.01    +0.087 C  ATOM     21  C   UNL     1      12.619 -18.317 -16.481 -0.35 +0.01    +0.087 C  ATOM     22  N   UNL     1      12.762 -16.891 -16.862 -0.16 -0.06    -0.300 NA BRANCH  22  23ATOM     23  C   UNL     1      11.782 -15.985 -16.203 -0.29 -0.00    +0.056 C  ATOM     24  C   UNL     1      11.994 -14.472 -16.493 -0.46 -0.01    +0.019 C  ATOM     25  C   UNL     1      10.324 -16.386 -16.589 -0.29 +0.00    +0.019 C  ATOM     26  C   UNL     1      11.235 -14.003 -17.734 -0.43 -0.00    +0.002 C  ATOM     27  C   UNL     1       9.340 -15.219 -16.536 -0.28 -0.00    +0.002 C  ATOM     28  C   UNL     1       9.721 -14.128 -17.539 -0.35 -0.00    +0.000 C  ENDBRANCH  22  23ENDBRANCH  14  17ENDBRANCH   7   8BRANCH   4  29ATOM     29  N   UNL     1      15.064 -11.063  -9.390 -0.24 +0.11    -0.280 N  ATOM     30  H   UNL     1      14.191 -10.716  -8.990 +0.09 -0.09    +0.180 HD BRANCH  29  31ATOM     31  S   UNL     1      16.377 -10.299  -8.638 -0.56 -0.06    +0.261 S  ATOM     32  O   UNL     1      17.491 -10.422  -9.558 -0.39 +0.03    -0.201 OA ATOM     33  O   UNL     1      15.963  -8.996  -8.163 -0.64 +0.05    -0.201 OA BRANCH  31  34ATOM     34  C   UNL     1      16.706 -11.356  -7.253 -0.38 -0.02    +0.087 A  ATOM     35  C   UNL     1      16.078 -11.109  -6.026 -0.53 -0.01    +0.022 A  ATOM     36  C   UNL     1      17.616 -12.409  -7.394 -0.37 -0.00    +0.022 A  ATOM     37  C   UNL     1      16.345 -11.941  -4.941 -0.55 -0.00    +0.001 A  ATOM     38  C   UNL     1      17.882 -13.232  -6.300 -0.43 -0.00    +0.001 A  ATOM     39  C   UNL     1      17.244 -13.001  -5.080 -0.45 +0.00    +0.000 A  ENDBRANCH  31  34ENDBRANCH  29  31ENDBRANCH   4  29TORSDOF 6TERENDMDL