MODEL        10USER    Run = 10USERUSER    Estimated Free Energy of Binding    =  -7.16 kcal/mol  [=(1)+(2)+(3)-(4)]USERUSER    (1) Final Intermolecular Energy     =  -8.36 kcal/molUSER        vdW + Hbond + desolv Energy     =  -8.00 kcal/molUSER        Electrostatic Energy            =  -0.36 kcal/molUSER        Moving Ligand-Fixed Receptor    =  -8.36 kcal/molUSER        Moving Ligand-Moving Receptor   =  +0.00 kcal/molUSER    (2) Final Total Internal Energy     =  -1.01 kcal/molUSER    (3) Torsional Free Energy           =  +1.19 kcal/molUSER    (4) Unbound System's Energy         =  -1.01 kcal/molUSERUSERREMARK SMILES Cn1c(-c2cccc(NC(=O)CF)c2)nc2c(F)c(-c3c(F)cccc3F)ccc21REMARK SMILES IDX 4 1 5 2 6 3 7 4 8 5 14 6 3 7 2 8 30 9 15 10 29 11 16 12REMARK SMILES IDX 28 13 17 14 19 15 1 16 18 17 20 18 21 19 26 20 23 21 25 22REMARK SMILES IDX 24 23 22 24 27 25 9 26 10 27 11 29 12 30 13 31REMARK H PARENT 9 28USER                              x       y       z     vdW  Elec       q    TypeUSER                           _______ _______ _______ _____ _____    ______ ____ROOTATOM      1  C   UNL     1       9.314 -14.374 -14.277 -0.26 -0.00    +0.019 A  ATOM      2  C   UNL     1       8.383 -15.367 -14.600 -0.31 +0.00    +0.012 A  ATOM      3  C   UNL     1       7.109 -15.008 -15.036 -0.37 +0.00    +0.003 A  ATOM      4  C   UNL     1       6.766 -13.656 -15.152 -0.32 +0.00    +0.026 A  ATOM      5  C   UNL     1       7.690 -12.650 -14.832 -0.26 -0.01    +0.041 A  ATOM      6  C   UNL     1       8.965 -13.019 -14.398 -0.23 -0.02    +0.038 A  ENDROOTBRANCH   1   7ATOM      7  C   UNL     1      10.655 -14.743 -13.838 -0.14 -0.03    +0.141 A  ATOM      8  N   UNL     1      11.744 -14.867 -14.677 -0.05 +0.10    -0.327 N  ATOM      9  C   UNL     1      12.839 -15.219 -13.919 -0.20 -0.02    +0.071 A  ATOM     10  N   UNL     1      10.996 -15.010 -12.593 -0.46 +0.00    -0.225 NA ATOM     11  C   UNL     1      14.183 -15.466 -14.225 -0.27 -0.01    +0.029 A  ATOM     12  C   UNL     1      12.338 -15.313 -12.621 -0.17 -0.03    +0.125 A  ATOM     13  C   UNL     1      15.030 -15.824 -13.164 -0.37 -0.00    +0.014 A  ATOM     14  C   UNL     1      13.208 -15.680 -11.578 -0.19 -0.05    +0.159 A  ATOM     15  C   UNL     1      14.568 -15.934 -11.839 -0.27 -0.01    +0.026 A  ATOM     16  C   UNL     1      11.725 -14.651 -16.104 -0.30 -0.06    +0.152 C  ATOM     17  F   UNL     1      12.734 -15.803 -10.324 -0.12 +0.09    -0.204 F  BRANCH  15  18ATOM     18  C   UNL     1      15.483 -16.304 -10.749 -0.29 -0.01    +0.056 A  ATOM     19  C   UNL     1      15.831 -17.639 -10.502 -0.30 -0.01    +0.134 A  ATOM     20  C   UNL     1      16.045 -15.335  -9.901 -0.25 -0.03    +0.134 A  ATOM     21  C   UNL     1      16.685 -18.000  -9.457 -0.35 +0.00    +0.040 A  ATOM     22  C   UNL     1      16.898 -15.679  -8.852 -0.35 -0.00    +0.040 A  ATOM     23  C   UNL     1      17.219 -17.018  -8.626 -0.37 +0.00    +0.006 A  ATOM     24  F   UNL     1      15.342 -18.619 -11.280 -0.12 +0.01    -0.206 F  ATOM     25  F   UNL     1      15.783 -14.033 -10.096 -0.05 +0.06    -0.206 F  ENDBRANCH  15  18ENDBRANCH   1   7BRANCH   5  26ATOM     26  N   UNL     1       7.270 -11.315 -14.986 -0.09 +0.13    -0.324 N  ATOM     27  C   UNL     1       6.035 -10.768 -14.673 -0.16 +0.08    +0.255 C  ATOM     28  H   UNL     1       7.953 -10.655 -15.346 -0.50 -0.25    +0.170 HD ATOM     29  O   UNL     1       5.048 -11.365 -14.254 -0.76 -0.25    -0.272 OA BRANCH  27  30ATOM     30  C   UNL     1       6.000  -9.270 -14.910 -0.10 +0.11    +0.314 C  ATOM     31  F   UNL     1       6.623  -8.918 -16.076 -0.02 -0.16    -0.240 F  ENDBRANCH  27  30ENDBRANCH   5  26TORSDOF 4TERENDMDL