MODEL        1USER    Run = 1USERUSER    Estimated Free Energy of Binding    =  -9.07 kcal/mol  [=(1)+(2)+(3)-(4)]USERUSER    (1) Final Intermolecular Energy     =  -9.96 kcal/molUSER        vdW + Hbond + desolv Energy     =  -9.97 kcal/molUSER        Electrostatic Energy            =  +0.00 kcal/molUSER        Moving Ligand-Fixed Receptor    =  -9.96 kcal/molUSER        Moving Ligand-Moving Receptor   =  +0.00 kcal/molUSER    (2) Final Total Internal Energy     =  -0.81 kcal/molUSER    (3) Torsional Free Energy           =  +0.89 kcal/molUSER    (4) Unbound System's Energy         =  -0.81 kcal/molUSERUSERREMARK SMILES CC(=O)Nc1cccc(-c2nc3c(F)c(-c4c(F)cccc4F)ccc3n2C)c1REMARK SMILES IDX 10 1 11 2 12 3 13 4 14 5 15 6 24 7 25 8 26 9 27 10 28 11REMARK SMILES IDX 9 12 5 13 6 14 29 15 7 16 8 17 4 18 2 19 1 20 3 21 16 23REMARK SMILES IDX 17 24 22 25 19 26 21 27 20 28 18 29 23 30REMARK H PARENT 4 22USER                              x       y       z     vdW  Elec       q    TypeUSER                           _______ _______ _______ _____ _____    ______ ____ROOTATOM      1  C   UNL     1      17.239 -14.387  -7.801 -0.29 -0.02    +0.141 A  ATOM      2  N   UNL     1      16.826 -15.567  -8.231 -0.24 +0.02    -0.225 NA ATOM      3  C   UNL     1      16.137 -15.343  -9.399 -0.26 -0.02    +0.125 A  ATOM      4  C   UNL     1      15.469 -16.241 -10.251 -0.23 -0.03    +0.159 A  ATOM      5  F   UNL     1      15.438 -17.551  -9.949 -0.09 +0.01    -0.204 F  ATOM      6  C   UNL     1      14.816 -15.776 -11.408 -0.28 -0.01    +0.026 A  ATOM      7  C   UNL     1      14.846 -14.397 -11.684 -0.33 -0.00    +0.014 A  ATOM      8  C   UNL     1      15.510 -13.481 -10.856 -0.30 -0.01    +0.029 A  ATOM      9  C   UNL     1      16.149 -13.990  -9.719 -0.31 -0.02    +0.071 A  ATOM     10  N   UNL     1      16.888 -13.406  -8.712 -0.15 +0.07    -0.327 N  ATOM     11  C   UNL     1      17.275 -12.015  -8.677 -0.34 -0.03    +0.152 C  ENDROOTBRANCH   1  12ATOM     12  C   UNL     1      17.991 -14.190  -6.555 -0.41 +0.00    +0.019 A  ATOM     13  C   UNL     1      18.840 -12.765  -4.766 -0.49 +0.01    +0.041 A  ATOM     14  C   UNL     1      19.412 -13.888  -4.157 -0.57 +0.01    +0.026 A  ATOM     15  C   UNL     1      18.113 -12.930  -5.949 -0.42 +0.00    +0.038 A  ATOM     16  C   UNL     1      19.274 -15.152  -4.732 -0.53 +0.00    +0.003 A  ATOM     17  C   UNL     1      18.567 -15.300  -5.924 -0.45 +0.00    +0.012 A  BRANCH  13  18ATOM     18  N   UNL     1      19.021 -11.520  -4.128 -0.27 -0.05    -0.326 N  ATOM     19  C   UNL     1      18.129 -10.873  -3.291 -0.43 +0.05    +0.221 C  ATOM     20  C   UNL     1      18.680  -9.577  -2.750 -0.68 +0.03    +0.114 C  ATOM     21  O   UNL     1      16.991 -11.234  -3.013 -0.88 -0.10    -0.275 OA ATOM     22  H   UNL     1      19.871 -11.024  -4.362 +0.09 +0.02    +0.169 HD ENDBRANCH  13  18ENDBRANCH   1  12BRANCH   6  23ATOM     23  C   UNL     1      14.115 -16.706 -12.304 -0.27 -0.01    +0.056 A  ATOM     24  C   UNL     1      14.684 -17.130 -13.513 -0.28 -0.03    +0.134 A  ATOM     25  C   UNL     1      12.846 -17.211 -11.992 -0.30 -0.02    +0.134 A  ATOM     26  C   UNL     1      14.028 -18.018 -14.367 -0.33 -0.01    +0.040 A  ATOM     27  C   UNL     1      12.177 -18.100 -12.834 -0.40 -0.00    +0.040 A  ATOM     28  C   UNL     1      12.770 -18.508 -14.026 -0.29 -0.00    +0.006 A  ATOM     29  F   UNL     1      15.884 -16.662 -13.893 -0.09 +0.08    -0.206 F  ATOM     30  F   UNL     1      12.237 -16.845 -10.853 -0.14 +0.06    -0.206 F  ENDBRANCH   6  23TORSDOF 3TERENDMDL