MODEL        9USER    Run = 9USERUSER    Estimated Free Energy of Binding    =  -5.73 kcal/mol  [=(1)+(2)+(3)-(4)]USERUSER    (1) Final Intermolecular Energy     =  -9.91 kcal/molUSER        vdW + Hbond + desolv Energy     =  -9.98 kcal/molUSER        Electrostatic Energy            =  -0.49 kcal/molUSER        Moving Ligand-Fixed Receptor    = -10.47 kcal/molUSER        Moving Ligand-Moving Receptor   =  +0.56 kcal/molUSER    (2) Final Total Internal Energy     =  -3.23 kcal/molUSER    (3) Torsional Free Energy           =  +4.18 kcal/molUSER    (4) Unbound System's Energy         =  -3.23 kcal/molUSERUSERREMARK SMILES COc1ccc(O)c(C(=O)c2ccc(C(=O)N[C@@H]3CCCNC[C@H]3NC(=O)c3ccncc3)cc2)c1REMARK SMILES IDX 15 1 16 2 17 3 14 5 11 6 12 7 35 8 13 9 34 10 9 11 10 12REMARK SMILES IDX 8 13 3 14 4 15 36 16 5 17 6 18 2 19 1 20 7 21 18 23 19 24REMARK SMILES IDX 24 26 23 27 22 28 21 30 20 31 25 33 26 34 27 36 28 37 29 38REMARK SMILES IDX 33 39 30 40 32 41 31 42REMARK H PARENT 17 4 7 22 22 29 25 35REMARK Flexibility Score:   88.900USER                              x       y       z     vdW  Elec       q    TypeUSER                           _______ _______ _______ _____ _____    ______ ____ROOTATOM      1  C   UNL     1       5.658  -6.513 -12.690 -0.12 -0.03    +0.251 C  ATOM      2  O   UNL     1       4.718  -5.846 -13.110 -0.05 +0.01    -0.269 OA ATOM      3  N   UNL     1       6.449  -6.109 -11.630 -0.13 +0.11    -0.347 N  ATOM      4  H   UNL     1       7.020  -6.793 -11.150 +0.09 -0.04    +0.164 HD ENDROOTBRANCH   1   5ATOM      5  C   UNL     1       5.988  -7.819 -13.326 -0.21 +0.00    +0.039 A  ATOM      6  C   UNL     1       6.479 -10.269 -14.624 -0.22 +0.00    +0.023 A  ATOM      7  C   UNL     1       5.197  -9.966 -14.153 -0.22 +0.01    +0.013 A  ATOM      8  C   UNL     1       7.514  -9.344 -14.433 -0.25 -0.00    +0.013 A  ATOM      9  C   UNL     1       4.957  -8.750 -13.504 -0.19 +0.01    +0.014 A  ATOM     10  C   UNL     1       7.271  -8.122 -13.798 -0.21 -0.00    +0.014 A  BRANCH   6  11ATOM     11  C   UNL     1       6.788 -11.517 -15.379 -0.19 -0.03    +0.196 C  ATOM     12  O   UNL     1       6.405 -11.664 -16.540 -0.11 +0.01    -0.288 OA BRANCH  11  13ATOM     13  C   UNL     1       7.490 -12.640 -14.732 -0.26 -0.02    +0.068 A  ATOM     14  C   UNL     1       9.228 -13.367 -13.225 -0.26 -0.02    +0.119 A  ATOM     15  C   UNL     1       8.869 -14.694 -13.490 -0.20 +0.00    +0.050 A  ATOM     16  C   UNL     1       8.524 -12.333 -13.837 -0.15 -0.03    +0.062 A  ATOM     17  C   UNL     1       7.822 -14.998 -14.365 -0.36 +0.00    +0.051 A  ATOM     18  C   UNL     1       7.131 -13.964 -14.988 -0.30 -0.00    +0.127 A  BRANCH  14  19ATOM     19  O   UNL     1      10.273 -13.219 -12.354 -0.20 +0.09    -0.497 OA ATOM     20  C   UNL     1      10.709 -11.888 -12.097 -0.32 -0.11    +0.278 C  ENDBRANCH  14  19BRANCH  18  21ATOM     21  O   UNL     1       6.114 -14.249 -15.855 -0.11 -0.05    -0.507 OA ATOM     22  H   UNL     1       5.474 -13.512 -15.836 -0.10 +0.04    +0.293 HD ENDBRANCH  18  21ENDBRANCH  11  13ENDBRANCH   6  11ENDBRANCH   1   5BRANCH   3  23ATOM     23  C   UNL     1       6.197  -4.845 -10.933 -0.34 -0.05    +0.106 C  BRANCH  23  24ATOM     24  C   UNL     1       7.483  -4.406 -10.216 -0.51 -0.02    +0.028 CG0ATOM     25  G   UNL     1       7.374  -3.116  -9.396 +0.00 +0.00    +0.000 G0 ENDBRANCH  23  24BRANCH  23  26ATOM     26  C   UNL     1       4.897  -4.898 -10.071 -0.30 -0.03    +0.118 C  BRANCH  26  27ATOM     27  C   UNL     1       4.291  -3.486  -9.797 -0.31 -0.06    +0.108 C  BRANCH  27  28ATOM     28  N   UNL     1       4.993  -2.562  -8.889 -0.17 +0.36    -0.315 NA ATOM     29  H   UNL     1       5.183  -1.699  -9.402 -0.46 -0.31    +0.122 HD BRANCH  28  30ATOM     30  C   UNL     1       6.242  -3.091  -8.359 -0.41 -0.07    +0.081 C  BRANCH  30  31ATOM     31  C   UNL     1       7.371  -3.121  -9.399 -0.60 -0.02    +0.017 CG0ATOM     32  G   UNL     1       7.482  -4.411 -10.218 +0.00 +0.00    +0.000 G0 ENDBRANCH  30  31ENDBRANCH  28  30ENDBRANCH  27  28ENDBRANCH  26  27BRANCH  26  33ATOM     33  N   UNL     1       3.936  -5.864 -10.637 -0.10 +0.02    -0.346 N  ATOM     34  C   UNL     1       3.743  -7.117 -10.091 -0.33 +0.02    +0.251 C  ATOM     35  H   UNL     1       3.768  -5.782 -11.631 +0.08 -0.01    +0.164 HD ATOM     36  O   UNL     1       4.217  -7.474  -9.020 -0.31 -0.03    -0.269 OA BRANCH  34  37ATOM     37  C   UNL     1       2.926  -8.071 -10.892 -0.37 +0.01    +0.042 A  ATOM     38  C   UNL     1       2.926  -9.414 -10.511 -0.44 +0.01    +0.034 A  ATOM     39  C   UNL     1       2.162  -7.669 -11.988 -0.20 +0.01    +0.034 A  ATOM     40  C   UNL     1       2.183 -10.305 -11.259 -0.37 +0.10    +0.112 A  ATOM     41  C   UNL     1       1.450  -8.640 -12.671 -0.16 +0.10    +0.112 A  ATOM     42  N   UNL     1       1.449  -9.947 -12.335 -0.59 -0.49    -0.265 NA ENDBRANCH  34  37ENDBRANCH  26  33ENDBRANCH  23  26ENDBRANCH   3  23TORSDOF 8TERENDMDL