MODEL        5USER    Run = 5USERUSER    Estimated Free Energy of Binding    =  -9.60 kcal/mol  [=(1)+(2)+(3)-(4)]USERUSER    (1) Final Intermolecular Energy     = -11.09 kcal/molUSER        vdW + Hbond + desolv Energy     = -10.79 kcal/molUSER        Electrostatic Energy            =  -0.30 kcal/molUSER        Moving Ligand-Fixed Receptor    = -11.09 kcal/molUSER        Moving Ligand-Moving Receptor   =  +0.00 kcal/molUSER    (2) Final Total Internal Energy     =  -1.27 kcal/molUSER    (3) Torsional Free Energy           =  +1.49 kcal/molUSER    (4) Unbound System's Energy         =  -1.27 kcal/molUSERUSERREMARK SMILES Cc1cc(NS(=O)(=O)c2ccc(F)cc2)ccc1[C@H]1N=C(NC2CCN(C)CC2)N=C2CN21REMARK SMILES IDX 1 1 2 2 3 3 4 4 16 5 17 6 18 7 19 8 20 9 33 10 21 11 32 12REMARK SMILES IDX 31 13 22 14 30 15 23 17 24 18 29 19 25 20 28 21 26 22 27 23REMARK SMILES IDX 5 24 6 26 7 27 8 28 9 29 10 30 15 31 11 32 14 33 12 34 13 35REMARK H PARENT 22 16 5 25USER                              x       y       z     vdW  Elec       q    TypeUSER                           _______ _______ _______ _____ _____    ______ ____ROOTATOM      1  C   UNL     1      13.103 -14.679 -10.299 -0.40 -0.03    +0.045 C  ATOM      2  C   UNL     1      12.866 -13.905 -11.569 -0.28 +0.02    -0.042 A  ATOM      3  C   UNL     1      12.361 -12.595 -11.472 -0.35 -0.02    +0.030 A  ATOM      4  C   UNL     1      12.109 -11.835 -12.614 -0.28 -0.03    +0.049 A  ATOM      5  C   UNL     1      12.370 -12.373 -13.869 -0.33 -0.02    +0.027 A  ATOM      6  C   UNL     1      12.874 -13.669 -13.983 -0.23 -0.01    +0.010 A  ATOM      7  C   UNL     1      13.123 -14.463 -12.845 -0.27 +0.00    -0.000 A  ENDROOTBRANCH   7   8ATOM      8  C   UNL     1      13.711 -15.871 -13.012 -0.17 -0.07    +0.237 C  ATOM      9  N   UNL     1      14.867 -16.107 -12.138 -0.16 +0.06    -0.221 NA ATOM     10  N   UNL     1      12.621 -16.830 -12.938 -0.09 +0.05    -0.325 N  ATOM     11  C   UNL     1      14.727 -16.925 -11.155 -0.26 -0.04    +0.222 C  ATOM     12  C   UNL     1      12.905 -18.213 -13.157 -0.30 -0.03    +0.195 C  ATOM     13  C   UNL     1      12.706 -17.609 -11.826 -0.40 -0.02    +0.130 C  ATOM     14  N   UNL     1      15.741 -17.185 -10.280 -0.14 +0.03    -0.352 N  ATOM     15  N   UNL     1      13.561 -17.576 -10.878 -0.23 +0.05    -0.198 NA ATOM     16  H   UNL     1      15.403 -17.659  -9.452 +0.09 +0.00    +0.163 HD BRANCH  14  17ATOM     17  C   UNL     1      16.892 -16.305 -10.111 -0.31 -0.01    +0.084 C  ATOM     18  C   UNL     1      17.683 -16.732  -8.867 -0.41 +0.00    +0.040 C  ATOM     19  C   UNL     1      16.439 -14.838 -10.027 -0.39 -0.01    +0.040 C  ATOM     20  C   UNL     1      18.515 -15.575  -8.319 -0.38 +0.00    +0.086 C  ATOM     21  C   UNL     1      16.390 -14.354  -8.581 -0.36 -0.02    +0.086 C  ATOM     22  N   UNL     1      17.721 -14.391  -7.960 -0.18 +0.02    -0.306 NA ATOM     23  C   UNL     1      17.623 -14.207  -6.515 -0.40 -0.00    +0.105 C  ENDBRANCH  14  17ENDBRANCH   7   8BRANCH   4  24ATOM     24  N   UNL     1      11.609 -10.504 -12.533 -0.21 +0.16    -0.280 N  ATOM     25  H   UNL     1      11.676  -9.927 -13.372 -0.20 -0.16    +0.180 HD BRANCH  24  26ATOM     26  S   UNL     1      10.152 -10.205 -11.733 -0.62 -0.06    +0.261 S  ATOM     27  O   UNL     1      10.132  -8.840 -11.255 -1.61 -0.01    -0.201 OA ATOM     28  O   UNL     1       9.958 -11.322 -10.832 -0.90 -0.00    -0.201 OA BRANCH  26  29ATOM     29  C   UNL     1       8.940 -10.383 -13.019 -0.19 -0.05    +0.088 A  ATOM     30  C   UNL     1       8.200  -9.273 -13.442 -0.32 -0.01    +0.025 A  ATOM     31  C   UNL     1       8.735 -11.645 -13.590 -0.01 -0.01    +0.025 A  ATOM     32  C   UNL     1       7.252  -9.428 -14.454 -0.25 -0.01    +0.040 A  ATOM     33  C   UNL     1       7.789 -11.790 -14.603 -0.11 -0.02    +0.040 A  ATOM     34  C   UNL     1       7.058 -10.682 -15.026 -0.14 -0.04    +0.123 A  ATOM     35  F   UNL     1       6.150 -10.827 -16.000 -0.01 -0.04    -0.207 F  ENDBRANCH  26  29ENDBRANCH  24  26ENDBRANCH   4  24TORSDOF 5TERENDMDL