MODEL        3USER    Run = 3USERUSER    Estimated Free Energy of Binding    = -10.41 kcal/mol  [=(1)+(2)+(3)-(4)]USERUSER    (1) Final Intermolecular Energy     = -12.50 kcal/molUSER        vdW + Hbond + desolv Energy     = -12.46 kcal/molUSER        Electrostatic Energy            =  -0.04 kcal/molUSER        Moving Ligand-Fixed Receptor    = -12.50 kcal/molUSER        Moving Ligand-Moving Receptor   =  +0.00 kcal/molUSER    (2) Final Total Internal Energy     =  -2.02 kcal/molUSER    (3) Torsional Free Energy           =  +2.09 kcal/molUSER    (4) Unbound System's Energy         =  -2.02 kcal/molUSERUSERREMARK SMILES Cc1cc(NS(=O)(=O)c2cc(Cl)ccc2Cl)ccc1[C@@H]1N=C(NC2CCN(Cc3ccccc3)CC2)N=C2CN21REMARK SMILES IDX 1 1 2 2 3 3 4 4 17 5 18 6 19 7 20 8 21 9 40 10 22 11 39 12REMARK SMILES IDX 38 13 23 14 37 15 24 17 25 18 36 19 26 20 35 21 27 22 28 23REMARK SMILES IDX 29 24 30 25 34 26 31 27 33 28 32 29 5 30 6 32 7 33 8 34 9 35REMARK SMILES IDX 10 36 15 37 11 38 14 39 13 40 16 41 12 42REMARK H PARENT 23 16 5 31USER                              x       y       z     vdW  Elec       q    TypeUSER                           _______ _______ _______ _____ _____    ______ ____ROOTATOM      1  C   UNL     1      18.347 -13.887 -11.230 +0.00 -0.01    +0.045 C  ATOM      2  C   UNL     1      16.860 -14.109 -11.303 -0.44 +0.01    -0.042 A  ATOM      3  C   UNL     1      16.378 -15.107 -12.171 -0.40 -0.01    +0.030 A  ATOM      4  C   UNL     1      15.010 -15.335 -12.305 -0.32 -0.02    +0.049 A  ATOM      5  C   UNL     1      14.100 -14.572 -11.586 -0.27 -0.01    +0.027 A  ATOM      6  C   UNL     1      14.561 -13.566 -10.737 -0.32 -0.00    +0.010 A  ATOM      7  C   UNL     1      15.940 -13.313 -10.572 -0.33 +0.00    -0.000 A  ENDROOTBRANCH   7   8ATOM      8  C   UNL     1      16.403 -12.175  -9.649 -0.28 -0.06    +0.237 C  ATOM      9  N   UNL     1      17.288 -12.674  -8.559 -0.22 +0.04    -0.221 NA ATOM     10  N   UNL     1      15.211 -11.494  -9.153 -0.21 +0.13    -0.325 N  ATOM     11  C   UNL     1      17.317 -11.980  -7.463 -0.30 -0.03    +0.222 C  ATOM     12  C   UNL     1      15.006  -9.908  -8.986 -0.48 -0.07    +0.195 C  ATOM     13  C   UNL     1      15.721 -10.771  -8.173 -0.50 -0.04    +0.130 C  ATOM     14  N   UNL     1      18.035 -12.365  -6.373 -0.13 +0.00    -0.352 N  ATOM     15  N   UNL     1      16.656 -10.783  -7.340 -0.31 +0.04    -0.198 NA ATOM     16  H   UNL     1      18.119 -11.647  -5.664 +0.13 +0.01    +0.163 HD BRANCH  14  17ATOM     17  C   UNL     1      19.022 -13.428  -6.363 -0.41 +0.01    +0.084 C  ATOM     18  C   UNL     1      18.535 -14.596  -7.230 -0.40 +0.00    +0.040 C  ATOM     19  C   UNL     1      19.304 -13.855  -4.918 -0.60 +0.01    +0.040 C  ATOM     20  C   UNL     1      17.905 -15.699  -6.384 -0.30 +0.01    +0.087 C  ATOM     21  C   UNL     1      19.812 -15.293  -4.882 -0.53 +0.05    +0.087 C  ATOM     22  N   UNL     1      18.819 -16.259  -5.377 -0.23 -0.11    -0.299 NA BRANCH  22  23ATOM     23  C   UNL     1      19.490 -17.491  -5.826 -0.34 +0.05    +0.120 C  BRANCH  23  24ATOM     24  C   UNL     1      18.837 -18.144  -7.025 -0.35 -0.01    -0.034 A  ATOM     25  C   UNL     1      17.674 -18.915  -6.874 -0.21 +0.00    +0.005 A  ATOM     26  C   UNL     1      19.403 -18.019  -8.302 -0.42 +0.00    +0.005 A  ATOM     27  C   UNL     1      17.092 -19.542  -7.976 -0.37 +0.00    +0.000 A  ATOM     28  C   UNL     1      18.818 -18.645  -9.404 -0.33 +0.00    +0.000 A  ATOM     29  C   UNL     1      17.664 -19.409  -9.241 -0.41 +0.00    +0.000 A  ENDBRANCH  23  24ENDBRANCH  22  23ENDBRANCH  14  17ENDBRANCH   7   8BRANCH   4  30ATOM     30  N   UNL     1      14.560 -16.332 -13.209 -0.15 +0.08    -0.280 N  ATOM     31  H   UNL     1      15.198 -17.095 -13.433 +0.12 -0.05    +0.180 HD BRANCH  30  32ATOM     32  S   UNL     1      12.967 -16.874 -13.069 -0.27 -0.05    +0.263 S  ATOM     33  O   UNL     1      12.614 -16.937 -11.665 -0.32 +0.04    -0.201 OA ATOM     34  O   UNL     1      12.842 -18.056 -13.893 -0.26 +0.03    -0.201 OA BRANCH  32  35ATOM     35  C   UNL     1      12.034 -15.573 -13.822 -0.15 -0.02    +0.107 A  ATOM     36  C   UNL     1      11.183 -14.814 -13.001 -0.20 -0.01    +0.044 A  ATOM     37  C   UNL     1      12.117 -15.303 -15.190 -0.21 -0.02    +0.061 A  ATOM     38  C   UNL     1      10.418 -13.793 -13.555 -0.24 -0.01    +0.042 A  ATOM     39  C   UNL     1      11.334 -14.276 -15.733 -0.28 -0.01    +0.023 A  ATOM     40  C   UNL     1      10.484 -13.524 -14.919 -0.20 -0.01    +0.022 A  ATOM     41  Cl  UNL     1      13.170 -16.123 -16.283 -0.54 +0.00    -0.083 Cl ATOM     42  Cl  UNL     1       9.387 -12.855 -12.550 -0.48 +0.01    -0.084 Cl ENDBRANCH  32  35ENDBRANCH  30  32ENDBRANCH   4  30TORSDOF 7TERENDMDL