MODEL        9USER    Run = 9USERUSER    Estimated Free Energy of Binding    =  -8.63 kcal/mol  [=(1)+(2)+(3)-(4)]USERUSER    (1) Final Intermolecular Energy     = -11.02 kcal/molUSER        vdW + Hbond + desolv Energy     = -10.77 kcal/molUSER        Electrostatic Energy            =  -0.25 kcal/molUSER        Moving Ligand-Fixed Receptor    = -11.02 kcal/molUSER        Moving Ligand-Moving Receptor   =  +0.00 kcal/molUSER    (2) Final Total Internal Energy     =  -1.96 kcal/molUSER    (3) Torsional Free Energy           =  +2.39 kcal/molUSER    (4) Unbound System's Energy         =  -1.96 kcal/molUSERUSERREMARK SMILES COc1ccc(O)c(C(=O)c2ccc(C(=O)N[C@@H]3CCN(C)C[C@H]3NC(=O)c3ccncc3)cc2)c1FREMARK SMILES IDX 11 1 12 2 13 3 14 4 34 5 35 6 9 7 10 8 8 9 3 10 4 11 36 12REMARK SMILES IDX 5 13 6 14 37 15 2 16 1 17 7 18 15 20 17 21 16 22 18 24 19 25REMARK SMILES IDX 24 26 20 27 23 28 21 29 22 30 25 31 26 32 27 34 28 35 29 36REMARK SMILES IDX 33 37 30 38 32 39 31 40REMARK H PARENT 7 19 17 23 25 33USER                              x       y       z     vdW  Elec       q    TypeUSER                           _______ _______ _______ _____ _____    ______ ____ROOTATOM      1  C   UNL     1      -0.693   2.418  -4.109 -0.34 +0.00    +0.023 A  ATOM      2  C   UNL     1      -0.248   3.229  -5.160 -0.28 -0.00    +0.013 A  ATOM      3  C   UNL     1       0.777   2.782  -5.999 -0.35 +0.00    +0.014 A  ATOM      4  C   UNL     1       1.363   1.525  -5.794 -0.36 +0.00    +0.039 A  ATOM      5  C   UNL     1       0.897   0.703  -4.759 -0.37 +0.00    +0.014 A  ATOM      6  C   UNL     1      -0.131   1.149  -3.923 -0.39 +0.00    +0.013 A  ENDROOTBRANCH   1   7ATOM      7  C   UNL     1      -1.814   2.828  -3.231 -0.21 -0.02    +0.199 C  ATOM      8  O   UNL     1      -2.956   2.840  -3.695 -0.12 +0.01    -0.288 OA BRANCH   7   9ATOM      9  C   UNL     1      -1.628   3.282  -1.838 -0.20 -0.03    +0.104 A  ATOM     10  C   UNL     1      -0.769   2.953   0.420 -0.31 -0.04    +0.155 A  ATOM     11  C   UNL     1      -1.282   4.198   0.792 -0.28 -0.02    +0.053 A  ATOM     12  C   UNL     1      -0.952   2.504  -0.896 -0.25 -0.03    +0.179 A  ATOM     13  C   UNL     1      -1.988   4.970  -0.135 -0.29 -0.03    +0.051 A  ATOM     14  C   UNL     1      -2.173   4.506  -1.434 -0.08 -0.06    +0.130 A  ATOM     15  F   UNL     1      -0.489   1.290  -1.235 -0.14 +0.00    -0.202 F  BRANCH  10  16ATOM     16  O   UNL     1      -0.083   2.101   1.243 -0.17 +0.12    -0.494 OA ATOM     17  C   UNL     1      -0.416   2.116   2.625 -0.20 -0.09    +0.278 C  ENDBRANCH  10  16BRANCH  14  18ATOM     18  O   UNL     1      -2.905   5.306  -2.270 -0.09 +0.21    -0.507 OA ATOM     19  H   UNL     1      -2.748   5.004  -3.194 -0.32 -0.14    +0.293 HD ENDBRANCH  14  18ENDBRANCH   7   9ENDBRANCH   1   7BRANCH   4  20ATOM     20  C   UNL     1       2.440   1.084  -6.722 -0.26 +0.01    +0.251 C  ATOM     21  N   UNL     1       2.020   0.612  -7.952 -0.09 -0.01    -0.347 N  ATOM     22  O   UNL     1       3.610   1.128  -6.365 -0.82 -0.02    -0.269 OA ATOM     23  H   UNL     1       1.065   0.278  -7.980 +0.07 +0.07    +0.164 HD BRANCH  21  24ATOM     24  C   UNL     1       2.963  -0.018  -8.888 -0.26 -0.05    +0.107 C  ATOM     25  C   UNL     1       2.681   0.364 -10.354 -0.22 -0.02    +0.042 C  ATOM     26  C   UNL     1       2.955  -1.565  -8.742 -0.27 -0.05    +0.118 C  ATOM     27  C   UNL     1       1.442  -0.335 -10.913 -0.13 -0.00    +0.086 C  ATOM     28  C   UNL     1       1.669  -2.161  -9.350 -0.22 +0.02    +0.111 C  ATOM     29  N   UNL     1       1.545  -1.798 -10.776 -0.06 -0.01    -0.304 NA ATOM     30  C   UNL     1       0.371  -2.443 -11.366 -0.14 +0.03    +0.105 C  BRANCH  26  31ATOM     31  N   UNL     1       4.124  -2.165  -9.392 -0.10 +0.35    -0.346 N  ATOM     32  C   UNL     1       4.699  -3.324  -8.925 -0.32 -0.16    +0.251 C  ATOM     33  H   UNL     1       4.555  -1.605 -10.115 -0.47 -0.34    +0.164 HD ATOM     34  O   UNL     1       4.201  -3.995  -8.028 -0.35 +0.08    -0.269 OA BRANCH  32  35ATOM     35  C   UNL     1       5.962  -3.766  -9.574 -0.39 -0.03    +0.042 A  ATOM     36  C   UNL     1       6.032  -4.881 -10.409 -0.33 -0.01    +0.034 A  ATOM     37  C   UNL     1       7.112  -3.005  -9.346 -0.51 -0.04    +0.034 A  ATOM     38  C   UNL     1       7.261  -5.199 -10.961 -0.39 -0.07    +0.112 A  ATOM     39  C   UNL     1       8.291  -3.409  -9.944 -0.47 -0.11    +0.112 A  ATOM     40  N   UNL     1       8.391  -4.493 -10.740 -0.29 +0.24    -0.265 NA ENDBRANCH  32  35ENDBRANCH  26  31ENDBRANCH  21  24ENDBRANCH   4  20TORSDOF 8TERENDMDL