MODEL        2USER    Run = 2USERUSER    Estimated Free Energy of Binding    = -11.99 kcal/mol  [=(1)+(2)+(3)-(4)]USERUSER    (1) Final Intermolecular Energy     = -14.07 kcal/molUSER        vdW + Hbond + desolv Energy     = -13.90 kcal/molUSER        Electrostatic Energy            =  -0.17 kcal/molUSER        Moving Ligand-Fixed Receptor    = -14.07 kcal/molUSER        Moving Ligand-Moving Receptor   =  +0.00 kcal/molUSER    (2) Final Total Internal Energy     =  -2.27 kcal/molUSER    (3) Torsional Free Energy           =  +2.09 kcal/molUSER    (4) Unbound System's Energy         =  -2.27 kcal/molUSERUSERREMARK SMILES Oc1nc2ccccc2n1C1CCN(Cc2ccc(-c3nc4ccccc4nc3-c3ccnc(N4CCOCC4)c3)cc2)CC1REMARK SMILES IDX 15 1 14 2 11 3 12 4 45 5 13 6 44 7 10 8 2 9 3 10 4 11 9 12REMARK SMILES IDX 5 13 8 14 6 15 7 16 1 17 16 19 17 20 43 21 18 22 42 23 19 24REMARK SMILES IDX 20 25 21 26 29 27 22 28 28 29 23 30 27 31 24 32 26 33 25 34REMARK SMILES IDX 30 35 31 36 41 37 32 38 34 39 33 40 35 41 36 42 40 43 37 44REMARK SMILES IDX 39 45 38 46REMARK H PARENT 1 18USER                              x       y       z     vdW  Elec       q    TypeUSER                           _______ _______ _______ _____ _____    ______ ____ROOTATOM      1  C   UNL     1      37.205  43.419  20.745 -0.36 -0.00    +0.120 C  ENDROOTBRANCH   1   2ATOM      2  N   UNL     1      37.963  44.509  21.377 -0.19 -0.01    -0.299 NA ATOM      3  C   UNL     1      40.826  43.685  21.402 -0.25 +0.01    +0.095 C  ATOM      4  C   UNL     1      39.785  43.135  22.389 -0.26 +0.00    +0.041 C  ATOM      5  C   UNL     1      40.177  44.352  20.175 -0.35 +0.00    +0.041 C  ATOM      6  C   UNL     1      38.628  44.102  22.616 -0.30 +0.00    +0.087 C  ATOM      7  C   UNL     1      38.916  45.170  20.479 -0.35 +0.00    +0.087 C  BRANCH   3   8ATOM      8  N   UNL     1      41.886  44.422  22.087 -0.12 -0.03    -0.291 N  ATOM      9  C   UNL     1      43.202  44.103  22.258 -0.12 +0.06    +0.295 A  ATOM     10  N   UNL     1      43.879  45.006  22.916 -0.10 -0.06    -0.195 NA ATOM     11  C   UNL     1      42.960  45.976  23.215 -0.12 +0.02    +0.092 A  ATOM     12  C   UNL     1      41.699  45.643  22.720 -0.17 +0.01    +0.072 A  ATOM     13  C   UNL     1      43.134  47.178  23.916 -0.18 +0.01    +0.031 A  ATOM     14  C   UNL     1      40.583  46.473  22.898 -0.22 +0.00    +0.029 A  ATOM     15  C   UNL     1      42.030  48.018  24.102 -0.30 +0.00    +0.002 A  ATOM     16  C   UNL     1      40.776  47.668  23.601 -0.27 +0.00    +0.002 A  BRANCH   9  17ATOM     17  O   UNL     1      43.787  43.004  21.838 -0.14 -0.08    -0.480 OA ATOM     18  H   UNL     1      43.030  42.393  21.777 -0.28 -0.03    +0.296 HD ENDBRANCH   9  17ENDBRANCH   3   8ENDBRANCH   1   2BRANCH   1  19ATOM     19  C   UNL     1      36.341  43.879  19.590 -0.37 +0.00    -0.034 A  ATOM     20  C   UNL     1      36.737  43.654  18.267 -0.19 -0.00    +0.006 A  ATOM     21  C   UNL     1      35.108  44.501  19.826 -0.31 -0.00    +0.006 A  ATOM     22  C   UNL     1      35.925  44.066  17.205 -0.31 -0.00    +0.011 A  ATOM     23  C   UNL     1      34.300  44.912  18.762 -0.41 -0.00    +0.011 A  ATOM     24  C   UNL     1      34.700  44.717  17.430 -0.31 -0.00    +0.002 A  BRANCH  24  25ATOM     25  C   UNL     1      33.870  45.157  16.294 -0.25 -0.07    +0.097 A  ATOM     26  N   UNL     1      32.542  44.898  16.453 -0.26 +0.13    -0.244 NA ATOM     27  C   UNL     1      34.350  45.807  15.145 -0.20 -0.10    +0.097 A  ATOM     28  C   UNL     1      31.704  45.318  15.489 -0.34 -0.05    +0.089 A  ATOM     29  N   UNL     1      33.493  46.240  14.176 -0.20 +0.25    -0.244 NA ATOM     30  C   UNL     1      30.340  45.087  15.616 -0.36 -0.01    +0.030 A  ATOM     31  C   UNL     1      32.182  45.996  14.346 -0.31 -0.07    +0.089 A  ATOM     32  C   UNL     1      29.436  45.512  14.641 -0.23 -0.00    +0.002 A  ATOM     33  C   UNL     1      31.275  46.414  13.380 -0.46 -0.02    +0.030 A  ATOM     34  C   UNL     1      29.907  46.179  13.517 -0.48 -0.00    +0.002 A  BRANCH  27  35ATOM     35  C   UNL     1      35.766  46.072  14.839 -0.38 -0.01    +0.008 A  ATOM     36  C   UNL     1      36.350  45.552  13.682 -0.43 -0.01    +0.030 A  ATOM     37  C   UNL     1      36.589  46.819  15.694 -0.35 -0.04    +0.057 A  ATOM     38  C   UNL     1      37.679  45.825  13.424 -0.33 -0.04    +0.114 A  ATOM     39  C   UNL     1      37.927  47.054  15.371 -0.33 -0.06    +0.129 A  ATOM     40  N   UNL     1      38.464  46.565  14.235 -0.26 +0.07    -0.239 NA BRANCH  39  41ATOM     41  N   UNL     1      38.720  47.811  16.260 -0.18 +0.17    -0.352 N  ATOM     42  C   UNL     1      39.828  46.989  16.805 -0.44 -0.03    +0.146 C  ATOM     43  C   UNL     1      39.171  49.110  15.709 -0.38 -0.08    +0.146 C  ATOM     44  C   UNL     1      40.993  47.884  17.254 -0.44 -0.02    +0.181 C  ATOM     45  C   UNL     1      40.604  49.008  15.169 -0.53 -0.05    +0.181 C  ATOM     46  O   UNL     1      41.564  48.651  16.182 -0.75 -0.01    -0.378 OA ENDBRANCH  39  41ENDBRANCH  27  35ENDBRANCH  24  25ENDBRANCH   1  19TORSDOF 7TERENDMDL