REMARK SMILES COc1ccc(O)c(C(=O)c2ccc(C(=O)N[C@@H]3CCN(CC(=O)N4CCN(CCO)CC4)C[C@H]3NC(=O)c3ccncc3)cc2)c1F
REMARK SMILES IDX 18 1 19 2 20 3 21 4 34 5 35 6 17 7 15 8 16 9 14 11 11 12
REMARK SMILES IDX 12 13 46 14 13 15 45 16 9 17 10 18 8 19 3 20 4 21 47 22 5 23
REMARK SMILES IDX 6 24 48 25 2 26 1 27 7 28 36 30 37 31 38 33 39 34 40 35
REMARK SMILES IDX 44 36 41 37 43 38 42 39 22 40 23 41 25 42 26 43 33 44 27 45
REMARK SMILES IDX 32 46 28 47 24 48 29 49 30 50 31 51
REMARK H PARENT 17 10 7 29 36 32 31 52
ROOT
ATOM      1  C   UNL     1       0.336   0.403  -0.675  1.00  0.00     0.107 C 
ATOM      2  C   UNL     1       0.898  -0.941  -0.187  1.00  0.00     0.042 C 
ATOM      3  C   UNL     1       1.912  -0.785   0.943  1.00  0.00     0.087 C 
ATOM      4  N   UNL     1       3.035   0.035   0.485  1.00  0.00    -0.292 NA
ATOM      5  C   UNL     1       2.615   1.343  -0.061  1.00  0.00     0.112 C 
ATOM      6  C   UNL     1       1.090   1.617  -0.062  1.00  0.00     0.118 C 
ENDROOT
BRANCH   1   7
ATOM      7  N   UNL     1      -1.115   0.467  -0.422  1.00  0.00    -0.347 N 
ATOM      8  C   UNL     1      -1.957   1.295  -1.133  1.00  0.00     0.251 C 
ATOM      9  O   UNL     1      -1.558   2.079  -1.990  1.00  0.00    -0.269 OA
ATOM     10  H   UNL     1      -1.522  -0.240   0.175  1.00  0.00     0.164 HD
BRANCH   8  11
ATOM     11  C   UNL     1      -3.411   1.175  -0.837  1.00  0.00     0.039 A 
ATOM     12  C   UNL     1      -6.171   0.920  -0.386  1.00  0.00     0.023 A 
ATOM     13  C   UNL     1      -5.261   0.645   0.644  1.00  0.00     0.013 A 
ATOM     14  C   UNL     1      -5.696   1.361  -1.627  1.00  0.00     0.013 A 
ATOM     15  C   UNL     1      -3.885   0.776   0.420  1.00  0.00     0.014 A 
ATOM     16  C   UNL     1      -4.323   1.489  -1.852  1.00  0.00     0.014 A 
BRANCH  12  17
ATOM     17  C   UNL     1      -7.641   0.768  -0.204  1.00  0.00     0.199 C 
ATOM     18  O   UNL     1      -8.425   1.321  -0.971  1.00  0.00    -0.288 OA
BRANCH  17  19
ATOM     19  C   UNL     1      -8.176  -0.078   0.872  1.00  0.00     0.104 A 
ATOM     20  C   UNL     1      -8.495  -2.303   1.795  1.00  0.00     0.155 A 
ATOM     21  C   UNL     1      -9.235  -1.748   2.842  1.00  0.00     0.053 A 
ATOM     22  C   UNL     1      -7.972  -1.455   0.812  1.00  0.00     0.179 A 
ATOM     23  C   UNL     1      -9.443  -0.364   2.906  1.00  0.00     0.051 A 
ATOM     24  C   UNL     1      -8.910   0.469   1.923  1.00  0.00     0.130 A 
ATOM     25  F   UNL     1      -7.255  -1.978  -0.197  1.00  0.00    -0.202 F 
BRANCH  20  26
ATOM     26  O   UNL     1      -8.213  -3.634   1.641  1.00  0.00    -0.494 OA
ATOM     27  C   UNL     1      -8.846  -4.545   2.530  1.00  0.00     0.278 C 
ENDBRANCH  20  26
BRANCH  24  28
ATOM     28  O   UNL     1      -9.065   1.821   2.019  1.00  0.00    -0.507 OA
ATOM     29  H   UNL     1      -9.776   2.028   2.650  1.00  0.00     0.293 HD
ENDBRANCH  24  28
ENDBRANCH  17  19
ENDBRANCH  12  17
ENDBRANCH   8  11
ENDBRANCH   1   7
BRANCH   6  30
ATOM     30  N   UNL     1       0.761   2.857  -0.770  1.00  0.00    -0.346 N 
ATOM     31  C   UNL     1       1.087   4.096  -0.260  1.00  0.00     0.251 C 
ATOM     32  H   UNL     1      -0.048   2.797  -1.388  1.00  0.00     0.164 HD
ATOM     33  O   UNL     1       1.788   4.240   0.737  1.00  0.00    -0.269 OA
BRANCH  31  34
ATOM     34  C   UNL     1       0.529   5.291  -0.958  1.00  0.00     0.042 A 
ATOM     35  C   UNL     1      -0.059   5.229  -2.222  1.00  0.00     0.034 A 
ATOM     36  C   UNL     1       0.623   6.527  -0.312  1.00  0.00     0.034 A 
ATOM     37  C   UNL     1      -0.546   6.403  -2.772  1.00  0.00     0.112 A 
ATOM     38  C   UNL     1       0.113   7.643  -0.949  1.00  0.00     0.112 A 
ATOM     39  N   UNL     1      -0.472   7.607  -2.165  1.00  0.00    -0.265 NA
ENDBRANCH  31  34
ENDBRANCH   6  30
BRANCH   4  40
ATOM     40  C   UNL     1       4.062   0.215   1.536  1.00  0.00     0.185 C 
BRANCH  40  41
ATOM     41  C   UNL     1       4.657  -1.123   2.003  1.00  0.00     0.236 C 
ATOM     42  N   UNL     1       5.577  -1.754   1.177  1.00  0.00    -0.339 N 
ATOM     43  C   UNL     1       6.205  -2.997   1.615  1.00  0.00     0.135 C 
ATOM     44  C   UNL     1       5.957  -1.277  -0.154  1.00  0.00     0.135 C 
ATOM     45  C   UNL     1       7.674  -3.101   1.159  1.00  0.00     0.106 C 
ATOM     46  C   UNL     1       6.724  -2.335  -0.971  1.00  0.00     0.106 C 
ATOM     47  N   UNL     1       7.924  -2.836  -0.276  1.00  0.00    -0.298 NA
ATOM     48  O   UNL     1       4.319  -1.601   3.092  1.00  0.00    -0.273 OA
BRANCH  47  49
ATOM     49  C   UNL     1       8.540  -3.992  -0.942  1.00  0.00     0.112 C 
BRANCH  49  50
ATOM     50  C   UNL     1       9.017  -3.726  -2.379  1.00  0.00     0.171 C 
BRANCH  50  51
ATOM     51  O   UNL     1       9.730  -4.853  -2.885  1.00  0.00    -0.395 OA
ATOM     52  H   UNL     1       9.112  -5.604  -2.911  1.00  0.00     0.210 HD
ENDBRANCH  50  51
ENDBRANCH  49  50
ENDBRANCH  47  49
ENDBRANCH  40  41
ENDBRANCH   4  40
TORSDOF 13
