REMARK SMILES CCN1CCN(C(=O)N2CC[C@@H](NC(=O)c3ccc(C(=O)c4c(O)ccc(OC)c4F)cc3)[C@H](NC(=O)c3ccncc3)C2)CC1
REMARK SMILES IDX 16 1 17 2 18 3 19 4 32 5 33 6 14 7 13 8 15 10 12 11 9 12
REMARK SMILES IDX 10 13 44 14 11 15 34 16 7 17 3 18 4 19 46 20 5 21 45 22 6 23
REMARK SMILES IDX 8 24 2 25 1 26 35 27 36 28 37 30 38 31 39 32 43 33 40 34
REMARK SMILES IDX 42 35 41 36 20 37 21 38 22 39 23 40 30 41 25 42 27 43 26 44
REMARK SMILES IDX 31 45 24 46 28 48 29 49
REMARK H PARENT 13 9 35 29 24 47
ROOT
ATOM      1  C   UNL     1       2.320  -0.196   0.433  1.00  0.00     0.039 A 
ATOM      2  C   UNL     1       2.779  -1.164   1.335  1.00  0.00     0.014 A 
ATOM      3  C   UNL     1       4.150  -1.435   1.435  1.00  0.00     0.013 A 
ATOM      4  C   UNL     1       5.076  -0.738   0.645  1.00  0.00     0.023 A 
ATOM      5  C   UNL     1       4.617   0.230  -0.254  1.00  0.00     0.013 A 
ATOM      6  C   UNL     1       3.250   0.510  -0.347  1.00  0.00     0.014 A 
ENDROOT
BRANCH   1   7
ATOM      7  C   UNL     1       0.874   0.115   0.229  1.00  0.00     0.251 C 
ATOM      8  N   UNL     1      -0.034  -0.848   0.606  1.00  0.00    -0.347 N 
ATOM      9  H   UNL     1       0.281  -1.750   0.956  1.00  0.00     0.164 HD
ATOM     10  O   UNL     1       0.543   1.170  -0.306  1.00  0.00    -0.269 OA
BRANCH   8  11
ATOM     11  C   UNL     1      -1.453  -0.729   0.283  1.00  0.00     0.108 C 
ATOM     12  N   UNL     1      -4.178  -0.563   0.142  1.00  0.00    -0.322 N 
ATOM     13  C   UNL     1      -3.645   0.000   1.377  1.00  0.00     0.123 C 
ATOM     14  C   UNL     1      -3.643  -1.876  -0.207  1.00  0.00     0.148 C 
ATOM     15  C   UNL     1      -2.145   0.253   1.251  1.00  0.00     0.049 C 
ATOM     16  C   UNL     1      -2.188  -2.098   0.261  1.00  0.00     0.124 C 
BRANCH  12  17
ATOM     17  C   UNL     1      -5.463  -0.284  -0.297  1.00  0.00     0.320 C 
ATOM     18  N   UNL     1      -6.914   3.501   0.672  1.00  0.00    -0.300 NA
ATOM     19  C   UNL     1      -7.712   2.765  -0.317  1.00  0.00     0.106 C 
ATOM     20  C   UNL     1      -5.466   3.403   0.372  1.00  0.00     0.106 C 
ATOM     21  C   UNL     1      -7.330   1.267  -0.363  1.00  0.00     0.137 C 
ATOM     22  C   UNL     1      -5.054   2.173  -0.466  1.00  0.00     0.137 C 
ATOM     23  N   UNL     1      -5.901   1.020  -0.171  1.00  0.00    -0.322 N 
ATOM     24  O   UNL     1      -6.174  -1.161  -0.791  1.00  0.00    -0.248 OA
BRANCH  18  25
ATOM     25  C   UNL     1      -7.320   4.897   0.860  1.00  0.00     0.081 C 
ATOM     26  C   UNL     1      -8.717   5.044   1.451  1.00  0.00     0.021 C 
ENDBRANCH  18  25
ENDBRANCH  12  17
BRANCH  16  27
ATOM     27  N   UNL     1      -1.517  -3.113  -0.568  1.00  0.00    -0.345 N 
ATOM     28  C   UNL     1      -0.409  -3.803  -0.134  1.00  0.00     0.251 C 
ATOM     29  H   UNL     1      -1.934  -3.349  -1.458  1.00  0.00     0.164 HD
ATOM     30  O   UNL     1       0.115  -3.609   0.958  1.00  0.00    -0.269 OA
BRANCH  28  31
ATOM     31  C   UNL     1       0.135  -4.834  -1.050  1.00  0.00     0.042 A 
ATOM     32  C   UNL     1       0.123  -4.670  -2.434  1.00  0.00     0.034 A 
ATOM     33  C   UNL     1       0.688  -5.987  -0.491  1.00  0.00     0.034 A 
ATOM     34  C   UNL     1       0.646  -5.692  -3.207  1.00  0.00     0.112 A 
ATOM     35  C   UNL     1       1.181  -6.951  -1.350  1.00  0.00     0.112 A 
ATOM     36  N   UNL     1       1.164  -6.831  -2.695  1.00  0.00    -0.265 NA
ENDBRANCH  28  31
ENDBRANCH  16  27
ENDBRANCH   8  11
ENDBRANCH   1   7
BRANCH   4  37
ATOM     37  C   UNL     1       6.513  -1.115   0.735  1.00  0.00     0.199 C 
ATOM     38  O   UNL     1       6.820  -2.270   1.044  1.00  0.00    -0.288 OA
BRANCH  37  39
ATOM     39  C   UNL     1       7.613  -0.196   0.377  1.00  0.00     0.104 A 
ATOM     40  C   UNL     1       8.721  -0.693  -0.317  1.00  0.00     0.130 A 
ATOM     41  C   UNL     1       7.588   1.155   0.728  1.00  0.00     0.179 A 
ATOM     42  C   UNL     1       9.749   0.157  -0.714  1.00  0.00     0.051 A 
ATOM     43  C   UNL     1       8.622   2.022   0.347  1.00  0.00     0.155 A 
ATOM     44  C   UNL     1       9.699   1.515  -0.384  1.00  0.00     0.053 A 
ATOM     45  F   UNL     1       6.568   1.639   1.454  1.00  0.00    -0.202 F 
BRANCH  40  46
ATOM     46  O   UNL     1       8.858  -2.016  -0.636  1.00  0.00    -0.507 OA
ATOM     47  H   UNL     1       8.248  -2.523  -0.054  1.00  0.00     0.293 HD
ENDBRANCH  40  46
BRANCH  43  48
ATOM     48  O   UNL     1       8.468   3.326   0.736  1.00  0.00    -0.494 OA
ATOM     49  C   UNL     1       9.483   4.247   0.352  1.00  0.00     0.278 C 
ENDBRANCH  43  48
ENDBRANCH  37  39
ENDBRANCH   4  37
TORSDOF 10
