
     RDKit          3D

 58 61  0  0  0  0  0  0  0  0999 V2000
    2.7805    2.6096   -1.5539 C   0  0  0  0  0  0  0  0  0  0  0  0
    3.7468    1.9651   -0.6544 N   0  0  0  0  0  0  0  0  0  0  0  0
    3.8226    2.5948    0.6691 C   0  0  0  0  0  0  0  0  0  0  0  0
    3.5752    0.5685   -0.5580 C   0  0  0  0  0  0  0  0  0  0  0  0
    2.3444    0.0011   -0.1826 C   0  0  0  0  0  0  0  0  0  0  0  0
    2.1608   -1.3888   -0.0883 C   0  0  0  0  0  0  0  0  0  0  0  0
    0.8218   -1.9538    0.3271 C   0  0  0  0  0  0  0  0  0  0  0  0
   -0.2351   -1.4517   -0.5438 N   0  0  0  0  0  0  0  0  0  0  0  0
   -1.6251   -1.7098   -0.1302 C   0  0  0  0  0  0  0  0  0  0  0  0
   -1.9236   -3.1989    0.1104 C   0  0  0  0  0  0  0  0  0  0  0  0
   -3.4147   -3.4583    0.3699 C   0  0  2  0  0  0  0  0  0  0  0  0
   -4.0094   -4.0513   -0.7811 O   0  0  0  0  0  0  0  0  0  0  0  0
   -4.2149   -2.2008    0.7115 C   0  0  0  0  0  0  0  0  0  0  0  0
   -3.4541   -1.2720    1.6498 C   0  0  0  0  0  0  0  0  0  0  0  0
   -2.0691   -0.8627    1.1008 C   0  0  2  0  0  0  0  0  0  0  0  0
   -1.9672    0.5713    0.8509 N   0  0  0  0  0  0  0  0  0  0  0  0
   -1.0867    1.4230    1.4706 C   0  0  0  0  0  0  0  0  0  0  0  0
   -1.1913    2.6571    1.0251 N   0  0  0  0  0  0  0  0  0  0  0  0
   -2.1804    2.5962    0.0635 C   0  0  0  0  0  0  0  0  0  0  0  0
   -2.7462    3.5708   -0.7754 C   0  0  0  0  0  0  0  0  0  0  0  0
   -2.3424    4.9012   -0.7764 N   0  0  0  0  0  0  0  0  0  0  0  0
   -3.7489    3.2067   -1.6064 N   0  0  0  0  0  0  0  0  0  0  0  0
   -4.1414    1.9138   -1.6066 C   0  0  0  0  0  0  0  0  0  0  0  0
   -3.6721    0.8953   -0.8592 N   0  0  0  0  0  0  0  0  0  0  0  0
   -2.6878    1.3110   -0.0460 C   0  0  0  0  0  0  0  0  0  0  0  0
    3.2437   -2.2262   -0.3596 C   0  0  0  0  0  0  0  0  0  0  0  0
    4.4759   -1.6817   -0.7260 C   0  0  0  0  0  0  0  0  0  0  0  0
    4.6563   -0.2877   -0.8293 C   0  0  0  0  0  0  0  0  0  0  0  0
    6.0004    0.2648   -1.2372 C   0  0  0  0  0  0  0  0  0  0  0  0
    6.5742    1.0656   -0.2925 F   0  0  0  0  0  0  0  0  0  0  0  0
    5.9763    0.9832   -2.3959 F   0  0  0  0  0  0  0  0  0  0  0  0
    6.9257   -0.7219   -1.4601 F   0  0  0  0  0  0  0  0  0  0  0  0
    3.0941    3.6418   -1.7452 H   0  0  0  0  0  0  0  0  0  0  0  0
    1.7713    2.6406   -1.1281 H   0  0  0  0  0  0  0  0  0  0  0  0
    2.7451    2.0986   -2.5230 H   0  0  0  0  0  0  0  0  0  0  0  0
    2.8681    2.5374    1.2051 H   0  0  0  0  0  0  0  0  0  0  0  0
    4.0873    3.6520    0.5605 H   0  0  0  0  0  0  0  0  0  0  0  0
    4.6016    2.1284    1.2829 H   0  0  0  0  0  0  0  0  0  0  0  0
    1.5011    0.6536    0.0351 H   0  0  0  0  0  0  0  0  0  0  0  0
    0.8531   -3.0485    0.2845 H   0  0  0  0  0  0  0  0  0  0  0  0
    0.6600   -1.6700    1.3723 H   0  0  0  0  0  0  0  0  0  0  0  0
   -0.0805   -1.8084   -1.4881 H   0  0  0  0  0  0  0  0  0  0  0  0
   -2.2298   -1.3990   -0.9923 H   0  0  0  0  0  0  0  0  0  0  0  0
   -1.5709   -3.7978   -0.7386 H   0  0  0  0  0  0  0  0  0  0  0  0
   -1.3645   -3.5353    0.9934 H   0  0  0  0  0  0  0  0  0  0  0  0
   -3.5125   -4.1827    1.1872 H   0  0  0  0  0  0  0  0  0  0  0  0
   -3.5815   -4.9117   -0.9331 H   0  0  0  0  0  0  0  0  0  0  0  0
   -5.1683   -2.4940    1.1688 H   0  0  0  0  0  0  0  0  0  0  0  0
   -4.4917   -1.6671   -0.2060 H   0  0  0  0  0  0  0  0  0  0  0  0
   -3.3071   -1.7990    2.6023 H   0  0  0  0  0  0  0  0  0  0  0  0
   -4.0724   -0.3976    1.8856 H   0  0  0  0  0  0  0  0  0  0  0  0
   -1.3657   -1.0536    1.9229 H   0  0  0  0  0  0  0  0  0  0  0  0
   -0.3903    1.0898    2.2295 H   0  0  0  0  0  0  0  0  0  0  0  0
   -1.8831    5.1757    0.0845 H   0  0  0  0  0  0  0  0  0  0  0  0
   -3.0633    5.5105   -1.1385 H   0  0  0  0  0  0  0  0  0  0  0  0
   -4.9414    1.6644   -2.2982 H   0  0  0  0  0  0  0  0  0  0  0  0
    3.1413   -3.3067   -0.2919 H   0  0  0  0  0  0  0  0  0  0  0  0
    5.3061   -2.3548   -0.9368 H   0  0  0  0  0  0  0  0  0  0  0  0
  1  2  1  0
  2  3  1  0
  2  4  1  0
  4  5  2  0
  5  6  1  0
  6  7  1  0
  7  8  1  0
  8  9  1  0
  9 10  1  0
 10 11  1  0
 11 12  1  0
 11 13  1  0
 13 14  1  0
 14 15  1  0
 15 16  1  0
 16 17  1  0
 17 18  2  0
 18 19  1  0
 19 20  2  0
 20 21  1  0
 20 22  1  0
 22 23  2  0
 23 24  1  0
 24 25  2  0
  6 26  2  0
 26 27  1  0
 27 28  2  0
 28 29  1  0
 29 30  1  0
 29 31  1  0
 29 32  1  0
 28  4  1  0
 15  9  1  0
 25 16  1  0
 25 19  1  0
  1 33  1  0
  1 34  1  0
  1 35  1  0
  3 36  1  0
  3 37  1  0
  3 38  1  0
  5 39  1  0
  7 40  1  0
  7 41  1  0
  8 42  1  0
  9 43  1  0
 10 44  1  0
 10 45  1  0
 11 46  1  1
 12 47  1  0
 13 48  1  0
 13 49  1  0
 14 50  1  0
 14 51  1  0
 15 52  1  1
 17 53  1  0
 21 54  1  0
 21 55  1  0
 23 56  1  0
 26 57  1  0
 27 58  1  0
M  END
$$$$
