
     RDKit          3D

 70 74  0  0  0  0  0  0  0  0999 V2000
   -9.7922    0.0504   -3.2116 C   0  0  0  0  0  0  0  0  0  0  0  0
   -9.9781    0.0435   -1.8000 O   0  0  0  0  0  0  0  0  0  0  0  0
   -8.8818   -0.2630   -1.0414 C   0  0  0  0  0  0  0  0  0  0  0  0
   -9.1480   -0.4786    0.3126 C   0  0  0  0  0  0  0  0  0  0  0  0
   -8.1193   -0.8035    1.2001 C   0  0  0  0  0  0  0  0  0  0  0  0
   -6.7975   -0.9065    0.7459 C   0  0  0  0  0  0  0  0  0  0  0  0
   -5.6802   -1.2677    1.6975 C   0  0  0  0  0  0  0  0  0  0  0  0
   -4.7728   -0.1672    1.9092 N   0  0  0  0  0  0  0  0  0  0  0  0
   -4.9606    0.9370    2.7436 C   0  0  0  0  0  0  0  0  0  0  0  0
   -6.2032    1.1906    3.5376 C   0  0  0  0  0  0  0  0  0  0  0  0
   -3.9390    1.7823    2.7774 N   0  0  0  0  0  0  0  0  0  0  0  0
   -3.0275    1.2145    1.9300 C   0  0  0  0  0  0  0  0  0  0  0  0
   -3.5378   -0.0094    1.3723 C   0  0  0  0  0  0  0  0  0  0  0  0
   -2.6382   -0.5431    0.5473 C   0  0  0  0  0  0  0  0  0  0  0  0
   -1.4191    0.3750    0.5227 C   0  0  0  0  0  0  0  0  0  0  0  0
   -0.1786   -0.3510    0.9706 C   0  0  0  0  0  0  0  0  0  0  0  0
    1.0217   -0.3397    0.3564 C   0  0  0  0  0  0  0  0  0  0  0  0
    1.3315    0.4762   -0.8806 C   0  0  0  0  0  0  0  0  0  0  0  0
    2.8362    0.5200   -1.2184 C   0  0  0  0  0  0  0  0  0  0  0  0
    3.6306    0.7790   -0.0185 N   0  0  0  0  0  0  0  0  0  0  0  0
    5.0272    1.1525   -0.2776 C   0  0  0  0  0  0  0  0  0  0  0  0
    5.8804    0.1450   -1.0869 C   0  0  0  0  0  0  0  0  0  0  0  0
    7.2513    0.6136   -1.3396 N   0  0  0  0  0  0  0  0  0  0  0  0
    8.0758    0.8083   -0.1371 C   0  0  0  0  0  0  0  0  0  0  0  0
    9.5677    1.0112   -0.4332 C   0  0  0  0  0  0  0  0  0  0  0  0
   10.2716   -0.2349   -0.4349 O   0  0  0  0  0  0  0  0  0  0  0  0
   10.0322   -1.0139   -1.6096 C   0  0  0  0  0  0  0  0  0  0  0  0
    8.5663   -1.3957   -1.7839 C   0  0  0  0  0  0  0  0  0  0  0  0
    7.8422   -0.2856   -2.3295 O   0  0  0  0  0  0  0  0  0  0  0  0
    3.4743   -0.2524    1.0172 C   0  0  0  0  0  0  0  0  0  0  0  0
    2.1999   -1.1132    0.8978 C   0  0  0  0  0  0  0  0  0  0  0  0
   -1.8051    1.4844    1.4834 C   0  0  0  0  0  0  0  0  0  0  0  0
   -6.5341   -0.6776   -0.6136 C   0  0  0  0  0  0  0  0  0  0  0  0
   -7.5684   -0.3579   -1.5007 C   0  0  0  0  0  0  0  0  0  0  0  0
   -9.1231    0.8627   -3.5197 H   0  0  0  0  0  0  0  0  0  0  0  0
  -10.7675    0.2267   -3.6785 H   0  0  0  0  0  0  0  0  0  0  0  0
   -9.4233   -0.9198   -3.5661 H   0  0  0  0  0  0  0  0  0  0  0  0
  -10.1689   -0.3964    0.6781 H   0  0  0  0  0  0  0  0  0  0  0  0
   -8.3638   -0.9688    2.2481 H   0  0  0  0  0  0  0  0  0  0  0  0
   -5.1484   -2.1381    1.2893 H   0  0  0  0  0  0  0  0  0  0  0  0
   -6.0903   -1.6059    2.6572 H   0  0  0  0  0  0  0  0  0  0  0  0
   -6.9934    1.5418    2.8691 H   0  0  0  0  0  0  0  0  0  0  0  0
   -6.0160    1.9551    4.2962 H   0  0  0  0  0  0  0  0  0  0  0  0
   -6.5291    0.2758    4.0368 H   0  0  0  0  0  0  0  0  0  0  0  0
   -2.7382   -1.4526   -0.0202 H   0  0  0  0  0  0  0  0  0  0  0  0
   -1.3115    0.7866   -0.4882 H   0  0  0  0  0  0  0  0  0  0  0  0
   -0.2864   -0.9313    1.8870 H   0  0  0  0  0  0  0  0  0  0  0  0
    0.7899    0.0663   -1.7406 H   0  0  0  0  0  0  0  0  0  0  0  0
    0.9839    1.5054   -0.7247 H   0  0  0  0  0  0  0  0  0  0  0  0
    2.9928    1.3141   -1.9585 H   0  0  0  0  0  0  0  0  0  0  0  0
    3.1351   -0.4250   -1.6912 H   0  0  0  0  0  0  0  0  0  0  0  0
    5.5050    1.3581    0.6877 H   0  0  0  0  0  0  0  0  0  0  0  0
    5.0272    2.1132   -0.8096 H   0  0  0  0  0  0  0  0  0  0  0  0
    5.3993   -0.0114   -2.0602 H   0  0  0  0  0  0  0  0  0  0  0  0
    5.9038   -0.8281   -0.5817 H   0  0  0  0  0  0  0  0  0  0  0  0
    7.9422   -0.0195    0.5716 H   0  0  0  0  0  0  0  0  0  0  0  0
    7.7194    1.7203    0.3575 H   0  0  0  0  0  0  0  0  0  0  0  0
   10.0043    1.6078    0.3753 H   0  0  0  0  0  0  0  0  0  0  0  0
    9.7453    1.5607   -1.3660 H   0  0  0  0  0  0  0  0  0  0  0  0
   10.4092   -0.4647   -2.4802 H   0  0  0  0  0  0  0  0  0  0  0  0
   10.6296   -1.9239   -1.4989 H   0  0  0  0  0  0  0  0  0  0  0  0
    8.4971   -2.1963   -2.5272 H   0  0  0  0  0  0  0  0  0  0  0  0
    8.1113   -1.7698   -0.8599 H   0  0  0  0  0  0  0  0  0  0  0  0
    3.4659    0.2548    1.9901 H   0  0  0  0  0  0  0  0  0  0  0  0
    4.3276   -0.9411    1.0346 H   0  0  0  0  0  0  0  0  0  0  0  0
    1.9768   -1.5623    1.8725 H   0  0  0  0  0  0  0  0  0  0  0  0
    2.3981   -1.9446    0.2090 H   0  0  0  0  0  0  0  0  0  0  0  0
   -1.2053    2.3421    1.7387 H   0  0  0  0  0  0  0  0  0  0  0  0
   -5.5153   -0.7378   -0.9920 H   0  0  0  0  0  0  0  0  0  0  0  0
   -7.3105   -0.1803   -2.5398 H   0  0  0  0  0  0  0  0  0  0  0  0
  1  2  1  0
  2  3  1  0
  3  4  2  0
  4  5  1  0
  5  6  2  0
  6  7  1  0
  7  8  1  0
  8  9  1  0
  9 10  1  0
  9 11  2  0
 11 12  1  0
 12 13  1  0
 13 14  2  0
 14 15  1  0
 15 16  1  0
 16 17  2  3
 17 18  1  0
 18 19  1  0
 19 20  1  0
 20 21  1  0
 21 22  1  0
 22 23  1  0
 23 24  1  0
 24 25  1  0
 25 26  1  0
 26 27  1  0
 27 28  1  0
 28 29  1  0
 20 30  1  0
 30 31  1  0
 15 32  1  0
  6 33  1  0
 33 34  2  0
 34  3  1  0
 13  8  1  0
 31 17  1  0
 32 12  2  0
 29 23  1  0
  1 35  1  0
  1 36  1  0
  1 37  1  0
  4 38  1  0
  5 39  1  0
  7 40  1  0
  7 41  1  0
 10 42  1  0
 10 43  1  0
 10 44  1  0
 14 45  1  0
 15 46  1  0
 16 47  1  0
 18 48  1  0
 18 49  1  0
 19 50  1  0
 19 51  1  0
 21 52  1  0
 21 53  1  0
 22 54  1  0
 22 55  1  0
 24 56  1  0
 24 57  1  0
 25 58  1  0
 25 59  1  0
 27 60  1  0
 27 61  1  0
 28 62  1  0
 28 63  1  0
 30 64  1  0
 30 65  1  0
 31 66  1  0
 31 67  1  0
 32 68  1  0
 33 69  1  0
 34 70  1  0
M  END
$$$$
