
     RDKit          3D

 67 71  0  0  0  0  0  0  0  0999 V2000
   -5.0318    3.1108   -0.7362 C   0  0  0  0  0  0  0  0  0  0  0  0
   -4.0935    1.9741   -0.9934 C   0  0  0  0  0  0  0  0  0  0  0  0
   -3.0453    2.1050   -1.7950 N   0  0  0  0  0  0  0  0  0  0  0  0
   -2.4643    0.8654   -1.7642 C   0  0  0  0  0  0  0  0  0  0  0  0
   -3.2004   -0.0247   -0.9058 C   0  0  0  0  0  0  0  0  0  0  0  0
   -4.2347    0.7077   -0.4240 N   0  0  0  0  0  0  0  0  0  0  0  0
   -5.2257    0.2882    0.5341 C   0  0  0  0  0  0  0  0  0  0  0  0
   -6.4572   -0.3242   -0.0930 C   0  0  0  0  0  0  0  0  0  0  0  0
   -6.6970   -0.4544   -1.4093 C   0  0  0  0  0  0  0  0  0  0  0  0
   -7.8435   -0.9613   -1.9609 N   0  0  0  0  0  0  0  0  0  0  0  0
   -8.6639   -1.5849   -1.1769 C   0  0  0  0  0  0  0  0  0  0  0  0
   -8.4335   -1.8339    0.2843 C   0  0  0  0  0  0  0  0  0  0  0  0
   -7.4950   -0.8020    0.8867 C   0  0  0  0  0  0  0  0  0  0  0  0
   -2.6229   -1.2238   -0.8868 C   0  0  0  0  0  0  0  0  0  0  0  0
   -1.4105   -1.1698   -1.8067 C   0  0  0  0  0  0  0  0  0  0  0  0
   -0.1500   -1.6424   -1.1305 C   0  0  0  0  0  0  0  0  0  0  0  0
    0.6110   -1.0948   -0.1596 C   0  0  0  0  0  0  0  0  0  0  0  0
    1.8336   -1.8409    0.3448 C   0  0  0  0  0  0  0  0  0  0  0  0
    2.6135   -1.0745    1.4308 C   0  0  0  0  0  0  0  0  0  0  0  0
    2.9127    0.2892    0.9897 N   0  0  0  0  0  0  0  0  0  0  0  0
    3.7708    1.0433    1.9187 C   0  0  0  0  0  0  0  0  0  0  0  0
    5.1821    0.4765    2.2406 C   0  0  0  0  0  0  0  0  0  0  0  0
    6.0993    0.4505    1.0893 N   0  0  0  0  0  0  0  0  0  0  0  0
    7.4700    0.0949    1.4926 C   0  0  0  0  0  0  0  0  0  0  0  0
    8.4336    0.0958    0.2881 C   0  0  0  0  0  0  0  0  0  0  0  0
    8.3043   -1.0804   -0.5112 O   0  0  0  0  0  0  0  0  0  0  0  0
    7.2593   -1.0510   -1.4903 C   0  0  0  0  0  0  0  0  0  0  0  0
    5.9563   -0.3559   -1.0967 C   0  0  0  0  0  0  0  0  0  0  0  0
    5.6510   -0.6657    0.2604 O   0  0  0  0  0  0  0  0  0  0  0  0
    1.6969    1.0509    0.6377 C   0  0  0  0  0  0  0  0  0  0  0  0
    0.3944    0.2285    0.5292 C   0  0  0  0  0  0  0  0  0  0  0  0
   -1.4026    0.2653   -2.2958 C   0  0  0  0  0  0  0  0  0  0  0  0
   -6.0480    2.8181   -1.0138 H   0  0  0  0  0  0  0  0  0  0  0  0
   -5.0095    3.3705    0.3250 H   0  0  0  0  0  0  0  0  0  0  0  0
   -4.7394    3.9853   -1.3237 H   0  0  0  0  0  0  0  0  0  0  0  0
   -5.5284    1.1385    1.1578 H   0  0  0  0  0  0  0  0  0  0  0  0
   -4.7793   -0.4453    1.2185 H   0  0  0  0  0  0  0  0  0  0  0  0
   -5.9723   -0.1090   -2.1443 H   0  0  0  0  0  0  0  0  0  0  0  0
   -9.5752   -2.0231   -1.6170 H   0  0  0  0  0  0  0  0  0  0  0  0
   -9.3977   -1.8254    0.8025 H   0  0  0  0  0  0  0  0  0  0  0  0
   -8.0202   -2.8448    0.3817 H   0  0  0  0  0  0  0  0  0  0  0  0
   -8.0683    0.0667    1.2352 H   0  0  0  0  0  0  0  0  0  0  0  0
   -7.0186   -1.2430    1.7706 H   0  0  0  0  0  0  0  0  0  0  0  0
   -2.9567   -2.0931   -0.3454 H   0  0  0  0  0  0  0  0  0  0  0  0
   -1.5996   -1.8205   -2.6716 H   0  0  0  0  0  0  0  0  0  0  0  0
    0.1662   -2.6215   -1.4957 H   0  0  0  0  0  0  0  0  0  0  0  0
    2.5056   -2.0353   -0.5023 H   0  0  0  0  0  0  0  0  0  0  0  0
    1.5273   -2.8111    0.7556 H   0  0  0  0  0  0  0  0  0  0  0  0
    3.5318   -1.6387    1.6229 H   0  0  0  0  0  0  0  0  0  0  0  0
    2.0450   -1.0637    2.3702 H   0  0  0  0  0  0  0  0  0  0  0  0
    3.2424    1.1721    2.8733 H   0  0  0  0  0  0  0  0  0  0  0  0
    3.9209    2.0522    1.5100 H   0  0  0  0  0  0  0  0  0  0  0  0
    5.6089    1.1435    3.0016 H   0  0  0  0  0  0  0  0  0  0  0  0
    5.1052   -0.5111    2.7116 H   0  0  0  0  0  0  0  0  0  0  0  0
    7.8300    0.8449    2.2067 H   0  0  0  0  0  0  0  0  0  0  0  0
    7.4893   -0.8854    1.9851 H   0  0  0  0  0  0  0  0  0  0  0  0
    8.3399    1.0004   -0.3253 H   0  0  0  0  0  0  0  0  0  0  0  0
    9.4574    0.0850    0.6784 H   0  0  0  0  0  0  0  0  0  0  0  0
    7.0439   -2.1012   -1.7186 H   0  0  0  0  0  0  0  0  0  0  0  0
    7.6569   -0.6054   -2.4094 H   0  0  0  0  0  0  0  0  0  0  0  0
    6.0243    0.7279   -1.2558 H   0  0  0  0  0  0  0  0  0  0  0  0
    5.1372   -0.7161   -1.7274 H   0  0  0  0  0  0  0  0  0  0  0  0
    1.8886    1.5410   -0.3251 H   0  0  0  0  0  0  0  0  0  0  0  0
    1.5082    1.8552    1.3618 H   0  0  0  0  0  0  0  0  0  0  0  0
   -0.3610    0.8466    0.0453 H   0  0  0  0  0  0  0  0  0  0  0  0
    0.0170    0.0252    1.5403 H   0  0  0  0  0  0  0  0  0  0  0  0
   -0.6890    0.7087   -2.9692 H   0  0  0  0  0  0  0  0  0  0  0  0
  1  2  1  0
  2  3  2  0
  3  4  1  0
  4  5  1  0
  5  6  1  0
  6  7  1  0
  7  8  1  0
  8  9  2  0
  9 10  1  0
 10 11  2  0
 11 12  1  0
 12 13  1  0
  5 14  2  0
 14 15  1  0
 15 16  1  0
 16 17  2  3
 17 18  1  0
 18 19  1  0
 19 20  1  0
 20 21  1  0
 21 22  1  0
 22 23  1  0
 23 24  1  0
 24 25  1  0
 25 26  1  0
 26 27  1  0
 27 28  1  0
 28 29  1  0
 20 30  1  0
 30 31  1  0
 15 32  1  0
  6  2  1  0
 13  8  1  0
 31 17  1  0
 32  4  2  0
 29 23  1  0
  1 33  1  0
  1 34  1  0
  1 35  1  0
  7 36  1  0
  7 37  1  0
  9 38  1  0
 11 39  1  0
 12 40  1  0
 12 41  1  0
 13 42  1  0
 13 43  1  0
 14 44  1  0
 15 45  1  0
 16 46  1  0
 18 47  1  0
 18 48  1  0
 19 49  1  0
 19 50  1  0
 21 51  1  0
 21 52  1  0
 22 53  1  0
 22 54  1  0
 24 55  1  0
 24 56  1  0
 25 57  1  0
 25 58  1  0
 27 59  1  0
 27 60  1  0
 28 61  1  0
 28 62  1  0
 30 63  1  0
 30 64  1  0
 31 65  1  0
 31 66  1  0
 32 67  1  0
M  END
$$$$
