
     RDKit          3D

 72 76  0  0  0  0  0  0  0  0999 V2000
   10.6769    0.0484   -0.1046 C   0  0  0  0  0  0  0  0  0  0  0  0
    9.6538   -0.7674   -0.8548 C   0  0  0  0  0  0  0  0  0  0  0  0
   10.0023   -1.7491   -1.5099 O   0  0  0  0  0  0  0  0  0  0  0  0
    8.3367   -0.3507   -0.7700 N   0  0  0  0  0  0  0  0  0  0  0  0
    7.8862    0.8490   -0.0594 C   0  0  0  0  0  0  0  0  0  0  0  0
    6.5028    1.3315   -0.5362 C   0  0  0  0  0  0  0  0  0  0  0  0
    5.4365    0.3130   -0.4978 N   0  0  0  0  0  0  0  0  0  0  0  0
    4.5819    0.4510    0.6946 C   0  0  0  0  0  0  0  0  0  0  0  0
    3.3865   -0.5381    0.8194 C   0  0  0  0  0  0  0  0  0  0  0  0
    2.5773   -0.7781   -0.3898 N   0  0  0  0  0  0  0  0  0  0  0  0
    1.9688    0.4364   -0.9540 C   0  0  0  0  0  0  0  0  0  0  0  0
    0.6037    0.8096   -0.3504 C   0  0  0  0  0  0  0  0  0  0  0  0
   -0.3776   -0.3429   -0.3943 C   0  0  0  0  0  0  0  0  0  0  0  0
   -1.6679   -0.2492   -0.0171 C   0  0  0  0  0  0  0  0  0  0  0  0
   -2.3610    0.9865    0.4924 C   0  0  0  0  0  0  0  0  0  0  0  0
   -2.7755    0.8369    1.9448 C   0  0  0  0  0  0  0  0  0  0  0  0
   -4.0947    0.9866    1.9983 C   0  0  0  0  0  0  0  0  0  0  0  0
   -5.0698    0.9839    2.9579 N   0  0  0  0  0  0  0  0  0  0  0  0
   -6.1809    1.2090    2.2696 C   0  0  0  0  0  0  0  0  0  0  0  0
   -7.5139    1.2724    2.9484 C   0  0  0  0  0  0  0  0  0  0  0  0
   -5.9906    1.3510    0.8923 N   0  0  0  0  0  0  0  0  0  0  0  0
   -6.9977    1.5946   -0.1108 C   0  0  0  0  0  0  0  0  0  0  0  0
   -7.8471    0.3684   -0.3219 C   0  0  0  0  0  0  0  0  0  0  0  0
   -9.1813    0.3900   -0.1718 C   0  0  0  0  0  0  0  0  0  0  0  0
  -10.0095   -0.6899   -0.2966 N   0  0  0  0  0  0  0  0  0  0  0  0
   -9.5106   -1.7735   -0.8025 C   0  0  0  0  0  0  0  0  0  0  0  0
   -8.1089   -1.9207   -1.3218 C   0  0  0  0  0  0  0  0  0  0  0  0
   -7.1566   -0.9088   -0.7057 C   0  0  0  0  0  0  0  0  0  0  0  0
   -4.6550    1.2197    0.6947 C   0  0  0  0  0  0  0  0  0  0  0  0
   -3.6880    1.2237   -0.2208 C   0  0  0  0  0  0  0  0  0  0  0  0
    0.2331   -1.6564   -0.8343 C   0  0  0  0  0  0  0  0  0  0  0  0
    1.5935   -1.8554   -0.1451 C   0  0  0  0  0  0  0  0  0  0  0  0
    5.9619   -1.0613   -0.6490 C   0  0  0  0  0  0  0  0  0  0  0  0
    7.2897   -1.1403   -1.4242 C   0  0  0  0  0  0  0  0  0  0  0  0
   10.8394    1.0006   -0.6158 H   0  0  0  0  0  0  0  0  0  0  0  0
   11.6244   -0.4989   -0.0760 H   0  0  0  0  0  0  0  0  0  0  0  0
   10.3578    0.2181    0.9274 H   0  0  0  0  0  0  0  0  0  0  0  0
    8.6202    1.6500   -0.1934 H   0  0  0  0  0  0  0  0  0  0  0  0
    7.8528    0.5996    1.0080 H   0  0  0  0  0  0  0  0  0  0  0  0
    6.5984    1.6507   -1.5824 H   0  0  0  0  0  0  0  0  0  0  0  0
    6.2171    2.2334    0.0184 H   0  0  0  0  0  0  0  0  0  0  0  0
    5.1920    0.3566    1.6028 H   0  0  0  0  0  0  0  0  0  0  0  0
    4.1691    1.4671    0.7106 H   0  0  0  0  0  0  0  0  0  0  0  0
    3.8016   -1.5013    1.1451 H   0  0  0  0  0  0  0  0  0  0  0  0
    2.7459   -0.1867    1.6394 H   0  0  0  0  0  0  0  0  0  0  0  0
    2.6393    1.2999   -0.8974 H   0  0  0  0  0  0  0  0  0  0  0  0
    1.8368    0.2668   -2.0316 H   0  0  0  0  0  0  0  0  0  0  0  0
    0.7457    1.1242    0.6909 H   0  0  0  0  0  0  0  0  0  0  0  0
    0.2018    1.6621   -0.9107 H   0  0  0  0  0  0  0  0  0  0  0  0
   -2.2845   -1.1481   -0.0506 H   0  0  0  0  0  0  0  0  0  0  0  0
   -1.7381    1.8816    0.3877 H   0  0  0  0  0  0  0  0  0  0  0  0
   -2.1200    0.6612    2.7811 H   0  0  0  0  0  0  0  0  0  0  0  0
   -8.0265    0.3154    2.8242 H   0  0  0  0  0  0  0  0  0  0  0  0
   -8.1229    2.0708    2.5193 H   0  0  0  0  0  0  0  0  0  0  0  0
   -7.3813    1.4644    4.0169 H   0  0  0  0  0  0  0  0  0  0  0  0
   -7.6086    2.4562    0.1843 H   0  0  0  0  0  0  0  0  0  0  0  0
   -6.5348    1.8693   -1.0676 H   0  0  0  0  0  0  0  0  0  0  0  0
   -9.6873    1.3111    0.1110 H   0  0  0  0  0  0  0  0  0  0  0  0
  -10.1763   -2.6442   -0.9235 H   0  0  0  0  0  0  0  0  0  0  0  0
   -8.1533   -1.8015   -2.4099 H   0  0  0  0  0  0  0  0  0  0  0  0
   -7.7660   -2.9409   -1.1237 H   0  0  0  0  0  0  0  0  0  0  0  0
   -6.6923   -1.3422    0.1900 H   0  0  0  0  0  0  0  0  0  0  0  0
   -6.3492   -0.7076   -1.4206 H   0  0  0  0  0  0  0  0  0  0  0  0
   -3.8019    1.3801   -1.2807 H   0  0  0  0  0  0  0  0  0  0  0  0
   -0.4212   -2.5001   -0.5854 H   0  0  0  0  0  0  0  0  0  0  0  0
    0.3571   -1.6580   -1.9243 H   0  0  0  0  0  0  0  0  0  0  0  0
    2.0330   -2.8011   -0.4829 H   0  0  0  0  0  0  0  0  0  0  0  0
    1.4007   -1.9693    0.9312 H   0  0  0  0  0  0  0  0  0  0  0  0
    5.2164   -1.6784   -1.1626 H   0  0  0  0  0  0  0  0  0  0  0  0
    6.1366   -1.5088    0.3393 H   0  0  0  0  0  0  0  0  0  0  0  0
    7.6057   -2.1856   -1.5112 H   0  0  0  0  0  0  0  0  0  0  0  0
    7.1675   -0.7462   -2.4405 H   0  0  0  0  0  0  0  0  0  0  0  0
  1  2  1  0
  2  3  2  0
  2  4  1  0
  4  5  1  0
  5  6  1  0
  6  7  1  0
  7  8  1  0
  8  9  1  0
  9 10  1  0
 10 11  1  0
 11 12  1  0
 12 13  1  0
 13 14  2  3
 14 15  1  0
 15 16  1  0
 16 17  2  0
 17 18  1  0
 18 19  2  0
 19 20  1  0
 19 21  1  0
 21 22  1  0
 22 23  1  0
 23 24  2  0
 24 25  1  0
 25 26  2  0
 26 27  1  0
 27 28  1  0
 21 29  1  0
 29 30  2  0
 13 31  1  0
 31 32  1  0
  7 33  1  0
 33 34  1  0
 34  4  1  0
 32 10  1  0
 30 15  1  0
 29 17  1  0
 28 23  1  0
  1 35  1  0
  1 36  1  0
  1 37  1  0
  5 38  1  0
  5 39  1  0
  6 40  1  0
  6 41  1  0
  8 42  1  0
  8 43  1  0
  9 44  1  0
  9 45  1  0
 11 46  1  0
 11 47  1  0
 12 48  1  0
 12 49  1  0
 14 50  1  0
 15 51  1  0
 16 52  1  0
 20 53  1  0
 20 54  1  0
 20 55  1  0
 22 56  1  0
 22 57  1  0
 24 58  1  0
 26 59  1  0
 27 60  1  0
 27 61  1  0
 28 62  1  0
 28 63  1  0
 30 64  1  0
 31 65  1  0
 31 66  1  0
 32 67  1  0
 32 68  1  0
 33 69  1  0
 33 70  1  0
 34 71  1  0
 34 72  1  0
M  END
$$$$
