
     RDKit          3D

 64 68  0  0  0  0  0  0  0  0999 V2000
   -5.2745    0.1677    3.3271 C   0  0  0  0  0  0  0  0  0  0  0  0
   -4.6548    0.3462    2.0597 O   0  0  0  0  0  0  0  0  0  0  0  0
   -5.1766   -0.3831    1.0821 C   0  0  0  0  0  0  0  0  0  0  0  0
   -6.1973   -1.1978    1.2161 N   0  0  0  0  0  0  0  0  0  0  0  0
   -6.3779   -1.7600   -0.0175 C   0  0  0  0  0  0  0  0  0  0  0  0
   -7.3222   -2.7126   -0.4234 C   0  0  0  0  0  0  0  0  0  0  0  0
   -7.2916   -3.1424   -1.7477 C   0  0  0  0  0  0  0  0  0  0  0  0
   -8.1819   -4.0572   -2.1581 F   0  0  0  0  0  0  0  0  0  0  0  0
   -6.3583   -2.6535   -2.6560 C   0  0  0  0  0  0  0  0  0  0  0  0
   -5.4071   -1.7027   -2.2660 C   0  0  0  0  0  0  0  0  0  0  0  0
   -5.4470   -1.2689   -0.9323 C   0  0  0  0  0  0  0  0  0  0  0  0
   -4.6909   -0.3660   -0.2005 N   0  0  0  0  0  0  0  0  0  0  0  0
   -3.5616    0.3966   -0.7310 C   0  0  0  0  0  0  0  0  0  0  0  0
   -3.5473    1.9013   -0.4022 C   0  0  0  0  0  0  0  0  0  0  0  0
   -2.6388    2.3087    0.7613 C   0  0  0  0  0  0  0  0  0  0  0  0
   -1.3277    1.6544    0.7627 N   0  0  0  0  0  0  0  0  0  0  0  0
   -0.4268    2.2089   -0.2589 C   0  0  0  0  0  0  0  0  0  0  0  0
    1.0045    1.7280   -0.1472 C   0  0  0  0  0  0  0  0  0  0  0  0
    1.4897    0.8047   -1.0821 C   0  0  0  0  0  0  0  0  0  0  0  0
    2.8026    0.3234   -1.0072 C   0  0  0  0  0  0  0  0  0  0  0  0
    3.6919    0.7334   -0.0046 C   0  0  0  0  0  0  0  0  0  0  0  0
    4.9882    0.2507    0.0557 N   0  0  0  0  0  0  0  0  0  0  0  0
    5.3567   -1.0350   -0.5642 C   0  0  0  0  0  0  0  0  0  0  0  0
    6.5454   -1.6947    0.1721 C   0  0  0  0  0  0  0  0  0  0  0  0
    7.7646   -0.8695    0.2834 N   0  0  0  0  0  0  0  0  0  0  0  0
    8.7223   -1.1688   -0.7778 C   0  0  0  0  0  0  0  0  0  0  0  0
    7.4370    0.5741    0.2944 C   0  0  0  0  0  0  0  0  0  0  0  0
    6.0351    0.9118    0.8553 C   0  0  0  0  0  0  0  0  0  0  0  0
    3.1956    1.6653    0.9193 C   0  0  0  0  0  0  0  0  0  0  0  0
    1.8812    2.1568    0.8553 C   0  0  0  0  0  0  0  0  0  0  0  0
    1.4056    3.3158    2.0489 Cl  0  0  0  0  0  0  0  0  0  0  0  0
   -1.4854    0.1986    0.7408 C   0  0  0  0  0  0  0  0  0  0  0  0
   -2.2216   -0.3114   -0.4931 C   0  0  0  0  0  0  0  0  0  0  0  0
   -5.1655   -0.8652    3.6739 H   0  0  0  0  0  0  0  0  0  0  0  0
   -4.7714    0.8227    4.0451 H   0  0  0  0  0  0  0  0  0  0  0  0
   -6.3312    0.4536    3.2910 H   0  0  0  0  0  0  0  0  0  0  0  0
   -8.0510   -3.1070    0.2729 H   0  0  0  0  0  0  0  0  0  0  0  0
   -6.3750   -3.0220   -3.6784 H   0  0  0  0  0  0  0  0  0  0  0  0
   -4.6758   -1.3310   -2.9756 H   0  0  0  0  0  0  0  0  0  0  0  0
   -3.7262    0.3673   -1.8176 H   0  0  0  0  0  0  0  0  0  0  0  0
   -4.5639    2.2725   -0.2251 H   0  0  0  0  0  0  0  0  0  0  0  0
   -3.1905    2.4302   -1.2967 H   0  0  0  0  0  0  0  0  0  0  0  0
   -3.1295    2.1050    1.7181 H   0  0  0  0  0  0  0  0  0  0  0  0
   -2.5158    3.4009    0.7559 H   0  0  0  0  0  0  0  0  0  0  0  0
   -0.8019    2.0079   -1.2702 H   0  0  0  0  0  0  0  0  0  0  0  0
   -0.4077    3.3043   -0.1841 H   0  0  0  0  0  0  0  0  0  0  0  0
    0.8508    0.4471   -1.8855 H   0  0  0  0  0  0  0  0  0  0  0  0
    3.1228   -0.3737   -1.7771 H   0  0  0  0  0  0  0  0  0  0  0  0
    4.5180   -1.7414   -0.5265 H   0  0  0  0  0  0  0  0  0  0  0  0
    5.6170   -0.8690   -1.6170 H   0  0  0  0  0  0  0  0  0  0  0  0
    6.7667   -2.6676   -0.2819 H   0  0  0  0  0  0  0  0  0  0  0  0
    6.2207   -1.9190    1.1964 H   0  0  0  0  0  0  0  0  0  0  0  0
    9.6321   -0.5701   -0.6527 H   0  0  0  0  0  0  0  0  0  0  0  0
    8.3112   -0.9696   -1.7753 H   0  0  0  0  0  0  0  0  0  0  0  0
    9.0289   -2.2208   -0.7347 H   0  0  0  0  0  0  0  0  0  0  0  0
    7.4845    0.9834   -0.7249 H   0  0  0  0  0  0  0  0  0  0  0  0
    8.1959    1.0979    0.8867 H   0  0  0  0  0  0  0  0  0  0  0  0
    5.9598    0.5964    1.9040 H   0  0  0  0  0  0  0  0  0  0  0  0
    5.9236    2.0027    0.8172 H   0  0  0  0  0  0  0  0  0  0  0  0
    3.8268    2.0124    1.7315 H   0  0  0  0  0  0  0  0  0  0  0  0
   -0.5138   -0.3019    0.8227 H   0  0  0  0  0  0  0  0  0  0  0  0
   -2.0271   -0.1122    1.6428 H   0  0  0  0  0  0  0  0  0  0  0  0
   -2.3572   -1.3973   -0.4102 H   0  0  0  0  0  0  0  0  0  0  0  0
   -1.5864   -0.1596   -1.3749 H   0  0  0  0  0  0  0  0  0  0  0  0
  1  2  1  0
  2  3  1  0
  3  4  2  0
  4  5  1  0
  5  6  2  0
  6  7  1  0
  7  8  1  0
  7  9  2  0
  9 10  1  0
 10 11  2  0
 11 12  1  0
 12 13  1  0
 13 14  1  0
 14 15  1  0
 15 16  1  0
 16 17  1  0
 17 18  1  0
 18 19  2  0
 19 20  1  0
 20 21  2  0
 21 22  1  0
 22 23  1  0
 23 24  1  0
 24 25  1  0
 25 26  1  0
 25 27  1  0
 27 28  1  0
 21 29  1  0
 29 30  2  0
 30 31  1  0
 16 32  1  0
 32 33  1  0
 12  3  1  0
 33 13  1  0
 11  5  1  0
 30 18  1  0
 28 22  1  0
  1 34  1  0
  1 35  1  0
  1 36  1  0
  6 37  1  0
  9 38  1  0
 10 39  1  0
 13 40  1  0
 14 41  1  0
 14 42  1  0
 15 43  1  0
 15 44  1  0
 17 45  1  0
 17 46  1  0
 19 47  1  0
 20 48  1  0
 23 49  1  0
 23 50  1  0
 24 51  1  0
 24 52  1  0
 26 53  1  0
 26 54  1  0
 26 55  1  0
 27 56  1  0
 27 57  1  0
 28 58  1  0
 28 59  1  0
 29 60  1  0
 32 61  1  0
 32 62  1  0
 33 63  1  0
 33 64  1  0
M  END
$$$$
