MODEL        3USER    Run = 3USERUSER    Estimated Free Energy of Binding    = -10.85 kcal/mol  [=(1)+(2)+(3)-(4)]USERUSER    (1) Final Intermolecular Energy     = -12.34 kcal/molUSER        vdW + Hbond + desolv Energy     = -12.49 kcal/molUSER        Electrostatic Energy            =  +0.15 kcal/molUSER        Moving Ligand-Fixed Receptor    = -12.34 kcal/molUSER        Moving Ligand-Moving Receptor   =  +0.00 kcal/molUSER    (2) Final Total Internal Energy     =  -1.68 kcal/molUSER    (3) Torsional Free Energy           =  +1.49 kcal/molUSER    (4) Unbound System's Energy         =  -1.68 kcal/molUSERUSERREMARK SMILES CN1CCCC[C@H]1Cc1ccc2c(c1)CN(S(=O)(=O)c1ccc(F)cc1)c1ccccc1[C@H]2C(N)=OREMARK SMILES IDX 9 1 10 2 11 3 12 4 13 5 14 6 15 7 16 8 27 9 28 10 29 11REMARK SMILES IDX 30 12 31 13 32 14 33 15 8 16 7 17 2 18 3 19 4 20 6 21 5 22REMARK SMILES IDX 1 23 34 24 35 25 36 26 17 29 18 30 19 31 20 32 21 33 26 34REMARK SMILES IDX 22 35 25 36 23 37 24 38REMARK H PARENT 35 27 35 28USER                              x       y       z     vdW  Elec       q    TypeUSER                           _______ _______ _______ _____ _____    ______ ____ROOTATOM      1  C   UNL     1      32.556  41.602  18.180 -0.36 +0.01    -0.046 A  ATOM      2  C   UNL     1      32.421  42.427  19.297 -0.36 +0.00    +0.004 A  ATOM      3  C   UNL     1      33.245  43.541  19.460 -0.43 -0.00    +0.005 A  ATOM      4  C   UNL     1      34.243  43.870  18.516 -0.33 +0.01    -0.026 A  ATOM      5  C   UNL     1      34.390  43.041  17.379 -0.35 +0.01    -0.023 A  ATOM      6  C   UNL     1      33.535  41.925  17.234 -0.35 -0.00    +0.009 A  ATOM      7  C   UNL     1      35.424  43.219  16.275 -0.37 -0.07    +0.171 C  ATOM      8  N   UNL     1      36.181  44.478  16.294 -0.17 +0.11    -0.262 N  ATOM      9  C   UNL     1      37.116  44.625  17.368 -0.30 -0.02    +0.057 A  ATOM     10  C   UNL     1      38.474  44.330  17.239 -0.01 -0.00    +0.027 A  ATOM     11  C   UNL     1      39.313  44.386  18.353 -0.35 -0.00    +0.002 A  ATOM     12  C   UNL     1      38.793  44.701  19.606 -0.38 -0.00    +0.000 A  ATOM     13  C   UNL     1      37.427  44.945  19.750 -0.01 -0.00    +0.007 A  ATOM     14  C   UNL     1      36.576  44.896  18.634 -0.32 +0.00    -0.007 A  ATOM     15  C   UNL     1      35.078  45.128  18.793 -0.34 -0.05    +0.141 C  ENDROOTBRANCH   1  16ATOM     16  C   UNL     1      31.644  40.410  17.994 -0.43 -0.01    +0.054 C  BRANCH  16  17ATOM     17  C   UNL     1      30.200  40.694  17.492 -0.34 -0.01    +0.060 C  ATOM     18  N   UNL     1      30.168  41.083  16.060 -0.23 +0.10    -0.303 NA ATOM     19  C   UNL     1      28.970  40.616  15.347 -0.39 -0.02    +0.084 C  ATOM     20  C   UNL     1      27.697  40.691  16.185 -0.35 -0.00    +0.016 C  ATOM     21  C   UNL     1      29.257  39.518  17.811 -0.36 +0.00    +0.019 C  ATOM     22  C   UNL     1      27.808  39.866  17.466 -0.30 +0.00    +0.003 C  ATOM     23  C   UNL     1      30.357  42.524  15.896 -0.31 -0.05    +0.105 C  ENDBRANCH  16  17ENDBRANCH   1  16BRANCH  15  24ATOM     24  C   UNL     1      34.618  46.408  18.069 -0.35 -0.18    +0.229 C  ATOM     25  N   UNL     1      33.560  47.107  18.571 -0.31 +0.33    -0.369 N  ATOM     26  O   UNL     1      35.174  46.830  17.051 -0.26 +0.35    -0.274 OA ATOM     27  H   UNL     1      33.193  47.848  17.988 -0.48 -0.28    +0.159 HD ATOM     28  H   UNL     1      32.952  46.733  19.288 -0.31 -0.10    +0.159 HD ENDBRANCH  15  24BRANCH   8  29ATOM     29  S   UNL     1      36.360  45.349  14.857 -0.36 -0.13    +0.264 S  ATOM     30  O   UNL     1      36.757  44.413  13.823 -0.35 +0.07    -0.201 OA ATOM     31  O   UNL     1      35.212  46.207  14.662 -0.34 +0.17    -0.201 OA BRANCH  29  32ATOM     32  C   UNL     1      37.767  46.415  15.129 -0.33 -0.04    +0.088 A  ATOM     33  C   UNL     1      37.565  47.728  15.575 -0.43 -0.02    +0.025 A  ATOM     34  C   UNL     1      39.051  45.971  14.783 -0.38 -0.01    +0.025 A  ATOM     35  C   UNL     1      38.660  48.579  15.733 -0.41 -0.02    +0.040 A  ATOM     36  C   UNL     1      40.142  46.830  14.942 -0.42 -0.01    +0.040 A  ATOM     37  C   UNL     1      39.937  48.120  15.419 -0.45 -0.03    +0.123 A  ATOM     38  F   UNL     1      40.983  48.943  15.566 -0.18 +0.03    -0.207 F  ENDBRANCH  29  32ENDBRANCH   8  29TORSDOF 5TERENDMDL