REMARK SMILES Cc1cc(-c2nn(-c3ccc(O)cc3)c3c2CCN3c2ncccn2)ccc1F
REMARK SMILES IDX 5 1 6 2 7 3 15 4 16 5 17 6 18 7 19 8 4 9 2 10 3 11 28 12
REMARK SMILES IDX 27 13 26 14 1 15 29 16 8 17 9 18 14 19 10 20 13 21 11 22
REMARK SMILES IDX 12 23 20 25 21 26 25 27 22 28 24 29 23 30
REMARK H PARENT 12 24
ROOT
ATOM      1  C   UNL     1       1.565  -0.225   0.432  1.00  0.00     0.098 A 
ATOM      2  N   UNL     1       0.860   0.822  -0.047  1.00  0.00    -0.166 NA
ATOM      3  N   UNL     1      -0.454   0.600   0.308  1.00  0.00    -0.216 N 
ATOM      4  C   UNL     1      -0.566  -0.666   0.830  1.00  0.00     0.143 A 
ATOM      5  C   UNL     1       0.691  -1.161   0.998  1.00  0.00     0.025 A 
ATOM      6  C   UNL     1       0.646  -2.493   1.620  1.00  0.00     0.064 C 
ATOM      7  C   UNL     1      -0.907  -2.767   1.671  1.00  0.00     0.132 C 
ATOM      8  N   UNL     1      -1.566  -1.506   1.202  1.00  0.00    -0.294 N 
ENDROOT
BRANCH   1   9
ATOM      9  C   UNL     1       3.022  -0.286   0.290  1.00  0.00     0.003 A 
ATOM     10  C   UNL     1       5.062   0.437  -0.857  1.00  0.00    -0.015 A 
ATOM     11  C   UNL     1       3.668   0.476  -0.701  1.00  0.00     0.016 A 
ATOM     12  C   UNL     1       5.804  -0.393  -0.017  1.00  0.00     0.126 A 
ATOM     13  C   UNL     1       5.189  -1.150   0.974  1.00  0.00     0.040 A 
ATOM     14  C   UNL     1       3.802  -1.095   1.130  1.00  0.00     0.013 A 
ATOM     15  C   UNL     1       5.738   1.226  -1.936  1.00  0.00     0.047 C 
ATOM     16  F   UNL     1       7.136  -0.469  -0.156  1.00  0.00    -0.207 F 
ENDBRANCH   1   9
BRANCH   3  17
ATOM     17  C   UNL     1      -1.398   1.661   0.210  1.00  0.00     0.067 A 
ATOM     18  C   UNL     1      -2.613   1.626   0.906  1.00  0.00     0.032 A 
ATOM     19  C   UNL     1      -1.080   2.794  -0.559  1.00  0.00     0.032 A 
ATOM     20  C   UNL     1      -3.511   2.693   0.804  1.00  0.00     0.048 A 
ATOM     21  C   UNL     1      -1.979   3.859  -0.657  1.00  0.00     0.048 A 
ATOM     22  C   UNL     1      -3.190   3.797   0.024  1.00  0.00     0.115 A 
BRANCH  22  23
ATOM     23  O   UNL     1      -4.096   4.813  -0.044  1.00  0.00    -0.508 OA
ATOM     24  H   UNL     1      -3.726   5.516  -0.603  1.00  0.00     0.293 HD
ENDBRANCH  22  23
ENDBRANCH   3  17
BRANCH   8  25
ATOM     25  C   UNL     1      -2.734  -1.755   0.459  1.00  0.00     0.231 A 
ATOM     26  N   UNL     1      -3.590  -2.691   0.918  1.00  0.00    -0.221 NA
ATOM     27  N   UNL     1      -2.967  -1.058  -0.668  1.00  0.00    -0.221 NA
ATOM     28  C   UNL     1      -4.718  -2.903   0.214  1.00  0.00     0.117 A 
ATOM     29  C   UNL     1      -4.108  -1.303  -1.337  1.00  0.00     0.117 A 
ATOM     30  C   UNL     1      -5.035  -2.228  -0.935  1.00  0.00     0.040 A 
ENDBRANCH   8  25
TORSDOF 4
