MODEL        9USER    Run = 9USERUSER    Estimated Free Energy of Binding    =  -9.85 kcal/mol  [=(1)+(2)+(3)-(4)]USERUSER    (1) Final Intermolecular Energy     = -11.04 kcal/molUSER        vdW + Hbond + desolv Energy     = -10.95 kcal/molUSER        Electrostatic Energy            =  -0.09 kcal/molUSER        Moving Ligand-Fixed Receptor    = -11.04 kcal/molUSER        Moving Ligand-Moving Receptor   =  +0.00 kcal/molUSER    (2) Final Total Internal Energy     =  -1.05 kcal/molUSER    (3) Torsional Free Energy           =  +1.19 kcal/molUSER    (4) Unbound System's Energy         =  -1.05 kcal/molUSERUSERREMARK SMILES C[C@@H]1N=C(CCc2ccc(C(=O)N3CCN(C)CC3)cc2)c2cccc(F)c2N1REMARK SMILES IDX 6 1 5 2 4 3 2 4 3 5 29 6 28 7 22 8 26 9 23 10 25 11 24 12REMARK SMILES IDX 1 13 27 15 7 16 8 17 21 18 9 19 20 20 10 21 11 22 13 23REMARK SMILES IDX 14 24 19 25 15 26 18 27 16 28 12 29 17 30REMARK H PARENT 29 14USER                              x       y       z     vdW  Elec       q    TypeUSER                           _______ _______ _______ _____ _____    ______ ____ROOTATOM      1  C   UNL     1      36.778  46.355  15.206 -0.42 -0.03    +0.042 C  ENDROOTBRANCH   1   2ATOM      2  C   UNL     1      37.272  47.662  15.832 -0.38 -0.05    +0.061 C  BRANCH   2   3ATOM      3  C   UNL     1      38.783  47.669  16.021 -0.50 -0.02    +0.047 C  ATOM      4  C   UNL     1      40.917  48.405  15.372 -0.46 -0.03    +0.194 C  ATOM      5  N   UNL     1      39.467  48.387  15.192 -0.31 +0.10    -0.265 NA ATOM      6  N   UNL     1      41.399  48.236  16.730 -0.25 +0.02    -0.361 N  ATOM      7  C   UNL     1      40.743  47.191  17.408 -0.46 -0.01    +0.081 A  ATOM      8  C   UNL     1      39.405  46.888  17.128 -0.44 -0.01    +0.022 A  ATOM      9  C   UNL     1      41.372  46.517  18.467 -0.41 -0.00    +0.147 A  ATOM     10  C   UNL     1      38.740  45.891  17.855 -0.40 -0.00    +0.012 A  ATOM     11  C   UNL     1      40.719  45.524  19.189 -0.42 +0.00    +0.041 A  ATOM     12  C   UNL     1      39.403  45.201  18.879 -0.42 -0.00    +0.004 A  ATOM     13  C   UNL     1      41.421  49.751  14.852 -0.72 -0.01    +0.057 C  ATOM     14  H   UNL     1      42.410  48.141  16.796 -0.40 +0.01    +0.162 HD ATOM     15  F   UNL     1      42.646  46.811  18.773 -0.19 -0.03    -0.205 F  ENDBRANCH   2   3ENDBRANCH   1   2BRANCH   1  16ATOM     16  C   UNL     1      35.993  45.493  16.166 -0.31 +0.03    -0.048 A  ATOM     17  C   UNL     1      35.040  46.070  17.022 -0.36 -0.00    +0.004 A  ATOM     18  C   UNL     1      36.238  44.114  16.240 -0.36 -0.00    +0.004 A  ATOM     19  C   UNL     1      34.345  45.281  17.937 -0.39 -0.01    +0.014 A  ATOM     20  C   UNL     1      35.541  43.320  17.150 -0.36 -0.00    +0.014 A  ATOM     21  C   UNL     1      34.592  43.908  17.987 -0.28 -0.01    +0.040 A  BRANCH  21  22ATOM     22  C   UNL     1      33.856  43.087  18.964 -0.27 -0.03    +0.253 C  ATOM     23  N   UNL     1      32.857  42.247  18.494 -0.15 +0.05    -0.336 N  ATOM     24  C   UNL     1      32.126  41.417  19.452 -0.24 +0.01    +0.135 C  ATOM     25  C   UNL     1      32.424  42.152  17.093 -0.23 -0.06    +0.135 C  ATOM     26  C   UNL     1      31.555  40.140  18.800 -0.39 +0.00    +0.105 C  ATOM     27  C   UNL     1      30.963  41.681  16.978 -0.30 -0.03    +0.105 C  ATOM     28  N   UNL     1      30.715  40.365  17.603 -0.16 +0.03    -0.303 NA ATOM     29  O   UNL     1      34.170  43.190  20.149 -0.71 -0.02    -0.269 OA ATOM     30  C   UNL     1      29.293  40.195  17.894 -0.27 +0.01    +0.105 C  ENDBRANCH  21  22ENDBRANCH   1  16TORSDOF 4TERENDMDL