REMARK SMILES CN1CCCC[C@H]1Cc1ccc2c(c1)CN(S(=O)(=O)c1ccc(F)cc1)c1ccccc1[C@H]2C(N)=O
REMARK SMILES IDX 9 1 10 2 11 3 12 4 13 5 14 6 15 7 16 8 27 9 28 10 29 11
REMARK SMILES IDX 30 12 31 13 32 14 33 15 8 16 7 17 2 18 3 19 4 20 6 21 5 22
REMARK SMILES IDX 1 23 34 24 35 25 36 26 17 29 18 30 19 31 20 32 21 33 26 34
REMARK SMILES IDX 22 35 25 36 23 37 24 38
REMARK H PARENT 35 27 35 28
ROOT
ATOM      1  C   UNL     1       2.360  -0.232  -1.795  1.00  0.00    -0.046 A 
ATOM      2  C   UNL     1       2.216  -1.418  -2.515  1.00  0.00     0.004 A 
ATOM      3  C   UNL     1       0.978  -2.059  -2.585  1.00  0.00     0.005 A 
ATOM      4  C   UNL     1      -0.162  -1.544  -1.931  1.00  0.00    -0.026 A 
ATOM      5  C   UNL     1      -0.029  -0.341  -1.198  1.00  0.00    -0.023 A 
ATOM      6  C   UNL     1       1.234   0.293  -1.152  1.00  0.00     0.009 A 
ATOM      7  C   UNL     1      -1.134   0.347  -0.407  1.00  0.00     0.171 C 
ATOM      8  N   UNL     1      -2.493  -0.174  -0.606  1.00  0.00    -0.262 N 
ATOM      9  C   UNL     1      -2.745  -1.476  -0.069  1.00  0.00     0.057 A 
ATOM     10  C   UNL     1      -3.331  -1.682   1.181  1.00  0.00     0.027 A 
ATOM     11  C   UNL     1      -3.447  -2.973   1.698  1.00  0.00     0.002 A 
ATOM     12  C   UNL     1      -2.946  -4.060   0.985  1.00  0.00     0.000 A 
ATOM     13  C   UNL     1      -2.312  -3.854  -0.240  1.00  0.00     0.007 A 
ATOM     14  C   UNL     1      -2.195  -2.559  -0.770  1.00  0.00    -0.007 A 
ATOM     15  C   UNL     1      -1.473  -2.327  -2.092  1.00  0.00     0.141 C 
ENDROOT
BRANCH   1  16
ATOM     16  C   UNL     1       3.697   0.474  -1.743  1.00  0.00     0.054 C 
BRANCH  16  17
ATOM     17  C   UNL     1       4.374   0.607  -0.350  1.00  0.00     0.060 C 
ATOM     18  N   UNL     1       3.652   1.551   0.539  1.00  0.00    -0.303 NA
ATOM     19  C   UNL     1       3.691   1.173   1.959  1.00  0.00     0.084 C 
ATOM     20  C   UNL     1       5.031   0.589   2.397  1.00  0.00     0.016 C 
ATOM     21  C   UNL     1       4.591  -0.774   0.299  1.00  0.00     0.019 C 
ATOM     22  C   UNL     1       5.402  -0.654   1.590  1.00  0.00     0.003 C 
ATOM     23  C   UNL     1       4.113   2.925   0.342  1.00  0.00     0.105 C 
ENDBRANCH  16  17
ENDBRANCH   1  16
BRANCH  15  24
ATOM     24  C   UNL     1      -2.431  -1.809  -3.183  1.00  0.00     0.229 C 
ATOM     25  N   UNL     1      -2.151  -0.625  -3.799  1.00  0.00    -0.369 N 
ATOM     26  O   UNL     1      -3.443  -2.427  -3.525  1.00  0.00    -0.274 OA
ATOM     27  H   UNL     1      -2.876  -0.245  -4.394  1.00  0.00     0.159 HD
ATOM     28  H   UNL     1      -1.447   0.015  -3.454  1.00  0.00     0.159 HD
ENDBRANCH  15  24
BRANCH   8  29
ATOM     29  S   UNL     1      -3.755   0.915  -0.882  1.00  0.00     0.264 S 
ATOM     30  O   UNL     1      -3.258   1.948  -1.770  1.00  0.00    -0.201 OA
ATOM     31  O   UNL     1      -4.962   0.189  -1.212  1.00  0.00    -0.201 OA
BRANCH  29  32
ATOM     32  C   UNL     1      -4.039   1.709   0.693  1.00  0.00     0.088 A 
ATOM     33  C   UNL     1      -5.164   1.360   1.452  1.00  0.00     0.025 A 
ATOM     34  C   UNL     1      -3.202   2.756   1.103  1.00  0.00     0.025 A 
ATOM     35  C   UNL     1      -5.417   2.021   2.655  1.00  0.00     0.040 A 
ATOM     36  C   UNL     1      -3.463   3.414   2.308  1.00  0.00     0.040 A 
ATOM     37  C   UNL     1      -4.562   3.037   3.073  1.00  0.00     0.123 A 
ATOM     38  F   UNL     1      -4.813   3.672   4.225  1.00  0.00    -0.207 F 
ENDBRANCH  29  32
ENDBRANCH   8  29
TORSDOF 5
