MODEL        1USER    Run = 1USERUSER    Estimated Free Energy of Binding    = -10.19 kcal/mol  [=(1)+(2)+(3)-(4)]USERUSER    (1) Final Intermolecular Energy     = -11.39 kcal/molUSER        vdW + Hbond + desolv Energy     = -11.30 kcal/molUSER        Electrostatic Energy            =  -0.08 kcal/molUSER        Moving Ligand-Fixed Receptor    = -11.39 kcal/molUSER        Moving Ligand-Moving Receptor   =  +0.00 kcal/molUSER    (2) Final Total Internal Energy     =  -1.20 kcal/molUSER    (3) Torsional Free Energy           =  +1.19 kcal/molUSER    (4) Unbound System's Energy         =  -1.20 kcal/molUSERUSERREMARK SMILES Cc1cc(-c2nn(-c3ccc(O)cc3)c3c2CCN3c2ncccn2)ccc1FREMARK SMILES IDX 5 1 6 2 7 3 15 4 16 5 17 6 18 7 19 8 4 9 2 10 3 11 28 12REMARK SMILES IDX 27 13 26 14 1 15 29 16 8 17 9 18 14 19 10 20 13 21 11 22REMARK SMILES IDX 12 23 20 25 21 26 25 27 22 28 24 29 23 30REMARK H PARENT 12 24USER                              x       y       z     vdW  Elec       q    TypeUSER                           _______ _______ _______ _____ _____    ______ ____ROOTATOM      1  C   UNL     1      36.928  44.751  18.515 -0.28 -0.02    +0.098 A  ATOM      2  N   UNL     1      38.117  45.305  18.196 -0.28 +0.03    -0.166 NA ATOM      3  N   UNL     1      37.873  46.173  17.153 -0.25 +0.08    -0.216 N  ATOM      4  C   UNL     1      36.580  45.999  16.722 -0.26 -0.08    +0.143 A  ATOM      5  C   UNL     1      35.950  45.185  17.612 -0.32 -0.01    +0.025 A  ATOM      6  C   UNL     1      34.536  45.011  17.246 -0.34 -0.04    +0.064 C  ATOM      7  C   UNL     1      34.468  45.779  15.869 -0.19 -0.14    +0.132 C  ATOM      8  N   UNL     1      35.812  46.415  15.683 -0.17 +0.27    -0.294 N  ENDROOTBRANCH   1   9ATOM      9  C   UNL     1      36.803  43.817  19.637 -0.37 -0.00    +0.003 A  ATOM     10  C   UNL     1      37.481  43.116  21.884 -0.39 -0.00    -0.015 A  ATOM     11  C   UNL     1      37.582  43.995  20.795 -0.37 -0.00    +0.016 A  ATOM     12  C   UNL     1      36.600  42.039  21.792 -0.44 +0.01    +0.126 A  ATOM     13  C   UNL     1      35.815  41.846  20.661 -0.41 -0.00    +0.040 A  ATOM     14  C   UNL     1      35.913  42.734  19.587 -0.40 -0.00    +0.013 A  ATOM     15  C   UNL     1      38.339  43.294  23.099 -0.33 +0.00    +0.047 C  ATOM     16  F   UNL     1      36.497  41.168  22.807 -0.20 -0.01    -0.207 F  ENDBRANCH   1   9BRANCH   3  17ATOM     17  C   UNL     1      38.864  47.128  16.787 -0.37 -0.02    +0.067 A  ATOM     18  C   UNL     1      38.638  48.062  15.768 -0.45 -0.02    +0.032 A  ATOM     19  C   UNL     1      40.074  47.170  17.500 -0.44 -0.01    +0.032 A  ATOM     20  C   UNL     1      39.624  49.000  15.444 -0.47 -0.02    +0.048 A  ATOM     21  C   UNL     1      41.056  48.109  17.175 -0.49 -0.01    +0.048 A  ATOM     22  C   UNL     1      40.823  49.015  16.146 -0.48 -0.02    +0.115 A  BRANCH  22  23ATOM     23  O   UNL     1      41.753  49.948  15.796 -0.76 -0.00    -0.508 OA ATOM     24  H   UNL     1      41.599  50.747  16.327 -0.28 -0.07    +0.293 HD ENDBRANCH  22  23ENDBRANCH   3  17BRANCH   8  25ATOM     25  C   UNL     1      36.213  46.435  14.335 -0.26 -0.15    +0.231 A  ATOM     26  N   UNL     1      36.552  45.265  13.756 -0.28 +0.09    -0.221 NA ATOM     27  N   UNL     1      36.241  47.603  13.666 -0.37 +0.14    -0.221 NA ATOM     28  C   UNL     1      36.909  45.292  12.458 -0.45 -0.04    +0.117 A  ATOM     29  C   UNL     1      36.603  47.580  12.371 -0.57 -0.05    +0.117 A  ATOM     30  C   UNL     1      36.951  46.435  11.705 -0.60 -0.01    +0.040 A  ENDBRANCH   8  25TORSDOF 4TERENDMDL