REMARK SMILES C[C@@H]1N=C(CCc2ccc(C(=O)N3CCN(C)CC3)cc2)c2cccc(F)c2N1
REMARK SMILES IDX 6 1 5 2 4 3 2 4 3 5 29 6 28 7 22 8 26 9 23 10 25 11 24 12
REMARK SMILES IDX 1 13 27 15 7 16 8 17 21 18 9 19 20 20 10 21 11 22 13 23
REMARK SMILES IDX 14 24 19 25 15 26 18 27 16 28 12 29 17 30
REMARK H PARENT 29 14
ROOT
ATOM      1  C   UNL     1      -1.966  -2.232   1.434  1.00  0.00     0.042 C 
ENDROOT
BRANCH   1   2
ATOM      2  C   UNL     1      -3.322  -1.532   1.551  1.00  0.00     0.061 C 
BRANCH   2   3
ATOM      3  C   UNL     1      -3.858  -1.095   0.194  1.00  0.00     0.047 C 
ATOM      4  C   UNL     1      -4.822  -1.616  -1.883  1.00  0.00     0.194 C 
ATOM      5  N   UNL     1      -4.299  -2.029  -0.583  1.00  0.00    -0.265 NA
ATOM      6  N   UNL     1      -5.425  -0.298  -1.946  1.00  0.00    -0.361 N 
ATOM      7  C   UNL     1      -4.648   0.680  -1.296  1.00  0.00     0.081 A 
ATOM      8  C   UNL     1      -3.873   0.349  -0.178  1.00  0.00     0.022 A 
ATOM      9  C   UNL     1      -4.734   2.030  -1.671  1.00  0.00     0.147 A 
ATOM     10  C   UNL     1      -3.156   1.342   0.504  1.00  0.00     0.012 A 
ATOM     11  C   UNL     1      -4.023   3.020  -1.002  1.00  0.00     0.041 A 
ATOM     12  C   UNL     1      -3.224   2.677   0.083  1.00  0.00     0.004 A 
ATOM     13  C   UNL     1      -5.878  -2.643  -2.293  1.00  0.00     0.057 C 
ATOM     14  H   UNL     1      -5.672  -0.006  -2.889  1.00  0.00     0.162 HD
ATOM     15  F   UNL     1      -5.495   2.376  -2.722  1.00  0.00    -0.205 F 
ENDBRANCH   2   3
ENDBRANCH   1   2
BRANCH   1  16
ATOM     16  C   UNL     1      -0.827  -1.283   1.145  1.00  0.00    -0.048 A 
ATOM     17  C   UNL     1      -0.234  -0.549   2.185  1.00  0.00     0.004 A 
ATOM     18  C   UNL     1      -0.380  -1.096  -0.171  1.00  0.00     0.004 A 
ATOM     19  C   UNL     1       0.789   0.358   1.913  1.00  0.00     0.014 A 
ATOM     20  C   UNL     1       0.647  -0.194  -0.447  1.00  0.00     0.014 A 
ATOM     21  C   UNL     1       1.231   0.521   0.599  1.00  0.00     0.040 A 
BRANCH  21  22
ATOM     22  C   UNL     1       2.308   1.489   0.324  1.00  0.00     0.253 C 
ATOM     23  N   UNL     1       3.570   0.997   0.024  1.00  0.00    -0.336 N 
ATOM     24  C   UNL     1       4.646   1.946  -0.263  1.00  0.00     0.135 C 
ATOM     25  C   UNL     1       3.942  -0.424   0.017  1.00  0.00     0.135 C 
ATOM     26  C   UNL     1       5.737   1.335  -1.166  1.00  0.00     0.105 C 
ATOM     27  C   UNL     1       5.444  -0.622   0.293  1.00  0.00     0.105 C 
ATOM     28  N   UNL     1       6.319   0.064  -0.680  1.00  0.00    -0.303 NA
ATOM     29  O   UNL     1       2.027   2.685   0.375  1.00  0.00    -0.269 OA
ATOM     30  C   UNL     1       7.656   0.254  -0.122  1.00  0.00     0.105 C 
ENDBRANCH  21  22
ENDBRANCH   1  16
TORSDOF 4
