MODEL        8USER    Run = 8USERUSER    Estimated Free Energy of Binding    =  -9.55 kcal/mol  [=(1)+(2)+(3)-(4)]USERUSER    (1) Final Intermolecular Energy     = -12.23 kcal/molUSER        vdW + Hbond + desolv Energy     = -11.92 kcal/molUSER        Electrostatic Energy            =  -0.31 kcal/molUSER        Moving Ligand-Fixed Receptor    = -12.23 kcal/molUSER        Moving Ligand-Moving Receptor   =  +0.00 kcal/molUSER    (2) Final Total Internal Energy     =  -1.81 kcal/molUSER    (3) Torsional Free Energy           =  +2.68 kcal/molUSER    (4) Unbound System's Energy         =  -1.81 kcal/molUSERUSERREMARK SMILES Cc1nc(-c2ccc(OCCN3CCOCC3)cc2)cc(N=CN)c1COREMARK SMILES IDX 5 1 6 2 7 3 8 4 18 5 19 6 4 7 2 8 3 9 25 10 21 11 20 12 1 13REMARK SMILES IDX 26 14 27 15 22 17 23 18 24 19 9 22 10 23 11 24 12 25 13 26REMARK SMILES IDX 17 27 14 28 16 29 15 30REMARK H PARENT 27 16 24 20 24 21USER                              x       y       z     vdW  Elec       q    TypeUSER                           _______ _______ _______ _____ _____    ______ ____ROOTATOM      1  C   UNL     1      36.722  44.645  18.036 -0.34 -0.00    +0.000 A  ATOM      2  C   UNL     1      35.932  43.818  17.220 -0.32 -0.00    +0.014 A  ATOM      3  C   UNL     1      34.932  43.000  17.764 -0.33 -0.01    +0.047 A  ATOM      4  C   UNL     1      34.688  42.987  19.137 -0.32 -0.02    +0.119 A  ATOM      5  C   UNL     1      35.451  43.805  19.964 -0.38 -0.00    +0.047 A  ATOM      6  C   UNL     1      36.451  44.622  19.416 -0.29 -0.00    +0.014 A  ENDROOTBRANCH   1   7ATOM      7  C   UNL     1      37.786  45.515  17.491 -0.32 -0.02    +0.073 A  ATOM      8  C   UNL     1      38.296  47.296  16.053 -0.39 -0.02    +0.046 A  ATOM      9  N   UNL     1      37.384  46.440  16.587 -0.21 +0.13    -0.253 NA ATOM     10  C   UNL     1      39.651  47.271  16.395 -0.47 -0.01    +0.024 A  ATOM     11  C   UNL     1      40.062  46.273  17.292 -0.42 -0.01    +0.074 A  ATOM     12  C   UNL     1      39.118  45.416  17.862 -0.37 -0.01    +0.057 A  ATOM     13  C   UNL     1      37.731  48.283  15.072 -0.54 -0.05    +0.067 C  BRANCH  10  14ATOM     14  C   UNL     1      40.656  48.216  15.794 -0.48 -0.03    +0.195 C  BRANCH  14  15ATOM     15  O   UNL     1      41.614  48.634  16.760 -0.79 -0.02    -0.392 OA ATOM     16  H   UNL     1      42.276  47.924  16.817 -0.38 -0.02    +0.211 HD ENDBRANCH  14  15ENDBRANCH  10  14BRANCH  11  17ATOM     17  N   UNL     1      41.413  46.133  17.663 -0.27 +0.01    -0.239 NA BRANCH  17  18ATOM     18  C   UNL     1      41.772  46.760  18.731 -0.45 +0.00    +0.190 C  ATOM     19  N   UNL     1      42.884  47.536  18.792 -0.31 -0.03    -0.390 N  ATOM     20  H   UNL     1      42.850  48.334  19.414 -0.34 -0.01    +0.157 HD ATOM     21  H   UNL     1      43.272  47.745  17.877 -0.39 -0.01    +0.157 HD ENDBRANCH  17  18ENDBRANCH  11  17ENDBRANCH   1   7BRANCH   4  22ATOM     22  O   UNL     1      33.688  42.144  19.533 -0.33 -0.03    -0.492 OA BRANCH  22  23ATOM     23  C   UNL     1      32.347  42.549  19.243 -0.25 -0.00    +0.245 C  BRANCH  23  24ATOM     24  C   UNL     1      31.599  41.335  18.667 -0.28 -0.01    +0.126 C  BRANCH  24  25ATOM     25  N   UNL     1      32.128  40.034  19.112 -0.55 -0.04    -0.295 NA ATOM     26  C   UNL     1      31.215  39.377  20.076 -0.38 +0.02    +0.113 C  ATOM     27  C   UNL     1      32.412  39.133  17.972 -0.42 -0.01    +0.113 C  ATOM     28  C   UNL     1      30.325  38.298  19.439 -0.35 +0.03    +0.175 C  ATOM     29  C   UNL     1      32.371  37.653  18.381 -0.38 +0.02    +0.175 C  ATOM     30  O   UNL     1      31.071  37.239  18.825 -0.84 -0.17    -0.379 OA ENDBRANCH  24  25ENDBRANCH  23  24ENDBRANCH  22  23ENDBRANCH   4  22TORSDOF 9TERENDMDL