REMARK SMILES CNCCC[C@H]1COc2ccc(O)c(N)c2-c2cc(O)ccc21
REMARK SMILES IDX 5 1 4 2 3 3 2 4 1 5 6 7 23 9 22 10 17 11 21 12 18 13 19 14
REMARK SMILES IDX 16 15 14 16 9 17 12 18 10 19 11 20 15 21 8 24 7 25 13 27
REMARK SMILES IDX 20 29
REMARK H PARENT 2 6 15 22 15 23 13 28 20 30
REMARK Flexibility Score:   90.900
ROOT
ATOM      1  C   UNL     1       2.322  -1.183   1.215  1.00  0.00     0.013 C 
ENDROOT
BRANCH   1   2
ATOM      2  C   UNL     1       2.322  -1.523  -0.285  1.00  0.00     0.016 C 
BRANCH   2   3
ATOM      3  C   UNL     1       2.156  -0.355  -1.256  1.00  0.00     0.080 C 
BRANCH   3   4
ATOM      4  N   UNL     1       3.205   0.645  -1.060  1.00  0.00    -0.320 NA
ATOM      5  C   UNL     1       3.023   1.775  -1.963  1.00  0.00     0.101 C 
ATOM      6  H   UNL     1       4.116   0.220  -1.235  1.00  0.00     0.122 HD
ENDBRANCH   3   4
ENDBRANCH   2   3
ENDBRANCH   1   2
BRANCH   1   7
ATOM      7  C   UNL     1       1.032  -0.570   1.822  1.00  0.00     0.058 CG0
ATOM      8  G   UNL     1       1.051   0.962   1.741  1.00  0.00     0.000 G0
BRANCH   7   9
ATOM      9  C   UNL     1      -0.250  -1.295   1.413  1.00  0.00    -0.033 A 
ATOM     10  C   UNL     1      -0.340  -2.654   1.814  1.00  0.00     0.008 A 
ATOM     11  C   UNL     1      -1.351  -0.702   0.748  1.00  0.00    -0.005 A 
ATOM     12  C   UNL     1      -1.481  -3.417   1.587  1.00  0.00     0.046 A 
ATOM     13  C   UNL     1      -2.517  -1.495   0.584  1.00  0.00     0.055 A 
ATOM     14  C   UNL     1      -2.570  -2.827   0.983  1.00  0.00     0.116 A 
BRANCH  11  15
ATOM     15  C   UNL     1      -1.406   0.711   0.274  1.00  0.00     0.051 A 
ATOM     16  C   UNL     1      -1.940   1.083  -0.985  1.00  0.00     0.086 A 
ATOM     17  C   UNL     1      -0.955   1.768   1.093  1.00  0.00     0.129 A 
ATOM     18  C   UNL     1      -2.218   2.441  -1.245  1.00  0.00     0.139 A 
ATOM     19  C   UNL     1      -1.183   3.116   0.792  1.00  0.00     0.051 A 
ATOM     20  C   UNL     1      -1.843   3.456  -0.380  1.00  0.00     0.052 A 
BRANCH  16  21
ATOM     21  N   UNL     1      -2.347   0.136  -1.970  1.00  0.00    -0.395 N 
ATOM     22  H   UNL     1      -2.098   0.470  -2.901  1.00  0.00     0.156 HD
ATOM     23  H   UNL     1      -1.897  -0.766  -1.813  1.00  0.00     0.156 HD
ENDBRANCH  16  21
BRANCH  17  24
ATOM     24  O   UNL     1      -0.185   1.525   2.207  1.00  0.00    -0.492 OA
BRANCH  24  25
ATOM     25  C   UNL     1       1.051   0.962   1.741  1.00  0.00     0.238 CG0
ATOM     26  G   UNL     1       1.032  -0.570   1.822  1.00  0.00     0.000 G0
ENDBRANCH  24  25
ENDBRANCH  17  24
BRANCH  18  27
ATOM     27  O   UNL     1      -2.913   2.780  -2.377  1.00  0.00    -0.506 OA
ATOM     28  H   UNL     1      -3.420   1.975  -2.596  1.00  0.00     0.293 HD
ENDBRANCH  18  27
ENDBRANCH  11  15
BRANCH  14  29
ATOM     29  O   UNL     1      -3.690  -3.581   0.802  1.00  0.00    -0.508 OA
ATOM     30  H   UNL     1      -4.390  -3.013   0.440  1.00  0.00     0.293 HD
ENDBRANCH  14  29
ENDBRANCH   7   9
ENDBRANCH   1   7
TORSDOF 7
