MODEL        10USER    Run = 10USERUSER    Estimated Free Energy of Binding    =  -8.17 kcal/mol  [=(1)+(2)+(3)-(4)]USERUSER    (1) Final Intermolecular Energy     =  -9.37 kcal/molUSER        vdW + Hbond + desolv Energy     =  -9.18 kcal/molUSER        Electrostatic Energy            =  -0.19 kcal/molUSER        Moving Ligand-Fixed Receptor    =  -9.37 kcal/molUSER        Moving Ligand-Moving Receptor   =  +0.00 kcal/molUSER    (2) Final Total Internal Energy     =  -0.53 kcal/molUSER    (3) Torsional Free Energy           =  +1.19 kcal/molUSER    (4) Unbound System's Energy         =  -0.53 kcal/molUSERUSERREMARK SMILES O=C1Nc2ccccc2[C@@H]1C=Cc1ccc(C(F)F)cn1REMARK SMILES IDX 12 1 11 2 10 3 2 4 3 5 4 6 9 7 5 8 8 9 6 10 7 11 1 12 13 14REMARK SMILES IDX 14 15 21 16 15 17 20 18 16 19 17 20 18 21 19 22REMARK H PARENT 3 13USER                              x       y       z     vdW  Elec       q    TypeUSER                           _______ _______ _______ _____ _____    ______ ____ROOTATOM      1  C   UNL     1      39.465  48.437  14.843 -0.60 -0.01    +0.025 C  ENDROOTBRANCH   1   2ATOM      2  C   UNL     1      38.171  48.271  14.517 -0.60 +0.00    -0.007 C  BRANCH   2   3ATOM      3  C   UNL     1      37.600  46.962  14.050 -0.44 -0.06    +0.134 C  ATOM      4  C   UNL     1      36.757  47.160  12.760 -0.52 -0.10    +0.235 C  ATOM      5  N   UNL     1      35.472  46.698  13.026 -0.31 +0.21    -0.325 N  ATOM      6  C   UNL     1      35.357  46.245  14.331 -0.39 -0.04    +0.045 A  ATOM      7  C   UNL     1      36.576  46.384  14.994 -0.39 +0.01    -0.008 A  ATOM      8  C   UNL     1      34.235  45.730  14.943 -0.26 -0.02    +0.026 A  ATOM      9  C   UNL     1      36.706  45.995  16.315 -0.36 -0.00    +0.007 A  ATOM     10  C   UNL     1      34.356  45.337  16.278 -0.32 -0.00    +0.002 A  ATOM     11  C   UNL     1      35.582  45.469  16.958 -0.34 -0.00    +0.000 A  ATOM     12  O   UNL     1      37.124  47.640  11.699 -1.04 +0.06    -0.274 OA ATOM     13  H   UNL     1      34.731  46.720  12.342 -0.23 -0.15    +0.169 HD ENDBRANCH   2   3ENDBRANCH   1   2BRANCH   1  14ATOM     14  C   UNL     1      40.116  47.909  16.045 -0.49 -0.02    +0.063 A  ATOM     15  C   UNL     1      39.665  46.780  16.721 -0.45 -0.01    +0.029 A  ATOM     16  N   UNL     1      41.166  48.641  16.480 -0.70 +0.02    -0.256 NA ATOM     17  C   UNL     1      40.335  46.373  17.875 -0.48 -0.00    +0.013 A  ATOM     18  C   UNL     1      41.796  48.228  17.605 -0.26 -0.00    +0.121 A  ATOM     19  C   UNL     1      41.427  47.109  18.336 -0.51 -0.00    +0.036 A  BRANCH  19  20ATOM     20  C   UNL     1      42.208  46.697  19.545 -0.27 +0.05    +0.374 C  ATOM     21  F   UNL     1      42.148  45.359  19.790 -0.06 -0.05    -0.205 F  ATOM     22  F   UNL     1      43.534  46.995  19.450 -0.16 -0.09    -0.205 F  ENDBRANCH  19  20ENDBRANCH   1  14TORSDOF 4TERENDMDL