MODEL        1USER    Run = 1USERUSER    Estimated Free Energy of Binding    =  -8.84 kcal/mol  [=(1)+(2)+(3)-(4)]USERUSER    (1) Final Intermolecular Energy     = -11.22 kcal/molUSER        vdW + Hbond + desolv Energy     = -11.06 kcal/molUSER        Electrostatic Energy            =  -0.17 kcal/molUSER        Moving Ligand-Fixed Receptor    = -11.22 kcal/molUSER        Moving Ligand-Moving Receptor   =  +0.00 kcal/molUSER    (2) Final Total Internal Energy     =  -1.53 kcal/molUSER    (3) Torsional Free Energy           =  +2.39 kcal/molUSER    (4) Unbound System's Energy         =  -1.53 kcal/molUSERUSERREMARK SMILES NC=Nc1cc(-c2ccc(OCCN3CCOCC3)cc2)ncc1C(N)=OREMARK SMILES IDX 7 1 8 2 9 3 10 4 20 5 21 6 6 7 4 8 5 9 24 10 23 11 22 12REMARK SMILES IDX 3 13 2 14 1 15 25 18 26 19 27 20 11 23 12 24 13 25 14 26REMARK SMILES IDX 15 27 19 28 16 29 18 30 17 31REMARK H PARENT 1 16 1 17 26 21 26 22USER                              x       y       z     vdW  Elec       q    TypeUSER                           _______ _______ _______ _____ _____    ______ ____ROOTATOM      1  C   UNL     1      37.309  45.879  16.737 -0.37 -0.00    +0.000 A  ATOM      2  C   UNL     1      37.214  45.495  15.388 -0.36 -0.01    +0.014 A  ATOM      3  C   UNL     1      35.983  45.159  14.802 -0.33 -0.02    +0.047 A  ATOM      4  C   UNL     1      34.813  45.198  15.556 -0.25 -0.08    +0.119 A  ATOM      5  C   UNL     1      34.891  45.567  16.899 -0.31 -0.03    +0.047 A  ATOM      6  C   UNL     1      36.120  45.897  17.482 -0.34 -0.01    +0.014 A  ENDROOTBRANCH   1   7ATOM      7  C   UNL     1      38.596  46.248  17.360 -0.35 -0.02    +0.072 A  ATOM      8  C   UNL     1      40.656  47.517  17.461 -0.45 -0.01    +0.081 A  ATOM      9  C   UNL     1      39.454  47.197  16.814 -0.42 -0.02    +0.058 A  ATOM     10  C   UNL     1      40.995  46.827  18.631 -0.41 -0.00    +0.083 A  ATOM     11  C   UNL     1      40.077  45.910  19.119 -0.35 -0.00    +0.127 A  ATOM     12  N   UNL     1      38.892  45.621  18.523 -0.25 +0.03    -0.255 NA BRANCH   8  13ATOM     13  N   UNL     1      41.468  48.519  16.888 -0.82 +0.00    -0.239 NA BRANCH  13  14ATOM     14  C   UNL     1      40.984  49.215  15.913 -0.53 -0.03    +0.190 C  ATOM     15  N   UNL     1      40.988  50.560  15.705 -0.31 +0.14    -0.390 N  ATOM     16  H   UNL     1      40.293  50.951  15.079 -0.35 -0.12    +0.157 HD ATOM     17  H   UNL     1      41.243  51.165  16.477 -0.48 -0.08    +0.157 HD ENDBRANCH  13  14ENDBRANCH   8  13BRANCH  10  18ATOM     18  C   UNL     1      42.258  46.997  19.388 -0.38 +0.03    +0.252 C  ATOM     19  N   UNL     1      43.352  47.444  18.707 -0.29 -0.06    -0.365 N  ATOM     20  O   UNL     1      42.327  46.722  20.579 -0.29 -0.05    -0.269 OA ATOM     21  H   UNL     1      44.213  47.600  19.212 -0.15 +0.07    +0.159 HD ATOM     22  H   UNL     1      43.279  47.731  17.735 -0.43 -0.02    +0.159 HD ENDBRANCH  10  18ENDBRANCH   1   7BRANCH   4  23ATOM     23  O   UNL     1      33.552  44.906  15.123 -0.02 +0.33    -0.492 OA BRANCH  23  24ATOM     24  C   UNL     1      32.624  44.303  16.024 -0.22 -0.12    +0.245 C  BRANCH  24  25ATOM     25  C   UNL     1      33.089  42.919  16.526 -0.30 -0.06    +0.126 C  BRANCH  25  26ATOM     26  N   UNL     1      32.370  42.397  17.705 -0.12 +0.08    -0.295 NA ATOM     27  C   UNL     1      31.811  43.447  18.582 -0.31 -0.01    +0.113 C  ATOM     28  C   UNL     1      33.238  41.526  18.529 -0.36 -0.02    +0.113 C  ATOM     29  C   UNL     1      32.870  44.189  19.417 -0.38 -0.02    +0.175 C  ATOM     30  C   UNL     1      34.274  42.293  19.369 -0.34 -0.01    +0.175 C  ATOM     31  O   UNL     1      33.650  43.277  20.201 -0.76 -0.05    -0.379 OA ENDBRANCH  25  26ENDBRANCH  24  25ENDBRANCH  23  24ENDBRANCH   4  23TORSDOF 8TERENDMDL