REMARK SMILES Cc1nc(-c2ccc(OCCN3CCOCC3)cc2)cc(N=CN)c1CO
REMARK SMILES IDX 5 1 6 2 7 3 8 4 18 5 19 6 4 7 2 8 3 9 25 10 21 11 20 12 1 13
REMARK SMILES IDX 26 14 27 15 22 17 23 18 24 19 9 22 10 23 11 24 12 25 13 26
REMARK SMILES IDX 17 27 14 28 16 29 15 30
REMARK H PARENT 27 16 24 20 24 21
ROOT
ATOM      1  C   UNL     1       1.548  -0.020   0.370  1.00  0.00     0.000 A 
ATOM      2  C   UNL     1       1.046  -0.072   1.681  1.00  0.00     0.014 A 
ATOM      3  C   UNL     1      -0.323  -0.238   1.930  1.00  0.00     0.047 A 
ATOM      4  C   UNL     1      -1.231  -0.361   0.878  1.00  0.00     0.119 A 
ATOM      5  C   UNL     1      -0.756  -0.322  -0.429  1.00  0.00     0.047 A 
ATOM      6  C   UNL     1       0.615  -0.156  -0.674  1.00  0.00     0.014 A 
ENDROOT
BRANCH   1   7
ATOM      7  C   UNL     1       2.987   0.158   0.077  1.00  0.00     0.073 A 
ATOM      8  C   UNL     1       4.726  -0.244  -1.444  1.00  0.00     0.046 A 
ATOM      9  N   UNL     1       3.421  -0.381  -1.087  1.00  0.00    -0.253 NA
ATOM     10  C   UNL     1       5.660   0.438  -0.658  1.00  0.00     0.024 A 
ATOM     11  C   UNL     1       5.207   0.945   0.570  1.00  0.00     0.074 A 
ATOM     12  C   UNL     1       3.860   0.829   0.919  1.00  0.00     0.057 A 
ATOM     13  C   UNL     1       5.087  -0.873  -2.759  1.00  0.00     0.067 C 
BRANCH  10  14
ATOM     14  C   UNL     1       7.104   0.580  -1.055  1.00  0.00     0.195 C 
BRANCH  14  15
ATOM     15  O   UNL     1       7.229   1.054  -2.391  1.00  0.00    -0.392 OA
ATOM     16  H   UNL     1       8.157   1.321  -2.503  1.00  0.00     0.211 HD
ENDBRANCH  14  15
ENDBRANCH  10  14
BRANCH  11  17
ATOM     17  N   UNL     1       6.080   1.606   1.456  1.00  0.00    -0.239 NA
BRANCH  17  18
ATOM     18  C   UNL     1       6.514   0.905   2.447  1.00  0.00     0.190 C 
ATOM     19  N   UNL     1       7.369   1.397   3.379  1.00  0.00    -0.390 N 
ATOM     20  H   UNL     1       7.284   1.027   4.318  1.00  0.00     0.157 HD
ATOM     21  H   UNL     1       7.456   2.408   3.344  1.00  0.00     0.157 HD
ENDBRANCH  17  18
ENDBRANCH  11  17
ENDBRANCH   1   7
BRANCH   4  22
ATOM     22  O   UNL     1      -2.534  -0.515   1.261  1.00  0.00    -0.492 OA
BRANCH  22  23
ATOM     23  C   UNL     1      -3.506  -0.628   0.217  1.00  0.00     0.245 C 
BRANCH  23  24
ATOM     24  C   UNL     1      -4.888  -0.792   0.872  1.00  0.00     0.126 C 
BRANCH  24  25
ATOM     25  N   UNL     1      -5.991  -0.985  -0.086  1.00  0.00    -0.295 NA
ATOM     26  C   UNL     1      -7.259  -1.317   0.605  1.00  0.00     0.113 C 
ATOM     27  C   UNL     1      -6.173   0.192  -0.965  1.00  0.00     0.113 C 
ATOM     28  C   UNL     1      -8.200  -0.113   0.768  1.00  0.00     0.175 C 
ATOM     29  C   UNL     1      -7.605   0.287  -1.514  1.00  0.00     0.175 C 
ATOM     30  O   UNL     1      -8.580   0.481  -0.480  1.00  0.00    -0.379 OA
ENDBRANCH  24  25
ENDBRANCH  23  24
ENDBRANCH  22  23
ENDBRANCH   4  22
TORSDOF 9
