REMARK SMILES CN1C(=O)c2ccccc2[C@@H]1C=Cc1ccc(C(F)(F)F)cn1
REMARK SMILES IDX 13 1 12 2 11 3 2 4 3 5 5 6 10 7 6 8 9 9 7 10 8 11 1 12 4 13
REMARK SMILES IDX 14 14 15 15 23 16 16 17 22 18 17 19 18 20 19 21 20 22 21 23
REMARK H PARENT
ROOT
ATOM      1  C   UNL     1       0.733  -0.252   0.970  1.00  0.00     0.026 C 
ENDROOT
BRANCH   1   2
ATOM      2  C   UNL     1      -0.332  -0.324   0.152  1.00  0.00     0.005 C 
BRANCH   2   3
ATOM      3  C   UNL     1      -1.735  -0.527   0.641  1.00  0.00     0.139 C 
ATOM      4  N   UNL     1      -2.311  -1.686  -0.029  1.00  0.00    -0.331 N 
ATOM      5  C   UNL     1      -3.501  -1.388  -0.674  1.00  0.00     0.254 C 
ATOM      6  C   UNL     1      -3.704   0.059  -0.541  1.00  0.00     0.045 A 
ATOM      7  C   UNL     1      -2.666   0.577   0.232  1.00  0.00    -0.009 A 
ATOM      8  C   UNL     1      -4.725   0.842  -1.046  1.00  0.00     0.014 A 
ATOM      9  C   UNL     1      -2.628   1.930   0.526  1.00  0.00     0.007 A 
ATOM     10  C   UNL     1      -4.688   2.207  -0.757  1.00  0.00     0.001 A 
ATOM     11  C   UNL     1      -3.648   2.746   0.022  1.00  0.00     0.000 A 
ATOM     12  C   UNL     1      -1.896  -3.036   0.274  1.00  0.00     0.148 C 
ATOM     13  O   UNL     1      -4.271  -2.146  -1.232  1.00  0.00    -0.269 OA
ENDBRANCH   2   3
ENDBRANCH   1   2
BRANCH   1  14
ATOM     14  C   UNL     1       2.135  -0.075   0.573  1.00  0.00     0.063 A 
ATOM     15  C   UNL     1       2.539   0.376  -0.679  1.00  0.00     0.029 A 
ATOM     16  N   UNL     1       3.022  -0.359   1.554  1.00  0.00    -0.256 NA
ATOM     17  C   UNL     1       3.902   0.523  -0.937  1.00  0.00     0.017 A 
ATOM     18  C   UNL     1       4.340  -0.210   1.279  1.00  0.00     0.124 A 
ATOM     19  C   UNL     1       4.833   0.230   0.061  1.00  0.00     0.074 A 
BRANCH  19  20
ATOM     20  C   UNL     1       6.309   0.343  -0.153  1.00  0.00     0.417 C 
ATOM     21  F   UNL     1       6.883  -0.853  -0.453  1.00  0.00    -0.166 F 
ATOM     22  F   UNL     1       6.971   0.811   0.942  1.00  0.00    -0.166 F 
ATOM     23  F   UNL     1       6.641   1.183  -1.173  1.00  0.00    -0.166 F 
ENDBRANCH  19  20
ENDBRANCH   1  14
TORSDOF 4
