REMARK SMILES O=C1Nc2ccccc2[C@@H]1C=Cc1ccc(C(F)F)cn1
REMARK SMILES IDX 12 1 11 2 10 3 2 4 3 5 4 6 9 7 5 8 8 9 6 10 7 11 1 12 13 14
REMARK SMILES IDX 14 15 21 16 15 17 20 18 16 19 17 20 18 21 19 22
REMARK H PARENT 3 13
ROOT
ATOM      1  C   UNL     1       0.607   1.146  -0.140  1.00  0.00     0.025 C 
ENDROOT
BRANCH   1   2
ATOM      2  C   UNL     1      -0.351   0.517   0.562  1.00  0.00    -0.007 C 
BRANCH   2   3
ATOM      3  C   UNL     1      -1.728   1.083   0.769  1.00  0.00     0.134 C 
ATOM      4  C   UNL     1      -2.089   1.110   2.280  1.00  0.00     0.235 C 
ATOM      5  N   UNL     1      -3.253   0.365   2.444  1.00  0.00    -0.325 N 
ATOM      6  C   UNL     1      -3.688  -0.166   1.240  1.00  0.00     0.045 A 
ATOM      7  C   UNL     1      -2.824   0.210   0.212  1.00  0.00    -0.008 A 
ATOM      8  C   UNL     1      -4.794  -0.960   1.026  1.00  0.00     0.026 A 
ATOM      9  C   UNL     1      -3.057  -0.202  -1.088  1.00  0.00     0.007 A 
ATOM     10  C   UNL     1      -5.035  -1.383  -0.283  1.00  0.00     0.002 A 
ATOM     11  C   UNL     1      -4.173  -1.008  -1.331  1.00  0.00     0.000 A 
ATOM     12  O   UNL     1      -1.478   1.663   3.180  1.00  0.00    -0.274 OA
ATOM     13  H   UNL     1      -3.692   0.230   3.342  1.00  0.00     0.169 HD
ENDBRANCH   2   3
ENDBRANCH   1   2
BRANCH   1  14
ATOM     14  C   UNL     1       1.961   0.638  -0.379  1.00  0.00     0.063 A 
ATOM     15  C   UNL     1       2.651  -0.150   0.536  1.00  0.00     0.029 A 
ATOM     16  N   UNL     1       2.512   1.043  -1.546  1.00  0.00    -0.256 NA
ATOM     17  C   UNL     1       3.948  -0.560   0.229  1.00  0.00     0.013 A 
ATOM     18  C   UNL     1       3.774   0.636  -1.818  1.00  0.00     0.121 A 
ATOM     19  C   UNL     1       4.533  -0.161  -0.974  1.00  0.00     0.036 A 
BRANCH  19  20
ATOM     20  C   UNL     1       5.906  -0.603  -1.374  1.00  0.00     0.374 C 
ATOM     21  F   UNL     1       6.550   0.302  -2.163  1.00  0.00    -0.205 F 
ATOM     22  F   UNL     1       6.729  -0.816  -0.310  1.00  0.00    -0.205 F 
ENDBRANCH  19  20
ENDBRANCH   1  14
TORSDOF 4
