REMARK SMILES NC=Nc1cc(-c2ccc(OCCN3CCOCC3)cc2)ncc1C(N)=O
REMARK SMILES IDX 7 1 8 2 9 3 10 4 20 5 21 6 6 7 4 8 5 9 24 10 23 11 22 12
REMARK SMILES IDX 3 13 2 14 1 15 25 18 26 19 27 20 11 23 12 24 13 25 14 26
REMARK SMILES IDX 15 27 19 28 16 29 18 30 17 31
REMARK H PARENT 1 16 1 17 26 21 26 22
ROOT
ATOM      1  C   UNL     1       1.384  -0.216  -1.360  1.00  0.00     0.000 A 
ATOM      2  C   UNL     1       0.690   0.932  -0.938  1.00  0.00     0.014 A 
ATOM      3  C   UNL     1      -0.712   1.000  -0.971  1.00  0.00     0.047 A 
ATOM      4  C   UNL     1      -1.456  -0.083  -1.430  1.00  0.00     0.119 A 
ATOM      5  C   UNL     1      -0.784  -1.226  -1.862  1.00  0.00     0.047 A 
ATOM      6  C   UNL     1       0.614  -1.290  -1.833  1.00  0.00     0.014 A 
ENDROOT
BRANCH   1   7
ATOM      7  C   UNL     1       2.857  -0.304  -1.317  1.00  0.00     0.072 A 
ATOM      8  C   UNL     1       5.015   0.158  -0.321  1.00  0.00     0.081 A 
ATOM      9  C   UNL     1       3.620   0.291  -0.317  1.00  0.00     0.058 A 
ATOM     10  C   UNL     1       5.623  -0.535  -1.374  1.00  0.00     0.083 A 
ATOM     11  C   UNL     1       4.791  -1.114  -2.321  1.00  0.00     0.127 A 
ATOM     12  N   UNL     1       3.436  -1.026  -2.305  1.00  0.00    -0.255 NA
BRANCH   8  13
ATOM     13  N   UNL     1       5.737   0.744   0.741  1.00  0.00    -0.239 NA
BRANCH  13  14
ATOM     14  C   UNL     1       5.887   0.062   1.828  1.00  0.00     0.190 C 
ATOM     15  N   UNL     1       5.474  -1.196   2.143  1.00  0.00    -0.390 N 
ATOM     16  H   UNL     1       5.386  -1.441   3.122  1.00  0.00     0.157 HD
ATOM     17  H   UNL     1       4.798  -1.645   1.536  1.00  0.00     0.157 HD
ENDBRANCH  13  14
ENDBRANCH   8  13
BRANCH  10  18
ATOM     18  C   UNL     1       7.084  -0.699  -1.560  1.00  0.00     0.252 C 
ATOM     19  N   UNL     1       7.911   0.136  -0.867  1.00  0.00    -0.365 N 
ATOM     20  O   UNL     1       7.538  -1.538  -2.328  1.00  0.00    -0.269 OA
ATOM     21  H   UNL     1       8.910   0.018  -0.952  1.00  0.00     0.159 HD
ATOM     22  H   UNL     1       7.537   0.789  -0.184  1.00  0.00     0.159 HD
ENDBRANCH  10  18
ENDBRANCH   1   7
BRANCH   4  23
ATOM     23  O   UNL     1      -2.816  -0.163  -1.513  1.00  0.00    -0.492 OA
BRANCH  23  24
ATOM     24  C   UNL     1      -3.610   0.951  -1.107  1.00  0.00     0.245 C 
BRANCH  24  25
ATOM     25  C   UNL     1      -3.878   0.973   0.414  1.00  0.00     0.126 C 
BRANCH  25  26
ATOM     26  N   UNL     1      -4.506  -0.244   0.965  1.00  0.00    -0.295 NA
ATOM     27  C   UNL     1      -5.880  -0.485   0.478  1.00  0.00     0.113 C 
ATOM     28  C   UNL     1      -4.543  -0.214   2.444  1.00  0.00     0.113 C 
ATOM     29  C   UNL     1      -6.930   0.464   1.082  1.00  0.00     0.175 C 
ATOM     30  C   UNL     1      -5.614   0.727   3.023  1.00  0.00     0.175 C 
ATOM     31  O   UNL     1      -6.916   0.416   2.514  1.00  0.00    -0.379 OA
ENDBRANCH  25  26
ENDBRANCH  24  25
ENDBRANCH  23  24
ENDBRANCH   4  23
TORSDOF 8
