MODEL        4USER    Run = 4USERUSER    Estimated Free Energy of Binding    =  -7.01 kcal/mol  [=(1)+(2)+(3)-(4)]USERUSER    (1) Final Intermolecular Energy     = -10.29 kcal/molUSER        vdW + Hbond + desolv Energy     = -10.17 kcal/molUSER        Electrostatic Energy            =  -0.27 kcal/molUSER        Moving Ligand-Fixed Receptor    = -10.44 kcal/molUSER        Moving Ligand-Moving Receptor   =  +0.15 kcal/molUSER    (2) Final Total Internal Energy     =  -1.55 kcal/molUSER    (3) Torsional Free Energy           =  +3.28 kcal/molUSER    (4) Unbound System's Energy         =  -1.55 kcal/molUSERUSERREMARK SMILES CNCCC[C@H]1COc2ccc(O)c(N)c2-c2cc(O)ccc21REMARK SMILES IDX 5 1 4 2 3 3 2 4 1 5 6 7 23 9 22 10 17 11 21 12 18 13 19 14REMARK SMILES IDX 16 15 14 16 9 17 12 18 10 19 11 20 15 21 8 24 7 25 13 27REMARK SMILES IDX 20 29REMARK H PARENT 2 6 15 22 15 23 13 28 20 30REMARK Flexibility Score:   90.900USER                              x       y       z     vdW  Elec       q    TypeUSER                           _______ _______ _______ _____ _____    ______ ____ROOTATOM      1  C   UNL     1      36.469  44.915  18.880 -0.31 -0.00    +0.013 C  ENDROOTBRANCH   1   2ATOM      2  C   UNL     1      35.400  43.864  19.224 -0.43 -0.00    +0.016 C  BRANCH   2   3ATOM      3  C   UNL     1      33.946  44.245  18.949 -0.40 -0.02    +0.080 C  BRANCH   3   4ATOM      4  N   UNL     1      33.079  43.845  20.058 -0.59 +0.00    -0.320 NA ATOM      5  C   UNL     1      31.860  43.215  19.565 -0.23 +0.00    +0.101 C  ATOM      6  H   UNL     1      32.832  44.668  20.609 -0.41 -0.02    +0.122 HD ENDBRANCH   3   4ENDBRANCH   2   3ENDBRANCH   1   2BRANCH   1   7ATOM      7  C   UNL     1      37.407  44.632  17.677 -0.37 -0.01    +0.058 CG0ATOM      8  G   UNL     1      36.615  44.164  16.450 +0.00 +0.00    +0.000 G0 BRANCH   7   9ATOM      9  C   UNL     1      38.489  45.693  17.473 -0.37 +0.01    -0.033 A  ATOM     10  C   UNL     1      39.405  45.849  18.546 -0.42 -0.00    +0.008 A  ATOM     11  C   UNL     1      38.679  46.453  16.293 -0.41 +0.00    -0.005 A  ATOM     12  C   UNL     1      40.491  46.715  18.470 -0.40 -0.00    +0.046 A  ATOM     13  C   UNL     1      39.829  47.284  16.231 -0.46 -0.01    +0.055 A  ATOM     14  C   UNL     1      40.703  47.419  17.305 -0.43 -0.02    +0.116 A  BRANCH  11  15ATOM     15  C   UNL     1      37.807  46.392  15.084 -0.36 -0.02    +0.051 A  ATOM     16  C   UNL     1      37.401  47.544  14.366 -0.43 -0.05    +0.086 A  ATOM     17  C   UNL     1      37.371  45.154  14.567 -0.29 -0.05    +0.129 A  ATOM     18  C   UNL     1      36.822  47.396  13.089 -0.50 -0.06    +0.139 A  ATOM     19  C   UNL     1      36.741  45.026  13.324 -0.40 -0.02    +0.051 A  ATOM     20  C   UNL     1      36.484  46.159  12.565 -0.57 -0.02    +0.052 A  BRANCH  16  21ATOM     21  N   UNL     1      37.671  48.873  14.807 -0.23 +0.30    -0.395 N  ATOM     22  H   UNL     1      37.648  49.516  14.016 -0.40 -0.11    +0.156 HD ATOM     23  H   UNL     1      36.981  49.174  15.496 +0.03 -0.20    +0.156 HD ENDBRANCH  16  21BRANCH  17  24ATOM     24  O   UNL     1      37.473  43.999  15.308 +0.07 +0.15    -0.492 OA BRANCH  24  25ATOM     25  C   UNL     1      36.616  44.162  16.449 -0.25 -0.08    +0.238 CG0ATOM     26  G   UNL     1      37.407  44.633  17.677 +0.00 +0.00    +0.000 G0 ENDBRANCH  24  25ENDBRANCH  17  24BRANCH  18  27ATOM     27  O   UNL     1      36.611  48.506  12.313 -0.68 +0.14    -0.506 OA ATOM     28  H   UNL     1      36.229  48.152  11.488 -0.12 -0.18    +0.293 HD ENDBRANCH  18  27ENDBRANCH  11  15BRANCH  14  29ATOM     29  O   UNL     1      41.792  48.235  17.238 -0.54 -0.00    -0.508 OA ATOM     30  H   UNL     1      42.250  48.072  16.396 -0.25 +0.00    +0.293 HD ENDBRANCH  14  29ENDBRANCH   7   9ENDBRANCH   1   7TORSDOF 7TERENDMDL