REMARK SMILES O=C1Nc2ccccc2[C@H]1C=Cc1cc(O)c(C(F)(F)F)cn1
REMARK SMILES IDX 12 1 11 2 10 3 2 4 3 5 4 6 9 7 5 8 8 9 6 10 7 11 1 12 13 14
REMARK SMILES IDX 14 15 23 16 15 17 22 18 17 19 16 20 18 22 19 23 20 24 21 25
REMARK H PARENT 3 13 16 21
ROOT
ATOM      1  C   UNL     1       0.559  -2.046   0.143  1.00  0.00     0.025 C 
ENDROOT
BRANCH   1   2
ATOM      2  C   UNL     1      -0.713  -1.653  -0.044  1.00  0.00    -0.007 C 
BRANCH   2   3
ATOM      3  C   UNL     1      -1.203  -0.249  -0.279  1.00  0.00     0.134 C 
ATOM      4  C   UNL     1      -1.635  -0.052  -1.758  1.00  0.00     0.235 C 
ATOM      5  N   UNL     1      -2.975   0.320  -1.759  1.00  0.00    -0.325 N 
ATOM      6  C   UNL     1      -3.479   0.393  -0.470  1.00  0.00     0.045 A 
ATOM      7  C   UNL     1      -2.486   0.064   0.452  1.00  0.00    -0.008 A 
ATOM      8  C   UNL     1      -4.760   0.733  -0.090  1.00  0.00     0.026 A 
ATOM      9  C   UNL     1      -2.752   0.077   1.810  1.00  0.00     0.007 A 
ATOM     10  C   UNL     1      -5.039   0.744   1.279  1.00  0.00     0.002 A 
ATOM     11  C   UNL     1      -4.044   0.419   2.220  1.00  0.00     0.000 A 
ATOM     12  O   UNL     1      -0.940  -0.189  -2.754  1.00  0.00    -0.274 OA
ATOM     13  H   UNL     1      -3.491   0.508  -2.604  1.00  0.00     0.169 HD
ENDBRANCH   2   3
ENDBRANCH   1   2
BRANCH   1  14
ATOM     14  C   UNL     1       1.746  -1.194   0.084  1.00  0.00     0.066 A 
ATOM     15  C   UNL     1       2.087  -0.493  -1.064  1.00  0.00     0.075 A 
ATOM     16  N   UNL     1       2.503  -1.182   1.202  1.00  0.00    -0.256 NA
ATOM     17  C   UNL     1       3.242   0.280  -1.040  1.00  0.00     0.131 A 
ATOM     18  C   UNL     1       3.622  -0.419   1.185  1.00  0.00     0.128 A 
ATOM     19  C   UNL     1       4.039   0.334   0.097  1.00  0.00     0.116 A 
BRANCH  17  20
ATOM     20  O   UNL     1       3.609   0.996  -2.142  1.00  0.00    -0.507 OA
ATOM     21  H   UNL     1       2.949   0.871  -2.848  1.00  0.00     0.293 HD
ENDBRANCH  17  20
BRANCH  19  22
ATOM     22  C   UNL     1       5.289   1.149   0.171  1.00  0.00     0.421 C 
ATOM     23  F   UNL     1       5.909   1.058   1.386  1.00  0.00    -0.166 F 
ATOM     24  F   UNL     1       6.232   0.775  -0.738  1.00  0.00    -0.166 F 
ATOM     25  F   UNL     1       5.077   2.481  -0.019  1.00  0.00    -0.166 F 
ENDBRANCH  19  22
ENDBRANCH   1  14
TORSDOF 5
