MODEL        8USER    Run = 8USERUSER    Estimated Free Energy of Binding    =  -8.52 kcal/mol  [=(1)+(2)+(3)-(4)]USERUSER    (1) Final Intermolecular Energy     = -11.21 kcal/molUSER        vdW + Hbond + desolv Energy     = -10.99 kcal/molUSER        Electrostatic Energy            =  -0.22 kcal/molUSER        Moving Ligand-Fixed Receptor    = -11.21 kcal/molUSER        Moving Ligand-Moving Receptor   =  +0.00 kcal/molUSER    (2) Final Total Internal Energy     =  -1.67 kcal/molUSER    (3) Torsional Free Energy           =  +2.68 kcal/molUSER    (4) Unbound System's Energy         =  -1.67 kcal/molUSERUSERREMARK SMILES NC=Nc1cc(-c2ccc(OCCN3CCNCC3)cc2)ncc1COREMARK SMILES IDX 7 1 8 2 9 3 10 4 20 5 21 6 6 7 4 8 5 9 24 10 23 11 22 12REMARK SMILES IDX 3 13 2 14 1 15 25 18 26 19 11 21 12 22 13 23 14 24 15 25REMARK SMILES IDX 19 26 16 27 18 28 17 29REMARK H PARENT 1 16 1 17 26 20 17 30USER                              x       y       z     vdW  Elec       q    TypeUSER                           _______ _______ _______ _____ _____    ______ ____ROOTATOM      1  C   UNL     1      36.521  44.898  18.266 -0.34 -0.00    +0.000 A  ATOM      2  C   UNL     1      36.764  43.703  18.969 -0.29 -0.00    +0.014 A  ATOM      3  C   UNL     1      35.725  42.948  19.532 -0.39 -0.00    +0.047 A  ATOM      4  C   UNL     1      34.406  43.376  19.409 -0.32 -0.01    +0.119 A  ATOM      5  C   UNL     1      34.143  44.562  18.725 -0.36 -0.01    +0.047 A  ATOM      6  C   UNL     1      35.183  45.314  18.164 -0.37 -0.01    +0.014 A  ENDROOTBRANCH   1   7ATOM      7  C   UNL     1      37.638  45.670  17.680 -0.31 -0.02    +0.072 A  ATOM      8  C   UNL     1      39.969  46.251  17.451 -0.42 -0.01    +0.074 A  ATOM      9  C   UNL     1      38.968  45.480  18.046 -0.38 -0.01    +0.057 A  ATOM     10  C   UNL     1      39.628  47.175  16.461 -0.47 -0.01    +0.022 A  ATOM     11  C   UNL     1      38.279  47.321  16.176 -0.33 -0.06    +0.120 A  ATOM     12  N   UNL     1      37.293  46.605  16.762 -0.21 +0.14    -0.256 NA BRANCH   8  13ATOM     13  N   UNL     1      41.299  46.047  17.857 -0.30 +0.01    -0.239 NA BRANCH  13  14ATOM     14  C   UNL     1      41.787  46.789  18.792 -0.45 +0.01    +0.190 C  ATOM     15  N   UNL     1      42.931  47.535  18.805 -0.31 -0.03    -0.390 N  ATOM     16  H   UNL     1      43.298  47.773  17.887 -0.37 -0.01    +0.157 HD ATOM     17  H   UNL     1      42.928  48.332  19.435 -0.39 -0.02    +0.157 HD ENDBRANCH  13  14ENDBRANCH   8  13BRANCH  10  18ATOM     18  C   UNL     1      40.641  48.018  15.753 -0.46 -0.03    +0.195 C  BRANCH  18  19ATOM     19  O   UNL     1      41.607  48.493  16.681 -0.74 -0.01    -0.392 OA ATOM     20  H   UNL     1      42.210  47.743  16.849 -0.41 -0.04    +0.211 HD ENDBRANCH  18  19ENDBRANCH  10  18ENDBRANCH   1   7BRANCH   4  21ATOM     21  O   UNL     1      33.302  42.743  19.906 -0.54 -0.08    -0.492 OA BRANCH  21  22ATOM     22  C   UNL     1      32.322  42.308  18.959 -0.25 -0.01    +0.245 C  BRANCH  22  23ATOM     23  C   UNL     1      32.763  40.940  18.412 -0.35 -0.02    +0.126 C  BRANCH  23  24ATOM     24  N   UNL     1      31.857  39.831  18.762 -0.39 -0.01    -0.297 NA ATOM     25  C   UNL     1      31.610  39.756  20.218 -0.23 +0.02    +0.100 C  ATOM     26  C   UNL     1      32.438  38.546  18.311 -0.39 +0.00    +0.100 C  ATOM     27  C   UNL     1      30.741  38.537  20.606 -0.42 +0.01    +0.096 C  ATOM     28  C   UNL     1      31.562  37.335  18.700 -0.46 +0.03    +0.096 C  ATOM     29  N   UNL     1      31.307  37.260  20.147 -0.35 -0.07    -0.314 NA ATOM     30  H   UNL     1      30.638  36.514  20.330 +0.01 +0.03    +0.122 HD ENDBRANCH  23  24ENDBRANCH  22  23ENDBRANCH  21  22ENDBRANCH   4  21TORSDOF 9TERENDMDL