MODEL        8USER    Run = 8USERUSER    Estimated Free Energy of Binding    =  -7.75 kcal/mol  [=(1)+(2)+(3)-(4)]USERUSER    (1) Final Intermolecular Energy     =  -8.94 kcal/molUSER        vdW + Hbond + desolv Energy     =  -8.84 kcal/molUSER        Electrostatic Energy            =  -0.10 kcal/molUSER        Moving Ligand-Fixed Receptor    =  -8.94 kcal/molUSER        Moving Ligand-Moving Receptor   =  +0.00 kcal/molUSER    (2) Final Total Internal Energy     =  -0.63 kcal/molUSER    (3) Torsional Free Energy           =  +1.19 kcal/molUSER    (4) Unbound System's Energy         =  -0.63 kcal/molUSERUSERREMARK SMILES CN1C(=O)c2ccccc2[C@@H]1C=Cc1ccc(C(F)(F)F)cn1REMARK SMILES IDX 13 1 12 2 11 3 2 4 3 5 5 6 10 7 6 8 9 9 7 10 8 11 1 12 4 13REMARK SMILES IDX 14 14 15 15 23 16 16 17 22 18 17 19 18 20 19 21 20 22 21 23REMARK H PARENTUSER                              x       y       z     vdW  Elec       q    TypeUSER                           _______ _______ _______ _____ _____    ______ ____ROOTATOM      1  C   UNL     1      38.507  44.834  18.818 -0.43 -0.00    +0.026 C  ENDROOTBRANCH   1   2ATOM      2  C   UNL     1      39.175  45.976  18.575 -0.45 -0.00    +0.005 C  BRANCH   2   3ATOM      3  C   UNL     1      40.036  46.186  17.366 -0.43 -0.02    +0.139 C  ATOM      4  N   UNL     1      40.907  47.332  17.593 -0.29 +0.04    -0.331 N  ATOM      5  C   UNL     1      40.785  48.295  16.604 -0.39 -0.04    +0.254 C  ATOM      6  C   UNL     1      39.706  47.853  15.714 -0.50 -0.01    +0.045 A  ATOM      7  C   UNL     1      39.256  46.610  16.155 -0.44 +0.00    -0.009 A  ATOM      8  C   UNL     1      39.183  48.488  14.603 -0.52 -0.01    +0.014 A  ATOM      9  C   UNL     1      38.243  45.956  15.473 -0.38 -0.00    +0.007 A  ATOM     10  C   UNL     1      38.158  47.836  13.916 -0.52 -0.00    +0.001 A  ATOM     11  C   UNL     1      37.692  46.581  14.347 -0.44 -0.00    +0.000 A  ATOM     12  C   UNL     1      42.022  47.281  18.510 -0.48 -0.00    +0.148 C  ATOM     13  O   UNL     1      41.437  49.310  16.450 -1.09 -0.01    -0.269 OA ENDBRANCH   2   3ENDBRANCH   1   2BRANCH   1  14ATOM     14  C   UNL     1      37.051  44.666  18.891 -0.31 -0.01    +0.063 A  ATOM     15  C   UNL     1      36.147  45.346  18.081 -0.30 -0.01    +0.029 A  ATOM     16  N   UNL     1      36.650  43.754  19.806 -0.21 +0.02    -0.256 NA ATOM     17  C   UNL     1      34.783  45.091  18.229 -0.37 -0.01    +0.017 A  ATOM     18  C   UNL     1      35.320  43.525  19.932 -0.33 -0.01    +0.124 A  ATOM     19  C   UNL     1      34.350  44.157  19.171 -0.34 -0.02    +0.074 A  BRANCH  19  20ATOM     20  C   UNL     1      32.903  43.851  19.398 -0.20 -0.04    +0.417 C  ATOM     21  F   UNL     1      32.660  42.515  19.470 -0.13 -0.01    -0.166 F  ATOM     22  F   UNL     1      32.097  44.324  18.407 -0.09 +0.02    -0.166 F  ATOM     23  F   UNL     1      32.417  44.382  20.555 -0.22 +0.00    -0.166 F  ENDBRANCH  19  20ENDBRANCH   1  14TORSDOF 4TERENDMDL