MODEL        5USER    Run = 5USERUSER    Estimated Free Energy of Binding    =  -8.11 kcal/mol  [=(1)+(2)+(3)-(4)]USERUSER    (1) Final Intermolecular Energy     =  -9.60 kcal/molUSER        vdW + Hbond + desolv Energy     =  -9.40 kcal/molUSER        Electrostatic Energy            =  -0.20 kcal/molUSER        Moving Ligand-Fixed Receptor    =  -9.60 kcal/molUSER        Moving Ligand-Moving Receptor   =  +0.00 kcal/molUSER    (2) Final Total Internal Energy     =  -0.19 kcal/molUSER    (3) Torsional Free Energy           =  +1.49 kcal/molUSER    (4) Unbound System's Energy         =  -0.19 kcal/molUSERUSERREMARK SMILES O=C1Nc2ccccc2[C@H]1C=Cc1cc(O)c(C(F)(F)F)cn1REMARK SMILES IDX 12 1 11 2 10 3 2 4 3 5 4 6 9 7 5 8 8 9 6 10 7 11 1 12 13 14REMARK SMILES IDX 14 15 23 16 15 17 22 18 17 19 16 20 18 22 19 23 20 24 21 25REMARK H PARENT 3 13 16 21USER                              x       y       z     vdW  Elec       q    TypeUSER                           _______ _______ _______ _____ _____    ______ ____ROOTATOM      1  C   UNL     1      38.709  45.876  17.272 -0.45 -0.01    +0.025 C  ENDROOTBRANCH   1   2ATOM      2  C   UNL     1      39.580  46.611  17.984 -0.48 +0.00    -0.007 C  BRANCH   2   3ATOM      3  C   UNL     1      41.079  46.477  18.001 -0.48 -0.01    +0.134 C  ATOM      4  C   UNL     1      41.762  47.864  17.853 -0.33 -0.01    +0.235 C  ATOM      5  N   UNL     1      42.554  48.065  18.978 -0.28 -0.00    -0.325 N  ATOM      6  C   UNL     1      42.479  46.988  19.847 -0.44 +0.01    +0.045 A  ATOM      7  C   UNL     1      41.621  46.017  19.333 -0.44 -0.00    -0.008 A  ATOM      8  C   UNL     1      43.130  46.839  21.054 -0.36 +0.01    +0.026 A  ATOM      9  C   UNL     1      41.394  44.839  20.023 -0.36 +0.00    +0.007 A  ATOM     10  C   UNL     1      42.902  45.655  21.760 -0.26 +0.00    +0.002 A  ATOM     11  C   UNL     1      42.042  44.665  21.249 -0.29 +0.00    +0.000 A  ATOM     12  O   UNL     1      41.644  48.649  16.924 -0.89 -0.02    -0.274 OA ATOM     13  H   UNL     1      43.104  48.898  19.120 -0.50 -0.04    +0.169 HD ENDBRANCH   2   3ENDBRANCH   1   2BRANCH   1  14ATOM     14  C   UNL     1      38.207  46.183  15.934 -0.34 -0.02    +0.066 A  ATOM     15  C   UNL     1      38.358  47.441  15.367 -0.41 -0.03    +0.075 A  ATOM     16  N   UNL     1      37.549  45.177  15.319 -0.19 +0.09    -0.256 NA ATOM     17  C   UNL     1      37.835  47.653  14.096 -0.42 -0.06    +0.131 A  ATOM     18  C   UNL     1      37.052  45.424  14.084 -0.33 -0.05    +0.128 A  ATOM     19  C   UNL     1      37.167  46.638  13.423 -0.43 -0.05    +0.116 A  BRANCH  17  20ATOM     20  O   UNL     1      37.971  48.871  13.495 -0.27 +0.18    -0.507 OA ATOM     21  H   UNL     1      37.991  49.570  14.174 -0.31 -0.24    +0.293 HD ENDBRANCH  17  20BRANCH  19  22ATOM     22  C   UNL     1      36.588  46.818  12.057 -0.39 -0.17    +0.421 C  ATOM     23  F   UNL     1      35.781  47.918  11.965 -0.27 +0.10    -0.166 F  ATOM     24  F   UNL     1      37.531  46.987  11.089 -0.27 +0.04    -0.166 F  ATOM     25  F   UNL     1      35.809  45.774  11.659 -0.22 +0.08    -0.166 F  ENDBRANCH  19  22ENDBRANCH   1  14TORSDOF 5TERENDMDL