REMARK SMILES CNCCCCCCCCCCn1cnnc1-c1cccc(C(N)=O)c1
REMARK SMILES IDX 8 1 7 2 6 3 5 4 4 5 3 6 2 7 1 8 9 10 10 11 11 12 12 13 13 14
REMARK SMILES IDX 14 15 17 16 15 17 16 18 18 19 19 20 26 21 20 22 22 23 21 24
REMARK SMILES IDX 23 25 24 26 25 27
REMARK H PARENT 2 9 24 28 24 29
ROOT
ATOM      1  C   UNL     1      -1.734  -1.502  -0.597  1.00  0.00     0.000 C 
ENDROOT
BRANCH   1   2
ATOM      2  C   UNL     1      -2.261  -2.153   0.685  1.00  0.00     0.000 C 
BRANCH   2   3
ATOM      3  C   UNL     1      -3.245  -1.311   1.504  1.00  0.00     0.000 C 
BRANCH   3   4
ATOM      4  C   UNL     1      -4.519  -0.947   0.738  1.00  0.00     0.001 C 
BRANCH   4   5
ATOM      5  C   UNL     1      -5.519  -0.222   1.645  1.00  0.00     0.015 C 
BRANCH   5   6
ATOM      6  C   UNL     1      -6.838   0.112   0.940  1.00  0.00     0.080 C 
BRANCH   6   7
ATOM      7  N   UNL     1      -6.704   0.960  -0.247  1.00  0.00    -0.320 NA
ATOM      8  C   UNL     1      -6.286   2.317   0.081  1.00  0.00     0.101 C 
ATOM      9  H   UNL     1      -7.608   1.004  -0.717  1.00  0.00     0.122 HD
ENDBRANCH   6   7
ENDBRANCH   5   6
ENDBRANCH   4   5
ENDBRANCH   3   4
ENDBRANCH   2   3
ENDBRANCH   1   2
BRANCH   1  10
ATOM     10  C   UNL     1      -1.032  -0.152  -0.415  1.00  0.00     0.000 C 
BRANCH  10  11
ATOM     11  C   UNL     1       0.165  -0.154   0.541  1.00  0.00     0.002 C 
BRANCH  11  12
ATOM     12  C   UNL     1       1.281  -1.145   0.201  1.00  0.00     0.022 C 
BRANCH  12  13
ATOM     13  C   UNL     1       1.897  -0.910  -1.178  1.00  0.00     0.125 C 
BRANCH  13  14
ATOM     14  N   UNL     1       3.049  -1.756  -1.417  1.00  0.00    -0.314 N 
ATOM     15  C   UNL     1       2.976  -3.075  -1.761  1.00  0.00     0.226 A 
ATOM     16  C   UNL     1       4.382  -1.418  -1.468  1.00  0.00     0.163 A 
ATOM     17  N   UNL     1       4.176  -3.533  -2.014  1.00  0.00    -0.139 NA
ATOM     18  N   UNL     1       5.056  -2.491  -1.847  1.00  0.00    -0.130 NA
BRANCH  16  19
ATOM     19  C   UNL     1       4.976  -0.105  -1.222  1.00  0.00     0.020 A 
ATOM     20  C   UNL     1       5.939   0.387  -2.115  1.00  0.00     0.012 A 
ATOM     21  C   UNL     1       4.642   0.667  -0.104  1.00  0.00     0.025 A 
ATOM     22  C   UNL     1       6.527   1.639  -1.920  1.00  0.00     0.002 A 
ATOM     23  C   UNL     1       5.236   1.920   0.103  1.00  0.00     0.040 A 
ATOM     24  C   UNL     1       6.171   2.411  -0.815  1.00  0.00     0.014 A 
BRANCH  23  25
ATOM     25  C   UNL     1       4.817   2.699   1.295  1.00  0.00     0.248 C 
ATOM     26  N   UNL     1       5.697   3.623   1.787  1.00  0.00    -0.366 N 
ATOM     27  O   UNL     1       3.737   2.502   1.837  1.00  0.00    -0.270 OA
ATOM     28  H   UNL     1       6.678   3.603   1.550  1.00  0.00     0.159 HD
ATOM     29  H   UNL     1       5.447   4.042   2.674  1.00  0.00     0.159 HD
ENDBRANCH  23  25
ENDBRANCH  16  19
ENDBRANCH  13  14
ENDBRANCH  12  13
ENDBRANCH  11  12
ENDBRANCH  10  11
ENDBRANCH   1  10
TORSDOF 13
