MODEL        1USER    Run = 1USERUSER    Estimated Free Energy of Binding    =  -8.68 kcal/mol  [=(1)+(2)+(3)-(4)]USERUSER    (1) Final Intermolecular Energy     = -12.56 kcal/molUSER        vdW + Hbond + desolv Energy     = -12.26 kcal/molUSER        Electrostatic Energy            =  -0.30 kcal/molUSER        Moving Ligand-Fixed Receptor    = -12.56 kcal/molUSER        Moving Ligand-Moving Receptor   =  +0.00 kcal/molUSER    (2) Final Total Internal Energy     =  -1.00 kcal/molUSER    (3) Torsional Free Energy           =  +3.88 kcal/molUSER    (4) Unbound System's Energy         =  -1.00 kcal/molUSERUSERREMARK SMILES CNCCCCCCCCCCn1cnnc1-c1cccc(C(N)=O)c1REMARK SMILES IDX 8 1 7 2 6 3 5 4 4 5 3 6 2 7 1 8 9 10 10 11 11 12 12 13 13 14REMARK SMILES IDX 14 15 17 16 15 17 16 18 18 19 19 20 26 21 20 22 22 23 21 24REMARK SMILES IDX 23 25 24 26 25 27REMARK H PARENT 2 9 24 28 24 29USER                              x       y       z     vdW  Elec       q    TypeUSER                           _______ _______ _______ _____ _____    ______ ____ROOTATOM      1  C   UNL     1      35.754  46.099  14.604 -0.47 -0.00    +0.000 C  ENDROOTBRANCH   1   2ATOM      2  C   UNL     1      34.709  45.219  15.296 -0.39 -0.00    +0.000 C  BRANCH   2   3ATOM      3  C   UNL     1      35.119  44.641  16.654 -0.37 -0.00    +0.000 C  BRANCH   3   4ATOM      4  C   UNL     1      34.997  45.643  17.804 -0.46 -0.00    +0.001 C  BRANCH   4   5ATOM      5  C   UNL     1      33.528  45.885  18.171 -0.51 -0.01    +0.015 C  BRANCH   5   6ATOM      6  C   UNL     1      32.556  45.018  17.363 -0.23 -0.03    +0.080 C  BRANCH   6   7ATOM      7  N   UNL     1      31.682  45.761  16.452 -0.56 +0.12    -0.320 NA ATOM      8  C   UNL     1      31.371  45.010  15.242 -0.40 -0.06    +0.101 C  ATOM      9  H   UNL     1      32.151  46.626  16.186 -0.47 -0.18    +0.122 HD ENDBRANCH   6   7ENDBRANCH   5   6ENDBRANCH   4   5ENDBRANCH   3   4ENDBRANCH   2   3ENDBRANCH   1   2BRANCH   1  10ATOM     10  C   UNL     1      37.054  45.393  14.202 -0.48 -0.00    +0.000 C  BRANCH  10  11ATOM     11  C   UNL     1      38.079  46.265  13.470 -0.42 -0.00    +0.002 C  BRANCH  11  12ATOM     12  C   UNL     1      39.342  46.607  14.263 -0.43 -0.00    +0.022 C  BRANCH  12  13ATOM     13  C   UNL     1      39.059  47.408  15.534 -0.45 -0.04    +0.125 C  BRANCH  13  14ATOM     14  N   UNL     1      40.172  48.256  15.909 -0.30 +0.08    -0.314 N  ATOM     15  C   UNL     1      40.515  49.407  15.260 -0.38 -0.08    +0.226 A  ATOM     16  C   UNL     1      41.005  48.167  17.001 -0.39 -0.02    +0.163 A  ATOM     17  N   UNL     1      41.490  50.002  15.900 -1.04 +0.01    -0.139 NA ATOM     18  N   UNL     1      41.786  49.234  17.000 -0.90 -0.03    -0.130 NA BRANCH  16  19ATOM     19  C   UNL     1      41.008  47.133  18.034 -0.51 -0.00    +0.020 A  ATOM     20  C   UNL     1      40.053  46.107  17.977 -0.46 -0.00    +0.012 A  ATOM     21  C   UNL     1      41.912  47.148  19.102 -0.45 +0.00    +0.025 A  ATOM     22  C   UNL     1      40.025  45.096  18.941 -0.44 -0.00    +0.002 A  ATOM     23  C   UNL     1      41.883  46.142  20.078 -0.38 +0.01    +0.040 A  ATOM     24  C   UNL     1      40.945  45.108  19.989 -0.38 +0.00    +0.014 A  BRANCH  23  25ATOM     25  C   UNL     1      42.888  46.203  21.169 -0.21 +0.08    +0.248 C  ATOM     26  N   UNL     1      43.409  47.429  21.480 -0.17 -0.09    -0.366 N  ATOM     27  O   UNL     1      43.260  45.192  21.749 -0.17 -0.10    -0.270 OA ATOM     28  H   UNL     1      43.344  48.211  20.845 -0.47 -0.02    +0.159 HD ATOM     29  H   UNL     1      44.186  47.427  22.129 +0.01 +0.06    +0.159 HD ENDBRANCH  23  25ENDBRANCH  16  19ENDBRANCH  13  14ENDBRANCH  12  13ENDBRANCH  11  12ENDBRANCH  10  11ENDBRANCH   1  10TORSDOF 13TERENDMDL