MODEL        5USER    Run = 5USERUSER    Estimated Free Energy of Binding    =  -8.67 kcal/mol  [=(1)+(2)+(3)-(4)]USERUSER    (1) Final Intermolecular Energy     = -12.54 kcal/molUSER        vdW + Hbond + desolv Energy     = -12.31 kcal/molUSER        Electrostatic Energy            =  -0.23 kcal/molUSER        Moving Ligand-Fixed Receptor    = -12.54 kcal/molUSER        Moving Ligand-Moving Receptor   =  +0.00 kcal/molUSER    (2) Final Total Internal Energy     =  -1.64 kcal/molUSER    (3) Torsional Free Energy           =  +3.88 kcal/molUSER    (4) Unbound System's Energy         =  -1.64 kcal/molUSERUSERREMARK SMILES CNCCCCCCCCCCn1cnnc1-c1cccc(CF)c1REMARK SMILES IDX 8 1 7 2 6 3 5 4 4 5 3 6 2 7 1 8 9 10 10 11 11 12 12 13 13 14REMARK SMILES IDX 14 15 17 16 15 17 16 18 18 19 19 20 25 21 20 22 22 23 21 24REMARK SMILES IDX 23 25 24 26REMARK H PARENT 2 9USER                              x       y       z     vdW  Elec       q    TypeUSER                           _______ _______ _______ _____ _____    ______ ____ROOTATOM      1  C   UNL     1      36.654  45.262  13.986 -0.49 -0.00    +0.000 C  ENDROOTBRANCH   1   2ATOM      2  C   UNL     1      36.924  44.472  15.271 -0.42 -0.00    +0.000 C  BRANCH   2   3ATOM      3  C   UNL     1      35.759  43.585  15.734 -0.47 -0.00    +0.000 C  BRANCH   3   4ATOM      4  C   UNL     1      35.065  44.104  16.995 -0.37 -0.00    +0.001 C  BRANCH   4   5ATOM      5  C   UNL     1      34.061  45.238  16.742 -0.38 -0.01    +0.015 C  BRANCH   5   6ATOM      6  C   UNL     1      32.716  44.806  16.144 -0.34 -0.05    +0.080 C  BRANCH   6   7ATOM      7  N   UNL     1      31.683  45.840  16.089 -0.59 +0.18    -0.320 NA ATOM      8  C   UNL     1      31.038  45.918  14.784 -0.51 -0.06    +0.101 C  ATOM      9  H   UNL     1      32.113  46.743  16.290 -0.46 -0.19    +0.122 HD ENDBRANCH   6   7ENDBRANCH   5   6ENDBRANCH   4   5ENDBRANCH   3   4ENDBRANCH   2   3ENDBRANCH   1   2BRANCH   1  10ATOM     10  C   UNL     1      36.137  46.688  14.159 -0.53 -0.00    +0.000 C  BRANCH  10  11ATOM     11  C   UNL     1      36.906  47.791  13.423 -0.67 -0.00    +0.002 C  BRANCH  11  12ATOM     12  C   UNL     1      37.985  48.494  14.253 -0.59 -0.01    +0.022 C  BRANCH  12  13ATOM     13  C   UNL     1      39.321  47.751  14.273 -0.40 -0.03    +0.125 C  BRANCH  13  14ATOM     14  N   UNL     1      40.314  48.420  15.090 -0.30 +0.08    -0.314 N  ATOM     15  C   UNL     1      41.025  49.517  14.703 -0.43 -0.06    +0.226 A  ATOM     16  C   UNL     1      40.645  48.191  16.405 -0.43 -0.03    +0.163 A  ATOM     17  N   UNL     1      41.748  49.951  15.705 -0.99 +0.00    -0.139 NA ATOM     18  N   UNL     1      41.498  49.130  16.778 -1.02 -0.01    -0.130 NA BRANCH  16  19ATOM     19  C   UNL     1      40.110  47.148  17.275 -0.48 -0.00    +0.020 A  ATOM     20  C   UNL     1      38.804  46.665  17.128 -0.41 -0.00    +0.012 A  ATOM     21  C   UNL     1      40.935  46.586  18.259 -0.50 -0.00    +0.018 A  ATOM     22  C   UNL     1      38.321  45.667  17.975 -0.39 -0.00    +0.001 A  ATOM     23  C   UNL     1      40.459  45.583  19.117 -0.44 +0.00    -0.016 A  ATOM     24  C   UNL     1      39.143  45.131  18.966 -0.40 -0.00    +0.006 A  BRANCH  23  25ATOM     25  C   UNL     1      41.369  44.984  20.155 -0.26 +0.03    +0.250 C  ATOM     26  F   UNL     1      42.357  45.831  20.561 -0.06 -0.06    -0.246 F  ENDBRANCH  23  25ENDBRANCH  16  19ENDBRANCH  13  14ENDBRANCH  12  13ENDBRANCH  11  12ENDBRANCH  10  11ENDBRANCH   1  10TORSDOF 13TERENDMDL