
     RDKit          3D

 77 81  0  0  0  0  0  0  0  0999 V2000
  -11.5941    1.2185    2.5494 C   0  0  0  0  0  0  0  0  0  0  0  0
  -10.2307    1.5231    1.9900 C   0  0  0  0  0  0  0  0  0  0  0  0
   -9.5163    2.4064    2.4527 O   0  0  0  0  0  0  0  0  0  0  0  0
   -9.8843    0.7513    0.9010 N   0  0  0  0  0  0  0  0  0  0  0  0
   -8.5470    0.8326    0.3453 C   0  0  0  0  0  0  0  0  0  0  0  0
   -7.4886    0.0707    1.1569 C   0  0  0  0  0  0  0  0  0  0  0  0
   -6.4749   -0.3145    0.1854 N   0  0  0  0  0  0  0  0  0  0  0  0
   -5.3245   -0.9572    0.5920 C   0  0  0  0  0  0  0  0  0  0  0  0
   -5.1436   -1.2588    1.7774 O   0  0  0  0  0  0  0  0  0  0  0  0
   -4.2376   -1.2509   -0.4706 C   0  0  0  0  0  0  0  0  0  0  0  0
   -3.4207    0.0231   -0.7192 C   0  0  0  0  0  0  0  0  0  0  0  0
   -2.2558    0.1252    0.2636 C   0  0  0  0  0  0  0  0  0  0  0  0
   -1.3851   -1.0390    0.1059 N   0  0  0  0  0  0  0  0  0  0  0  0
   -0.0056   -0.9002    0.0978 C   0  0  0  0  0  0  0  0  0  0  0  0
    0.6280    0.1084    0.8439 C   0  0  0  0  0  0  0  0  0  0  0  0
    2.0187    0.2860    0.8323 C   0  0  0  0  0  0  0  0  0  0  0  0
    2.8223   -0.5525    0.0577 C   0  0  0  0  0  0  0  0  0  0  0  0
    4.3026   -0.3784   -0.0250 C   0  0  0  0  0  0  0  0  0  0  0  0
    5.0016   -1.3746   -0.1669 O   0  0  0  0  0  0  0  0  0  0  0  0
    4.7284    0.9373    0.0155 N   0  0  0  0  0  0  0  0  0  0  0  0
    6.0558    1.4179   -0.0144 C   0  0  0  0  0  0  0  0  0  0  0  0
    6.2240    2.8033   -0.0757 C   0  0  0  0  0  0  0  0  0  0  0  0
    7.5019    3.3542   -0.0938 C   0  0  0  0  0  0  0  0  0  0  0  0
    8.6239    2.5229   -0.0571 C   0  0  0  0  0  0  0  0  0  0  0  0
    8.4997    1.1269   -0.0072 C   0  0  0  0  0  0  0  0  0  0  0  0
    9.6044    0.2576    0.0418 N   0  0  0  0  0  0  0  0  0  0  0  0
   10.9436    0.8398    0.2672 C   0  0  0  0  0  0  0  0  0  0  0  0
   11.9744   -0.2760    0.4907 C   0  0  0  0  0  0  0  0  0  0  0  0
   12.0055   -1.1904   -0.6150 O   0  0  0  0  0  0  0  0  0  0  0  0
   10.7148   -1.8011   -0.7773 C   0  0  0  0  0  0  0  0  0  0  0  0
    9.6184   -0.7569   -1.0424 C   0  0  0  0  0  0  0  0  0  0  0  0
    7.1916    0.6003    0.0326 C   0  0  0  0  0  0  0  0  0  0  0  0
    2.2265   -1.5934   -0.6533 C   0  0  0  0  0  0  0  0  0  0  0  0
    0.8342   -1.7622   -0.6275 C   0  0  0  0  0  0  0  0  0  0  0  0
   -2.0387   -2.2592   -0.3420 C   0  0  0  0  0  0  0  0  0  0  0  0
   -3.4500   -2.4240   -0.0274 N   0  0  0  0  0  0  0  0  0  0  0  0
   -6.8824    0.0387   -1.1660 C   0  0  0  0  0  0  0  0  0  0  0  0
   -8.3979    0.2532   -1.0745 C   0  0  0  0  0  0  0  0  0  0  0  0
   -9.1433   -1.0637   -1.3067 C   0  0  0  0  0  0  0  0  0  0  0  0
  -12.3194    1.9168    2.1250 H   0  0  0  0  0  0  0  0  0  0  0  0
  -11.8989    0.1931    2.3178 H   0  0  0  0  0  0  0  0  0  0  0  0
  -11.5692    1.3306    3.6365 H   0  0  0  0  0  0  0  0  0  0  0  0
  -10.4122   -0.1005    0.7574 H   0  0  0  0  0  0  0  0  0  0  0  0
   -8.2557    1.8922    0.3136 H   0  0  0  0  0  0  0  0  0  0  0  0
   -7.8877   -0.8362    1.6233 H   0  0  0  0  0  0  0  0  0  0  0  0
   -7.0403    0.6928    1.9372 H   0  0  0  0  0  0  0  0  0  0  0  0
   -4.7293   -1.5459   -1.4032 H   0  0  0  0  0  0  0  0  0  0  0  0
   -4.0407    0.9224   -0.6354 H   0  0  0  0  0  0  0  0  0  0  0  0
   -3.0232    0.0023   -1.7432 H   0  0  0  0  0  0  0  0  0  0  0  0
   -1.7301    1.0639    0.0486 H   0  0  0  0  0  0  0  0  0  0  0  0
   -2.6184    0.1786    1.2974 H   0  0  0  0  0  0  0  0  0  0  0  0
    0.0389    0.7641    1.4825 H   0  0  0  0  0  0  0  0  0  0  0  0
    2.4510    1.0584    1.4598 H   0  0  0  0  0  0  0  0  0  0  0  0
    4.0115    1.6514   -0.0089 H   0  0  0  0  0  0  0  0  0  0  0  0
    5.3683    3.4714   -0.1073 H   0  0  0  0  0  0  0  0  0  0  0  0
    7.6294    4.4327   -0.1359 H   0  0  0  0  0  0  0  0  0  0  0  0
    9.5976    3.0005   -0.0850 H   0  0  0  0  0  0  0  0  0  0  0  0
   11.2431    1.4260   -0.6111 H   0  0  0  0  0  0  0  0  0  0  0  0
   10.9413    1.4888    1.1512 H   0  0  0  0  0  0  0  0  0  0  0  0
   12.9747    0.1583    0.5861 H   0  0  0  0  0  0  0  0  0  0  0  0
   11.7633   -0.8333    1.4127 H   0  0  0  0  0  0  0  0  0  0  0  0
   10.4858   -2.3922    0.1176 H   0  0  0  0  0  0  0  0  0  0  0  0
   10.7804   -2.4909   -1.6245 H   0  0  0  0  0  0  0  0  0  0  0  0
    9.8212   -0.2520   -1.9952 H   0  0  0  0  0  0  0  0  0  0  0  0
    8.6660   -1.2856   -1.1340 H   0  0  0  0  0  0  0  0  0  0  0  0
    7.0751   -0.4733    0.1372 H   0  0  0  0  0  0  0  0  0  0  0  0
    2.8398   -2.2780   -1.2388 H   0  0  0  0  0  0  0  0  0  0  0  0
    0.4227   -2.5786   -1.2161 H   0  0  0  0  0  0  0  0  0  0  0  0
   -1.9245   -2.3543   -1.4303 H   0  0  0  0  0  0  0  0  0  0  0  0
   -1.5246   -3.1259    0.0974 H   0  0  0  0  0  0  0  0  0  0  0  0
   -3.5102   -2.4536    0.9970 H   0  0  0  0  0  0  0  0  0  0  0  0
   -6.6017   -0.7314   -1.8869 H   0  0  0  0  0  0  0  0  0  0  0  0
   -6.3733    0.9740   -1.4257 H   0  0  0  0  0  0  0  0  0  0  0  0
   -8.7359    0.9714   -1.8305 H   0  0  0  0  0  0  0  0  0  0  0  0
   -8.8780   -1.4864   -2.2805 H   0  0  0  0  0  0  0  0  0  0  0  0
  -10.2268   -0.9049   -1.3100 H   0  0  0  0  0  0  0  0  0  0  0  0
   -8.9091   -1.8108   -0.5419 H   0  0  0  0  0  0  0  0  0  0  0  0
  1  2  1  0
  2  3  2  0
  2  4  1  0
  4  5  1  0
  5  6  1  0
  6  7  1  0
  7  8  1  0
  8  9  2  0
  8 10  1  0
 10 11  1  0
 11 12  1  0
 12 13  1  0
 13 14  1  0
 14 15  2  0
 15 16  1  0
 16 17  2  0
 17 18  1  0
 18 19  2  0
 18 20  1  0
 20 21  1  0
 21 22  2  0
 22 23  1  0
 23 24  2  0
 24 25  1  0
 25 26  1  0
 26 27  1  0
 27 28  1  0
 28 29  1  0
 29 30  1  0
 30 31  1  0
 25 32  2  0
 17 33  1  0
 33 34  2  0
 13 35  1  0
 35 36  1  0
  7 37  1  0
 37 38  1  0
 38 39  1  0
 38  5  1  0
 36 10  1  0
 34 14  1  0
 32 21  1  0
 31 26  1  0
  1 40  1  0
  1 41  1  0
  1 42  1  0
  4 43  1  0
  5 44  1  0
  6 45  1  0
  6 46  1  0
 10 47  1  0
 11 48  1  0
 11 49  1  0
 12 50  1  0
 12 51  1  0
 15 52  1  0
 16 53  1  0
 20 54  1  0
 22 55  1  0
 23 56  1  0
 24 57  1  0
 27 58  1  0
 27 59  1  0
 28 60  1  0
 28 61  1  0
 30 62  1  0
 30 63  1  0
 31 64  1  0
 31 65  1  0
 32 66  1  0
 33 67  1  0
 34 68  1  0
 35 69  1  0
 35 70  1  0
 36 71  1  0
 37 72  1  0
 37 73  1  0
 38 74  1  0
 39 75  1  0
 39 76  1  0
 39 77  1  0
M  END
$$$$
