
     RDKit          3D

 54 56  0  0  0  0  0  0  0  0999 V2000
    3.4685   -1.7284   -0.8796 C   0  0  0  0  0  0  0  0  0  0  0  0
    2.9987   -0.4823   -1.6441 C   0  0  0  0  0  0  0  0  0  0  0  0
    1.4630   -0.3012   -1.4732 C   0  0  0  0  0  0  0  0  0  0  0  0
    1.1214    0.2167   -0.1363 N   0  0  0  0  0  0  0  0  0  0  0  0
   -0.1634    0.0471    0.3297 C   0  0  0  0  0  0  0  0  0  0  0  0
   -1.0401   -0.7800   -0.1341 N   0  0  0  0  0  0  0  0  0  0  0  0
   -2.2615   -0.7267    0.4937 C   0  0  0  0  0  0  0  0  0  0  0  0
   -3.1244    0.1965    0.1879 N   0  0  0  0  0  0  0  0  0  0  0  0
   -2.8536    1.1457   -0.8081 C   0  0  0  0  0  0  0  0  0  0  0  0
   -2.6791    2.4847   -0.4486 C   0  0  0  0  0  0  0  0  0  0  0  0
   -2.4308    3.4556   -1.4211 C   0  0  0  0  0  0  0  0  0  0  0  0
   -2.3703    3.0932   -2.7660 C   0  0  0  0  0  0  0  0  0  0  0  0
   -2.5650    1.7634   -3.1377 C   0  0  0  0  0  0  0  0  0  0  0  0
   -2.8124    0.7959   -2.1614 C   0  0  0  0  0  0  0  0  0  0  0  0
   -2.4636   -1.7173    1.4172 N   0  0  0  0  0  0  0  0  0  0  0  0
   -3.5703   -2.0236    2.2220 C   0  0  0  0  0  0  0  0  0  0  0  0
   -3.5006   -3.1630    3.0437 C   0  0  0  0  0  0  0  0  0  0  0  0
   -4.5576   -3.5247    3.8849 C   0  0  0  0  0  0  0  0  0  0  0  0
   -5.7090   -2.7467    3.9257 C   0  0  0  0  0  0  0  0  0  0  0  0
   -5.7975   -1.6107    3.1277 C   0  0  0  0  0  0  0  0  0  0  0  0
   -4.7358   -1.2531    2.2878 C   0  0  0  0  0  0  0  0  0  0  0  0
    1.8480    1.4486    0.2069 C   0  0  0  0  0  0  0  0  0  0  0  0
    3.3696    1.2807    0.0149 C   0  0  0  0  0  0  0  0  0  0  0  0
    3.7289    0.7651   -1.3162 N   0  0  0  0  0  0  0  0  0  0  0  0
    5.1713    0.7400   -1.5993 C   0  0  0  0  0  0  0  0  0  0  0  0
    6.1500    0.3509   -0.4717 C   0  0  0  0  0  0  0  0  0  0  0  0
    6.2992    1.3914    0.4931 O   0  0  0  0  0  0  0  0  0  0  0  0
    4.5032   -1.9808   -1.1303 H   0  0  0  0  0  0  0  0  0  0  0  0
    2.8594   -2.5976   -1.1530 H   0  0  0  0  0  0  0  0  0  0  0  0
    3.3944   -1.6041    0.2048 H   0  0  0  0  0  0  0  0  0  0  0  0
    3.1577   -0.6865   -2.7118 H   0  0  0  0  0  0  0  0  0  0  0  0
    0.9681   -1.2623   -1.6580 H   0  0  0  0  0  0  0  0  0  0  0  0
    1.0905    0.4023   -2.2297 H   0  0  0  0  0  0  0  0  0  0  0  0
   -0.3963    0.7152    1.1818 H   0  0  0  0  0  0  0  0  0  0  0  0
   -2.7408    2.7672    0.5983 H   0  0  0  0  0  0  0  0  0  0  0  0
   -2.2947    4.4931   -1.1292 H   0  0  0  0  0  0  0  0  0  0  0  0
   -2.1812    3.8472   -3.5252 H   0  0  0  0  0  0  0  0  0  0  0  0
   -2.5270    1.4772   -4.1848 H   0  0  0  0  0  0  0  0  0  0  0  0
   -2.9691   -0.2397   -2.4500 H   0  0  0  0  0  0  0  0  0  0  0  0
   -1.7139   -2.3918    1.4282 H   0  0  0  0  0  0  0  0  0  0  0  0
   -2.6126   -3.7911    3.0333 H   0  0  0  0  0  0  0  0  0  0  0  0
   -4.4793   -4.4142    4.5047 H   0  0  0  0  0  0  0  0  0  0  0  0
   -6.5346   -3.0229    4.5757 H   0  0  0  0  0  0  0  0  0  0  0  0
   -6.6928   -0.9949    3.1516 H   0  0  0  0  0  0  0  0  0  0  0  0
   -4.8508   -0.3566    1.6863 H   0  0  0  0  0  0  0  0  0  0  0  0
    1.6592    1.7223    1.2517 H   0  0  0  0  0  0  0  0  0  0  0  0
    1.4802    2.2703   -0.4205 H   0  0  0  0  0  0  0  0  0  0  0  0
    3.7432    0.6168    0.8034 H   0  0  0  0  0  0  0  0  0  0  0  0
    3.8289    2.2650    0.1647 H   0  0  0  0  0  0  0  0  0  0  0  0
    5.4351    1.7529   -1.9296 H   0  0  0  0  0  0  0  0  0  0  0  0
    5.3592    0.0919   -2.4647 H   0  0  0  0  0  0  0  0  0  0  0  0
    5.8393   -0.5563    0.0513 H   0  0  0  0  0  0  0  0  0  0  0  0
    7.1405    0.1607   -0.8992 H   0  0  0  0  0  0  0  0  0  0  0  0
    6.5505    2.1989    0.0124 H   0  0  0  0  0  0  0  0  0  0  0  0
  1  2  1  0
  2  3  1  0
  3  4  1  0
  4  5  1  0
  5  6  2  3
  6  7  1  0
  7  8  2  3
  8  9  1  0
  9 10  2  0
 10 11  1  0
 11 12  2  0
 12 13  1  0
 13 14  2  0
  7 15  1  0
 15 16  1  0
 16 17  2  0
 17 18  1  0
 18 19  2  0
 19 20  1  0
 20 21  2  0
  4 22  1  0
 22 23  1  0
 23 24  1  0
 24 25  1  0
 25 26  1  0
 26 27  1  0
 24  2  1  0
 14  9  1  0
 21 16  1  0
  1 28  1  0
  1 29  1  0
  1 30  1  0
  2 31  1  0
  3 32  1  0
  3 33  1  0
  5 34  1  0
 10 35  1  0
 11 36  1  0
 12 37  1  0
 13 38  1  0
 14 39  1  0
 15 40  1  0
 17 41  1  0
 18 42  1  0
 19 43  1  0
 20 44  1  0
 21 45  1  0
 22 46  1  0
 22 47  1  0
 23 48  1  0
 23 49  1  0
 25 50  1  0
 25 51  1  0
 26 52  1  0
 26 53  1  0
 27 54  1  0
M  END
$$$$
