
     RDKit          3D

 35 37  0  0  0  0  0  0  0  0999 V2000
   -0.1564    2.5429    0.4563 O   0  0  0  0  0  0  0  0  0  0  0  0
    0.5531    1.3147    0.7587 S   0  0  0  0  0  0  0  0  0  0  0  0
    0.7007    0.8674    2.1298 O   0  0  0  0  0  0  0  0  0  0  0  0
    2.1049    1.5518    0.0923 N   0  0  0  0  0  0  0  0  0  0  0  0
    3.0664    0.4849    0.1605 C   0  0  0  0  0  0  0  0  0  0  0  0
    3.4690   -0.0364    1.3920 C   0  0  0  0  0  0  0  0  0  0  0  0
    4.4126   -1.0657    1.4503 C   0  0  0  0  0  0  0  0  0  0  0  0
    4.9761   -1.5685    0.2788 C   0  0  0  0  0  0  0  0  0  0  0  0
    4.6080   -1.0326   -0.9547 C   0  0  0  0  0  0  0  0  0  0  0  0
    3.6652   -0.0034   -1.0129 C   0  0  0  0  0  0  0  0  0  0  0  0
    3.2673    0.6560   -2.5604 Cl  0  0  0  0  0  0  0  0  0  0  0  0
   -0.1017   -0.0681   -0.2826 C   0  0  0  0  0  0  0  0  0  0  0  0
    0.0205    0.1166   -1.7079 O   0  0  0  0  0  0  0  0  0  0  0  0
   -1.5344   -0.3431    0.1420 C   0  0  0  0  0  0  0  0  0  0  0  0
   -1.7855   -1.4331    1.0090 C   0  0  0  0  0  0  0  0  0  0  0  0
   -3.0731   -1.7586    1.4301 C   0  0  0  0  0  0  0  0  0  0  0  0
   -4.1726   -1.0151    1.0074 C   0  0  0  0  0  0  0  0  0  0  0  0
   -3.9312    0.0672    0.1568 C   0  0  0  0  0  0  0  0  0  0  0  0
   -4.8204    0.9631   -0.3947 N   0  0  0  0  0  0  0  0  0  0  0  0
   -4.1561    1.8740   -1.1678 C   0  0  0  0  0  0  0  0  0  0  0  0
   -2.8158    1.5720   -1.1107 C   0  0  0  0  0  0  0  0  0  0  0  0
   -2.6529    0.4237   -0.2787 C   0  0  0  0  0  0  0  0  0  0  0  0
    2.0071    1.9595   -0.8434 H   0  0  0  0  0  0  0  0  0  0  0  0
    3.0726    0.3624    2.3230 H   0  0  0  0  0  0  0  0  0  0  0  0
    4.7152   -1.4654    2.4160 H   0  0  0  0  0  0  0  0  0  0  0  0
    5.7140   -2.3660    0.3284 H   0  0  0  0  0  0  0  0  0  0  0  0
    5.0648   -1.4137   -1.8645 H   0  0  0  0  0  0  0  0  0  0  0  0
    0.5232   -0.9337   -0.0354 H   0  0  0  0  0  0  0  0  0  0  0  0
   -0.8453   -0.0944   -2.0984 H   0  0  0  0  0  0  0  0  0  0  0  0
   -0.9583   -2.0420    1.3735 H   0  0  0  0  0  0  0  0  0  0  0  0
   -3.2231   -2.6015    2.1015 H   0  0  0  0  0  0  0  0  0  0  0  0
   -5.1752   -1.2667    1.3381 H   0  0  0  0  0  0  0  0  0  0  0  0
   -5.8185    0.9502   -0.2364 H   0  0  0  0  0  0  0  0  0  0  0  0
   -4.6881    2.6666   -1.6768 H   0  0  0  0  0  0  0  0  0  0  0  0
   -2.0323    2.1349   -1.6033 H   0  0  0  0  0  0  0  0  0  0  0  0
  1  2  2  0
  2  3  2  0
  2  4  1  0
  4  5  1  0
  5  6  2  0
  6  7  1  0
  7  8  2  0
  8  9  1  0
  9 10  2  0
 10 11  1  0
  2 12  1  0
 12 13  1  0
 12 14  1  0
 14 15  2  0
 15 16  1  0
 16 17  2  0
 17 18  1  0
 18 19  1  0
 19 20  1  0
 20 21  2  0
 21 22  1  0
 10  5  1  0
 22 14  1  0
 22 18  2  0
  4 23  1  0
  6 24  1  0
  7 25  1  0
  8 26  1  0
  9 27  1  0
 12 28  1  0
 13 29  1  0
 15 30  1  0
 16 31  1  0
 17 32  1  0
 19 33  1  0
 20 34  1  0
 21 35  1  0
M  END
$$$$
