
     RDKit          3D

 33 33  0  0  0  0  0  0  0  0999 V2000
   -5.2867   -0.9673   -0.4490 O   0  0  0  0  0  0  0  0  0  0  0  0
   -4.5967   -0.1451    0.1320 C   0  0  0  0  0  0  0  0  0  0  0  0
   -5.1502    0.9738    0.6328 O   0  0  0  0  0  0  0  0  0  0  0  0
   -3.1315   -0.2908    0.4422 C   0  0  0  0  0  0  0  0  0  0  0  0
   -2.3449    0.9967    0.2021 C   0  0  0  0  0  0  0  0  0  0  0  0
   -0.8421    0.8601    0.4815 C   0  0  0  0  0  0  0  0  0  0  0  0
   -0.0603   -0.0854   -0.4615 C   0  0  0  0  0  0  0  0  0  0  0  0
   -0.1878    0.2625   -1.9571 C   0  0  0  0  0  0  0  0  0  0  0  0
   -1.3712   -0.3150   -2.5089 O   0  0  0  0  0  0  0  0  0  0  0  0
    1.3859   -0.2836    0.0083 C   0  0  0  0  0  0  0  0  0  0  0  0
    1.6669   -1.5468    0.5929 C   0  0  0  0  0  0  0  0  0  0  0  0
    2.9351   -1.8810    1.0697 C   0  0  0  0  0  0  0  0  0  0  0  0
    3.9510   -0.9529    0.9751 C   0  0  0  0  0  0  0  0  0  0  0  0
    5.1932   -1.2765    1.4404 O   0  0  0  0  0  0  0  0  0  0  0  0
    3.7187    0.3002    0.4165 C   0  0  0  0  0  0  0  0  0  0  0  0
    4.8038    1.1442    0.3798 O   0  0  0  0  0  0  0  0  0  0  0  0
    2.4444    0.6510   -0.0687 C   0  0  0  0  0  0  0  0  0  0  0  0
    2.2556    2.5977   -0.8724 I   0  0  0  0  0  0  0  0  0  0  0  0
   -6.0929    0.9059    0.3733 H   0  0  0  0  0  0  0  0  0  0  0  0
   -2.7517   -1.0935   -0.1974 H   0  0  0  0  0  0  0  0  0  0  0  0
   -3.0352   -0.6179    1.4831 H   0  0  0  0  0  0  0  0  0  0  0  0
   -2.5160    1.3628   -0.8165 H   0  0  0  0  0  0  0  0  0  0  0  0
   -2.7335    1.7800    0.8657 H   0  0  0  0  0  0  0  0  0  0  0  0
   -0.4142    1.8665    0.4447 H   0  0  0  0  0  0  0  0  0  0  0  0
   -0.7114    0.5218    1.5184 H   0  0  0  0  0  0  0  0  0  0  0  0
   -0.5472   -1.0642   -0.3553 H   0  0  0  0  0  0  0  0  0  0  0  0
    0.6585   -0.1174   -2.5397 H   0  0  0  0  0  0  0  0  0  0  0  0
   -0.2598    1.3404   -2.1195 H   0  0  0  0  0  0  0  0  0  0  0  0
   -1.2200   -1.2729   -2.5914 H   0  0  0  0  0  0  0  0  0  0  0  0
    0.8832   -2.2984    0.6867 H   0  0  0  0  0  0  0  0  0  0  0  0
    3.1231   -2.8553    1.5112 H   0  0  0  0  0  0  0  0  0  0  0  0
    5.7346   -0.4787    1.2737 H   0  0  0  0  0  0  0  0  0  0  0  0
    4.4994    1.9791   -0.0220 H   0  0  0  0  0  0  0  0  0  0  0  0
  1  2  2  0
  2  3  1  0
  2  4  1  0
  4  5  1  0
  5  6  1  0
  6  7  1  0
  7  8  1  0
  8  9  1  0
  7 10  1  0
 10 11  2  0
 11 12  1  0
 12 13  2  0
 13 14  1  0
 13 15  1  0
 15 16  1  0
 15 17  2  0
 17 18  1  0
 17 10  1  0
  3 19  1  0
  4 20  1  0
  4 21  1  0
  5 22  1  0
  5 23  1  0
  6 24  1  0
  6 25  1  0
  7 26  1  0
  8 27  1  0
  8 28  1  0
  9 29  1  0
 11 30  1  0
 12 31  1  0
 14 32  1  0
 16 33  1  0
M  END
$$$$
