
     RDKit          3D

 39 41  0  0  0  0  0  0  0  0999 V2000
   -2.3455    2.4366   -0.7051 C   0  0  0  0  0  0  0  0  0  0  0  0
   -0.9324    1.9151   -0.9117 C   0  0  0  0  0  0  0  0  0  0  0  0
   -0.8499    0.4280   -1.2844 C   0  0  0  0  0  0  0  0  0  0  0  0
   -1.1266   -0.5334   -0.1369 C   0  0  0  0  0  0  0  0  0  0  0  0
   -2.4323   -1.0268    0.1202 C   0  0  0  0  0  0  0  0  0  0  0  0
   -3.5166   -0.7289   -0.7781 N   0  0  0  0  0  0  0  0  0  0  0  0
   -5.0772   -0.5219   -0.1589 S   0  0  0  0  0  6  0  0  0  0  0  0
   -5.0107    0.3557    0.9882 O   0  0  0  0  0  0  0  0  0  0  0  0
   -5.9213   -0.2100   -1.2920 O   0  0  0  0  0  0  0  0  0  0  0  0
   -2.6363   -1.9618    1.1472 C   0  0  0  0  0  0  0  0  0  0  0  0
   -1.5916   -2.3597    1.9747 C   0  0  0  0  0  0  0  0  0  0  0  0
   -0.3146   -1.8618    1.7551 C   0  0  0  0  0  0  0  0  0  0  0  0
   -0.0620   -0.9665    0.7016 C   0  0  0  0  0  0  0  0  0  0  0  0
    1.3175   -0.5458    0.5037 C   0  0  0  0  0  0  0  0  0  0  0  0
    2.3924   -1.4019    0.3754 C   0  0  0  0  0  0  0  0  0  0  0  0
    3.4868   -0.5927    0.2098 N   0  0  0  0  0  0  0  0  0  0  0  0
    4.8253   -0.9342    0.0313 C   0  0  0  0  0  0  0  0  0  0  0  0
    5.7357    0.0442   -0.1120 C   0  0  0  0  0  0  0  0  0  0  0  0
    5.2921    1.4304   -0.0752 C   0  0  0  0  0  0  0  0  0  0  0  0
    3.9944    1.7512    0.0977 C   0  0  0  0  0  0  0  0  0  0  0  0
    3.0260    0.7187    0.2489 C   0  0  0  0  0  0  0  0  0  0  0  0
    1.7225    0.7636    0.4246 N   0  0  0  0  0  0  0  0  0  0  0  0
   -2.9699    2.2507   -1.5840 H   0  0  0  0  0  0  0  0  0  0  0  0
   -2.3229    3.5181   -0.5350 H   0  0  0  0  0  0  0  0  0  0  0  0
   -2.8150    1.9781    0.1688 H   0  0  0  0  0  0  0  0  0  0  0  0
   -0.4757    2.4941   -1.7238 H   0  0  0  0  0  0  0  0  0  0  0  0
   -0.3519    2.1275   -0.0086 H   0  0  0  0  0  0  0  0  0  0  0  0
   -1.5014    0.2149   -2.1392 H   0  0  0  0  0  0  0  0  0  0  0  0
    0.1500    0.2242   -1.6878 H   0  0  0  0  0  0  0  0  0  0  0  0
   -3.3451    0.0132   -1.4525 H   0  0  0  0  0  0  0  0  0  0  0  0
   -5.4958   -1.7237    0.3026 H   0  0  0  0  0  0  0  0  0  0  0  0
   -3.6097   -2.4061    1.3262 H   0  0  0  0  0  0  0  0  0  0  0  0
   -1.7706   -3.0650    2.7820 H   0  0  0  0  0  0  0  0  0  0  0  0
    0.4929   -2.1798    2.4122 H   0  0  0  0  0  0  0  0  0  0  0  0
    2.4702   -2.4790    0.3799 H   0  0  0  0  0  0  0  0  0  0  0  0
    5.0764   -1.9868    0.0154 H   0  0  0  0  0  0  0  0  0  0  0  0
    6.7903   -0.1670   -0.2537 H   0  0  0  0  0  0  0  0  0  0  0  0
    6.0426    2.2067   -0.1914 H   0  0  0  0  0  0  0  0  0  0  0  0
    3.6601    2.7819    0.1265 H   0  0  0  0  0  0  0  0  0  0  0  0
  1  2  1  0
  2  3  1  0
  3  4  1  0
  4  5  2  0
  5  6  1  0
  6  7  1  0
  7  8  2  0
  7  9  2  0
  5 10  1  0
 10 11  2  0
 11 12  1  0
 12 13  2  0
 13 14  1  0
 14 15  2  0
 15 16  1  0
 16 17  1  0
 17 18  2  0
 18 19  1  0
 19 20  2  0
 20 21  1  0
 21 22  2  0
 13  4  1  0
 22 14  1  0
 21 16  1  0
  1 23  1  0
  1 24  1  0
  1 25  1  0
  2 26  1  0
  2 27  1  0
  3 28  1  0
  3 29  1  0
  6 30  1  0
  7 31  1  0
 10 32  1  0
 11 33  1  0
 12 34  1  0
 15 35  1  0
 17 36  1  0
 18 37  1  0
 19 38  1  0
 20 39  1  0
M  END
$$$$
