REMARK SMILES CC(C)c1nnc2ccc(-c3ccc(O)c(CN4CCN(S(C)(=O)=O)CC4)c3)cn12
REMARK SMILES IDX 11 1 12 2 13 3 14 4 16 5 28 6 10 7 4 8 5 9 30 10 6 11 29 12
REMARK SMILES IDX 7 13 8 14 9 15 2 16 1 17 3 18 17 19 18 20 19 21 27 22 20 23
REMARK SMILES IDX 26 24 21 25 22 26 23 27 24 28 25 29 15 30
REMARK H PARENT 15 31
ROOT
ATOM      1  C   UNL     1      -1.439  -0.824   0.428  1.00  0.00    -0.016 A 
ATOM      2  C   UNL     1      -1.923  -2.135   0.359  1.00  0.00     0.012 A 
ATOM      3  C   UNL     1      -1.108  -3.156  -0.127  1.00  0.00     0.047 A 
ATOM      4  C   UNL     1       0.191  -2.869  -0.535  1.00  0.00     0.120 A 
ATOM      5  C   UNL     1       0.710  -1.569  -0.471  1.00  0.00     0.009 A 
ATOM      6  C   UNL     1      -0.128  -0.548   0.011  1.00  0.00     0.017 A 
ENDROOT
BRANCH   1   7
ATOM      7  C   UNL     1      -2.292   0.263   0.934  1.00  0.00    -0.001 A 
ATOM      8  C   UNL     1      -5.211   2.378   0.065  1.00  0.00     0.139 A 
ATOM      9  N   UNL     1      -5.645   3.306   0.899  1.00  0.00    -0.134 NA
ATOM     10  N   UNL     1      -4.122   1.741   0.627  1.00  0.00    -0.286 N 
ATOM     11  N   UNL     1      -4.842   3.301   2.015  1.00  0.00    -0.130 NA
ATOM     12  C   UNL     1      -3.315   0.701   0.168  1.00  0.00     0.103 A 
ATOM     13  C   UNL     1      -3.935   2.366   1.852  1.00  0.00     0.160 A 
ATOM     14  C   UNL     1      -2.865   1.912   2.667  1.00  0.00     0.050 A 
ATOM     15  C   UNL     1      -2.079   0.909   2.232  1.00  0.00     0.014 A 
BRANCH   8  16
ATOM     16  C   UNL     1      -5.800   2.039  -1.270  1.00  0.00     0.052 C 
ATOM     17  C   UNL     1      -6.871   0.958  -1.120  1.00  0.00     0.016 C 
ATOM     18  C   UNL     1      -6.387   3.280  -1.945  1.00  0.00     0.016 C 
ENDBRANCH   8  16
ENDBRANCH   1   7
BRANCH   5  19
ATOM     19  C   UNL     1       2.092  -1.214  -0.982  1.00  0.00     0.124 C 
BRANCH  19  20
ATOM     20  N   UNL     1       3.111  -2.239  -0.676  1.00  0.00    -0.296 NA
ATOM     21  C   UNL     1       3.472  -2.269   0.767  1.00  0.00     0.101 C 
ATOM     22  C   UNL     1       4.352  -2.014  -1.459  1.00  0.00     0.101 C 
ATOM     23  C   UNL     1       4.296  -1.066   1.274  1.00  0.00     0.117 C 
ATOM     24  C   UNL     1       5.190  -0.791  -1.028  1.00  0.00     0.117 C 
ATOM     25  N   UNL     1       5.496  -0.862   0.423  1.00  0.00    -0.200 NA
BRANCH  25  26
ATOM     26  S   UNL     1       6.708   0.153   1.015  1.00  0.00     0.211 S 
ATOM     27  C   UNL     1       5.957   1.766   0.919  1.00  0.00     0.176 C 
ATOM     28  O   UNL     1       7.809   0.124   0.076  1.00  0.00    -0.213 OA
ATOM     29  O   UNL     1       6.905  -0.159   2.414  1.00  0.00    -0.213 OA
ENDBRANCH  25  26
ENDBRANCH  19  20
ENDBRANCH   5  19
BRANCH   4  30
ATOM     30  O   UNL     1       0.940  -3.920  -0.987  1.00  0.00    -0.508 OA
ATOM     31  H   UNL     1       1.873  -3.613  -1.012  1.00  0.00     0.293 HD
ENDBRANCH   4  30
TORSDOF 6
