MODEL        4USER    Run = 4USERUSER    Estimated Free Energy of Binding    = -11.25 kcal/mol  [=(1)+(2)+(3)-(4)]USERUSER    (1) Final Intermolecular Energy     = -13.04 kcal/molUSER        vdW + Hbond + desolv Energy     = -12.72 kcal/molUSER        Electrostatic Energy            =  -0.33 kcal/molUSER        Moving Ligand-Fixed Receptor    = -13.04 kcal/molUSER        Moving Ligand-Moving Receptor   =  +0.00 kcal/molUSER    (2) Final Total Internal Energy     =  -1.69 kcal/molUSER    (3) Torsional Free Energy           =  +1.79 kcal/molUSER    (4) Unbound System's Energy         =  -1.69 kcal/molUSERUSERREMARK SMILES CC(C)c1nnc2ccc(-c3ccc(O)c(CN4CCN(S(C)(=O)=O)CC4)c3)cn12REMARK SMILES IDX 11 1 12 2 13 3 14 4 16 5 28 6 10 7 4 8 5 9 30 10 6 11 29 12REMARK SMILES IDX 7 13 8 14 9 15 2 16 1 17 3 18 17 19 18 20 19 21 27 22 20 23REMARK SMILES IDX 26 24 21 25 22 26 23 27 24 28 25 29 15 30REMARK H PARENT 15 31USER                              x       y       z     vdW  Elec       q    TypeUSER                           _______ _______ _______ _____ _____    ______ ____ROOTATOM      1  C   UNL     1      38.780  45.003  19.195 -0.38 +0.00    -0.016 A  ATOM      2  C   UNL     1      39.968  44.497  19.734 -0.35 +0.00    +0.012 A  ATOM      3  C   UNL     1      41.187  45.099  19.425 -0.38 +0.00    +0.047 A  ATOM      4  C   UNL     1      41.217  46.209  18.586 -0.41 +0.00    +0.120 A  ATOM      5  C   UNL     1      40.045  46.746  18.037 -0.44 -0.00    +0.009 A  ATOM      6  C   UNL     1      38.825  46.121  18.349 -0.33 -0.00    +0.017 A  ENDROOTBRANCH   1   7ATOM      7  C   UNL     1      37.488  44.372  19.510 -0.37 +0.00    -0.001 A  ATOM      8  C   UNL     1      33.856  44.558  18.790 -0.30 -0.04    +0.139 A  ATOM      9  N   UNL     1      33.010  43.720  19.362 -0.44 +0.01    -0.134 NA ATOM     10  N   UNL     1      35.135  44.275  19.227 -0.19 +0.06    -0.286 N  ATOM     11  N   UNL     1      33.718  42.882  20.191 -0.74 -0.03    -0.130 NA ATOM     12  C   UNL     1      36.368  44.852  18.926 -0.21 -0.02    +0.103 A  ATOM     13  C   UNL     1      34.985  43.213  20.108 -0.28 -0.00    +0.160 A  ATOM     14  C   UNL     1      36.156  42.699  20.725 -0.43 +0.00    +0.050 A  ATOM     15  C   UNL     1      37.352  43.250  20.442 -0.32 -0.00    +0.014 A  BRANCH   8  16ATOM     16  C   UNL     1      33.510  45.636  17.809 -0.43 -0.03    +0.052 C  ATOM     17  C   UNL     1      33.954  47.000  18.339 -0.56 -0.02    +0.016 C  ATOM     18  C   UNL     1      34.144  45.363  16.444 -0.36 -0.01    +0.016 C  ENDBRANCH   8  16ENDBRANCH   1   7BRANCH   5  19ATOM     19  C   UNL     1      40.056  47.903  17.059 -0.32 -0.03    +0.124 C  BRANCH  19  20ATOM     20  N   UNL     1      40.687  47.571  15.764 -0.27 +0.04    -0.296 NA ATOM     21  C   UNL     1      40.345  48.550  14.697 -0.54 -0.02    +0.101 C  ATOM     22  C   UNL     1      40.282  46.220  15.301 -0.37 -0.01    +0.101 C  ATOM     23  C   UNL     1      38.889  48.498  14.186 -0.44 -0.05    +0.117 C  ATOM     24  C   UNL     1      38.818  46.098  14.826 -0.39 -0.03    +0.117 C  ATOM     25  N   UNL     1      38.529  47.114  13.783 -0.34 +0.05    -0.200 NA BRANCH  25  26ATOM     26  S   UNL     1      37.128  46.910  12.863 -0.65 -0.07    +0.211 S  ATOM     27  C   UNL     1      35.852  46.801  14.101 -0.37 -0.13    +0.176 C  ATOM     28  O   UNL     1      37.213  45.624  12.204 -0.44 +0.07    -0.213 OA ATOM     29  O   UNL     1      36.910  48.127  12.110 -1.11 +0.04    -0.213 OA ENDBRANCH  25  26ENDBRANCH  19  20ENDBRANCH   5  19BRANCH   4  30ATOM     30  O   UNL     1      42.445  46.758  18.337 -0.18 -0.01    -0.508 OA ATOM     31  H   UNL     1      42.420  47.102  17.417 -0.35 -0.10    +0.293 HD ENDBRANCH   4  30TORSDOF 6TERENDMDL