REMARK SMILES Oc1ccc(-c2nnc3ccc(-c4cnn(CCN5CCOCC5)c4F)cn23)cc1F
REMARK SMILES IDX 6 1 7 2 8 3 9 4 10 5 11 6 12 7 27 8 28 9 5 10 2 11 3 12
REMARK SMILES IDX 30 13 4 14 29 15 31 16 1 17 13 19 14 20 25 21 15 22 16 23
REMARK SMILES IDX 26 24 17 25 18 26 19 27 20 28 24 29 21 30 23 31 22 32
REMARK H PARENT 1 18
ROOT
ATOM      1  C   UNL     1      -5.174   1.133   0.817  1.00  0.00     0.168 A 
ATOM      2  N   UNL     1      -5.904   2.135   1.277  1.00  0.00    -0.129 NA
ATOM      3  N   UNL     1      -5.070   3.068   1.844  1.00  0.00    -0.130 NA
ATOM      4  C   UNL     1      -3.843   2.611   1.752  1.00  0.00     0.161 A 
ATOM      5  C   UNL     1      -2.594   3.132   2.172  1.00  0.00     0.050 A 
ATOM      6  C   UNL     1      -1.475   2.407   1.984  1.00  0.00     0.014 A 
ATOM      7  C   UNL     1      -1.487   1.075   1.355  1.00  0.00     0.005 A 
ATOM      8  C   UNL     1      -2.691   0.606   0.955  1.00  0.00     0.104 A 
ATOM      9  N   UNL     1      -3.846   1.371   1.135  1.00  0.00    -0.282 N 
ENDROOT
BRANCH   1  10
ATOM     10  C   UNL     1      -5.707  -0.042   0.130  1.00  0.00     0.023 A 
ATOM     11  C   UNL     1      -6.805  -2.283  -1.151  1.00  0.00     0.151 A 
ATOM     12  C   UNL     1      -7.381  -1.816   0.025  1.00  0.00     0.050 A 
ATOM     13  C   UNL     1      -5.701  -1.630  -1.693  1.00  0.00     0.165 A 
ATOM     14  C   UNL     1      -6.834  -0.694   0.658  1.00  0.00     0.016 A 
ATOM     15  C   UNL     1      -5.154  -0.512  -1.067  1.00  0.00     0.055 A 
ATOM     16  F   UNL     1      -5.145  -2.066  -2.833  1.00  0.00    -0.203 F 
BRANCH  11  17
ATOM     17  O   UNL     1      -7.311  -3.377  -1.792  1.00  0.00    -0.505 OA
ATOM     18  H   UNL     1      -8.101  -3.688  -1.322  1.00  0.00     0.293 HD
ENDBRANCH  11  17
ENDBRANCH   1  10
BRANCH   7  19
ATOM     19  C   UNL     1      -0.279   0.321   1.189  1.00  0.00     0.058 A 
ATOM     20  C   UNL     1      -0.108  -1.085   1.130  1.00  0.00     0.147 A 
ATOM     21  C   UNL     1       1.000   0.803   1.041  1.00  0.00     0.219 A 
ATOM     22  N   UNL     1       1.167  -1.452   0.958  1.00  0.00    -0.178 NA
ATOM     23  N   UNL     1       1.823  -0.275   0.906  1.00  0.00    -0.238 N 
ATOM     24  F   UNL     1       1.385   2.087   1.010  1.00  0.00    -0.185 F 
BRANCH  23  25
ATOM     25  C   UNL     1       3.262  -0.243   0.723  1.00  0.00     0.163 C 
BRANCH  25  26
ATOM     26  C   UNL     1       3.634  -0.284  -0.765  1.00  0.00     0.108 C 
BRANCH  26  27
ATOM     27  N   UNL     1       5.063  -0.233  -1.115  1.00  0.00    -0.297 NA
ATOM     28  C   UNL     1       5.727   1.017  -0.705  1.00  0.00     0.113 C 
ATOM     29  C   UNL     1       5.827  -1.389  -0.612  1.00  0.00     0.113 C 
ATOM     30  C   UNL     1       7.197   1.031  -1.157  1.00  0.00     0.175 C 
ATOM     31  C   UNL     1       7.296  -1.315  -1.064  1.00  0.00     0.175 C 
ATOM     32  O   UNL     1       7.909  -0.095  -0.626  1.00  0.00    -0.379 OA
ENDBRANCH  26  27
ENDBRANCH  25  26
ENDBRANCH  23  25
ENDBRANCH   7  19
TORSDOF 6
