MODEL        4USER    Run = 4USERUSER    Estimated Free Energy of Binding    =  -8.63 kcal/mol  [=(1)+(2)+(3)-(4)]USERUSER    (1) Final Intermolecular Energy     = -10.42 kcal/molUSER        vdW + Hbond + desolv Energy     = -10.39 kcal/molUSER        Electrostatic Energy            =  -0.02 kcal/molUSER        Moving Ligand-Fixed Receptor    = -10.42 kcal/molUSER        Moving Ligand-Moving Receptor   =  +0.00 kcal/molUSER    (2) Final Total Internal Energy     =  -1.53 kcal/molUSER    (3) Torsional Free Energy           =  +1.79 kcal/molUSER    (4) Unbound System's Energy         =  -1.53 kcal/molUSERUSERREMARK SMILES CNc1ccc2c(n1)N=C2C(=O)Nc1ccc(O)c(CN2CCOCC2)c1FREMARK SMILES IDX 11 1 12 2 13 3 10 5 3 6 4 7 8 8 5 9 7 10 6 11 9 12 2 13 1 14REMARK SMILES IDX 14 16 15 17 27 18 16 19 19 20 17 21 28 22 20 23 21 24 22 25REMARK SMILES IDX 26 26 23 27 25 28 24 29 18 30REMARK H PARENT 13 4 2 15 18 31USER                              x       y       z     vdW  Elec       q    TypeUSER                           _______ _______ _______ _____ _____    ______ ____ROOTATOM      1  C   UNL     1      38.866  45.296  18.264 -0.28 -0.04    +0.275 C  ATOM      2  O   UNL     1      38.408  44.559  17.407 -0.23 +0.05    -0.267 OA ATOM      3  N   UNL     1      38.752  45.239  19.630 -0.19 +0.02    -0.318 N  ATOM      4  H   UNL     1      39.226  45.978  20.149 +0.08 -0.00    +0.170 HD ENDROOTBRANCH   1   5ATOM      5  C   UNL     1      39.675  46.441  17.820 -0.41 -0.02    +0.142 C  ATOM      6  C   UNL     1      40.933  49.432  15.679 -0.54 -0.03    +0.128 A  ATOM      7  C   UNL     1      39.790  48.879  15.026 -0.49 -0.02    +0.047 A  ATOM      8  N   UNL     1      41.426  48.928  16.836 -0.95 -0.00    -0.211 NA ATOM      9  C   UNL     1      39.105  47.779  15.566 -0.49 -0.01    +0.018 A  ATOM     10  C   UNL     1      40.723  47.899  17.267 -0.35 -0.02    +0.164 A  ATOM     11  C   UNL     1      39.632  47.317  16.725 -0.45 -0.01    +0.051 A  ATOM     12  N   UNL     1      40.728  47.015  18.340 -0.34 +0.02    -0.222 NA BRANCH   6  13ATOM     13  N   UNL     1      41.574  50.510  15.039 -0.36 +0.09    -0.373 N  ATOM     14  C   UNL     1      42.473  50.119  13.965 -0.61 -0.03    +0.141 C  ATOM     15  H   UNL     1      42.043  51.085  15.733 -0.36 -0.03    +0.161 HD ENDBRANCH   6  13ENDBRANCH   1   5BRANCH   3  16ATOM     16  C   UNL     1      38.060  44.283  20.399 -0.31 -0.00    +0.078 A  ATOM     17  C   UNL     1      37.201  43.325  19.861 -0.27 -0.00    +0.033 A  ATOM     18  C   UNL     1      38.263  44.305  21.788 -0.26 +0.01    +0.154 A  ATOM     19  C   UNL     1      36.566  42.409  20.705 -0.43 -0.00    +0.049 A  ATOM     20  C   UNL     1      37.625  43.410  22.654 -0.34 +0.00    +0.046 A  ATOM     21  C   UNL     1      36.780  42.455  22.080 -0.39 +0.01    +0.123 A  ATOM     22  F   UNL     1      39.108  45.218  22.297 -0.07 -0.01    -0.204 F  BRANCH  20  23ATOM     23  C   UNL     1      37.952  43.453  24.130 -0.28 +0.01    +0.127 C  BRANCH  23  24ATOM     24  N   UNL     1      36.830  43.021  24.997 -0.19 -0.00    -0.294 NA ATOM     25  C   UNL     1      37.236  41.831  25.784 -0.34 -0.01    +0.113 C  ATOM     26  C   UNL     1      36.461  44.098  25.955 -0.35 -0.01    +0.113 C  ATOM     27  C   UNL     1      36.130  41.406  26.765 -0.46 -0.05    +0.175 C  ATOM     28  C   UNL     1      35.370  43.624  26.928 -0.42 -0.03    +0.175 C  ATOM     29  O   UNL     1      35.801  42.472  27.663 -0.26 +0.13    -0.379 OA ENDBRANCH  23  24ENDBRANCH  20  23BRANCH  21  30ATOM     30  O   UNL     1      36.116  41.530  22.838 -0.24 -0.02    -0.508 OA ATOM     31  H   UNL     1      35.974  41.939  23.720 +0.19 +0.02    +0.293 HD ENDBRANCH  21  30ENDBRANCH   3  16TORSDOF 6TERENDMDL