MODEL        10USER    Run = 10USERUSER    Estimated Free Energy of Binding    = -10.25 kcal/mol  [=(1)+(2)+(3)-(4)]USERUSER    (1) Final Intermolecular Energy     = -12.04 kcal/molUSER        vdW + Hbond + desolv Energy     = -11.79 kcal/molUSER        Electrostatic Energy            =  -0.25 kcal/molUSER        Moving Ligand-Fixed Receptor    = -12.04 kcal/molUSER        Moving Ligand-Moving Receptor   =  +0.00 kcal/molUSER    (2) Final Total Internal Energy     =  -0.98 kcal/molUSER    (3) Torsional Free Energy           =  +1.79 kcal/molUSER    (4) Unbound System's Energy         =  -0.98 kcal/molUSERUSERREMARK SMILES Oc1ccc(-c2nnc3ccc(-c4cnn(CCN5CCOCC5)c4F)cn23)cc1FREMARK SMILES IDX 6 1 7 2 8 3 9 4 10 5 11 6 12 7 27 8 28 9 5 10 2 11 3 12REMARK SMILES IDX 30 13 4 14 29 15 31 16 1 17 13 19 14 20 25 21 15 22 16 23REMARK SMILES IDX 26 24 17 25 18 26 19 27 20 28 24 29 21 30 23 31 22 32REMARK H PARENT 1 18USER                              x       y       z     vdW  Elec       q    TypeUSER                           _______ _______ _______ _____ _____    ______ ____ROOTATOM      1  C   UNL     1      38.094  47.674  14.417 -0.38 -0.07    +0.168 A  ATOM      2  N   UNL     1      38.104  48.059  13.152 -0.75 +0.02    -0.129 NA ATOM      3  N   UNL     1      36.891  47.751  12.585 -1.09 +0.04    -0.130 NA ATOM      4  C   UNL     1      36.165  47.154  13.501 -0.42 -0.10    +0.161 A  ATOM      5  C   UNL     1      34.856  46.613  13.481 -0.35 -0.04    +0.050 A  ATOM      6  C   UNL     1      34.373  46.003  14.580 -0.26 -0.01    +0.014 A  ATOM      7  C   UNL     1      35.154  45.866  15.821 -0.34 -0.00    +0.005 A  ATOM      8  C   UNL     1      36.397  46.400  15.816 -0.30 -0.08    +0.104 A  ATOM      9  N   UNL     1      36.885  47.049  14.679 -0.21 +0.18    -0.282 N  ENDROOTBRANCH   1  10ATOM     10  C   UNL     1      39.204  47.850  15.352 -0.50 -0.01    +0.023 A  ATOM     11  C   UNL     1      41.338  48.103  17.154 -0.37 -0.01    +0.151 A  ATOM     12  C   UNL     1      40.572  46.943  17.160 -0.47 -0.01    +0.050 A  ATOM     13  C   UNL     1      41.054  49.122  16.249 -0.42 -0.02    +0.165 A  ATOM     14  C   UNL     1      39.511  46.818  16.255 -0.45 -0.00    +0.016 A  ATOM     15  C   UNL     1      40.000  49.001  15.346 -0.52 -0.02    +0.055 A  ATOM     16  F   UNL     1      41.795  50.240  16.228 -0.19 -0.00    -0.203 F  BRANCH  11  17ATOM     17  O   UNL     1      42.378  48.259  18.026 -0.31 -0.02    -0.505 OA ATOM     18  H   UNL     1      43.130  47.724  17.728 -0.31 -0.03    +0.293 HD ENDBRANCH  11  17ENDBRANCH   1  10BRANCH   7  19ATOM     19  C   UNL     1      34.616  45.192  16.967 -0.29 -0.04    +0.058 A  ATOM     20  C   UNL     1      33.614  45.630  17.869 -0.31 -0.09    +0.147 A  ATOM     21  C   UNL     1      34.954  43.949  17.447 -0.16 -0.08    +0.219 A  ATOM     22  N   UNL     1      33.346  44.738  18.829 -0.30 +0.05    -0.178 NA ATOM     23  N   UNL     1      34.181  43.718  18.545 -0.17 +0.06    -0.238 N  ATOM     24  F   UNL     1      35.855  43.098  16.934 -0.10 +0.06    -0.185 F  BRANCH  23  25ATOM     25  C   UNL     1      34.196  42.527  19.375 -0.36 -0.01    +0.163 C  BRANCH  25  26ATOM     26  C   UNL     1      35.624  42.169  19.807 -0.41 -0.01    +0.108 C  BRANCH  26  27ATOM     27  N   UNL     1      36.032  42.520  21.177 -0.26 -0.01    -0.297 NA ATOM     28  C   UNL     1      36.498  41.366  21.968 -0.56 +0.00    +0.113 C  ATOM     29  C   UNL     1      37.040  43.595  21.228 -0.39 +0.00    +0.113 C  ATOM     30  C   UNL     1      36.846  41.791  23.404 -0.39 +0.01    +0.175 C  ATOM     31  C   UNL     1      37.377  43.963  22.683 -0.31 +0.02    +0.175 C  ATOM     32  O   UNL     1      37.846  42.819  23.409 -0.16 -0.03    -0.379 OA ENDBRANCH  26  27ENDBRANCH  25  26ENDBRANCH  23  25ENDBRANCH   7  19TORSDOF 6TERENDMDL