MODEL        4USER    Run = 4USERUSER    Estimated Free Energy of Binding    =  -9.64 kcal/mol  [=(1)+(2)+(3)-(4)]USERUSER    (1) Final Intermolecular Energy     = -11.13 kcal/molUSER        vdW + Hbond + desolv Energy     = -10.81 kcal/molUSER        Electrostatic Energy            =  -0.32 kcal/molUSER        Moving Ligand-Fixed Receptor    = -11.13 kcal/molUSER        Moving Ligand-Moving Receptor   =  +0.00 kcal/molUSER    (2) Final Total Internal Energy     =  -1.78 kcal/molUSER    (3) Torsional Free Energy           =  +1.49 kcal/molUSER    (4) Unbound System's Energy         =  -1.78 kcal/molUSERUSERREMARK SMILES Nc1cc(-c2nn[nH]n2)ccc1Nc1nccc(-c2c(F)ccc3[nH]ncc23)n1REMARK SMILES IDX 13 1 12 3 2 4 3 5 4 6 11 7 10 8 1 9 5 12 6 13 9 14 7 15 8 16REMARK SMILES IDX 14 18 15 19 29 20 16 21 18 22 17 23 19 24 20 25 28 26 22 27REMARK SMILES IDX 27 28 24 29 23 30 26 31 25 32 21 33REMARK H PARENT 13 2 1 10 1 11 8 17 25 34USER                              x       y       z     vdW  Elec       q    TypeUSER                           _______ _______ _______ _____ _____    ______ ____ROOTATOM      1  N   UNL     1      41.313  46.345  18.128 -0.27 +0.01    -0.322 N  ATOM      2  H   UNL     1      42.226  46.754  17.974 -0.25 -0.01    +0.170 HD ENDROOTBRANCH   1   3ATOM      3  C   UNL     1      40.393  46.665  17.113 -0.45 -0.01    +0.064 A  ATOM      4  C   UNL     1      39.262  45.827  16.955 -0.36 -0.01    +0.056 A  ATOM      5  C   UNL     1      38.376  46.037  15.890 -0.36 -0.01    +0.039 A  ATOM      6  C   UNL     1      38.506  47.155  15.056 -0.44 -0.01    +0.025 A  ATOM      7  C   UNL     1      40.494  47.800  16.304 -0.52 -0.01    +0.029 A  ATOM      8  C   UNL     1      39.563  48.042  15.286 -0.53 -0.00    +0.014 A  BRANCH   4   9ATOM      9  N   UNL     1      39.124  44.663  17.751 -0.06 +0.05    -0.397 N  ATOM     10  H   UNL     1      38.615  44.837  18.613 +0.09 -0.02    +0.156 HD ATOM     11  H   UNL     1      40.034  44.251  17.950 +0.10 -0.01    +0.156 HD ENDBRANCH   4   9BRANCH   6  12ATOM     12  C   UNL     1      37.556  47.385  13.976 -0.35 -0.09    +0.204 A  ATOM     13  N   UNL     1      37.942  47.695  12.690 -0.93 +0.01    -0.108 NA ATOM     14  N   UNL     1      36.217  47.322  14.103 -0.38 +0.10    -0.134 NA ATOM     15  N   UNL     1      36.834  47.835  11.977 -1.17 +0.01    -0.050 NA ATOM     16  N   UNL     1      35.846  47.609  12.847 -0.49 +0.11    -0.177 N  ATOM     17  H   UNL     1      34.870  47.652  12.568 -0.06 -0.18    +0.216 HD ENDBRANCH   6  12ENDBRANCH   1   3BRANCH   1  18ATOM     18  C   UNL     1      41.174  46.043  19.478 -0.28 +0.01    +0.227 A  ATOM     19  N   UNL     1      40.326  45.101  19.910 -0.25 -0.01    -0.221 NA ATOM     20  N   UNL     1      41.980  46.736  20.299 -0.26 -0.03    -0.213 NA ATOM     21  C   UNL     1      40.283  44.871  21.232 -0.25 +0.01    +0.117 A  ATOM     22  C   UNL     1      41.917  46.490  21.628 -0.25 +0.01    +0.079 A  ATOM     23  C   UNL     1      41.059  45.540  22.143 -0.23 +0.00    +0.049 A  BRANCH  22  24ATOM     24  C   UNL     1      42.814  47.290  22.471 -0.29 +0.01    +0.047 A  ATOM     25  C   UNL     1      44.213  47.316  22.300 -0.25 +0.05    +0.133 A  ATOM     26  C   UNL     1      42.296  48.093  23.519 -0.33 +0.01    +0.032 A  ATOM     27  C   UNL     1      45.058  48.078  23.105 -0.19 +0.01    +0.042 A  ATOM     28  C   UNL     1      41.013  48.391  24.042 -0.27 +0.02    +0.144 A  ATOM     29  C   UNL     1      43.160  48.849  24.310 -0.32 +0.02    +0.066 A  ATOM     30  C   UNL     1      44.546  48.866  24.135 -0.21 +0.01    +0.031 A  ATOM     31  N   UNL     1      41.049  49.248  25.065 -0.25 -0.04    -0.183 NA ATOM     32  N   UNL     1      42.359  49.500  25.211 -0.23 -0.05    -0.278 N  ATOM     33  F   UNL     1      44.781  46.577  21.332 -0.01 -0.27    -0.206 F  ATOM     34  H   UNL     1      42.645  50.135  25.948 -0.52 -0.02    +0.190 HD ENDBRANCH  22  24ENDBRANCH   1  18TORSDOF 5TERENDMDL