REMARK SMILES CN1CCN(C(=O)c2nnc(-c3ccc(CN4CCC(n5c(O)nc6ccccc65)CC4)cc3)o2)CC1
REMARK SMILES IDX 16 1 15 2 12 3 13 4 34 5 14 6 33 7 11 8 8 9 9 10 35 11 10 12
REMARK SMILES IDX 6 13 2 14 3 15 37 16 4 17 36 18 5 19 1 20 7 21 17 22 18 23
REMARK SMILES IDX 32 24 19 25 31 26 20 27 21 28 22 29 30 30 24 31 29 32 25 33
REMARK SMILES IDX 28 34 26 35 27 36 23 37
REMARK H PARENT 23 38
ROOT
ATOM      1  C   UNL     1       2.188  -1.729  -1.643  1.00  0.00     0.120 C 
ENDROOT
BRANCH   1   2
ATOM      2  C   UNL     1       0.794  -1.386  -1.161  1.00  0.00    -0.034 A 
ATOM      3  C   UNL     1      -1.833  -0.804  -0.291  1.00  0.00     0.039 A 
ATOM      4  C   UNL     1      -1.261  -0.102  -1.362  1.00  0.00     0.014 A 
ATOM      5  C   UNL     1      -1.068  -1.791   0.347  1.00  0.00     0.014 A 
ATOM      6  C   UNL     1       0.038  -0.392  -1.795  1.00  0.00     0.006 A 
ATOM      7  C   UNL     1       0.230  -2.079  -0.083  1.00  0.00     0.006 A 
BRANCH   3   8
ATOM      8  C   UNL     1      -3.198  -0.555   0.153  1.00  0.00     0.248 A 
ATOM      9  C   UNL     1      -5.129   0.361   0.138  1.00  0.00     0.306 A 
ATOM     10  N   UNL     1      -5.162  -0.584   1.057  1.00  0.00    -0.102 NA
ATOM     11  O   UNL     1      -3.899   0.437  -0.478  1.00  0.00    -0.412 OA
ATOM     12  N   UNL     1      -3.914  -1.170   1.073  1.00  0.00    -0.107 NA
BRANCH   9  13
ATOM     13  C   UNL     1      -6.193   1.252  -0.310  1.00  0.00     0.311 C 
ATOM     14  N   UNL     1     -10.348   0.814   0.968  1.00  0.00    -0.303 NA
ATOM     15  C   UNL     1      -9.273   0.321   1.842  1.00  0.00     0.105 C 
ATOM     16  C   UNL     1      -9.871   2.021   0.272  1.00  0.00     0.105 C 
ATOM     17  C   UNL     1      -7.911   0.091   1.157  1.00  0.00     0.135 C 
ATOM     18  C   UNL     1      -8.554   1.840  -0.501  1.00  0.00     0.135 C 
ATOM     19  N   UNL     1      -7.489   1.177   0.261  1.00  0.00    -0.332 N 
ATOM     20  C   UNL     1     -10.810  -0.213   0.037  1.00  0.00     0.105 C 
ATOM     21  O   UNL     1      -5.987   2.071  -1.214  1.00  0.00    -0.263 OA
ENDBRANCH   9  13
ENDBRANCH   3   8
ENDBRANCH   1   2
BRANCH   1  22
ATOM     22  N   UNL     1       3.221  -1.533  -0.607  1.00  0.00    -0.299 NA
ATOM     23  C   UNL     1       3.470  -0.101  -0.382  1.00  0.00     0.087 C 
ATOM     24  C   UNL     1       4.461  -2.208  -1.011  1.00  0.00     0.087 C 
ATOM     25  C   UNL     1       4.472   0.117   0.749  1.00  0.00     0.041 C 
ATOM     26  C   UNL     1       5.516  -2.133   0.088  1.00  0.00     0.041 C 
ATOM     27  C   UNL     1       5.752  -0.721   0.635  1.00  0.00     0.095 C 
BRANCH  27  28
ATOM     28  N   UNL     1       6.874  -0.029   0.006  1.00  0.00    -0.291 N 
ATOM     29  C   UNL     1       6.973   0.434  -1.276  1.00  0.00     0.295 A 
ATOM     30  C   UNL     1       8.082   0.263   0.621  1.00  0.00     0.072 A 
ATOM     31  N   UNL     1       8.119   0.997  -1.542  1.00  0.00    -0.195 NA
ATOM     32  C   UNL     1       8.592   0.045   1.909  1.00  0.00     0.029 A 
ATOM     33  C   UNL     1       8.829   0.898  -0.373  1.00  0.00     0.092 A 
ATOM     34  C   UNL     1       9.893   0.493   2.171  1.00  0.00     0.002 A 
ATOM     35  C   UNL     1      10.132   1.338  -0.090  1.00  0.00     0.031 A 
ATOM     36  C   UNL     1      10.653   1.129   1.190  1.00  0.00     0.002 A 
BRANCH  29  37
ATOM     37  O   UNL     1       6.036   0.353  -2.194  1.00  0.00    -0.480 OA
ATOM     38  H   UNL     1       6.471   0.791  -2.947  1.00  0.00     0.296 HD
ENDBRANCH  29  37
ENDBRANCH  27  28
ENDBRANCH   1  22
TORSDOF 6
