REMARK SMILES CN1CCN(c2ncc(O)c(-c3ccc(CN4CCC(n5c(O)nc6ccccc65)CC4)cc3)n2)CC1
REMARK SMILES IDX 16 1 15 2 12 3 13 4 34 5 14 6 33 7 11 8 6 9 7 10 35 11 8 12
REMARK SMILES IDX 9 13 5 14 2 15 3 16 37 17 4 18 36 19 1 20 10 21 17 23 18 24
REMARK SMILES IDX 32 25 19 26 31 27 20 28 21 29 22 30 30 31 24 32 29 33 25 34
REMARK SMILES IDX 28 35 26 36 27 37 23 38
REMARK H PARENT 10 22 23 39
ROOT
ATOM      1  C   UNL     1       1.626  -1.677  -0.553  1.00  0.00     0.120 C 
ENDROOT
BRANCH   1   2
ATOM      2  C   UNL     1       0.357  -0.985  -0.098  1.00  0.00    -0.034 A 
ATOM      3  C   UNL     1      -2.026   0.296   0.738  1.00  0.00     0.004 A 
ATOM      4  C   UNL     1      -1.361   0.703  -0.429  1.00  0.00     0.011 A 
ATOM      5  C   UNL     1      -1.495  -0.780   1.466  1.00  0.00     0.011 A 
ATOM      6  C   UNL     1      -0.182   0.074  -0.841  1.00  0.00     0.006 A 
ATOM      7  C   UNL     1      -0.321  -1.416   1.052  1.00  0.00     0.006 A 
BRANCH   3   8
ATOM      8  C   UNL     1      -3.243   0.988   1.182  1.00  0.00     0.118 A 
ATOM      9  C   UNL     1      -5.448   1.486   0.660  1.00  0.00     0.226 A 
ATOM     10  N   UNL     1      -5.602   2.168   1.808  1.00  0.00    -0.218 NA
ATOM     11  N   UNL     1      -4.286   0.899   0.324  1.00  0.00    -0.209 NA
ATOM     12  C   UNL     1      -4.543   2.254   2.636  1.00  0.00     0.163 A 
ATOM     13  C   UNL     1      -3.325   1.682   2.374  1.00  0.00     0.160 A 
BRANCH   9  14
ATOM     14  N   UNL     1      -6.526   1.401  -0.226  1.00  0.00    -0.338 N 
ATOM     15  N   UNL     1      -8.990   0.388  -1.506  1.00  0.00    -0.303 NA
ATOM     16  C   UNL     1      -7.651   0.232  -2.116  1.00  0.00     0.105 C 
ATOM     17  C   UNL     1      -8.972   1.587  -0.640  1.00  0.00     0.105 C 
ATOM     18  C   UNL     1      -6.459   0.244  -1.131  1.00  0.00     0.135 C 
ATOM     19  C   UNL     1      -7.832   1.641   0.404  1.00  0.00     0.135 C 
ATOM     20  C   UNL     1      -9.387  -0.807  -0.765  1.00  0.00     0.105 C 
ENDBRANCH   9  14
BRANCH  13  21
ATOM     21  O   UNL     1      -2.310   1.846   3.265  1.00  0.00    -0.504 OA
ATOM     22  H   UNL     1      -1.490   1.487   2.881  1.00  0.00     0.293 HD
ENDBRANCH  13  21
ENDBRANCH   3   8
ENDBRANCH   1   2
BRANCH   1  23
ATOM     23  N   UNL     1       2.635  -1.818   0.510  1.00  0.00    -0.299 NA
ATOM     24  C   UNL     1       3.168  -0.548   1.014  1.00  0.00     0.087 C 
ATOM     25  C   UNL     1       3.732  -2.711   0.123  1.00  0.00     0.087 C 
ATOM     26  C   UNL     1       4.049   0.197   0.015  1.00  0.00     0.041 C 
ATOM     27  C   UNL     1       4.687  -2.121  -0.914  1.00  0.00     0.041 C 
ATOM     28  C   UNL     1       5.133  -0.678  -0.629  1.00  0.00     0.095 C 
BRANCH  28  29
ATOM     29  N   UNL     1       6.434  -0.560   0.025  1.00  0.00    -0.291 N 
ATOM     30  C   UNL     1       6.811  -1.040   1.247  1.00  0.00     0.295 A 
ATOM     31  C   UNL     1       7.535   0.105  -0.490  1.00  0.00     0.072 A 
ATOM     32  N   UNL     1       8.044  -0.756   1.563  1.00  0.00    -0.195 NA
ATOM     33  C   UNL     1       7.773   0.807  -1.681  1.00  0.00     0.029 A 
ATOM     34  C   UNL     1       8.515  -0.041   0.493  1.00  0.00     0.092 A 
ATOM     35  C   UNL     1       9.047   1.364  -1.857  1.00  0.00     0.002 A 
ATOM     36  C   UNL     1       9.786   0.523   0.297  1.00  0.00     0.031 A 
ATOM     37  C   UNL     1      10.039   1.225  -0.886  1.00  0.00     0.002 A 
BRANCH  30  38
ATOM     38  O   UNL     1       6.045  -1.725   2.068  1.00  0.00    -0.480 OA
ATOM     39  H   UNL     1       6.653  -1.875   2.816  1.00  0.00     0.296 HD
ENDBRANCH  30  38
ENDBRANCH  28  29
ENDBRANCH   1  23
TORSDOF 7
