MODEL        5USER    Run = 5USERUSER    Estimated Free Energy of Binding    = -11.47 kcal/mol  [=(1)+(2)+(3)-(4)]USERUSER    (1) Final Intermolecular Energy     = -13.26 kcal/molUSER        vdW + Hbond + desolv Energy     = -13.20 kcal/molUSER        Electrostatic Energy            =  -0.07 kcal/molUSER        Moving Ligand-Fixed Receptor    = -13.26 kcal/molUSER        Moving Ligand-Moving Receptor   =  +0.00 kcal/molUSER    (2) Final Total Internal Energy     =  -0.85 kcal/molUSER    (3) Torsional Free Energy           =  +1.79 kcal/molUSER    (4) Unbound System's Energy         =  -0.85 kcal/molUSERUSERREMARK SMILES CS(=O)(=O)N1CCN(C(=O)c2ccc(CN3CCC(n4c(O)nc5ccccc54)CC3)cc2)CC1REMARK SMILES IDX 15 1 14 2 11 3 12 4 33 5 13 6 32 7 9 8 5 9 6 10 35 11 7 12REMARK SMILES IDX 34 13 8 14 10 15 2 16 1 17 3 18 4 19 16 20 17 21 31 22 18 23REMARK SMILES IDX 30 24 19 25 20 26 21 27 29 28 23 29 28 30 24 31 27 32 25 33REMARK SMILES IDX 26 34 22 35REMARK H PARENT 22 36USER                              x       y       z     vdW  Elec       q    TypeUSER                           _______ _______ _______ _____ _____    ______ ____ROOTATOM      1  C   UNL     1      40.385  43.112  22.208 -0.19 +0.00    +0.120 C  ENDROOTBRANCH   1   2ATOM      2  C   UNL     1      40.446  44.177  21.130 -0.27 -0.00    -0.034 A  ATOM      3  C   UNL     1      40.572  46.149  19.141 -0.41 -0.00    +0.040 A  ATOM      4  C   UNL     1      41.738  45.495  19.545 -0.35 +0.00    +0.014 A  ATOM      5  C   UNL     1      39.339  45.803  19.703 -0.32 -0.00    +0.014 A  ATOM      6  C   UNL     1      41.674  44.519  20.542 -0.31 +0.00    +0.006 A  ATOM      7  C   UNL     1      39.279  44.827  20.702 -0.35 +0.00    +0.006 A  BRANCH   3   8ATOM      8  C   UNL     1      40.657  47.159  18.059 -0.34 -0.03    +0.253 C  ATOM      9  N   UNL     1      38.139  46.862  14.524 -0.28 +0.07    -0.199 NA ATOM     10  C   UNL     1      37.597  46.708  15.910 -0.37 -0.06    +0.123 C  ATOM     11  C   UNL     1      39.564  47.362  14.490 -0.41 -0.03    +0.123 C  ATOM     12  C   UNL     1      38.665  46.152  16.865 -0.37 -0.04    +0.136 C  ATOM     13  C   UNL     1      40.028  47.951  15.827 -0.50 -0.04    +0.136 C  ATOM     14  N   UNL     1      39.852  47.012  16.935 -0.24 +0.07    -0.336 N  ATOM     15  O   UNL     1      41.448  48.090  18.201 -0.43 +0.01    -0.269 OA BRANCH   9  16ATOM     16  S   UNL     1      37.115  47.630  13.404 -0.63 -0.09    +0.211 S  ATOM     17  C   UNL     1      35.591  46.728  13.595 -0.42 -0.12    +0.176 C  ATOM     18  O   UNL     1      37.627  47.347  12.080 -1.09 +0.03    -0.213 OA ATOM     19  O   UNL     1      36.916  48.990  13.858 -0.56 +0.13    -0.213 OA ENDBRANCH   9  16ENDBRANCH   3   8ENDBRANCH   1   2BRANCH   1  20ATOM     20  N   UNL     1      39.388  43.402  23.256 -0.10 -0.02    -0.299 NA ATOM     21  C   UNL     1      39.843  42.928  24.574 -0.20 +0.00    +0.087 C  ATOM     22  C   UNL     1      38.095  42.800  22.899 -0.35 +0.01    +0.087 C  ATOM     23  C   UNL     1      38.839  43.292  25.666 -0.22 -0.00    +0.041 C  ATOM     24  C   UNL     1      37.018  43.164  23.919 -0.40 +0.00    +0.041 C  ATOM     25  C   UNL     1      37.450  42.745  25.326 -0.33 -0.00    +0.095 C  BRANCH  25  26ATOM     26  N   UNL     1      36.453  43.055  26.341 -0.19 +0.03    -0.291 N  ATOM     27  C   UNL     1      35.471  42.196  26.756 -0.28 -0.07    +0.295 A  ATOM     28  C   UNL     1      36.300  44.216  27.068 -0.37 -0.01    +0.072 A  ATOM     29  N   UNL     1      34.706  42.694  27.687 -0.44 +0.05    -0.195 NA ATOM     30  C   UNL     1      36.980  45.442  27.100 -0.34 -0.01    +0.029 A  ATOM     31  C   UNL     1      35.205  43.955  27.898 -0.50 -0.03    +0.092 A  ATOM     32  C   UNL     1      36.526  46.410  28.004 -0.34 -0.00    +0.002 A  ATOM     33  C   UNL     1      34.766  44.940  28.797 -0.51 -0.01    +0.031 A  ATOM     34  C   UNL     1      35.438  46.166  28.841 -0.31 -0.00    +0.002 A  BRANCH  27  35ATOM     35  O   UNL     1      35.289  40.978  26.291 -0.24 +0.21    -0.480 OA ATOM     36  H   UNL     1      36.210  40.678  26.191 -0.23 -0.15    +0.296 HD ENDBRANCH  27  35ENDBRANCH  25  26ENDBRANCH   1  20TORSDOF 6TERENDMDL