REMARK SMILES CS(=O)(=O)N1CCN(C(=O)c2ccc(CN3CCC(n4c(O)nc5ccccc54)CC3)cc2)CC1
REMARK SMILES IDX 15 1 14 2 11 3 12 4 33 5 13 6 32 7 9 8 5 9 6 10 35 11 7 12
REMARK SMILES IDX 34 13 8 14 10 15 2 16 1 17 3 18 4 19 16 20 17 21 31 22 18 23
REMARK SMILES IDX 30 24 19 25 20 26 21 27 29 28 23 29 28 30 24 31 27 32 25 33
REMARK SMILES IDX 26 34 22 35
REMARK H PARENT 22 36
ROOT
ATOM      1  C   UNL     1      -0.891  -2.157   0.313  1.00  0.00     0.120 C 
ENDROOT
BRANCH   1   2
ATOM      2  C   UNL     1       0.223  -1.143   0.140  1.00  0.00    -0.034 A 
ATOM      3  C   UNL     1       2.283   0.730  -0.193  1.00  0.00     0.040 A 
ATOM      4  C   UNL     1       1.369   0.512  -1.226  1.00  0.00     0.014 A 
ATOM      5  C   UNL     1       2.156   0.040   1.017  1.00  0.00     0.014 A 
ATOM      6  C   UNL     1       0.349  -0.428  -1.062  1.00  0.00     0.006 A 
ATOM      7  C   UNL     1       1.135  -0.901   1.178  1.00  0.00     0.006 A 
BRANCH   3   8
ATOM      8  C   UNL     1       3.338   1.754  -0.377  1.00  0.00     0.253 C 
ATOM      9  N   UNL     1       7.522   0.805   0.347  1.00  0.00    -0.199 NA
ATOM     10  C   UNL     1       6.627  -0.080  -0.463  1.00  0.00     0.123 C 
ATOM     11  C   UNL     1       6.906   2.145   0.670  1.00  0.00     0.123 C 
ATOM     12  C   UNL     1       5.165   0.041  -0.006  1.00  0.00     0.136 C 
ATOM     13  C   UNL     1       5.676   2.466  -0.187  1.00  0.00     0.136 C 
ATOM     14  N   UNL     1       4.660   1.415  -0.110  1.00  0.00    -0.336 N 
ATOM     15  O   UNL     1       2.996   2.872  -0.757  1.00  0.00    -0.269 OA
BRANCH   9  16
ATOM     16  S   UNL     1       9.140   0.899  -0.167  1.00  0.00     0.211 S 
ATOM     17  C   UNL     1       9.717  -0.770   0.069  1.00  0.00     0.176 C 
ATOM     18  O   UNL     1       9.848   1.742   0.773  1.00  0.00    -0.213 OA
ATOM     19  O   UNL     1       9.131   1.196  -1.583  1.00  0.00    -0.213 OA
ENDBRANCH   9  16
ENDBRANCH   3   8
ENDBRANCH   1   2
BRANCH   1  20
ATOM     20  N   UNL     1      -2.238  -1.571   0.176  1.00  0.00    -0.299 NA
ATOM     21  C   UNL     1      -2.551  -0.677   1.304  1.00  0.00     0.087 C 
ATOM     22  C   UNL     1      -3.240  -2.640   0.058  1.00  0.00     0.087 C 
ATOM     23  C   UNL     1      -3.918  -0.020   1.121  1.00  0.00     0.041 C 
ATOM     24  C   UNL     1      -4.634  -2.064  -0.181  1.00  0.00     0.041 C 
ATOM     25  C   UNL     1      -5.006  -1.081   0.932  1.00  0.00     0.095 C 
BRANCH  25  26
ATOM     26  N   UNL     1      -6.334  -0.509   0.763  1.00  0.00    -0.291 N 
ATOM     27  C   UNL     1      -7.382  -0.706   1.622  1.00  0.00     0.295 A 
ATOM     28  C   UNL     1      -6.792   0.317  -0.241  1.00  0.00     0.072 A 
ATOM     29  N   UNL     1      -8.468  -0.078   1.268  1.00  0.00    -0.195 NA
ATOM     30  C   UNL     1      -6.209   0.868  -1.391  1.00  0.00     0.029 A 
ATOM     31  C   UNL     1      -8.123   0.568   0.107  1.00  0.00     0.092 A 
ATOM     32  C   UNL     1      -7.010   1.693  -2.190  1.00  0.00     0.002 A 
ATOM     33  C   UNL     1      -8.909   1.397  -0.709  1.00  0.00     0.031 A 
ATOM     34  C   UNL     1      -8.338   1.956  -1.857  1.00  0.00     0.002 A 
BRANCH  27  35
ATOM     35  O   UNL     1      -7.335  -1.444   2.712  1.00  0.00    -0.480 OA
ATOM     36  H   UNL     1      -8.237  -1.320   3.058  1.00  0.00     0.296 HD
ENDBRANCH  27  35
ENDBRANCH  25  26
ENDBRANCH   1  20
TORSDOF 6
