MODEL        2USER    Run = 2USERUSER    Estimated Free Energy of Binding    = -11.49 kcal/mol  [=(1)+(2)+(3)-(4)]USERUSER    (1) Final Intermolecular Energy     = -13.28 kcal/molUSER        vdW + Hbond + desolv Energy     = -13.11 kcal/molUSER        Electrostatic Energy            =  -0.17 kcal/molUSER        Moving Ligand-Fixed Receptor    = -13.28 kcal/molUSER        Moving Ligand-Moving Receptor   =  +0.00 kcal/molUSER    (2) Final Total Internal Energy     =  -2.55 kcal/molUSER    (3) Torsional Free Energy           =  +1.79 kcal/molUSER    (4) Unbound System's Energy         =  -2.55 kcal/molUSERUSERREMARK SMILES CN1CCN(C(=O)c2nnc(-c3ccc(CN4CCC(n5c(O)nc6ccccc65)CC4)cc3)o2)CC1REMARK SMILES IDX 16 1 15 2 12 3 13 4 34 5 14 6 33 7 11 8 8 9 9 10 35 11 10 12REMARK SMILES IDX 6 13 2 14 3 15 37 16 4 17 36 18 5 19 1 20 7 21 17 22 18 23REMARK SMILES IDX 32 24 19 25 31 26 20 27 21 28 22 29 30 30 24 31 29 32 25 33REMARK SMILES IDX 28 34 26 35 27 36 23 37REMARK H PARENT 23 38USER                              x       y       z     vdW  Elec       q    TypeUSER                           _______ _______ _______ _____ _____    ______ ____ROOTATOM      1  C   UNL     1      35.550  46.185  14.157 -0.41 -0.08    +0.120 C  ENDROOTBRANCH   1   2ATOM      2  C   UNL     1      35.515  45.377  15.438 -0.33 +0.02    -0.034 A  ATOM      3  C   UNL     1      35.496  43.913  17.857 -0.29 -0.01    +0.039 A  ATOM      4  C   UNL     1      36.169  43.423  16.728 -0.37 -0.00    +0.014 A  ATOM      5  C   UNL     1      34.821  45.138  17.754 -0.35 -0.01    +0.014 A  ATOM      6  C   UNL     1      36.182  44.149  15.532 -0.38 -0.00    +0.006 A  ATOM      7  C   UNL     1      34.831  45.862  16.559 -0.32 -0.01    +0.006 A  BRANCH   3   8ATOM      8  C   UNL     1      35.503  43.201  19.128 -0.21 -0.04    +0.248 A  ATOM      9  C   UNL     1      36.312  42.495  20.976 -0.25 +0.01    +0.306 A  ATOM     10  N   UNL     1      35.046  42.126  20.947 -0.28 -0.01    -0.102 NA ATOM     11  O   UNL     1      36.672  43.185  19.839 -0.14 +0.03    -0.412 OA ATOM     12  N   UNL     1      34.526  42.574  19.752 -0.51 -0.00    -0.107 NA BRANCH   9  13ATOM     13  C   UNL     1      37.305  42.310  22.028 -0.30 +0.02    +0.311 C  ATOM     14  N   UNL     1      40.114  45.440  23.212 -0.07 -0.02    -0.303 NA ATOM     15  C   UNL     1      38.823  45.821  22.621 -0.32 +0.01    +0.105 C  ATOM     16  C   UNL     1      39.920  44.222  24.018 -0.16 +0.00    +0.105 C  ATOM     17  C   UNL     1      38.101  44.714  21.828 -0.33 +0.01    +0.135 C  ATOM     18  C   UNL     1      39.276  43.047  23.264 -0.24 +0.01    +0.135 C  ATOM     19  N   UNL     1      38.079  43.404  22.493 -0.14 -0.02    -0.332 N  ATOM     20  C   UNL     1      41.151  45.270  22.197 -0.23 +0.01    +0.105 C  ATOM     21  O   UNL     1      37.505  41.190  22.513 -0.37 -0.03    -0.263 OA ENDBRANCH   9  13ENDBRANCH   3   8ENDBRANCH   1   2BRANCH   1  22ATOM     22  N   UNL     1      36.658  47.159  14.120 -0.23 +0.18    -0.299 NA ATOM     23  C   UNL     1      37.951  46.475  13.969 -0.45 -0.03    +0.087 C  ATOM     24  C   UNL     1      36.649  47.965  15.348 -0.25 -0.09    +0.087 C  ATOM     25  C   UNL     1      39.097  47.475  13.841 -0.30 -0.01    +0.041 C  ATOM     26  C   UNL     1      37.704  49.066  15.295 -0.44 -0.04    +0.041 C  ATOM     27  C   UNL     1      39.103  48.576  14.910 -0.50 -0.04    +0.095 C  BRANCH  27  28ATOM     28  N   UNL     1      39.964  48.300  16.057 -0.31 +0.09    -0.291 N  ATOM     29  C   UNL     1      41.067  48.991  16.475 -0.25 -0.03    +0.295 A  ATOM     30  C   UNL     1      39.816  47.236  16.933 -0.43 -0.02    +0.072 A  ATOM     31  N   UNL     1      41.635  48.481  17.532 -0.68 -0.00    -0.195 NA ATOM     32  C   UNL     1      38.893  46.185  17.034 -0.40 -0.01    +0.029 A  ATOM     33  C   UNL     1      40.873  47.381  17.833 -0.44 -0.01    +0.092 A  ATOM     34  C   UNL     1      39.067  45.273  18.083 -0.41 -0.00    +0.002 A  ATOM     35  C   UNL     1      41.031  46.456  18.877 -0.46 -0.00    +0.031 A  ATOM     36  C   UNL     1      40.118  45.403  18.991 -0.45 -0.00    +0.002 A  BRANCH  29  37ATOM     37  O   UNL     1      41.551  50.075  15.909 -0.79 +0.04    -0.480 OA ATOM     38  H   UNL     1      41.405  50.735  16.610 -0.32 -0.08    +0.296 HD ENDBRANCH  29  37ENDBRANCH  27  28ENDBRANCH   1  22TORSDOF 6TERENDMDL