MODEL        9USER    Run = 9USERUSER    Estimated Free Energy of Binding    = -11.77 kcal/mol  [=(1)+(2)+(3)-(4)]USERUSER    (1) Final Intermolecular Energy     = -13.86 kcal/molUSER        vdW + Hbond + desolv Energy     = -13.65 kcal/molUSER        Electrostatic Energy            =  -0.21 kcal/molUSER        Moving Ligand-Fixed Receptor    = -13.86 kcal/molUSER        Moving Ligand-Moving Receptor   =  +0.00 kcal/molUSER    (2) Final Total Internal Energy     =  -0.99 kcal/molUSER    (3) Torsional Free Energy           =  +2.09 kcal/molUSER    (4) Unbound System's Energy         =  -0.99 kcal/molUSERUSERREMARK SMILES CN1CCN(c2ncc(O)c(-c3ccc(CN4CCC(n5c(O)nc6ccccc65)CC4)cc3)n2)CC1REMARK SMILES IDX 16 1 15 2 12 3 13 4 34 5 14 6 33 7 11 8 6 9 7 10 35 11 8 12REMARK SMILES IDX 9 13 5 14 2 15 3 16 37 17 4 18 36 19 1 20 10 21 17 23 18 24REMARK SMILES IDX 32 25 19 26 31 27 20 28 21 29 22 30 30 31 24 32 29 33 25 34REMARK SMILES IDX 28 35 26 36 27 37 23 38REMARK H PARENT 10 22 23 39USER                              x       y       z     vdW  Elec       q    TypeUSER                           _______ _______ _______ _____ _____    ______ ____ROOTATOM      1  C   UNL     1      36.446  46.698  13.233 -0.54 -0.06    +0.120 C  ENDROOTBRANCH   1   2ATOM      2  C   UNL     1      36.097  45.844  14.435 -0.39 +0.02    -0.034 A  ATOM      3  C   UNL     1      35.423  44.248  16.675 -0.32 -0.00    +0.004 A  ATOM      4  C   UNL     1      35.157  45.627  16.667 -0.33 -0.01    +0.011 A  ATOM      5  C   UNL     1      36.006  43.676  15.535 -0.38 -0.00    +0.011 A  ATOM      6  C   UNL     1      35.493  46.417  15.563 -0.28 -0.01    +0.006 A  ATOM      7  C   UNL     1      36.335  44.462  14.426 -0.24 -0.00    +0.006 A  BRANCH   3   8ATOM      8  C   UNL     1      35.100  43.435  17.855 -0.25 -0.03    +0.118 A  ATOM      9  C   UNL     1      35.791  42.799  19.976 -0.28 -0.01    +0.226 A  ATOM     10  N   UNL     1      34.698  42.033  20.140 -0.33 -0.01    -0.218 NA ATOM     11  N   UNL     1      36.016  43.497  18.849 -0.20 +0.04    -0.209 NA ATOM     12  C   UNL     1      33.811  41.977  19.128 -0.24 -0.01    +0.163 A  ATOM     13  C   UNL     1      33.960  42.659  17.948 -0.26 -0.04    +0.160 A  BRANCH   9  14ATOM     14  N   UNL     1      36.737  42.857  21.004 -0.20 -0.00    -0.338 N  ATOM     15  N   UNL     1      37.944  43.475  23.630 -0.14 -0.02    -0.303 NA ATOM     16  C   UNL     1      38.301  44.207  22.394 -0.32 +0.01    +0.105 C  ATOM     17  C   UNL     1      37.495  42.117  23.255 -0.40 +0.01    +0.105 C  ATOM     18  C   UNL     1      37.225  44.215  21.284 -0.35 +0.00    +0.135 C  ATOM     19  C   UNL     1      36.383  42.052  22.182 -0.46 +0.01    +0.135 C  ATOM     20  C   UNL     1      36.928  44.186  24.402 -0.28 +0.01    +0.105 C  ENDBRANCH   9  14BRANCH  13  21ATOM     21  O   UNL     1      33.018  42.518  16.977 -0.06 +0.22    -0.504 OA ATOM     22  H   UNL     1      33.239  41.742  16.432 -0.37 -0.21    +0.293 HD ENDBRANCH  13  21ENDBRANCH   3   8ENDBRANCH   1   2BRANCH   1  23ATOM     23  N   UNL     1      37.847  47.151  13.218 -0.45 +0.08    -0.299 NA ATOM     24  C   UNL     1      38.791  46.229  13.860 -0.25 -0.02    +0.087 C  ATOM     25  C   UNL     1      38.002  48.501  13.769 -0.41 -0.03    +0.087 C  ATOM     26  C   UNL     1      38.638  46.138  15.376 -0.43 -0.01    +0.041 C  ATOM     27  C   UNL     1      37.833  48.585  15.285 -0.55 -0.03    +0.041 C  ATOM     28  C   UNL     1      38.584  47.503  16.077 -0.44 -0.04    +0.095 C  BRANCH  28  29ATOM     29  N   UNL     1      39.874  47.926  16.616 -0.28 +0.08    -0.291 N  ATOM     30  C   UNL     1      40.672  48.950  16.190 -0.30 -0.06    +0.295 A  ATOM     31  C   UNL     1      40.542  47.323  17.669 -0.44 -0.01    +0.072 A  ATOM     32  N   UNL     1      41.779  49.068  16.868 -0.87 -0.04    -0.195 NA ATOM     33  C   UNL     1      40.252  46.232  18.502 -0.45 -0.00    +0.029 A  ATOM     34  C   UNL     1      41.719  48.061  17.797 -0.36 -0.00    +0.092 A  ATOM     35  C   UNL     1      41.196  45.903  19.485 -0.44 +0.00    +0.002 A  ATOM     36  C   UNL     1      42.652  47.717  18.789 -0.50 +0.00    +0.031 A  ATOM     37  C   UNL     1      42.377  46.633  19.628 -0.46 +0.00    +0.002 A  BRANCH  30  38ATOM     38  O   UNL     1      40.400  49.766  15.195 -0.21 +0.21    -0.480 OA ATOM     39  H   UNL     1      39.720  50.338  15.597 -0.19 -0.21    +0.296 HD ENDBRANCH  30  38ENDBRANCH  28  29ENDBRANCH   1  23TORSDOF 7TERENDMDL