MODEL        8USER    Run = 8USERUSER    Estimated Free Energy of Binding    =  -5.33 kcal/mol  [=(1)+(2)+(3)-(4)]USERUSER    (1) Final Intermolecular Energy     =  -9.81 kcal/molUSER        vdW + Hbond + desolv Energy     =  -9.89 kcal/molUSER        Electrostatic Energy            =  -0.07 kcal/molUSER        Moving Ligand-Fixed Receptor    =  -9.96 kcal/molUSER        Moving Ligand-Moving Receptor   =  +0.15 kcal/molUSER    (2) Final Total Internal Energy     =  -2.38 kcal/molUSER    (3) Torsional Free Energy           =  +4.47 kcal/molUSER    (4) Unbound System's Energy         =  -2.38 kcal/molUSERUSERREMARK SMILES COc1ccc(O)c(C(=O)c2ccc(NC[C@@H]3CCCNC[C@@H]3NC(=O)c3ccncc3)cc2)c1FREMARK SMILES IDX 16 1 15 2 14 4 11 5 12 6 34 7 13 8 33 9 9 10 10 11 8 12 3 13REMARK SMILES IDX 4 14 35 15 5 16 6 17 36 18 2 19 1 20 7 21 17 23 18 24 23 26REMARK SMILES IDX 22 27 21 28 20 30 19 31 24 33 25 34 26 36 27 37 28 38 32 39REMARK SMILES IDX 29 40 31 41 30 42REMARK H PARENT 15 3 7 22 21 29 24 35REMARK Flexibility Score:   99.900USER                              x       y       z     vdW  Elec       q    TypeUSER                           _______ _______ _______ _____ _____    ______ ____ROOTATOM      1  C   UNL     1      -1.324   1.052  -2.948 -0.39 +0.02    +0.118 C  ENDROOTBRANCH   1   2ATOM      2  N   UNL     1      -1.161   1.913  -4.122 -0.14 -0.05    -0.385 N  ATOM      3  H   UNL     1      -1.968   1.911  -4.738 +0.06 +0.04    +0.160 HD BRANCH   2   4ATOM      4  C   UNL     1       0.053   2.046  -4.792 -0.37 +0.00    +0.034 A  ATOM      5  C   UNL     1       2.500   2.150  -6.210 -0.37 -0.00    +0.023 A  ATOM      6  C   UNL     1       1.617   3.231  -6.242 -0.36 -0.00    +0.014 A  ATOM      7  C   UNL     1       2.139   0.993  -5.518 -0.38 +0.00    +0.014 A  ATOM      8  C   UNL     1       0.404   3.173  -5.545 -0.33 -0.00    +0.026 A  ATOM      9  C   UNL     1       0.924   0.948  -4.824 -0.39 +0.01    +0.026 A  BRANCH   5  10ATOM     10  C   UNL     1       3.758   2.241  -6.989 -0.34 -0.04    +0.199 C  ATOM     11  O   UNL     1       4.667   1.442  -6.756 -0.78 +0.04    -0.288 OA BRANCH  10  12ATOM     12  C   UNL     1       4.008   3.285  -8.007 -0.31 -0.02    +0.104 A  ATOM     13  C   UNL     1       3.436   4.440 -10.078 -0.30 -0.02    +0.155 A  ATOM     14  C   UNL     1       4.526   5.294  -9.899 -0.43 -0.00    +0.053 A  ATOM     15  C   UNL     1       3.192   3.434  -9.130 -0.20 -0.03    +0.179 A  ATOM     16  C   UNL     1       5.368   5.133  -8.797 -0.54 +0.00    +0.051 A  ATOM     17  C   UNL     1       5.119   4.126  -7.868 -0.41 -0.01    +0.130 A  ATOM     18  F   UNL     1       2.167   2.592  -9.336 -0.02 +0.03    -0.202 F  BRANCH  13  19ATOM     19  O   UNL     1       2.554   4.489 -11.124 -0.09 +0.05    -0.494 OA ATOM     20  C   UNL     1       1.971   5.751 -11.428 -0.25 -0.02    +0.278 C  ENDBRANCH  13  19BRANCH  17  21ATOM     21  O   UNL     1       6.012   4.015  -6.836 -0.29 -0.00    -0.507 OA ATOM     22  H   UNL     1       5.749   3.239  -6.291 +0.24 -0.04    +0.293 HD ENDBRANCH  17  21ENDBRANCH  10  12ENDBRANCH   5  10ENDBRANCH   2   4ENDBRANCH   1   2BRANCH   1  23ATOM     23  C   UNL     1      -1.583   1.872  -1.659 -0.41 -0.00    +0.032 C  BRANCH  23  24ATOM     24  C   UNL     1      -0.528   1.523  -0.589 -0.49 -0.00    +0.009 CG0ATOM     25  G   UNL     1      -0.491   2.344   0.700 +0.00 +0.00    +0.000 G0 ENDBRANCH  23  24BRANCH  23  26ATOM     26  C   UNL     1      -3.056   1.721  -1.212 -0.26 -0.01    +0.101 C  BRANCH  26  27ATOM     27  C   UNL     1      -3.160   1.114   0.207 -0.23 -0.01    +0.106 C  BRANCH  27  28ATOM     28  N   UNL     1      -2.875   2.045   1.306 -0.09 +0.06    -0.315 NA ATOM     29  H   UNL     1      -3.025   2.992   0.950 +0.05 -0.03    +0.122 HD BRANCH  28  30ATOM     30  C   UNL     1      -1.494   1.959   1.783 -0.26 -0.02    +0.081 C  BRANCH  30  31ATOM     31  C   UNL     1      -0.494   2.344   0.700 -0.49 -0.00    +0.016 CG0ATOM     32  G   UNL     1      -0.529   1.524  -0.590 +0.00 +0.00    +0.000 G0 ENDBRANCH  30  31ENDBRANCH  28  30ENDBRANCH  27  28ENDBRANCH  26  27BRANCH  26  33ATOM     33  N   UNL     1      -3.859   0.931  -2.142 -0.15 -0.00    -0.348 N  ATOM     34  C   UNL     1      -4.213   1.370  -3.395 -0.15 +0.03    +0.251 C  ATOM     35  H   UNL     1      -4.243   0.079  -1.753 -0.05 -0.02    +0.164 HD ATOM     36  O   UNL     1      -3.886   2.466  -3.835 -0.09 -0.02    -0.269 OA BRANCH  34  37ATOM     37  C   UNL     1      -5.049   0.455  -4.216 -0.16 +0.01    +0.042 A  ATOM     38  C   UNL     1      -5.234   0.767  -5.564 -0.11 +0.01    +0.034 A  ATOM     39  C   UNL     1      -5.622  -0.707  -3.696 -0.18 +0.00    +0.034 A  ATOM     40  C   UNL     1      -6.006  -0.084  -6.331 -0.12 +0.05    +0.112 A  ATOM     41  C   UNL     1      -6.376  -1.493  -4.549 -0.22 +0.03    +0.112 A  ATOM     42  N   UNL     1      -6.585  -1.205  -5.850 -0.10 -0.10    -0.265 NA ENDBRANCH  34  37ENDBRANCH  26  33ENDBRANCH  23  26ENDBRANCH   1  23TORSDOF 9TERENDMDL