MODEL        6USER    Run = 6USERUSER    Estimated Free Energy of Binding    = -11.01 kcal/mol  [=(1)+(2)+(3)-(4)]USERUSER    (1) Final Intermolecular Energy     = -12.80 kcal/molUSER        vdW + Hbond + desolv Energy     = -12.48 kcal/molUSER        Electrostatic Energy            =  -0.32 kcal/molUSER        Moving Ligand-Fixed Receptor    = -12.80 kcal/molUSER        Moving Ligand-Moving Receptor   =  +0.00 kcal/molUSER    (2) Final Total Internal Energy     =  -0.88 kcal/molUSER    (3) Torsional Free Energy           =  +1.79 kcal/molUSER    (4) Unbound System's Energy         =  -0.88 kcal/molUSERUSERREMARK SMILES Cn1ccc2ccc3c4[nH]c5c(CCCN[C@H]6CC[C@H](O)CC6)cccc5c4c4c(c3c21)C(=O)NC4=OREMARK SMILES IDX 15 1 14 2 13 3 12 4 2 5 3 6 32 7 4 8 31 9 5 10 30 11 8 12REMARK SMILES IDX 6 13 29 14 33 15 7 16 9 17 28 18 36 19 35 20 10 21 27 22REMARK SMILES IDX 11 23 26 24 25 25 24 26 1 27 34 28 37 29 16 32 17 34 23 35REMARK SMILES IDX 18 36 22 37 19 38 20 39 21 40REMARK H PARENT 35 30 10 31 16 33 21 41USER                              x       y       z     vdW  Elec       q    TypeUSER                           _______ _______ _______ _____ _____    ______ ____ROOTATOM      1  C   UNL     1      10.653 -13.498 -11.220 -0.26 -0.03    +0.081 C  ENDROOTBRANCH   1   2ATOM      2  C   UNL     1      10.988 -12.066 -11.649 -0.53 -0.01    +0.020 C  BRANCH   2   3ATOM      3  C   UNL     1      12.366 -11.944 -12.309 -0.27 -0.02    +0.039 C  BRANCH   3   4ATOM      4  C   UNL     1      13.256 -13.147 -12.106 -0.29 +0.01    -0.024 A  ATOM      5  N   UNL     1      18.534 -12.672  -5.241 -0.19 -0.04    -0.350 N  ATOM      6  C   UNL     1      18.519 -11.851  -4.138 -0.44 +0.02    +0.086 A  ATOM      7  C   UNL     1      17.380 -12.498  -5.996 -0.40 -0.00    +0.057 A  ATOM      8  C   UNL     1      17.470 -10.982  -4.279 -0.50 +0.00    +0.028 A  ATOM      9  C   UNL     1      16.808 -13.184  -7.131 -0.38 -0.00    +0.022 A  ATOM     10  C   UNL     1      16.796 -11.326  -5.478 -0.52 -0.00    +0.000 A  ATOM     11  C   UNL     1      17.114 -14.461  -7.629 -0.33 -0.01    +0.063 A  ATOM     12  C   UNL     1      15.784 -12.472  -7.830 -0.41 -0.00    +0.009 A  ATOM     13  C   UNL     1      15.720 -10.723  -6.149 -0.56 -0.00    +0.011 A  ATOM     14  C   UNL     1      16.575 -14.954  -8.823 -0.32 -0.01    +0.063 A  ATOM     15  C   UNL     1      17.856 -15.591  -7.044 -0.28 +0.01    +0.259 C  ATOM     16  C   UNL     1      15.256 -11.266  -7.343 -0.42 -0.00    +0.012 A  ATOM     17  C   UNL     1      15.258 -13.002  -9.050 -0.35 -0.03    +0.055 A  ATOM     18  C   UNL     1      15.652 -14.234  -9.586 -0.34 -0.01    +0.022 A  ATOM     19  C   UNL     1      17.091 -16.306  -9.027 -0.26 -0.01    +0.259 C  ATOM     20  N   UNL     1      17.936 -16.554  -7.996 -0.23 -0.02    -0.288 N  ATOM     21  N   UNL     1      14.320 -12.489  -9.920 -0.15 +0.21    -0.354 N  ATOM     22  C   UNL     1      14.936 -14.425 -10.816 -0.31 -0.00    +0.008 A  ATOM     23  C   UNL     1      14.112 -13.314 -10.998 -0.27 -0.02    +0.050 A  ATOM     24  C   UNL     1      14.905 -15.436 -11.798 -0.30 -0.00    +0.011 A  ATOM     25  C   UNL     1      14.067 -15.305 -12.910 -0.30 -0.00    +0.001 A  ATOM     26  C   UNL     1      13.260 -14.182 -13.057 -0.30 -0.00    +0.006 A  ATOM     27  C   UNL     1      19.744 -13.375  -5.615 -0.46 +0.03    +0.149 C  ATOM     28  O   UNL     1      18.232 -15.710  -5.896 -0.33 -0.05    -0.269 OA ATOM     29  O   UNL     1      16.791 -17.093  -9.901 -0.24 +0.01    -0.269 OA ATOM     30  H   UNL     1      18.274 -17.483  -7.798 +0.10 +0.02    +0.173 HD ATOM     31  H   UNL     1      13.855 -11.602  -9.800 +0.10 -0.10    +0.167 HD ENDBRANCH   3   4ENDBRANCH   2   3ENDBRANCH   1   2BRANCH   1  32ATOM     32  N   UNL     1      10.230 -14.265 -12.393 -0.68 -0.03    -0.314 NA ATOM     33  H   UNL     1      11.025 -14.765 -12.789 +0.09 -0.01    +0.122 HD BRANCH  32  34ATOM     34  C   UNL     1       9.600 -13.428 -13.424 -0.33 -0.01    +0.053 C  ATOM     35  C   UNL     1      10.483 -13.245 -14.676 -0.22 -0.02    +0.021 C  ATOM     36  C   UNL     1       8.242 -14.077 -13.763 -0.41 +0.00    +0.021 C  ATOM     37  C   UNL     1      10.165 -14.266 -15.767 -0.25 -0.02    +0.033 C  ATOM     38  C   UNL     1       7.759 -13.652 -15.144 -0.35 -0.01    +0.033 C  ATOM     39  C   UNL     1       8.711 -14.139 -16.240 -0.21 -0.05    +0.114 C  BRANCH  39  40ATOM     40  O   UNL     1       8.635 -13.214 -17.324 -0.11 +0.33    -0.393 OA ATOM     41  H   UNL     1       9.372 -12.587 -17.227 -0.27 -0.45    +0.210 HD ENDBRANCH  39  40ENDBRANCH  32  34ENDBRANCH   1  32TORSDOF 6TERENDMDL