MODEL        10USER    Run = 10USERUSER    Estimated Free Energy of Binding    = -11.15 kcal/mol  [=(1)+(2)+(3)-(4)]USERUSER    (1) Final Intermolecular Energy     = -13.53 kcal/molUSER        vdW + Hbond + desolv Energy     = -13.39 kcal/molUSER        Electrostatic Energy            =  -0.14 kcal/molUSER        Moving Ligand-Fixed Receptor    = -13.53 kcal/molUSER        Moving Ligand-Moving Receptor   =  +0.00 kcal/molUSER    (2) Final Total Internal Energy     =  -1.99 kcal/molUSER    (3) Torsional Free Energy           =  +2.39 kcal/molUSER    (4) Unbound System's Energy         =  -1.99 kcal/molUSERUSERREMARK SMILES N#Cc1cnc(-c2ccc(CNCc3ccc(-c4csnn4)cc3)cc2)c(-c2ccccc2)c1REMARK SMILES IDX 11 1 10 2 7 3 8 4 26 5 9 6 25 7 6 8 3 9 4 10 34 11 5 12REMARK SMILES IDX 27 13 2 14 1 15 28 16 29 17 33 18 30 19 32 20 31 21 12 22REMARK SMILES IDX 13 24 14 25 15 26 24 27 16 28 23 29 17 30 18 31 19 32 22 33REMARK SMILES IDX 20 34 21 35REMARK H PARENT 12 23USER                              x       y       z     vdW  Elec       q    TypeUSER                           _______ _______ _______ _____ _____    ______ ____ROOTATOM      1  C   UNL     1      15.827 -16.215 -10.974 -0.30 -0.02    +0.117 C  ENDROOTBRANCH   1   2ATOM      2  C   UNL     1      16.250 -15.361  -9.803 -0.33 +0.01    -0.034 A  ATOM      3  C   UNL     1      17.051 -13.788  -7.577 -0.38 -0.00    +0.001 A  ATOM      4  C   UNL     1      15.831 -13.553  -8.236 -0.34 -0.00    +0.011 A  ATOM      5  C   UNL     1      17.868 -14.819  -8.069 -0.37 -0.00    +0.011 A  ATOM      6  C   UNL     1      15.431 -14.330  -9.329 -0.35 -0.00    +0.006 A  ATOM      7  C   UNL     1      17.471 -15.600  -9.159 -0.37 -0.00    +0.006 A  BRANCH   3   8ATOM      8  C   UNL     1      17.448 -12.954  -6.424 -0.37 -0.01    +0.078 A  ATOM      9  C   UNL     1      18.266 -11.649  -4.127 -0.46 +0.01    +0.071 A  ATOM     10  C   UNL     1      18.479 -12.998  -4.331 -0.33 +0.03    +0.131 A  ATOM     11  C   UNL     1      17.623 -10.931  -5.133 -0.06 +0.00    +0.032 A  ATOM     12  N   UNL     1      18.093 -13.657  -5.447 -0.27 -0.03    -0.254 NA ATOM     13  C   UNL     1      17.199 -11.570  -6.316 -0.41 -0.00    +0.009 A  BRANCH   9  14ATOM     14  C   UNL     1      18.703 -11.017  -2.924 -0.40 +0.02    +0.101 C  ATOM     15  N   UNL     1      19.057 -10.505  -1.946 -0.64 -0.06    -0.192 NA ENDBRANCH   9  14BRANCH  13  16ATOM     16  C   UNL     1      16.564 -10.760  -7.370 -0.47 +0.00    -0.016 A  ATOM     17  C   UNL     1      17.160 -10.636  -8.637 -0.40 -0.00    +0.009 A  ATOM     18  C   UNL     1      15.342 -10.105  -7.146 -0.64 -0.00    +0.009 A  ATOM     19  C   UNL     1      16.560  -9.874  -9.642 -0.51 -0.00    +0.001 A  ATOM     20  C   UNL     1      14.742  -9.341  -8.150 -0.42 -0.00    +0.001 A  ATOM     21  C   UNL     1      15.352  -9.225  -9.397 -0.44 -0.00    +0.000 A  ENDBRANCH  13  16ENDBRANCH   3   8ENDBRANCH   1   2BRANCH   1  22ATOM     22  N   UNL     1      15.659 -15.393 -12.173 -0.17 +0.09    -0.309 NA ATOM     23  H   UNL     1      16.389 -15.647 -12.836 -0.02 -0.05    +0.123 HD BRANCH  22  24ATOM     24  C   UNL     1      14.354 -15.596 -12.802 -0.29 -0.04    +0.117 C  BRANCH  24  25ATOM     25  C   UNL     1      13.421 -14.418 -12.642 -0.27 +0.01    -0.034 A  ATOM     26  C   UNL     1      12.860 -14.112 -11.395 -0.30 -0.00    +0.006 A  ATOM     27  C   UNL     1      13.083 -13.622 -13.743 -0.25 -0.00    +0.006 A  ATOM     28  C   UNL     1      11.988 -13.026 -11.252 -0.31 -0.01    +0.011 A  ATOM     29  C   UNL     1      12.212 -12.538 -13.601 -0.37 -0.01    +0.011 A  ATOM     30  C   UNL     1      11.658 -12.221 -12.352 -0.41 -0.00    +0.003 A  BRANCH  30  31ATOM     31  C   UNL     1      10.753 -11.081 -12.237 -0.45 -0.05    +0.105 A  ATOM     32  C   UNL     1       9.687 -10.832 -13.085 -0.21 -0.09    +0.118 A  ATOM     33  N   UNL     1      10.898 -10.150 -11.211 -0.41 +0.04    -0.138 NA ATOM     34  S   UNL     1       8.920  -9.396 -12.542 -0.68 +0.01    -0.020 S  ATOM     35  N   UNL     1       9.984  -9.197 -11.270 -1.01 -0.00    -0.091 NA ENDBRANCH  30  31ENDBRANCH  24  25ENDBRANCH  22  24ENDBRANCH   1  22TORSDOF 8TERENDMDL