MODEL        9USER    Run = 9USERUSER    Estimated Free Energy of Binding    =  -9.41 kcal/mol  [=(1)+(2)+(3)-(4)]USERUSER    (1) Final Intermolecular Energy     = -12.09 kcal/molUSER        vdW + Hbond + desolv Energy     = -11.90 kcal/molUSER        Electrostatic Energy            =  -0.20 kcal/molUSER        Moving Ligand-Fixed Receptor    = -12.09 kcal/molUSER        Moving Ligand-Moving Receptor   =  +0.00 kcal/molUSER    (2) Final Total Internal Energy     =  -3.06 kcal/molUSER    (3) Torsional Free Energy           =  +2.68 kcal/molUSER    (4) Unbound System's Energy         =  -3.06 kcal/molUSERUSERREMARK SMILES COc1cnc(C(=O)N[C@@H]2CN(C)CC[C@H]2NC(=O)c2ccc(C(=O)c3cc(OC)cc(F)c3O)cc2)nc1REMARK SMILES IDX 17 1 18 2 19 3 16 5 10 6 11 7 12 8 15 9 14 10 13 11 9 12REMARK SMILES IDX 7 13 8 14 6 16 3 17 4 18 39 19 5 20 38 21 2 22 1 23 20 24REMARK SMILES IDX 21 25 37 26 22 27 36 28 23 29 24 30 25 31 26 32 27 33 34 34REMARK SMILES IDX 28 35 32 36 31 37 33 38 35 39 29 41 30 42REMARK H PARENT 17 4 9 15 35 40USER                              x       y       z     vdW  Elec       q    TypeUSER                           _______ _______ _______ _____ _____    ______ ____ROOTATOM      1  N   UNL     1      36.776  47.151  16.156 -0.15 +0.29    -0.347 N  ATOM      2  C   UNL     1      37.202  46.233  17.090 -0.24 -0.12    +0.251 C  ATOM      3  O   UNL     1      38.334  46.237  17.561 -0.29 +0.08    -0.269 OA ATOM      4  H   UNL     1      35.874  47.052  15.711 +0.12 -0.19    +0.164 HD ENDROOTBRANCH   1   5ATOM      5  C   UNL     1      37.707  48.050  15.467 -0.45 -0.08    +0.107 C  ATOM      6  C   UNL     1      38.848  47.255  14.788 -0.45 -0.04    +0.119 C  ATOM      7  C   UNL     1      38.262  46.351  13.660 -0.32 -0.03    +0.111 C  ATOM      8  N   UNL     1      36.938  46.796  13.150 -0.32 +0.13    -0.304 NA ATOM      9  C   UNL     1      36.942  48.896  14.433 -0.50 -0.03    +0.042 C  ATOM     10  C   UNL     1      36.897  48.254  13.041 -0.50 -0.03    +0.086 C  ATOM     11  C   UNL     1      36.653  46.156  11.866 -0.62 -0.04    +0.105 C  BRANCH   6  12ATOM     12  N   UNL     1      39.888  48.156  14.284 -0.20 +0.08    -0.343 N  ATOM     13  C   UNL     1      40.799  48.784  15.121 -0.43 -0.06    +0.289 C  ATOM     14  O   UNL     1      40.844  48.572  16.328 -0.56 +0.04    -0.266 OA ATOM     15  H   UNL     1      39.901  48.447  13.310 +0.18 -0.02    +0.164 HD BRANCH  13  16ATOM     16  C   UNL     1      41.731  49.745  14.416 -0.46 -0.04    +0.218 A  ATOM     17  C   UNL     1      43.410  51.489  13.196 -0.17 -0.06    +0.155 A  ATOM     18  C   UNL     1      42.650  50.569  12.500 -0.50 -0.07    +0.161 A  ATOM     19  C   UNL     1      43.251  51.453  14.567 +0.18 -0.03    +0.161 A  ATOM     20  N   UNL     1      41.803  49.690  13.074 -0.22 +0.05    -0.228 NA ATOM     21  N   UNL     1      42.423  50.598  15.212 -0.50 +0.01    -0.228 NA BRANCH  17  22ATOM     22  O   UNL     1      44.215  52.309  12.469 -0.10 +0.23    -0.494 OA ATOM     23  C   UNL     1      43.994  52.342  11.063 -0.32 -0.16    +0.278 C  ENDBRANCH  17  22ENDBRANCH  13  16ENDBRANCH   6  12ENDBRANCH   1   5BRANCH   2  24ATOM     24  C   UNL     1      36.208  45.218  17.545 -0.31 -0.02    +0.039 A  ATOM     25  C   UNL     1      36.344  43.906  17.066 -0.33 -0.00    +0.014 A  ATOM     26  C   UNL     1      35.139  45.528  18.396 -0.37 -0.01    +0.014 A  ATOM     27  C   UNL     1      35.447  42.907  17.457 -0.37 -0.00    +0.013 A  ATOM     28  C   UNL     1      34.243  44.529  18.791 -0.38 -0.00    +0.013 A  ATOM     29  C   UNL     1      34.408  43.214  18.340 -0.33 -0.01    +0.023 A  BRANCH  29  30ATOM     30  C   UNL     1      33.425  42.191  18.775 -0.32 -0.02    +0.196 C  ATOM     31  O   UNL     1      33.593  41.618  19.851 -0.30 -0.05    -0.288 OA BRANCH  30  32ATOM     32  C   UNL     1      32.229  41.841  17.970 -0.31 -0.02    +0.071 A  ATOM     33  C   UNL     1      31.742  42.710  16.979 -0.27 -0.02    +0.062 A  ATOM     34  C   UNL     1      31.602  40.605  18.178 -0.28 -0.02    +0.162 A  ATOM     35  C   UNL     1      30.605  42.370  16.239 -0.25 -0.05    +0.122 A  ATOM     36  C   UNL     1      30.471  40.277  17.437 -0.25 -0.01    +0.169 A  ATOM     37  C   UNL     1      29.971  41.150  16.478 -0.32 -0.02    +0.089 A  ATOM     38  F   UNL     1      29.846  39.107  17.634 -0.11 -0.06    -0.203 F  BRANCH  34  39ATOM     39  O   UNL     1      32.060  39.692  19.092 -0.49 -0.07    -0.504 OA ATOM     40  H   UNL     1      32.372  40.183  19.886 +0.19 +0.11    +0.293 HD ENDBRANCH  34  39BRANCH  35  41ATOM     41  O   UNL     1      30.028  43.131  15.260 -0.05 +0.35    -0.497 OA ATOM     42  C   UNL     1      30.633  44.386  14.966 -0.23 -0.19    +0.278 C  ENDBRANCH  35  41ENDBRANCH  30  32ENDBRANCH  29  30ENDBRANCH   2  24TORSDOF 9TERENDMDL