MODEL        4USER    Run = 4USERUSER    Estimated Free Energy of Binding    = -10.37 kcal/mol  [=(1)+(2)+(3)-(4)]USERUSER    (1) Final Intermolecular Energy     = -13.05 kcal/molUSER        vdW + Hbond + desolv Energy     = -12.91 kcal/molUSER        Electrostatic Energy            =  -0.15 kcal/molUSER        Moving Ligand-Fixed Receptor    = -13.05 kcal/molUSER        Moving Ligand-Moving Receptor   =  +0.00 kcal/molUSER    (2) Final Total Internal Energy     =  -2.79 kcal/molUSER    (3) Torsional Free Energy           =  +2.68 kcal/molUSER    (4) Unbound System's Energy         =  -2.79 kcal/molUSERUSERREMARK SMILES COc1cc(F)c(O)c(C(=O)c2ccc(C(=O)N[C@@H]3CCN(C)C[C@H]3NC(=O)c3cnc(SC)nc3)cc2)c1REMARK SMILES IDX 16 1 17 2 18 3 15 5 12 6 13 7 38 8 14 9 37 10 10 11 11 12REMARK SMILES IDX 9 13 3 14 4 15 39 16 5 17 7 18 6 19 2 20 1 21 8 22 19 24REMARK SMILES IDX 20 25 25 26 21 27 24 28 22 29 23 30 26 31 27 32 28 34 29 35REMARK SMILES IDX 30 36 36 37 31 38 35 39 32 40 33 41 34 42REMARK H PARENT 18 4 8 23 26 33USER                              x       y       z     vdW  Elec       q    TypeUSER                           _______ _______ _______ _____ _____    ______ ____ROOTATOM      1  C   UNL     1      39.976  46.125  17.598 -0.35 -0.03    +0.251 C  ATOM      2  O   UNL     1      39.479  45.003  17.544 -0.21 +0.03    -0.269 OA ATOM      3  N   UNL     1      39.645  47.139  16.725 -0.22 +0.09    -0.347 N  ATOM      4  H   UNL     1      40.156  48.010  16.771 +0.11 -0.04    +0.164 HD ENDROOTBRANCH   1   5ATOM      5  C   UNL     1      40.989  46.444  18.640 -0.47 -0.00    +0.039 A  ATOM      6  C   UNL     1      42.848  46.989  20.663 -0.40 +0.01    +0.023 A  ATOM      7  C   UNL     1      41.814  46.074  20.894 -0.34 +0.00    +0.013 A  ATOM      8  C   UNL     1      42.925  47.661  19.438 -0.39 +0.00    +0.013 A  ATOM      9  C   UNL     1      40.889  45.803  19.881 -0.40 +0.00    +0.014 A  ATOM     10  C   UNL     1      42.000  47.388  18.425 -0.52 -0.00    +0.014 A  BRANCH   6  11ATOM     11  C   UNL     1      43.839  47.322  21.714 -0.26 +0.07    +0.196 C  ATOM     12  O   UNL     1      45.023  47.048  21.524 -0.76 -0.34    -0.288 OA BRANCH  11  13ATOM     13  C   UNL     1      43.463  47.986  22.987 -0.30 +0.02    +0.071 A  ATOM     14  C   UNL     1      41.775  48.775  24.558 -0.31 +0.02    +0.122 A  ATOM     15  C   UNL     1      42.781  49.234  25.406 -0.28 +0.01    +0.089 A  ATOM     16  C   UNL     1      42.119  48.149  23.354 -0.31 +0.01    +0.062 A  ATOM     17  C   UNL     1      44.116  49.049  25.054 -0.22 +0.03    +0.169 A  ATOM     18  C   UNL     1      44.468  48.419  23.862 -0.20 +0.04    +0.162 A  ATOM     19  F   UNL     1      45.065  49.481  25.897 -0.07 -0.02    -0.203 F  BRANCH  14  20ATOM     20  O   UNL     1      40.430  48.870  24.782 -0.13 -0.08    -0.497 OA ATOM     21  C   UNL     1      39.596  47.929  24.113 -0.24 +0.03    +0.278 C  ENDBRANCH  14  20BRANCH  18  22ATOM     22  O   UNL     1      45.801  48.247  23.595 -0.05 -0.15    -0.504 OA ATOM     23  H   UNL     1      45.884  47.634  22.830 +0.09 +0.15    +0.293 HD ENDBRANCH  18  22ENDBRANCH  11  13ENDBRANCH   6  11ENDBRANCH   1   5BRANCH   3  24ATOM     24  C   UNL     1      38.708  46.951  15.604 -0.42 -0.04    +0.107 C  ATOM     25  C   UNL     1      38.856  48.106  14.596 -0.57 -0.02    +0.042 C  ATOM     26  C   UNL     1      37.228  46.809  16.051 -0.37 -0.07    +0.118 C  ATOM     27  C   UNL     1      37.583  48.387  13.791 -0.53 -0.04    +0.086 C  ATOM     28  C   UNL     1      36.320  46.589  14.810 -0.39 -0.08    +0.111 C  ATOM     29  N   UNL     1      36.862  47.142  13.552 -0.30 +0.15    -0.304 NA ATOM     30  C   UNL     1      35.795  47.315  12.569 -0.60 -0.06    +0.105 C  BRANCH  26  31ATOM     31  N   UNL     1      37.039  45.739  17.031 -0.13 +0.15    -0.346 N  ATOM     32  C   UNL     1      35.989  45.735  17.916 -0.20 -0.11    +0.254 C  ATOM     33  H   UNL     1      37.802  45.068  17.104 +0.11 -0.04    +0.164 HD ATOM     34  O   UNL     1      35.129  46.611  17.924 -0.39 +0.22    -0.269 OA BRANCH  32  35ATOM     35  C   UNL     1      35.919  44.636  18.898 -0.30 -0.02    +0.076 A  ATOM     36  C   UNL     1      37.063  44.221  19.546 -0.28 -0.01    +0.129 A  ATOM     37  C   UNL     1      34.773  43.966  19.268 -0.30 -0.02    +0.129 A  ATOM     38  N   UNL     1      37.095  43.228  20.465 -0.23 +0.01    -0.230 NA ATOM     39  N   UNL     1      34.747  42.971  20.187 -0.47 -0.01    -0.230 NA ATOM     40  C   UNL     1      35.922  42.639  20.753 -0.32 +0.00    +0.187 A  BRANCH  40  41ATOM     41  S   UNL     1      35.963  41.332  21.951 -0.52 -0.00    -0.090 SA ATOM     42  C   UNL     1      36.886  42.153  23.273 -0.47 +0.01    +0.094 C  ENDBRANCH  40  41ENDBRANCH  32  35ENDBRANCH  26  31ENDBRANCH   3  24TORSDOF 9TERENDMDL