MODEL        5USER    Run = 5USERUSER    Estimated Free Energy of Binding    =  -8.74 kcal/mol  [=(1)+(2)+(3)-(4)]USERUSER    (1) Final Intermolecular Energy     = -11.43 kcal/molUSER        vdW + Hbond + desolv Energy     = -10.97 kcal/molUSER        Electrostatic Energy            =  -0.46 kcal/molUSER        Moving Ligand-Fixed Receptor    = -11.43 kcal/molUSER        Moving Ligand-Moving Receptor   =  +0.00 kcal/molUSER    (2) Final Total Internal Energy     =  -2.68 kcal/molUSER    (3) Torsional Free Energy           =  +2.68 kcal/molUSER    (4) Unbound System's Energy         =  -2.68 kcal/molUSERUSERREMARK SMILES COc1cc(F)c(O)c(C(=O)c2ccc(C(=O)N[C@@H]3CCN(C)C[C@H]3NC(=O)c3cnc(OC)cn3)cc2)c1REMARK SMILES IDX 16 1 17 2 18 3 15 5 12 6 13 7 38 8 14 9 37 10 10 11 11 12REMARK SMILES IDX 9 13 3 14 4 15 39 16 5 17 7 18 6 19 2 20 1 21 8 22 19 24REMARK SMILES IDX 20 25 25 26 21 27 24 28 22 29 23 30 26 31 27 32 28 34 29 35REMARK SMILES IDX 30 36 36 37 31 38 35 39 32 40 33 41 34 42REMARK H PARENT 18 4 8 23 26 33USER                              x       y       z     vdW  Elec       q    TypeUSER                           _______ _______ _______ _____ _____    ______ ____ROOTATOM      1  C   UNL     1      40.466  48.332  15.181 -0.43 -0.05    +0.251 C  ATOM      2  O   UNL     1      40.386  48.128  16.386 -0.41 +0.06    -0.269 OA ATOM      3  N   UNL     1      39.648  47.717  14.253 -0.18 +0.08    -0.347 N  ATOM      4  H   UNL     1      39.589  48.126  13.331 +0.15 -0.02    +0.164 HD ENDROOTBRANCH   1   5ATOM      5  C   UNL     1      41.454  49.319  14.654 -0.60 -0.01    +0.039 A  ATOM      6  C   UNL     1      43.273  51.244  13.739 -0.31 -0.01    +0.023 A  ATOM      7  C   UNL     1      42.571  51.457  14.930 +0.54 -0.00    +0.013 A  ATOM      8  C   UNL     1      43.102  50.053  13.027 -0.51 -0.00    +0.013 A  ATOM      9  C   UNL     1      41.660  50.500  15.381 -0.55 -0.00    +0.014 A  ATOM     10  C   UNL     1      42.193  49.091  13.483 -0.00 -0.00    +0.014 A  BRANCH   6  11ATOM     11  C   UNL     1      44.242  52.272  13.298 +0.01 -0.08    +0.196 C  ATOM     12  O   UNL     1      44.669  53.078  14.124 -0.23 +0.06    -0.288 OA BRANCH  11  13ATOM     13  C   UNL     1      44.730  52.359  11.898 -0.35 -0.03    +0.071 A  ATOM     14  C   UNL     1      44.357  52.841   9.537 -0.34 -0.04    +0.122 A  ATOM     15  C   UNL     1      45.688  52.535   9.266 -0.09 -0.02    +0.089 A  ATOM     16  C   UNL     1      43.883  52.756  10.853 -0.40 -0.04    +0.062 A  ATOM     17  C   UNL     1      46.535  52.161  10.306 -0.24 -0.05    +0.169 A  ATOM     18  C   UNL     1      46.074  52.080  11.619 -0.27 -0.06    +0.162 A  ATOM     19  F   UNL     1      47.818  51.892  10.022 -0.10 +0.04    -0.203 F  BRANCH  14  20ATOM     20  O   UNL     1      43.420  53.231   8.622 -0.20 -0.03    -0.497 OA ATOM     21  C   UNL     1      43.660  54.455   7.934 -0.12 -0.09    +0.278 C  ENDBRANCH  14  20BRANCH  18  22ATOM     22  O   UNL     1      46.974  51.725  12.593 -0.12 +0.15    -0.504 OA ATOM     23  H   UNL     1      46.534  51.828  13.466 -0.34 -0.14    +0.293 HD ENDBRANCH  18  22ENDBRANCH  11  13ENDBRANCH   6  11ENDBRANCH   1   5BRANCH   3  24ATOM     24  C   UNL     1      38.527  46.874  14.686 -0.43 -0.04    +0.107 C  ATOM     25  C   UNL     1      38.052  45.973  13.540 -0.36 -0.01    +0.042 C  ATOM     26  C   UNL     1      37.361  47.716  15.265 -0.44 -0.08    +0.119 C  ATOM     27  C   UNL     1      37.277  46.744  12.473 -0.60 -0.03    +0.086 C  ATOM     28  C   UNL     1      36.575  48.403  14.116 -0.32 -0.08    +0.111 C  ATOM     29  N   UNL     1      36.164  47.538  12.994 -0.41 +0.17    -0.304 NA ATOM     30  C   UNL     1      34.995  46.723  13.312 -0.34 -0.08    +0.105 C  BRANCH  26  31ATOM     31  N   UNL     1      36.500  46.915  16.133 -0.16 +0.29    -0.345 N  ATOM     32  C   UNL     1      36.986  46.147  17.168 -0.21 -0.13    +0.271 C  ATOM     33  H   UNL     1      35.494  46.880  15.982 +0.08 -0.22    +0.164 HD ATOM     34  O   UNL     1      38.167  46.085  17.487 -0.28 +0.08    -0.267 OA BRANCH  32  35ATOM     35  C   UNL     1      35.942  45.377  17.900 -0.24 -0.06    +0.146 A  ATOM     36  C   UNL     1      36.308  44.439  18.856 -0.25 -0.03    +0.149 A  ATOM     37  N   UNL     1      34.639  45.639  17.582 -0.22 +0.16    -0.244 NA ATOM     38  N   UNL     1      35.392  43.710  19.548 -0.25 +0.03    -0.218 NA ATOM     39  C   UNL     1      33.735  44.896  18.271 -0.26 -0.07    +0.180 A  ATOM     40  C   UNL     1      34.098  43.956  19.231 -0.23 -0.04    +0.232 A  BRANCH  40  41ATOM     41  O   UNL     1      33.083  43.264  19.856 -0.70 -0.03    -0.480 OA ATOM     42  C   UNL     1      32.560  42.202  19.065 -0.24 -0.01    +0.280 C  ENDBRANCH  40  41ENDBRANCH  32  35ENDBRANCH  26  31ENDBRANCH   3  24TORSDOF 9TERENDMDL