REMARK SMILES COc1cnc(C(=O)N[C@@H]2CN(C)CC[C@H]2NC(=O)c2ccc(C(=O)c3cc(OC)cc(F)c3O)cc2)nc1
REMARK SMILES IDX 17 1 18 2 19 3 16 5 10 6 11 7 12 8 15 9 14 10 13 11 9 12
REMARK SMILES IDX 7 13 8 14 6 16 3 17 4 18 39 19 5 20 38 21 2 22 1 23 20 24
REMARK SMILES IDX 21 25 37 26 22 27 36 28 23 29 24 30 25 31 26 32 27 33 34 34
REMARK SMILES IDX 28 35 32 36 31 37 33 38 35 39 29 41 30 42
REMARK H PARENT 17 4 9 15 35 40
ROOT
ATOM      1  N   UNL     1      -0.307  -0.251   0.656  1.00  0.00    -0.347 N 
ATOM      2  C   UNL     1       0.486   0.726   0.098  1.00  0.00     0.251 C 
ATOM      3  O   UNL     1       0.107   1.881  -0.065  1.00  0.00    -0.269 OA
ATOM      4  H   UNL     1      -0.001  -1.214   0.675  1.00  0.00     0.164 HD
ENDROOT
BRANCH   1   5
ATOM      5  C   UNL     1      -1.744  -0.057   0.874  1.00  0.00     0.107 C 
ATOM      6  C   UNL     1      -2.543  -0.315  -0.426  1.00  0.00     0.119 C 
ATOM      7  C   UNL     1      -2.403  -1.811  -0.843  1.00  0.00     0.111 C 
ATOM      8  N   UNL     1      -2.022  -2.720   0.270  1.00  0.00    -0.304 NA
ATOM      9  C   UNL     1      -2.227  -0.985   2.004  1.00  0.00     0.042 C 
ATOM     10  C   UNL     1      -2.723  -2.346   1.498  1.00  0.00     0.086 C 
ATOM     11  C   UNL     1      -2.295  -4.109  -0.098  1.00  0.00     0.105 C 
BRANCH   6  12
ATOM     12  N   UNL     1      -3.945   0.082  -0.268  1.00  0.00    -0.343 N 
ATOM     13  C   UNL     1      -4.809   0.208  -1.345  1.00  0.00     0.289 C 
ATOM     14  O   UNL     1      -4.482  -0.074  -2.493  1.00  0.00    -0.266 OA
ATOM     15  H   UNL     1      -4.301   0.398   0.631  1.00  0.00     0.164 HD
BRANCH  13  16
ATOM     16  C   UNL     1      -6.187   0.718  -0.981  1.00  0.00     0.218 A 
ATOM     17  C   UNL     1      -8.643   1.629  -0.282  1.00  0.00     0.155 A 
ATOM     18  C   UNL     1      -8.296   1.333  -1.586  1.00  0.00     0.161 A 
ATOM     19  C   UNL     1      -7.639   1.426   0.644  1.00  0.00     0.161 A 
ATOM     20  N   UNL     1      -7.086   0.875  -1.969  1.00  0.00    -0.228 NA
ATOM     21  N   UNL     1      -6.402   0.973   0.334  1.00  0.00    -0.228 NA
BRANCH  17  22
ATOM     22  O   UNL     1      -9.906   2.079  -0.060  1.00  0.00    -0.494 OA
ATOM     23  C   UNL     1     -10.253   2.374   1.289  1.00  0.00     0.278 C 
ENDBRANCH  17  22
ENDBRANCH  13  16
ENDBRANCH   6  12
ENDBRANCH   1   5
BRANCH   2  24
ATOM     24  C   UNL     1       1.872   0.334  -0.293  1.00  0.00     0.039 A 
ATOM     25  C   UNL     1       2.835   1.349  -0.399  1.00  0.00     0.014 A 
ATOM     26  C   UNL     1       2.234  -0.987  -0.586  1.00  0.00     0.014 A 
ATOM     27  C   UNL     1       4.152   1.047  -0.759  1.00  0.00     0.013 A 
ATOM     28  C   UNL     1       3.552  -1.291  -0.942  1.00  0.00     0.013 A 
ATOM     29  C   UNL     1       4.518  -0.279  -1.008  1.00  0.00     0.023 A 
BRANCH  29  30
ATOM     30  C   UNL     1       5.899  -0.647  -1.403  1.00  0.00     0.196 C 
ATOM     31  O   UNL     1       6.067  -1.524  -2.249  1.00  0.00    -0.288 OA
BRANCH  30  32
ATOM     32  C   UNL     1       7.097   0.016  -0.830  1.00  0.00     0.071 A 
ATOM     33  C   UNL     1       7.091   0.513   0.485  1.00  0.00     0.062 A 
ATOM     34  C   UNL     1       8.262   0.110  -1.602  1.00  0.00     0.162 A 
ATOM     35  C   UNL     1       8.224   1.147   1.004  1.00  0.00     0.122 A 
ATOM     36  C   UNL     1       9.384   0.744  -1.076  1.00  0.00     0.169 A 
ATOM     37  C   UNL     1       9.368   1.263   0.214  1.00  0.00     0.089 A 
ATOM     38  F   UNL     1      10.503   0.860  -1.805  1.00  0.00    -0.203 F 
BRANCH  34  39
ATOM     39  O   UNL     1       8.348  -0.402  -2.871  1.00  0.00    -0.504 OA
ATOM     40  H   UNL     1       7.585  -1.008  -3.008  1.00  0.00     0.293 HD
ENDBRANCH  34  39
BRANCH  35  41
ATOM     41  O   UNL     1       8.340   1.681   2.258  1.00  0.00    -0.497 OA
ATOM     42  C   UNL     1       7.176   1.683   3.078  1.00  0.00     0.278 C 
ENDBRANCH  35  41
ENDBRANCH  30  32
ENDBRANCH  29  30
ENDBRANCH   2  24
TORSDOF 9
