MODEL        9USER    Run = 9USERUSER    Estimated Free Energy of Binding    =  -8.95 kcal/mol  [=(1)+(2)+(3)-(4)]USERUSER    (1) Final Intermolecular Energy     = -11.64 kcal/molUSER        vdW + Hbond + desolv Energy     = -11.48 kcal/molUSER        Electrostatic Energy            =  -0.15 kcal/molUSER        Moving Ligand-Fixed Receptor    = -11.64 kcal/molUSER        Moving Ligand-Moving Receptor   =  +0.00 kcal/molUSER    (2) Final Total Internal Energy     =  -1.29 kcal/molUSER    (3) Torsional Free Energy           =  +2.68 kcal/molUSER    (4) Unbound System's Energy         =  -1.29 kcal/molUSERUSERREMARK SMILES COc1ncc(C(=O)N[C@@H]2CN(C)CC[C@H]2NC(=O)c2ccc(C(=O)c3c(C)c(OC)cc(F)c3O)cc2)cn1REMARK SMILES IDX 17 1 18 2 19 3 16 5 10 6 11 7 12 8 15 9 14 10 13 11 9 12REMARK SMILES IDX 7 13 8 14 6 16 3 17 4 18 40 19 5 20 39 21 2 22 1 23 20 24REMARK SMILES IDX 21 25 38 26 22 27 37 28 23 29 24 30 25 31 26 32 27 33 35 34REMARK SMILES IDX 29 35 33 36 32 37 28 38 34 39 36 40 30 42 31 43REMARK H PARENT 17 4 9 15 36 41USER                              x       y       z     vdW  Elec       q    TypeUSER                           _______ _______ _______ _____ _____    ______ ____ROOTATOM      1  N   UNL     1      36.888  49.174  25.338 -0.25 -0.00    -0.347 N  ATOM      2  C   UNL     1      38.203  48.951  25.695 -0.21 +0.02    +0.251 C  ATOM      3  O   UNL     1      38.692  49.381  26.736 -0.15 -0.04    -0.269 OA ATOM      4  H   UNL     1      36.518  48.789  24.479 -0.13 -0.00    +0.164 HD ENDROOTBRANCH   1   5ATOM      5  C   UNL     1      36.036  50.057  26.131 -0.40 +0.00    +0.107 C  ATOM      6  C   UNL     1      36.411  50.019  27.647 -0.25 +0.01    +0.118 C  ATOM      7  C   UNL     1      37.056  51.366  28.066 -0.18 +0.04    +0.111 C  ATOM      8  N   UNL     1      36.292  52.581  27.736 -0.09 -0.11    -0.304 NA ATOM      9  C   UNL     1      36.028  51.474  25.545 -0.43 +0.00    +0.042 C  ATOM     10  C   UNL     1      35.434  52.447  26.557 -0.31 +0.02    +0.086 C  ATOM     11  C   UNL     1      35.541  53.093  28.881 -0.14 +0.03    +0.105 C  BRANCH   6  12ATOM     12  N   UNL     1      35.244  49.658  28.469 -0.10 -0.00    -0.346 N  ATOM     13  C   UNL     1      35.004  48.340  28.809 -0.27 -0.03    +0.254 C  ATOM     14  O   UNL     1      35.743  47.410  28.504 -0.30 +0.06    -0.269 OA ATOM     15  H   UNL     1      34.410  50.208  28.287 +0.08 +0.01    +0.164 HD BRANCH  13  16ATOM     16  C   UNL     1      33.774  48.067  29.571 -0.29 -0.00    +0.076 A  ATOM     17  C   UNL     1      31.457  47.659  30.914 -0.25 -0.01    +0.316 A  ATOM     18  N   UNL     1      31.971  48.901  30.933 -0.18 -0.00    -0.203 NA ATOM     19  N   UNL     1      31.998  46.606  30.279 -0.87 +0.00    -0.203 NA ATOM     20  C   UNL     1      33.126  49.078  30.249 -0.22 +0.00    +0.132 A  ATOM     21  C   UNL     1      33.149  46.840  29.611 -0.09 -0.00    +0.132 A  BRANCH  17  22ATOM     22  O   UNL     1      30.277  47.388  31.569 -0.23 +0.01    -0.467 OA ATOM     23  C   UNL     1      29.247  46.944  30.697 -0.48 +0.01    +0.282 C  ENDBRANCH  17  22ENDBRANCH  13  16ENDBRANCH   6  12ENDBRANCH   1   5BRANCH   2  24ATOM     24  C   UNL     1      39.017  48.128  24.759 -0.35 +0.00    +0.039 A  ATOM     25  C   UNL     1      38.447  46.961  24.232 -0.32 +0.00    +0.014 A  ATOM     26  C   UNL     1      40.333  48.468  24.421 -0.32 +0.00    +0.014 A  ATOM     27  C   UNL     1      39.175  46.160  23.347 -0.30 +0.00    +0.013 A  ATOM     28  C   UNL     1      41.062  47.666  23.536 -0.25 +0.00    +0.013 A  ATOM     29  C   UNL     1      40.478  46.519  22.981 -0.22 +0.00    +0.023 A  BRANCH  29  30ATOM     30  C   UNL     1      41.227  45.637  22.049 -0.20 +0.02    +0.197 C  ATOM     31  O   UNL     1      41.902  44.706  22.486 -0.11 -0.03    -0.288 OA BRANCH  30  32ATOM     32  C   UNL     1      41.282  45.910  20.594 -0.31 +0.01    +0.074 A  ATOM     33  C   UNL     1      40.269  45.503  19.698 -0.41 +0.00    +0.006 A  ATOM     34  C   UNL     1      42.396  46.623  20.130 -0.32 +0.03    +0.163 A  ATOM     35  C   UNL     1      40.337  45.936  18.354 -0.39 -0.01    +0.125 A  ATOM     36  C   UNL     1      42.448  47.021  18.800 -0.40 +0.01    +0.169 A  ATOM     37  C   UNL     1      41.423  46.699  17.917 -0.40 -0.01    +0.090 A  ATOM     38  C   UNL     1      39.120  44.627  20.135 -0.38 -0.00    +0.049 C  ATOM     39  F   UNL     1      43.488  47.736  18.347 -0.12 -0.02    -0.203 F  BRANCH  34  40ATOM     40  O   UNL     1      43.443  46.961  20.949 -0.19 -0.21    -0.504 OA ATOM     41  H   UNL     1      43.748  47.860  20.698 -0.37 +0.03    +0.293 HD ENDBRANCH  34  40BRANCH  35  42ATOM     42  O   UNL     1      39.283  45.564  17.558 -0.11 +0.08    -0.496 OA ATOM     43  C   UNL     1      38.674  46.570  16.755 -0.28 -0.09    +0.278 C  ENDBRANCH  35  42ENDBRANCH  30  32ENDBRANCH  29  30ENDBRANCH   2  24TORSDOF 9TERENDMDL