REMARK SMILES COc1cc(F)c(O)c(C(=O)c2ccc(C(=O)N[C@@H]3CCN(C)C[C@H]3NC(=O)c3cnc(SC)nc3)cc2)c1
REMARK SMILES IDX 16 1 17 2 18 3 15 5 12 6 13 7 38 8 14 9 37 10 10 11 11 12
REMARK SMILES IDX 9 13 3 14 4 15 39 16 5 17 7 18 6 19 2 20 1 21 8 22 19 24
REMARK SMILES IDX 20 25 25 26 21 27 24 28 22 29 23 30 26 31 27 32 28 34 29 35
REMARK SMILES IDX 30 36 36 37 31 38 35 39 32 40 33 41 34 42
REMARK H PARENT 18 4 8 23 26 33
ROOT
ATOM      1  C   UNL     1      -0.037  -0.858   0.432  1.00  0.00     0.251 C 
ATOM      2  O   UNL     1      -1.045  -0.493   1.030  1.00  0.00    -0.269 OA
ATOM      3  N   UNL     1       0.362  -2.175   0.360  1.00  0.00    -0.347 N 
ATOM      4  H   UNL     1       1.248  -2.395  -0.073  1.00  0.00     0.164 HD
ENDROOT
BRANCH   1   5
ATOM      5  C   UNL     1       0.824   0.140  -0.259  1.00  0.00     0.039 A 
ATOM      6  C   UNL     1       2.411   2.086  -1.500  1.00  0.00     0.023 A 
ATOM      7  C   UNL     1       1.667   2.415  -0.361  1.00  0.00     0.013 A 
ATOM      8  C   UNL     1       2.327   0.798  -2.041  1.00  0.00     0.013 A 
ATOM      9  C   UNL     1       0.877   1.441   0.257  1.00  0.00     0.014 A 
ATOM     10  C   UNL     1       1.538  -0.176  -1.421  1.00  0.00     0.014 A 
BRANCH   6  11
ATOM     11  C   UNL     1       3.246   3.091  -2.199  1.00  0.00     0.196 C 
ATOM     12  O   UNL     1       3.251   3.110  -3.429  1.00  0.00    -0.288 OA
BRANCH  11  13
ATOM     13  C   UNL     1       4.071   4.090  -1.474  1.00  0.00     0.071 A 
ATOM     14  C   UNL     1       5.367   4.767   0.475  1.00  0.00     0.122 A 
ATOM     15  C   UNL     1       5.639   5.991  -0.132  1.00  0.00     0.089 A 
ATOM     16  C   UNL     1       4.588   3.819  -0.199  1.00  0.00     0.062 A 
ATOM     17  C   UNL     1       5.148   6.250  -1.410  1.00  0.00     0.169 A 
ATOM     18  C   UNL     1       4.379   5.309  -2.092  1.00  0.00     0.162 A 
ATOM     19  F   UNL     1       5.441   7.428  -1.981  1.00  0.00    -0.203 F 
BRANCH  14  20
ATOM     20  O   UNL     1       5.798   4.370   1.711  1.00  0.00    -0.497 OA
ATOM     21  C   UNL     1       6.635   5.275   2.424  1.00  0.00     0.278 C 
ENDBRANCH  14  20
BRANCH  18  22
ATOM     22  O   UNL     1       3.953   5.622  -3.356  1.00  0.00    -0.504 OA
ATOM     23  H   UNL     1       3.618   4.800  -3.780  1.00  0.00     0.293 HD
ENDBRANCH  18  22
ENDBRANCH  11  13
ENDBRANCH   6  11
ENDBRANCH   1   5
BRANCH   3  24
ATOM     24  C   UNL     1      -0.354  -3.263   1.050  1.00  0.00     0.107 C 
ATOM     25  C   UNL     1       0.577  -4.478   1.222  1.00  0.00     0.042 C 
ATOM     26  C   UNL     1      -1.669  -3.685   0.342  1.00  0.00     0.118 C 
ATOM     27  C   UNL     1      -0.166  -5.815   1.304  1.00  0.00     0.086 C 
ATOM     28  C   UNL     1      -2.365  -4.814   1.150  1.00  0.00     0.111 C 
ATOM     29  N   UNL     1      -1.449  -5.630   1.972  1.00  0.00    -0.304 NA
ATOM     30  C   UNL     1      -2.070  -6.908   2.313  1.00  0.00     0.105 C 
BRANCH  26  31
ATOM     31  N   UNL     1      -2.578  -2.558   0.130  1.00  0.00    -0.346 N 
ATOM     32  C   UNL     1      -3.628  -2.621  -0.753  1.00  0.00     0.254 C 
ATOM     33  H   UNL     1      -2.309  -1.684   0.580  1.00  0.00     0.164 HD
ATOM     34  O   UNL     1      -3.887  -3.631  -1.400  1.00  0.00    -0.269 OA
BRANCH  32  35
ATOM     35  C   UNL     1      -4.454  -1.411  -0.929  1.00  0.00     0.076 A 
ATOM     36  C   UNL     1      -5.354  -1.340  -1.972  1.00  0.00     0.129 A 
ATOM     37  C   UNL     1      -4.436  -0.304  -0.109  1.00  0.00     0.129 A 
ATOM     38  N   UNL     1      -6.157  -0.277  -2.208  1.00  0.00    -0.230 NA
ATOM     39  N   UNL     1      -5.223   0.783  -0.294  1.00  0.00    -0.230 NA
ATOM     40  C   UNL     1      -6.059   0.751  -1.348  1.00  0.00     0.187 A 
BRANCH  40  41
ATOM     41  S   UNL     1      -7.105   2.149  -1.660  1.00  0.00    -0.090 SA
ATOM     42  C   UNL     1      -7.170   2.864   0.000  1.00  0.00     0.094 C 
ENDBRANCH  40  41
ENDBRANCH  32  35
ENDBRANCH  26  31
ENDBRANCH   3  24
TORSDOF 9
