REMARK SMILES NC(=O)Nc1ccc(Nc2nc3ccc(Cl)cc3s2)cc1C(F)(F)F
REMARK SMILES IDX 5 1 6 2 7 3 8 4 20 5 21 6 4 7 1 8 2 9 3 12 22 14 23 15 24 16
REMARK SMILES IDX 25 17 9 18 10 20 11 21 19 22 12 23 18 24 13 25 17 26 14 27
REMARK SMILES IDX 15 28 16 29
REMARK H PARENT 1 10 1 11 4 13 9 19
ROOT
ATOM      1  C   UNL     1      -3.006   0.383   0.041  1.00  0.00     0.055 A 
ATOM      2  C   UNL     1      -1.928   1.221  -0.282  1.00  0.00     0.029 A 
ATOM      3  C   UNL     1      -0.605   0.829  -0.052  1.00  0.00     0.028 A 
ATOM      4  C   UNL     1      -0.315  -0.414   0.503  1.00  0.00     0.041 A 
ATOM      5  C   UNL     1      -1.395  -1.267   0.776  1.00  0.00     0.041 A 
ATOM      6  C   UNL     1      -2.743  -0.905   0.528  1.00  0.00     0.081 A 
ENDROOT
BRANCH   1   7
ATOM      7  N   UNL     1      -4.290   0.924  -0.189  1.00  0.00    -0.308 N 
ATOM      8  N   UNL     1      -6.478   1.365   0.188  1.00  0.00    -0.351 N 
ATOM      9  C   UNL     1      -5.345   0.789   0.676  1.00  0.00     0.316 C 
ATOM     10  H   UNL     1      -6.658   1.193  -0.792  1.00  0.00     0.161 HD
ATOM     11  H   UNL     1      -7.279   1.172   0.778  1.00  0.00     0.161 HD
ATOM     12  O   UNL     1      -5.331   0.257   1.775  1.00  0.00    -0.249 OA
ATOM     13  H   UNL     1      -4.330   1.805  -0.684  1.00  0.00     0.171 HD
ENDBRANCH   1   7
BRANCH   6  14
ATOM     14  C   UNL     1      -3.780  -1.986   0.735  1.00  0.00     0.418 C 
ATOM     15  F   UNL     1      -4.926  -1.838   0.014  1.00  0.00    -0.166 F 
ATOM     16  F   UNL     1      -4.137  -2.159   2.036  1.00  0.00    -0.166 F 
ATOM     17  F   UNL     1      -3.299  -3.211   0.345  1.00  0.00    -0.166 F 
ENDBRANCH   6  14
BRANCH   4  18
ATOM     18  N   UNL     1       0.984  -0.896   0.745  1.00  0.00    -0.332 N 
ATOM     19  H   UNL     1       1.050  -1.424   1.610  1.00  0.00     0.169 HD
BRANCH  18  20
ATOM     20  C   UNL     1       2.183  -0.486   0.266  1.00  0.00     0.188 A 
ATOM     21  N   UNL     1       3.281  -0.664   0.967  1.00  0.00    -0.220 NA
ATOM     22  S   UNL     1       2.449   0.164  -1.310  1.00  0.00    -0.097 S 
ATOM     23  C   UNL     1       4.391  -0.219   0.273  1.00  0.00     0.084 A 
ATOM     24  C   UNL     1       4.135   0.277  -1.004  1.00  0.00     0.058 A 
ATOM     25  C   UNL     1       5.720  -0.234   0.743  1.00  0.00     0.031 A 
ATOM     26  C   UNL     1       5.158   0.763  -1.835  1.00  0.00     0.042 A 
ATOM     27  C   UNL     1       6.750   0.248  -0.072  1.00  0.00     0.023 A 
ATOM     28  C   UNL     1       6.465   0.738  -1.342  1.00  0.00     0.042 A 
ATOM     29  Cl  UNL     1       7.747   1.327  -2.330  1.00  0.00    -0.084 Cl
ENDBRANCH  18  20
ENDBRANCH   4  18
TORSDOF 4
