MODEL        4USER    Run = 4USERUSER    Estimated Free Energy of Binding    =  -7.92 kcal/mol  [=(1)+(2)+(3)-(4)]USERUSER    (1) Final Intermolecular Energy     =  -9.42 kcal/molUSER        vdW + Hbond + desolv Energy     =  -9.28 kcal/molUSER        Electrostatic Energy            =  -0.13 kcal/molUSER        Moving Ligand-Fixed Receptor    =  -9.42 kcal/molUSER        Moving Ligand-Moving Receptor   =  +0.00 kcal/molUSER    (2) Final Total Internal Energy     =  -1.22 kcal/molUSER    (3) Torsional Free Energy           =  +1.49 kcal/molUSER    (4) Unbound System's Energy         =  -1.22 kcal/molUSERUSERREMARK SMILES NC(=O)Nc1ccc(Nc2nc3ccc(F)cc3s2)cc1OC(F)FREMARK SMILES IDX 5 1 6 2 7 3 8 4 20 5 21 6 4 7 1 8 2 9 3 12 22 14 23 15 24 16REMARK SMILES IDX 25 17 9 18 10 20 11 21 19 22 12 23 18 24 13 25 17 26 14 27REMARK SMILES IDX 15 28 16 29REMARK H PARENT 1 10 1 11 4 13 9 19USER                              x       y       z     vdW  Elec       q    TypeUSER                           _______ _______ _______ _____ _____    ______ ____ROOTATOM      1  C   UNL     1      39.216  48.040  15.217 -0.46 -0.03    +0.085 A  ATOM      2  C   UNL     1      39.469  47.547  16.492 -0.45 -0.01    +0.032 A  ATOM      3  C   UNL     1      38.591  46.628  17.088 -0.38 -0.01    +0.028 A  ATOM      4  C   UNL     1      37.452  46.162  16.423 -0.35 -0.02    +0.044 A  ATOM      5  C   UNL     1      37.197  46.677  15.142 -0.35 -0.04    +0.075 A  ATOM      6  C   UNL     1      38.055  47.617  14.557 -0.38 -0.07    +0.151 A  ENDROOTBRANCH   1   7ATOM      7  N   UNL     1      40.065  48.937  14.538 -0.29 +0.11    -0.305 N  ATOM      8  N   UNL     1      41.823  50.268  14.034 -0.38 +0.09    -0.351 N  ATOM      9  C   UNL     1      41.210  49.523  14.999 -0.45 -0.06    +0.316 C  ATOM     10  H   UNL     1      42.720  50.623  14.345 +0.04 -0.03    +0.161 HD ATOM     11  H   UNL     1      41.849  49.866  13.108 +0.12 -0.04    +0.161 HD ATOM     12  O   UNL     1      41.694  49.461  16.118 -1.05 -0.03    -0.249 OA ATOM     13  H   UNL     1      39.739  49.251  13.633 -0.06 -0.07    +0.171 HD ENDBRANCH   1   7BRANCH   6  14ATOM     14  O   UNL     1      37.805  48.119  13.303 -0.66 +0.11    -0.433 OA BRANCH  14  15ATOM     15  C   UNL     1      36.676  47.481  12.717 -0.25 -0.22    +0.542 C  ATOM     16  F   UNL     1      37.074  46.852  11.582 -0.27 +0.05    -0.167 F  ATOM     17  F   UNL     1      35.820  48.463  12.337 -0.27 +0.09    -0.167 F  ENDBRANCH  14  15ENDBRANCH   6  14BRANCH   4  18ATOM     18  N   UNL     1      36.536  45.244  16.966 -0.12 +0.14    -0.331 N  ATOM     19  H   UNL     1      35.751  45.028  16.363 +0.12 -0.09    +0.169 HD BRANCH  18  20ATOM     20  C   UNL     1      36.591  44.557  18.134 -0.21 -0.05    +0.188 A  ATOM     21  N   UNL     1      37.372  44.787  19.164 -0.22 +0.03    -0.220 NA ATOM     22  S   UNL     1      35.514  43.220  18.346 -0.44 +0.02    -0.097 S  ATOM     23  C   UNL     1      37.140  43.881  20.179 -0.33 -0.00    +0.084 A  ATOM     24  C   UNL     1      36.149  42.934  19.917 -0.38 -0.00    +0.059 A  ATOM     25  C   UNL     1      37.808  43.842  21.421 -0.35 +0.00    +0.033 A  ATOM     26  C   UNL     1      35.798  41.946  20.850 -0.43 +0.00    +0.060 A  ATOM     27  C   UNL     1      37.467  42.863  22.360 -0.38 +0.00    +0.041 A  ATOM     28  C   UNL     1      36.477  41.937  22.067 -0.44 +0.01    +0.124 A  ATOM     29  F   UNL     1      36.164  41.007  22.978 -0.20 +0.00    -0.207 F  ENDBRANCH  18  20ENDBRANCH   4  18TORSDOF 5TERENDMDL