MODEL        8USER    Run = 8USERUSER    Estimated Free Energy of Binding    =  -8.85 kcal/mol  [=(1)+(2)+(3)-(4)]USERUSER    (1) Final Intermolecular Energy     = -10.04 kcal/molUSER        vdW + Hbond + desolv Energy     =  -9.94 kcal/molUSER        Electrostatic Energy            =  -0.10 kcal/molUSER        Moving Ligand-Fixed Receptor    = -10.04 kcal/molUSER        Moving Ligand-Moving Receptor   =  +0.00 kcal/molUSER    (2) Final Total Internal Energy     =  -0.14 kcal/molUSER    (3) Torsional Free Energy           =  +1.19 kcal/molUSER    (4) Unbound System's Energy         =  -0.14 kcal/molUSERUSERREMARK SMILES NC(=O)Nc1ccc(Nc2nc3ccc(Cl)cc3s2)cc1C(F)(F)FREMARK SMILES IDX 5 1 6 2 7 3 8 4 20 5 21 6 4 7 1 8 2 9 3 12 22 14 23 15 24 16REMARK SMILES IDX 25 17 9 18 10 20 11 21 19 22 12 23 18 24 13 25 17 26 14 27REMARK SMILES IDX 15 28 16 29REMARK H PARENT 1 10 1 11 4 13 9 19USER                              x       y       z     vdW  Elec       q    TypeUSER                           _______ _______ _______ _____ _____    ______ ____ROOTATOM      1  C   UNL     1      38.930  47.928  16.059 -0.42 -0.03    +0.055 A  ATOM      2  C   UNL     1      39.561  47.358  17.176 -0.41 -0.01    +0.029 A  ATOM      3  C   UNL     1      39.051  46.214  17.797 -0.40 -0.01    +0.028 A  ATOM      4  C   UNL     1      37.897  45.598  17.321 -0.35 -0.01    +0.041 A  ATOM      5  C   UNL     1      37.300  46.142  16.174 -0.35 -0.02    +0.041 A  ATOM      6  C   UNL     1      37.812  47.285  15.510 -0.38 -0.04    +0.081 A  ENDROOTBRANCH   1   7ATOM      7  N   UNL     1      39.517  49.113  15.565 -0.29 +0.16    -0.308 N  ATOM      8  N   UNL     1      41.060  50.754  15.343 -0.33 +0.14    -0.351 N  ATOM      9  C   UNL     1      40.759  49.564  15.930 -0.38 -0.08    +0.316 C  ATOM     10  H   UNL     1      40.308  51.430  15.333 -0.43 -0.11    +0.161 HD ATOM     11  H   UNL     1      41.930  51.136  15.695 -0.38 -0.04    +0.161 HD ATOM     12  O   UNL     1      41.559  49.002  16.662 -1.02 -0.02    -0.249 OA ATOM     13  H   UNL     1      39.300  49.364  14.610 -0.22 -0.11    +0.171 HD ENDBRANCH   1   7BRANCH   6  14ATOM     14  C   UNL     1      37.145  47.661  14.206 -0.25 -0.24    +0.418 C  ATOM     15  F   UNL     1      35.917  47.111  14.001 -0.15 +0.12    -0.166 F  ATOM     16  F   UNL     1      37.901  47.390  13.108 -0.19 +0.04    -0.166 F  ATOM     17  F   UNL     1      36.918  49.013  14.140 -0.22 +0.12    -0.166 F  ENDBRANCH   6  14BRANCH   4  18ATOM     18  N   UNL     1      37.330  44.433  17.870 -0.13 +0.07    -0.332 N  ATOM     19  H   UNL     1      36.645  44.005  17.255 +0.11 -0.05    +0.169 HD BRANCH  18  20ATOM     20  C   UNL     1      37.245  44.011  19.155 -0.20 -0.02    +0.188 A  ATOM     21  N   UNL     1      36.602  42.905  19.456 -0.16 +0.02    -0.220 NA ATOM     22  S   UNL     1      38.049  44.748  20.493 -0.44 +0.00    -0.097 S  ATOM     23  C   UNL     1      36.682  42.637  20.810 -0.39 +0.00    +0.084 A  ATOM     24  C   UNL     1      37.436  43.544  21.553 -0.35 +0.00    +0.058 A  ATOM     25  C   UNL     1      36.081  41.548  21.473 -0.49 +0.00    +0.031 A  ATOM     26  C   UNL     1      37.614  43.406  22.939 -0.34 +0.00    +0.042 A  ATOM     27  C   UNL     1      36.248  41.398  22.854 -0.45 +0.00    +0.023 A  ATOM     28  C   UNL     1      37.005  42.319  23.570 -0.41 +0.00    +0.042 A  ATOM     29  Cl  UNL     1      37.199  42.117  25.270 -0.54 +0.00    -0.084 Cl ENDBRANCH  18  20ENDBRANCH   4  18TORSDOF 4TERENDMDL