REMARK SMILES NC(=O)Nc1ccc(Nc2nc3ccc(F)cc3s2)cc1OC(F)F
REMARK SMILES IDX 5 1 6 2 7 3 8 4 20 5 21 6 4 7 1 8 2 9 3 12 22 14 23 15 24 16
REMARK SMILES IDX 25 17 9 18 10 20 11 21 19 22 12 23 18 24 13 25 17 26 14 27
REMARK SMILES IDX 15 28 16 29
REMARK H PARENT 1 10 1 11 4 13 9 19
ROOT
ATOM      1  C   UNL     1      -2.529  -0.198  -1.341  1.00  0.00     0.085 A 
ATOM      2  C   UNL     1      -1.464   0.692  -1.257  1.00  0.00     0.032 A 
ATOM      3  C   UNL     1      -0.302   0.348  -0.547  1.00  0.00     0.028 A 
ATOM      4  C   UNL     1      -0.164  -0.896   0.078  1.00  0.00     0.044 A 
ATOM      5  C   UNL     1      -1.250  -1.782  -0.001  1.00  0.00     0.075 A 
ATOM      6  C   UNL     1      -2.422  -1.429  -0.682  1.00  0.00     0.151 A 
ENDROOT
BRANCH   1   7
ATOM      7  N   UNL     1      -3.713   0.059  -2.061  1.00  0.00    -0.305 N 
ATOM      8  N   UNL     1      -5.268   1.085  -3.343  1.00  0.00    -0.351 N 
ATOM      9  C   UNL     1      -4.098   1.227  -2.656  1.00  0.00     0.316 C 
ATOM     10  H   UNL     1      -5.504   1.922  -3.863  1.00  0.00     0.161 HD
ATOM     11  H   UNL     1      -5.371   0.236  -3.881  1.00  0.00     0.161 HD
ATOM     12  O   UNL     1      -3.543   2.314  -2.619  1.00  0.00    -0.249 OA
ATOM     13  H   UNL     1      -4.397  -0.686  -2.062  1.00  0.00     0.171 HD
ENDBRANCH   1   7
BRANCH   6  14
ATOM     14  O   UNL     1      -3.484  -2.298  -0.759  1.00  0.00    -0.433 OA
BRANCH  14  15
ATOM     15  C   UNL     1      -4.024  -2.555   0.532  1.00  0.00     0.542 C 
ATOM     16  F   UNL     1      -3.357  -3.602   1.080  1.00  0.00    -0.167 F 
ATOM     17  F   UNL     1      -5.305  -2.963   0.351  1.00  0.00    -0.167 F 
ENDBRANCH  14  15
ENDBRANCH   6  14
BRANCH   4  18
ATOM     18  N   UNL     1       0.973  -1.298   0.802  1.00  0.00    -0.331 N 
ATOM     19  H   UNL     1       0.961  -2.267   1.097  1.00  0.00     0.169 HD
BRANCH  18  20
ATOM     20  C   UNL     1       2.101  -0.605   1.092  1.00  0.00     0.188 A 
ATOM     21  N   UNL     1       2.362   0.653   0.823  1.00  0.00    -0.220 NA
ATOM     22  S   UNL     1       3.372  -1.429   1.929  1.00  0.00    -0.097 S 
ATOM     23  C   UNL     1       3.615   1.012   1.278  1.00  0.00     0.084 A 
ATOM     24  C   UNL     1       4.329  -0.002   1.917  1.00  0.00     0.059 A 
ATOM     25  C   UNL     1       4.207   2.286   1.150  1.00  0.00     0.033 A 
ATOM     26  C   UNL     1       5.617   0.207   2.435  1.00  0.00     0.060 A 
ATOM     27  C   UNL     1       5.490   2.508   1.662  1.00  0.00     0.041 A 
ATOM     28  C   UNL     1       6.172   1.477   2.291  1.00  0.00     0.124 A 
ATOM     29  F   UNL     1       7.399   1.708   2.776  1.00  0.00    -0.207 F 
ENDBRANCH  18  20
ENDBRANCH   4  18
TORSDOF 5
