
     RDKit          3D

 73 78  0  0  0  0  0  0  0  0999 V2000
   -5.2590   -4.5785    5.7986 C   0  0  0  0  0  0  0  0  0  0  0  0
   -5.6366   -3.4769    4.8430 C   0  0  0  0  0  0  0  0  0  0  0  0
   -6.7464   -2.9501    4.8836 O   0  0  0  0  0  0  0  0  0  0  0  0
   -4.6458   -3.0264    3.8318 C   0  0  0  0  0  0  0  0  0  0  0  0
   -3.4071   -3.6207    3.6832 C   0  0  0  0  0  0  0  0  0  0  0  0
   -2.4887   -3.2263    2.7717 N   0  0  0  0  0  0  0  0  0  0  0  0
   -2.8008   -2.1885    1.9400 C   0  0  0  0  0  0  0  0  0  0  0  0
   -1.7266   -1.8771    0.9735 C   0  0  0  0  0  0  0  0  0  0  0  0
   -0.4071   -1.6873    1.4207 C   0  0  0  0  0  0  0  0  0  0  0  0
    0.6295   -1.3944    0.5292 C   0  0  0  0  0  0  0  0  0  0  0  0
    0.3768   -1.2969   -0.8435 C   0  0  0  0  0  0  0  0  0  0  0  0
    1.4906   -0.9716   -1.8102 C   0  0  0  0  0  0  0  0  0  0  0  0
    1.4447    0.4383   -2.1887 N   0  0  0  0  0  0  0  0  0  0  0  0
    2.5167    0.8100   -3.1099 C   0  0  0  0  0  0  0  0  0  0  0  0
    3.8821    0.8520   -2.4642 C   0  0  0  0  0  0  0  0  0  0  0  0
    4.2128    1.8706   -1.5612 C   0  0  0  0  0  0  0  0  0  0  0  0
    5.4687    1.8968   -0.9456 C   0  0  0  0  0  0  0  0  0  0  0  0
    6.4221    0.9081   -1.2218 C   0  0  0  0  0  0  0  0  0  0  0  0
    7.7187    0.9407   -0.5662 C   0  0  0  0  0  0  0  0  0  0  0  0
    8.1073    1.4675    0.6886 C   0  0  0  0  0  0  0  0  0  0  0  0
    9.4112    1.3138    0.9350 N   0  0  0  0  0  0  0  0  0  0  0  0
    9.8654    0.6892   -0.1653 N   0  0  0  0  0  0  0  0  0  0  0  0
   11.2651    0.3561   -0.2645 C   0  0  0  0  0  0  0  0  0  0  0  0
    8.8941    0.4442   -1.0927 C   0  0  0  0  0  0  0  0  0  0  0  0
    6.0907   -0.1084   -2.1271 C   0  0  0  0  0  0  0  0  0  0  0  0
    4.8344   -0.1365   -2.7420 C   0  0  0  0  0  0  0  0  0  0  0  0
   -0.9320   -1.4852   -1.3024 C   0  0  0  0  0  0  0  0  0  0  0  0
   -1.9657   -1.7817   -0.4072 C   0  0  0  0  0  0  0  0  0  0  0  0
   -4.0314   -1.5050    2.0202 C   0  0  0  0  0  0  0  0  0  0  0  0
   -4.3921   -0.3439    1.1865 C   0  0  0  0  0  0  0  0  0  0  0  0
   -5.5241   -0.3769    0.3584 C   0  0  0  0  0  0  0  0  0  0  0  0
   -5.8755    0.7263   -0.4291 C   0  0  0  0  0  0  0  0  0  0  0  0
   -5.1055    1.8940   -0.4204 C   0  0  0  0  0  0  0  0  0  0  0  0
   -5.4641    3.0063   -1.2078 N   0  0  0  0  0  0  0  0  0  0  0  0
   -4.5903    4.0366   -1.6949 C   0  0  0  0  0  0  0  0  0  0  0  0
   -5.7194    4.4193   -2.6572 C   0  0  0  0  0  0  0  0  0  0  0  0
   -6.2383    2.9980   -2.4171 C   0  0  0  0  0  0  0  0  0  0  0  0
   -3.9871    1.9356    0.4191 C   0  0  0  0  0  0  0  0  0  0  0  0
   -3.6349    0.8356    1.2113 C   0  0  0  0  0  0  0  0  0  0  0  0
   -4.9510   -1.9563    2.9881 C   0  0  0  0  0  0  0  0  0  0  0  0
   -6.0788   -4.7360    6.5067 H   0  0  0  0  0  0  0  0  0  0  0  0
   -5.0938   -5.5109    5.2530 H   0  0  0  0  0  0  0  0  0  0  0  0
   -4.3707   -4.2982    6.3707 H   0  0  0  0  0  0  0  0  0  0  0  0
   -3.0818   -4.4570    4.2936 H   0  0  0  0  0  0  0  0  0  0  0  0
   -0.1821   -1.7708    2.4827 H   0  0  0  0  0  0  0  0  0  0  0  0
    1.6355   -1.2483    0.9160 H   0  0  0  0  0  0  0  0  0  0  0  0
    2.4481   -1.2309   -1.3440 H   0  0  0  0  0  0  0  0  0  0  0  0
    1.3851   -1.6116   -2.6948 H   0  0  0  0  0  0  0  0  0  0  0  0
    1.5064    1.0057   -1.3460 H   0  0  0  0  0  0  0  0  0  0  0  0
    2.2981    1.8089   -3.5078 H   0  0  0  0  0  0  0  0  0  0  0  0
    2.5195    0.1467   -3.9840 H   0  0  0  0  0  0  0  0  0  0  0  0
    3.4928    2.6534   -1.3315 H   0  0  0  0  0  0  0  0  0  0  0  0
    5.6919    2.7081   -0.2567 H   0  0  0  0  0  0  0  0  0  0  0  0
    7.4921    1.9520    1.4357 H   0  0  0  0  0  0  0  0  0  0  0  0
   11.5147   -0.3277    0.5505 H   0  0  0  0  0  0  0  0  0  0  0  0
   11.8458    1.2783   -0.1851 H   0  0  0  0  0  0  0  0  0  0  0  0
   11.4577   -0.1237   -1.2270 H   0  0  0  0  0  0  0  0  0  0  0  0
    9.1207   -0.0405   -2.0317 H   0  0  0  0  0  0  0  0  0  0  0  0
    6.7982   -0.9018   -2.3547 H   0  0  0  0  0  0  0  0  0  0  0  0
    4.6029   -0.9432   -3.4343 H   0  0  0  0  0  0  0  0  0  0  0  0
   -1.1535   -1.3979   -2.3639 H   0  0  0  0  0  0  0  0  0  0  0  0
   -2.9660   -1.9380   -0.8047 H   0  0  0  0  0  0  0  0  0  0  0  0
   -6.1481   -1.2675    0.3160 H   0  0  0  0  0  0  0  0  0  0  0  0
   -6.7661    0.6631   -1.0482 H   0  0  0  0  0  0  0  0  0  0  0  0
   -4.3355    4.7864   -0.9427 H   0  0  0  0  0  0  0  0  0  0  0  0
   -3.6887    3.6393   -2.1730 H   0  0  0  0  0  0  0  0  0  0  0  0
   -5.4151    4.6494   -3.6811 H   0  0  0  0  0  0  0  0  0  0  0  0
   -6.3809    5.2099   -2.2854 H   0  0  0  0  0  0  0  0  0  0  0  0
   -5.8924    2.2504   -3.1387 H   0  0  0  0  0  0  0  0  0  0  0  0
   -7.3139    2.9090   -2.2483 H   0  0  0  0  0  0  0  0  0  0  0  0
   -3.3744    2.8313    0.4706 H   0  0  0  0  0  0  0  0  0  0  0  0
   -2.7575    0.9131    1.8503 H   0  0  0  0  0  0  0  0  0  0  0  0
   -5.9115   -1.4516    3.0940 H   0  0  0  0  0  0  0  0  0  0  0  0
  1  2  1  0
  2  3  2  0
  2  4  1  0
  4  5  2  0
  5  6  1  0
  6  7  2  0
  7  8  1  0
  8  9  2  0
  9 10  1  0
 10 11  2  0
 11 12  1  0
 12 13  1  0
 13 14  1  0
 14 15  1  0
 15 16  2  0
 16 17  1  0
 17 18  2  0
 18 19  1  0
 19 20  1  0
 20 21  2  0
 21 22  1  0
 22 23  1  0
 22 24  1  0
 18 25  1  0
 25 26  2  0
 11 27  1  0
 27 28  2  0
  7 29  1  0
 29 30  1  0
 30 31  2  0
 31 32  1  0
 32 33  2  0
 33 34  1  0
 34 35  1  0
 35 36  1  0
 36 37  1  0
 33 38  1  0
 38 39  2  0
 29 40  2  0
 40  4  1  0
 28  8  1  0
 39 30  1  0
 26 15  1  0
 37 34  1  0
 24 19  2  0
  1 41  1  0
  1 42  1  0
  1 43  1  0
  5 44  1  0
  9 45  1  0
 10 46  1  0
 12 47  1  0
 12 48  1  0
 13 49  1  0
 14 50  1  0
 14 51  1  0
 16 52  1  0
 17 53  1  0
 20 54  1  0
 23 55  1  0
 23 56  1  0
 23 57  1  0
 24 58  1  0
 25 59  1  0
 26 60  1  0
 27 61  1  0
 28 62  1  0
 31 63  1  0
 32 64  1  0
 35 65  1  0
 35 66  1  0
 36 67  1  0
 36 68  1  0
 37 69  1  0
 37 70  1  0
 38 71  1  0
 39 72  1  0
 40 73  1  0
M  END
$$$$
