
     RDKit          3D

 74 80  0  0  0  0  0  0  0  0999 V2000
   11.8493    1.4119    1.7927 O   0  0  0  0  0  0  0  0  0  0  0  0
   11.0817    0.6652    0.8755 C   0  0  0  0  0  0  0  0  0  0  0  0
   10.6295    1.5505   -0.1844 N   0  0  0  0  0  0  0  0  0  0  0  0
    9.6416    2.5421    0.3113 C   0  0  0  0  0  0  0  0  0  0  0  0
    8.2550    1.9686    0.6915 C   0  0  0  0  0  0  0  0  0  0  0  0
    7.6921    1.1959   -0.4366 N   0  0  0  0  0  0  0  0  0  0  0  0
    6.3893    0.7282   -0.1985 C   0  0  0  0  0  0  0  0  0  0  0  0
    5.6312    0.2215   -1.2501 C   0  0  0  0  0  0  0  0  0  0  0  0
    4.3259   -0.2021   -1.0480 C   0  0  0  0  0  0  0  0  0  0  0  0
    3.6095   -0.6783   -2.0845 N   0  0  0  0  0  0  0  0  0  0  0  0
    2.3319   -1.0509   -1.8198 C   0  0  0  0  0  0  0  0  0  0  0  0
    1.7558   -0.9721   -0.5574 C   0  0  0  0  0  0  0  0  0  0  0  0
    0.3568   -1.3417   -0.2660 C   0  0  0  0  0  0  0  0  0  0  0  0
   -0.3424   -0.7264    0.7911 C   0  0  0  0  0  0  0  0  0  0  0  0
   -1.6825   -1.0278    1.0649 C   0  0  0  0  0  0  0  0  0  0  0  0
   -2.3711   -1.9623    0.2853 C   0  0  0  0  0  0  0  0  0  0  0  0
   -3.8292   -2.2651    0.5326 C   0  0  0  0  0  0  0  0  0  0  0  0
   -4.7303   -1.5935   -0.4196 N   0  0  0  0  0  0  0  0  0  0  0  0
   -4.7880   -0.1365   -0.2829 C   0  0  0  0  0  0  0  0  0  0  0  0
   -5.5116    0.3487    0.9682 C   0  0  0  0  0  0  0  0  0  0  0  0
   -6.8458   -0.3585    1.2455 C   0  0  0  0  0  0  0  0  0  0  0  0
   -8.0266    0.4172    0.8704 N   0  0  0  0  0  0  0  0  0  0  0  0
   -8.9175    0.9242    1.7890 C   0  0  0  0  0  0  0  0  0  0  0  0
   -8.8222    0.7688    3.0949 O   0  0  0  0  0  0  0  0  0  0  0  0
   -9.8996    1.5937    1.2584 N   0  0  0  0  0  0  0  0  0  0  0  0
   -9.6514    1.5316   -0.0809 C   0  0  0  0  0  0  0  0  0  0  0  0
  -10.4353    2.1062   -1.0196 N   0  0  0  0  0  0  0  0  0  0  0  0
  -10.0199    1.9263   -2.2867 C   0  0  0  0  0  0  0  0  0  0  0  0
   -8.8905    1.2179   -2.6679 C   0  0  0  0  0  0  0  0  0  0  0  0
   -8.0875    0.6280   -1.6927 C   0  0  0  0  0  0  0  0  0  0  0  0
   -8.4914    0.8009   -0.3680 C   0  0  0  0  0  0  0  0  0  0  0  0
   -6.8957   -1.8356    0.8283 C   0  0  0  0  0  0  0  0  0  0  0  0
   -6.0750   -2.1741   -0.4117 C   0  0  0  0  0  0  0  0  0  0  0  0
   -1.6774   -2.5961   -0.7456 C   0  0  0  0  0  0  0  0  0  0  0  0
   -2.2898   -3.5222   -1.4971 F   0  0  0  0  0  0  0  0  0  0  0  0
   -0.3406   -2.3000   -1.0191 C   0  0  0  0  0  0  0  0  0  0  0  0
    2.4851   -0.4986    0.4847 N   0  0  0  0  0  0  0  0  0  0  0  0
    3.7617   -0.1158    0.2337 C   0  0  0  0  0  0  0  0  0  0  0  0
    4.5832    0.3985    1.2164 C   0  0  0  0  0  0  0  0  0  0  0  0
    5.8605    0.8201    1.0355 N   0  0  0  0  0  0  0  0  0  0  0  0
    8.6109    0.1607   -0.9484 C   0  0  0  0  0  0  0  0  0  0  0  0
    9.9933    0.7797   -1.2787 C   0  0  0  0  0  0  0  0  0  0  0  0
   12.2958    2.0647    1.2258 H   0  0  0  0  0  0  0  0  0  0  0  0
   11.7432   -0.1088    0.4709 H   0  0  0  0  0  0  0  0  0  0  0  0
   10.2776    0.1595    1.4190 H   0  0  0  0  0  0  0  0  0  0  0  0
    9.4985    3.2876   -0.4836 H   0  0  0  0  0  0  0  0  0  0  0  0
   10.0509    3.1002    1.1615 H   0  0  0  0  0  0  0  0  0  0  0  0
    8.3470    1.3438    1.5888 H   0  0  0  0  0  0  0  0  0  0  0  0
    7.5977    2.8133    0.9322 H   0  0  0  0  0  0  0  0  0  0  0  0
    6.0357    0.1937   -2.2540 H   0  0  0  0  0  0  0  0  0  0  0  0
    1.7789   -1.3989   -2.6848 H   0  0  0  0  0  0  0  0  0  0  0  0
    0.1585    0.0171    1.4111 H   0  0  0  0  0  0  0  0  0  0  0  0
   -2.1839   -0.5135    1.8813 H   0  0  0  0  0  0  0  0  0  0  0  0
   -3.9442   -3.3544    0.4466 H   0  0  0  0  0  0  0  0  0  0  0  0
   -4.0874   -2.0307    1.5724 H   0  0  0  0  0  0  0  0  0  0  0  0
   -5.2725    0.2795   -1.1700 H   0  0  0  0  0  0  0  0  0  0  0  0
   -3.7835    0.2998   -0.3118 H   0  0  0  0  0  0  0  0  0  0  0  0
   -4.8509    0.1730    1.8277 H   0  0  0  0  0  0  0  0  0  0  0  0
   -5.6466    1.4362    0.9164 H   0  0  0  0  0  0  0  0  0  0  0  0
   -6.9037   -0.3929    2.3430 H   0  0  0  0  0  0  0  0  0  0  0  0
   -9.6203    1.2392    3.4028 H   0  0  0  0  0  0  0  0  0  0  0  0
  -10.6528    2.3917   -3.0392 H   0  0  0  0  0  0  0  0  0  0  0  0
   -8.6367    1.1248   -3.7195 H   0  0  0  0  0  0  0  0  0  0  0  0
   -7.2083    0.0746   -1.9828 H   0  0  0  0  0  0  0  0  0  0  0  0
   -6.5030   -2.4352    1.6610 H   0  0  0  0  0  0  0  0  0  0  0  0
   -7.9306   -2.1694    0.6865 H   0  0  0  0  0  0  0  0  0  0  0  0
   -6.6082   -1.8479   -1.3089 H   0  0  0  0  0  0  0  0  0  0  0  0
   -6.0145   -3.2650   -0.5186 H   0  0  0  0  0  0  0  0  0  0  0  0
    0.1344   -2.8457   -1.8288 H   0  0  0  0  0  0  0  0  0  0  0  0
    4.2110    0.4969    2.2325 H   0  0  0  0  0  0  0  0  0  0  0  0
    8.2259   -0.2933   -1.8692 H   0  0  0  0  0  0  0  0  0  0  0  0
    8.7291   -0.6418   -0.2085 H   0  0  0  0  0  0  0  0  0  0  0  0
    9.8668    1.4608   -2.1328 H   0  0  0  0  0  0  0  0  0  0  0  0
   10.6733   -0.0076   -1.6308 H   0  0  0  0  0  0  0  0  0  0  0  0
  1  2  1  0
  2  3  1  0
  3  4  1  0
  4  5  1  0
  5  6  1  0
  6  7  1  0
  7  8  2  0
  8  9  1  0
  9 10  2  0
 10 11  1  0
 11 12  2  0
 12 13  1  0
 13 14  2  0
 14 15  1  0
 15 16  2  0
 16 17  1  0
 17 18  1  0
 18 19  1  0
 19 20  1  0
 20 21  1  0
 21 22  1  0
 22 23  1  0
 23 24  1  0
 23 25  2  0
 25 26  1  0
 26 27  2  0
 27 28  1  0
 28 29  2  0
 29 30  1  0
 30 31  2  0
 21 32  1  0
 32 33  1  0
 16 34  1  0
 34 35  1  0
 34 36  2  0
 12 37  1  0
 37 38  2  0
 38 39  1  0
 39 40  2  0
  6 41  1  0
 41 42  1  0
 42  3  1  0
 40  7  1  0
 38  9  1  0
 36 13  1  0
 33 18  1  0
 31 22  1  0
 31 26  1  0
  1 43  1  0
  2 44  1  0
  2 45  1  0
  4 46  1  0
  4 47  1  0
  5 48  1  0
  5 49  1  0
  8 50  1  0
 11 51  1  0
 14 52  1  0
 15 53  1  0
 17 54  1  0
 17 55  1  0
 19 56  1  0
 19 57  1  0
 20 58  1  0
 20 59  1  0
 21 60  1  0
 24 61  1  0
 28 62  1  0
 29 63  1  0
 30 64  1  0
 32 65  1  0
 32 66  1  0
 33 67  1  0
 33 68  1  0
 36 69  1  0
 39 70  1  0
 41 71  1  0
 41 72  1  0
 42 73  1  0
 42 74  1  0
M  END
$$$$
