
     RDKit          3D

 67 73  0  0  0  0  0  0  0  0999 V2000
   -6.5744    1.4194   -2.7679 C   0  0  0  0  0  0  0  0  0  0  0  0
   -6.4320    0.0184   -2.4302 N   0  0  0  0  0  0  0  0  0  0  0  0
   -7.1054   -0.9429   -3.1477 C   0  0  0  0  0  0  0  0  0  0  0  0
   -6.4605   -2.1354   -2.9568 C   0  0  0  0  0  0  0  0  0  0  0  0
   -5.3955   -1.8984   -2.0488 C   0  0  0  0  0  0  0  0  0  0  0  0
   -4.3706   -2.7331   -1.5745 C   0  0  0  0  0  0  0  0  0  0  0  0
   -3.4256   -2.2315   -0.6853 C   0  0  0  0  0  0  0  0  0  0  0  0
   -3.5483   -0.9312   -0.1740 C   0  0  0  0  0  0  0  0  0  0  0  0
   -2.5637   -0.4696    0.7563 C   0  0  0  0  0  0  0  0  0  0  0  0
   -1.4176   -1.0761    1.2227 N   0  0  0  0  0  0  0  0  0  0  0  0
   -0.7309   -0.2725    2.1008 C   0  0  0  0  0  0  0  0  0  0  0  0
    0.4814   -0.5136    2.7796 C   0  0  0  0  0  0  0  0  0  0  0  0
    1.2857   -1.7833    2.6410 C   0  0  0  0  0  0  0  0  0  0  0  0
    2.0161   -1.9182    1.3004 C   0  0  0  0  0  0  0  0  0  0  0  0
    3.0773   -0.8350    1.0835 C   0  0  0  0  0  0  0  0  0  0  0  0
    3.7919   -1.1052   -0.1663 N   0  0  0  0  0  0  0  0  0  0  0  0
    4.7786   -0.0658   -0.4926 C   0  0  1  0  0  0  0  0  0  0  0  0
    6.0921   -0.2085    0.3063 C   0  0  0  0  0  0  0  0  0  0  0  0
    7.1531   -1.0021   -0.4537 C   0  0  0  0  0  0  0  0  0  0  0  0
    7.5213   -0.3150   -1.7748 C   0  0  2  0  0  0  0  0  0  0  0  0
    8.6005    0.5926   -1.5619 O   0  0  0  0  0  0  0  0  0  0  0  0
    6.3617    0.4752   -2.3899 C   0  0  0  0  0  0  0  0  0  0  0  0
    5.0184   -0.1354   -2.0153 C   0  0  0  0  0  0  0  0  0  0  0  0
    0.9339    0.5133    3.6271 C   0  0  0  0  0  0  0  0  0  0  0  0
    0.2236    1.6988    3.7801 C   0  0  0  0  0  0  0  0  0  0  0  0
   -0.9735    1.9036    3.0894 C   0  0  0  0  0  0  0  0  0  0  0  0
   -1.4713    0.9030    2.2292 C   0  0  0  0  0  0  0  0  0  0  0  0
   -2.6287    0.7783    1.3886 C   0  0  0  0  0  0  0  0  0  0  0  0
   -3.7574    1.5460    1.0900 C   0  0  0  0  0  0  0  0  0  0  0  0
   -4.7345    1.1275    0.1789 C   0  0  0  0  0  0  0  0  0  0  0  0
   -4.6317   -0.0738   -0.5414 C   0  0  0  0  0  0  0  0  0  0  0  0
   -5.4861   -0.5681   -1.5975 C   0  0  0  0  0  0  0  0  0  0  0  0
   -5.8317    2.1001    0.3146 C   0  0  0  0  0  0  0  0  0  0  0  0
   -6.9804    1.9721   -0.0571 O   0  0  0  0  0  0  0  0  0  0  0  0
   -5.3624    3.1328    1.0591 N   0  0  0  0  0  0  0  0  0  0  0  0
   -4.1903    2.8188    1.6633 C   0  0  0  0  0  0  0  0  0  0  0  0
   -3.6578    3.4552    2.5488 O   0  0  0  0  0  0  0  0  0  0  0  0
   -6.5694    1.5091   -3.8594 H   0  0  0  0  0  0  0  0  0  0  0  0
   -5.7308    1.9920   -2.3822 H   0  0  0  0  0  0  0  0  0  0  0  0
   -7.5318    1.7776   -2.3856 H   0  0  0  0  0  0  0  0  0  0  0  0
   -7.9334   -0.6800   -3.7935 H   0  0  0  0  0  0  0  0  0  0  0  0
   -6.7011   -3.0698   -3.4462 H   0  0  0  0  0  0  0  0  0  0  0  0
   -4.2935   -3.7565   -1.9318 H   0  0  0  0  0  0  0  0  0  0  0  0
   -2.6221   -2.8951   -0.3814 H   0  0  0  0  0  0  0  0  0  0  0  0
   -1.1000   -1.9905    0.9402 H   0  0  0  0  0  0  0  0  0  0  0  0
    0.6040   -2.6349    2.7617 H   0  0  0  0  0  0  0  0  0  0  0  0
    2.0088   -1.8635    3.4625 H   0  0  0  0  0  0  0  0  0  0  0  0
    2.4942   -2.9063    1.2766 H   0  0  0  0  0  0  0  0  0  0  0  0
    1.2969   -1.8982    0.4723 H   0  0  0  0  0  0  0  0  0  0  0  0
    2.5924    0.1456    1.0238 H   0  0  0  0  0  0  0  0  0  0  0  0
    3.7677   -0.8241    1.9336 H   0  0  0  0  0  0  0  0  0  0  0  0
    4.2480   -2.0153   -0.1184 H   0  0  0  0  0  0  0  0  0  0  0  0
    4.3502    0.9210   -0.2718 H   0  0  0  0  0  0  0  0  0  0  0  0
    6.4852    0.7946    0.5194 H   0  0  0  0  0  0  0  0  0  0  0  0
    5.9202   -0.6711    1.2845 H   0  0  0  0  0  0  0  0  0  0  0  0
    8.0401   -1.1229    0.1787 H   0  0  0  0  0  0  0  0  0  0  0  0
    6.7619   -2.0060   -0.6602 H   0  0  0  0  0  0  0  0  0  0  0  0
    7.8719   -1.0719   -2.4862 H   0  0  0  0  0  0  0  0  0  0  0  0
    9.3658    0.0744   -1.2594 H   0  0  0  0  0  0  0  0  0  0  0  0
    6.4763    0.4927   -3.4804 H   0  0  0  0  0  0  0  0  0  0  0  0
    6.3942    1.5252   -2.0708 H   0  0  0  0  0  0  0  0  0  0  0  0
    4.9955   -1.1742   -2.3727 H   0  0  0  0  0  0  0  0  0  0  0  0
    4.2083    0.3882   -2.5380 H   0  0  0  0  0  0  0  0  0  0  0  0
    1.8626    0.3897    4.1817 H   0  0  0  0  0  0  0  0  0  0  0  0
    0.5987    2.4759    4.4417 H   0  0  0  0  0  0  0  0  0  0  0  0
   -1.5037    2.8409    3.2264 H   0  0  0  0  0  0  0  0  0  0  0  0
   -5.9625    3.8622    1.4107 H   0  0  0  0  0  0  0  0  0  0  0  0
  1  2  1  0
  2  3  1  0
  3  4  2  0
  4  5  1  0
  5  6  2  0
  6  7  1  0
  7  8  2  0
  8  9  1  0
  9 10  1  0
 10 11  1  0
 11 12  2  0
 12 13  1  0
 13 14  1  0
 14 15  1  0
 15 16  1  0
 16 17  1  0
 17 18  1  0
 18 19  1  0
 19 20  1  0
 20 21  1  0
 20 22  1  0
 22 23  1  0
 12 24  1  0
 24 25  2  0
 25 26  1  0
 26 27  2  0
 27 28  1  0
 28 29  1  0
 29 30  2  0
 30 31  1  0
 31 32  2  0
 30 33  1  0
 33 34  2  0
 33 35  1  0
 35 36  1  0
 36 37  2  0
 32  2  1  0
 32  5  1  0
 31  8  1  0
 28  9  2  0
 36 29  1  0
 27 11  1  0
 23 17  1  0
  1 38  1  0
  1 39  1  0
  1 40  1  0
  3 41  1  0
  4 42  1  0
  6 43  1  0
  7 44  1  0
 10 45  1  0
 13 46  1  0
 13 47  1  0
 14 48  1  0
 14 49  1  0
 15 50  1  0
 15 51  1  0
 16 52  1  0
 17 53  1  6
 18 54  1  0
 18 55  1  0
 19 56  1  0
 19 57  1  0
 20 58  1  6
 21 59  1  0
 22 60  1  0
 22 61  1  0
 23 62  1  0
 23 63  1  0
 24 64  1  0
 25 65  1  0
 26 66  1  0
 35 67  1  0
M  END
$$$$
