
     RDKit          3D

 64 69  0  0  0  0  0  0  0  0999 V2000
   12.3106   -1.7471   -0.2817 C   0  0  0  0  0  0  0  0  0  0  0  0
   10.8649   -1.5512   -0.6641 C   0  0  0  0  0  0  0  0  0  0  0  0
   10.4667   -1.8314   -1.7875 O   0  0  0  0  0  0  0  0  0  0  0  0
   10.1149   -1.0251    0.3590 N   0  0  0  0  0  0  0  0  0  0  0  0
    8.7590   -0.6975    0.3610 C   0  0  0  0  0  0  0  0  0  0  0  0
    7.9102   -0.8487   -0.7212 C   0  0  0  0  0  0  0  0  0  0  0  0
    6.5768   -0.4803   -0.6038 C   0  0  0  0  0  0  0  0  0  0  0  0
    5.7474   -0.6237   -1.6554 N   0  0  0  0  0  0  0  0  0  0  0  0
    4.4600   -0.2346   -1.4753 C   0  0  0  0  0  0  0  0  0  0  0  0
    3.9807    0.2944   -0.2831 C   0  0  0  0  0  0  0  0  0  0  0  0
    2.5930    0.7480   -0.0794 C   0  0  0  0  0  0  0  0  0  0  0  0
    1.8221    1.3007   -1.1198 C   0  0  0  0  0  0  0  0  0  0  0  0
    0.5135    1.7515   -0.9006 C   0  0  0  0  0  0  0  0  0  0  0  0
   -0.0655    1.6650    0.3707 C   0  0  0  0  0  0  0  0  0  0  0  0
   -1.4681    2.1587    0.6325 C   0  0  0  0  0  0  0  0  0  0  0  0
   -2.4606    1.0758    0.7005 N   0  0  0  0  0  0  0  0  0  0  0  0
   -2.7502    0.4644   -0.6018 C   0  0  0  0  0  0  0  0  0  0  0  0
   -4.2317    0.4247   -0.9721 C   0  0  0  0  0  0  0  0  0  0  0  0
   -5.0816   -0.1566    0.1637 C   0  0  0  0  0  0  0  0  0  0  0  0
   -6.5085    0.0246   -0.0899 N   0  0  0  0  0  0  0  0  0  0  0  0
   -7.1794    1.2162   -0.1420 C   0  0  0  0  0  0  0  0  0  0  0  0
   -6.6346    2.3983    0.0560 O   0  0  0  0  0  0  0  0  0  0  0  0
   -8.4509    1.0853   -0.4018 N   0  0  0  0  0  0  0  0  0  0  0  0
   -8.6367   -0.2716   -0.5086 C   0  0  0  0  0  0  0  0  0  0  0  0
   -9.8172   -0.9840   -0.7704 C   0  0  0  0  0  0  0  0  0  0  0  0
   -9.7693   -2.3828   -0.8175 C   0  0  0  0  0  0  0  0  0  0  0  0
   -8.5661   -3.0602   -0.6127 C   0  0  0  0  0  0  0  0  0  0  0  0
   -7.3749   -2.3693   -0.3563 C   0  0  0  0  0  0  0  0  0  0  0  0
   -7.4406   -0.9683   -0.3123 C   0  0  0  0  0  0  0  0  0  0  0  0
   -4.6576    0.3626    1.5463 C   0  0  0  0  0  0  0  0  0  0  0  0
   -3.6489    1.5031    1.4433 C   0  0  0  0  0  0  0  0  0  0  0  0
    0.6952    1.1183    1.4055 C   0  0  0  0  0  0  0  0  0  0  0  0
    0.1869    1.0396    2.6445 F   0  0  0  0  0  0  0  0  0  0  0  0
    1.9973    0.6702    1.1914 C   0  0  0  0  0  0  0  0  0  0  0  0
    4.8144    0.4245    0.7797 N   0  0  0  0  0  0  0  0  0  0  0  0
    6.1027    0.0425    0.6129 C   0  0  0  0  0  0  0  0  0  0  0  0
    7.0317    0.1497    1.6287 C   0  0  0  0  0  0  0  0  0  0  0  0
    8.3388   -0.2025    1.5394 N   0  0  0  0  0  0  0  0  0  0  0  0
   12.7380   -2.5501   -0.8879 H   0  0  0  0  0  0  0  0  0  0  0  0
   12.4057   -2.0313    0.7708 H   0  0  0  0  0  0  0  0  0  0  0  0
   12.8613   -0.8194   -0.4611 H   0  0  0  0  0  0  0  0  0  0  0  0
   10.5565   -0.8305    1.2475 H   0  0  0  0  0  0  0  0  0  0  0  0
    8.2512   -1.2441   -1.6718 H   0  0  0  0  0  0  0  0  0  0  0  0
    3.8215   -0.3790   -2.3406 H   0  0  0  0  0  0  0  0  0  0  0  0
    2.2361    1.4165   -2.1202 H   0  0  0  0  0  0  0  0  0  0  0  0
   -0.0444    2.1810   -1.7301 H   0  0  0  0  0  0  0  0  0  0  0  0
   -1.7592    2.9078   -0.1153 H   0  0  0  0  0  0  0  0  0  0  0  0
   -1.4354    2.7029    1.5857 H   0  0  0  0  0  0  0  0  0  0  0  0
   -2.2233    0.9663   -1.4225 H   0  0  0  0  0  0  0  0  0  0  0  0
   -2.3643   -0.5626   -0.5772 H   0  0  0  0  0  0  0  0  0  0  0  0
   -4.5559    1.4408   -1.2292 H   0  0  0  0  0  0  0  0  0  0  0  0
   -4.3700   -0.1717   -1.8822 H   0  0  0  0  0  0  0  0  0  0  0  0
   -4.9133   -1.2421    0.1713 H   0  0  0  0  0  0  0  0  0  0  0  0
   -7.4098    2.9822   -0.0499 H   0  0  0  0  0  0  0  0  0  0  0  0
  -10.7487   -0.4499   -0.9240 H   0  0  0  0  0  0  0  0  0  0  0  0
  -10.6808   -2.9438   -1.0142 H   0  0  0  0  0  0  0  0  0  0  0  0
   -8.5573   -4.1498   -0.6474 H   0  0  0  0  0  0  0  0  0  0  0  0
   -6.4484   -2.9104   -0.1950 H   0  0  0  0  0  0  0  0  0  0  0  0
   -4.1955   -0.4640    2.1036 H   0  0  0  0  0  0  0  0  0  0  0  0
   -5.5160    0.6816    2.1492 H   0  0  0  0  0  0  0  0  0  0  0  0
   -4.1088    2.3849    0.9810 H   0  0  0  0  0  0  0  0  0  0  0  0
   -3.3604    1.7903    2.4622 H   0  0  0  0  0  0  0  0  0  0  0  0
    2.5474    0.2650    2.0385 H   0  0  0  0  0  0  0  0  0  0  0  0
    6.7293    0.5461    2.5950 H   0  0  0  0  0  0  0  0  0  0  0  0
  1  2  1  0
  2  3  2  0
  2  4  1  0
  4  5  1  0
  5  6  2  0
  6  7  1  0
  7  8  2  0
  8  9  1  0
  9 10  2  0
 10 11  1  0
 11 12  2  0
 12 13  1  0
 13 14  2  0
 14 15  1  0
 15 16  1  0
 16 17  1  0
 17 18  1  0
 18 19  1  0
 19 20  1  0
 20 21  1  0
 21 22  1  0
 21 23  2  0
 23 24  1  0
 24 25  2  0
 25 26  1  0
 26 27  2  0
 27 28  1  0
 28 29  2  0
 19 30  1  0
 30 31  1  0
 14 32  1  0
 32 33  1  0
 32 34  2  0
 10 35  1  0
 35 36  2  0
 36 37  1  0
 37 38  2  0
 38  5  1  0
 36  7  1  0
 34 11  1  0
 31 16  1  0
 29 20  1  0
 29 24  1  0
  1 39  1  0
  1 40  1  0
  1 41  1  0
  4 42  1  0
  6 43  1  0
  9 44  1  0
 12 45  1  0
 13 46  1  0
 15 47  1  0
 15 48  1  0
 17 49  1  0
 17 50  1  0
 18 51  1  0
 18 52  1  0
 19 53  1  0
 22 54  1  0
 25 55  1  0
 26 56  1  0
 27 57  1  0
 28 58  1  0
 30 59  1  0
 30 60  1  0
 31 61  1  0
 31 62  1  0
 34 63  1  0
 37 64  1  0
M  END
$$$$
