MODEL        6USER    Run = 6USERUSER    Estimated Free Energy of Binding    =  -7.32 kcal/mol  [=(1)+(2)+(3)-(4)]USERUSER    (1) Final Intermolecular Energy     = -11.49 kcal/molUSER        vdW + Hbond + desolv Energy     = -11.66 kcal/molUSER        Electrostatic Energy            =  -0.33 kcal/molUSER        Moving Ligand-Fixed Receptor    = -11.99 kcal/molUSER        Moving Ligand-Moving Receptor   =  +0.50 kcal/molUSER    (2) Final Total Internal Energy     =  -2.96 kcal/molUSER    (3) Torsional Free Energy           =  +4.18 kcal/molUSER    (4) Unbound System's Energy         =  -2.96 kcal/molUSERUSERREMARK SMILES COc1ccc(O)c(C(=O)c2ccc(C(=O)N[C@@H]3CCCNC[C@H]3NC(=O)c3ccncc3)cc2)c1FREMARK SMILES IDX 15 1 16 2 17 3 14 5 11 6 12 7 35 8 13 9 34 10 9 11 10 12REMARK SMILES IDX 8 13 3 14 4 15 36 16 5 17 6 18 37 19 2 20 1 21 7 22 18 24REMARK SMILES IDX 19 25 24 27 23 28 22 29 21 31 20 32 25 34 26 35 27 37 28 38REMARK SMILES IDX 29 39 33 40 30 41 32 42 31 43REMARK H PARENT 17 4 7 23 22 30 25 36REMARK Flexibility Score:   88.900USER                              x       y       z     vdW  Elec       q    TypeUSER                           _______ _______ _______ _____ _____    ______ ____ROOTATOM      1  C   UNL     1      38.702  45.497  17.433 -0.28 -0.05    +0.251 C  ATOM      2  O   UNL     1      38.145  44.450  17.122 -0.22 +0.06    -0.269 OA ATOM      3  N   UNL     1      38.503  46.688  16.765 -0.18 +0.12    -0.347 N  ATOM      4  H   UNL     1      39.146  47.446  16.946 +0.10 -0.06    +0.164 HD ENDROOTBRANCH   1   5ATOM      5  C   UNL     1      39.706  45.516  18.532 -0.41 -0.00    +0.039 A  ATOM      6  C   UNL     1      41.613  45.415  20.585 -0.34 +0.00    +0.023 A  ATOM      7  C   UNL     1      40.700  44.368  20.425 -0.34 +0.00    +0.013 A  ATOM      8  C   UNL     1      41.573  46.514  19.720 -0.40 +0.00    +0.013 A  ATOM      9  C   UNL     1      39.742  44.424  19.409 -0.35 -0.00    +0.014 A  ATOM     10  C   UNL     1      40.612  46.571  18.700 -0.45 -0.00    +0.014 A  BRANCH   6  11ATOM     11  C   UNL     1      42.658  45.271  21.623 -0.18 +0.05    +0.199 C  ATOM     12  O   UNL     1      43.076  44.139  21.871 -0.19 -0.07    -0.288 OA BRANCH  11  13ATOM     13  C   UNL     1      43.268  46.409  22.350 -0.21 +0.03    +0.104 A  ATOM     14  C   UNL     1      43.100  48.502  23.594 -0.29 +0.04    +0.155 A  ATOM     15  C   UNL     1      44.490  48.536  23.728 -0.22 +0.01    +0.053 A  ATOM     16  C   UNL     1      42.500  47.433  22.906 -0.21 +0.03    +0.179 A  ATOM     17  C   UNL     1      45.268  47.502  23.199 -0.21 +0.02    +0.051 A  ATOM     18  C   UNL     1      44.658  46.444  22.530 -0.17 +0.08    +0.130 A  ATOM     19  F   UNL     1      41.160  47.397  22.819 -0.05 -0.02    -0.202 F  BRANCH  14  20ATOM     20  O   UNL     1      42.235  49.445  24.082 -0.63 -0.17    -0.494 OA ATOM     21  C   UNL     1      41.861  49.337  25.452 -0.21 +0.04    +0.278 C  ENDBRANCH  14  20BRANCH  18  22ATOM     22  O   UNL     1      45.497  45.461  22.072 -0.27 -0.62    -0.507 OA ATOM     23  H   UNL     1      45.115  44.595  22.350 +0.10 +0.19    +0.293 HD ENDBRANCH  18  22ENDBRANCH  11  13ENDBRANCH   6  11ENDBRANCH   1   5BRANCH   3  24ATOM     24  C   UNL     1      37.757  46.727  15.501 -0.39 -0.05    +0.106 C  BRANCH  24  25ATOM     25  C   UNL     1      38.266  47.885  14.633 -0.57 -0.01    +0.028 CG0ATOM     26  G   UNL     1      38.127  47.692  13.114 +0.00 +0.00    +0.000 G0 ENDBRANCH  24  25BRANCH  24  27ATOM     27  C   UNL     1      36.226  46.770  15.776 -0.34 -0.11    +0.118 C  BRANCH  27  28ATOM     28  C   UNL     1      35.334  46.674  14.516 -0.27 -0.10    +0.108 C  BRANCH  28  29ATOM     29  N   UNL     1      35.993  46.324  13.254 -0.28 +0.17    -0.315 NA ATOM     30  H   UNL     1      36.612  45.528  13.395 +0.09 -0.05    +0.122 HD BRANCH  29  31ATOM     31  C   UNL     1      36.719  47.399  12.586 -0.67 -0.03    +0.081 C  BRANCH  31  32ATOM     32  C   UNL     1      38.122  47.686  13.116 -0.36 -0.00    +0.017 CG0ATOM     33  G   UNL     1      38.265  47.884  14.634 +0.00 +0.00    +0.000 G0 ENDBRANCH  31  32ENDBRANCH  29  31ENDBRANCH  28  29ENDBRANCH  27  28BRANCH  27  34ATOM     34  N   UNL     1      35.861  45.742  16.760 -0.12 +0.22    -0.346 N  ATOM     35  C   UNL     1      35.010  46.017  17.805 -0.29 -0.17    +0.251 C  ATOM     36  H   UNL     1      36.019  44.782  16.500 +0.12 -0.07    +0.164 HD ATOM     37  O   UNL     1      34.571  47.134  18.049 -0.68 +0.30    -0.269 OA BRANCH  35  38ATOM     38  C   UNL     1      34.602  44.863  18.643 -0.37 -0.01    +0.042 A  ATOM     39  C   UNL     1      33.242  44.675  18.894 -0.39 -0.01    +0.034 A  ATOM     40  C   UNL     1      35.536  43.988  19.202 -0.36 -0.01    +0.034 A  ATOM     41  C   UNL     1      32.870  43.601  19.678 -0.36 -0.00    +0.112 A  ATOM     42  C   UNL     1      35.060  42.944  19.975 -0.35 -0.00    +0.112 A  ATOM     43  N   UNL     1      33.747  42.729  20.220 -0.44 -0.06    -0.265 NA ENDBRANCH  35  38ENDBRANCH  27  34ENDBRANCH  24  27ENDBRANCH   3  24TORSDOF 8TERENDMDL