MODEL        1USER    Run = 1USERUSER    Estimated Free Energy of Binding    =  -7.93 kcal/mol  [=(1)+(2)+(3)-(4)]USERUSER    (1) Final Intermolecular Energy     =  -8.83 kcal/molUSER        vdW + Hbond + desolv Energy     =  -8.80 kcal/molUSER        Electrostatic Energy            =  -0.03 kcal/molUSER        Moving Ligand-Fixed Receptor    =  -8.83 kcal/molUSER        Moving Ligand-Moving Receptor   =  +0.00 kcal/molUSER    (2) Final Total Internal Energy     =  -0.14 kcal/molUSER    (3) Torsional Free Energy           =  +0.89 kcal/molUSER    (4) Unbound System's Energy         =  -0.14 kcal/molUSERUSERREMARK SMILES Nc1cc(C(=O)Nc2nc3ccccc3s2)ccn1REMARK SMILES IDX 2 1 3 2 4 3 17 4 18 5 19 6 1 7 5 10 7 11 6 12 8 14 9 15REMARK SMILES IDX 16 16 10 17 15 18 11 19 14 20 12 21 13 22REMARK H PARENT 1 8 1 9 7 13USER                              x       y       z     vdW  Elec       q    TypeUSER                           _______ _______ _______ _____ _____    ______ ____ROOTATOM      1  C   UNL     1      38.072  30.728  22.508 -0.36 +0.02    +0.124 A  ATOM      2  C   UNL     1      36.799  30.382  22.087 -0.37 -0.00    +0.060 A  ATOM      3  C   UNL     1      35.750  30.473  23.004 -0.28 -0.00    +0.045 A  ATOM      4  C   UNL     1      36.016  30.876  24.312 -0.40 +0.00    +0.034 A  ATOM      5  C   UNL     1      37.319  31.191  24.636 -0.43 +0.01    +0.114 A  ATOM      6  N   UNL     1      38.344  31.131  23.759 -0.50 -0.06    -0.240 NA ENDROOTBRANCH   1   7ATOM      7  N   UNL     1      39.155  30.631  21.640 -0.16 -0.07    -0.384 N  ATOM      8  H   UNL     1      39.869  30.085  22.119 -0.22 +0.05    +0.158 HD ATOM      9  H   UNL     1      39.507  31.538  21.360 -0.35 +0.02    +0.158 HD ENDBRANCH   1   7BRANCH   3  10ATOM     10  C   UNL     1      34.349  30.116  22.646 -0.31 -0.02    +0.257 C  ATOM     11  N   UNL     1      33.384  30.676  23.450 -0.21 -0.03    -0.298 N  ATOM     12  O   UNL     1      34.180  29.343  21.712 -0.55 +0.06    -0.269 OA ATOM     13  H   UNL     1      33.642  31.199  24.274 +0.11 +0.03    +0.172 HD BRANCH  11  14ATOM     14  C   UNL     1      32.024  30.538  23.330 -0.41 +0.03    +0.190 A  ATOM     15  N   UNL     1      31.304  30.162  24.359 -0.88 -0.09    -0.220 NA ATOM     16  S   UNL     1      31.177  30.860  21.893 -0.63 +0.01    -0.097 S  ATOM     17  C   UNL     1      29.968  30.107  23.995 -0.51 +0.02    +0.084 A  ATOM     18  C   UNL     1      29.696  30.456  22.671 -0.49 -0.01    +0.056 A  ATOM     19  C   UNL     1      28.895  29.737  24.832 -0.49 +0.01    +0.030 A  ATOM     20  C   UNL     1      28.391  30.449  22.153 -0.35 -0.01    +0.021 A  ATOM     21  C   UNL     1      27.591  29.726  24.327 -0.58 +0.00    +0.002 A  ATOM     22  C   UNL     1      27.344  30.079  23.003 -0.44 -0.00    +0.002 A  ENDBRANCH  11  14ENDBRANCH   3  10TORSDOF 3TERENDMDL