REMARK SMILES COc1ccc(O)c(C(=O)c2ccc(C(=O)NCCNC(=O)c3ccncc3)cc2)c1F
REMARK SMILES IDX 11 1 12 2 13 3 14 4 29 5 30 6 9 7 10 8 8 9 3 10 4 11 31 12
REMARK SMILES IDX 5 13 6 14 32 15 2 16 1 17 7 18 15 20 17 21 16 22 18 24 19 25
REMARK SMILES IDX 20 26 21 27 22 29 23 30 24 31 28 32 25 33 27 34 26 35
REMARK H PARENT 7 19 17 23 20 28
ROOT
ATOM      1  C   UNL     1      -3.317  -1.746  -0.271  1.00  0.00     0.023 A 
ATOM      2  C   UNL     1      -2.521  -1.008   0.613  1.00  0.00     0.013 A 
ATOM      3  C   UNL     1      -1.136  -0.944   0.421  1.00  0.00     0.014 A 
ATOM      4  C   UNL     1      -0.539  -1.640  -0.639  1.00  0.00     0.039 A 
ATOM      5  C   UNL     1      -1.340  -2.381  -1.519  1.00  0.00     0.014 A 
ATOM      6  C   UNL     1      -2.723  -2.445  -1.328  1.00  0.00     0.013 A 
ENDROOT
BRANCH   1   7
ATOM      7  C   UNL     1      -4.781  -1.869  -0.079  1.00  0.00     0.199 C 
ATOM      8  O   UNL     1      -5.310  -2.969  -0.253  1.00  0.00    -0.288 OA
BRANCH   7   9
ATOM      9  C   UNL     1      -5.638  -0.750   0.372  1.00  0.00     0.104 A 
ATOM     10  C   UNL     1      -6.159   1.632   0.509  1.00  0.00     0.155 A 
ATOM     11  C   UNL     1      -7.289   1.339   1.276  1.00  0.00     0.053 A 
ATOM     12  C   UNL     1      -5.347   0.580   0.056  1.00  0.00     0.179 A 
ATOM     13  C   UNL     1      -7.608   0.010   1.572  1.00  0.00     0.051 A 
ATOM     14  C   UNL     1      -6.796  -1.024   1.111  1.00  0.00     0.130 A 
ATOM     15  F   UNL     1      -4.285   0.872  -0.712  1.00  0.00    -0.202 F 
BRANCH  10  16
ATOM     16  O   UNL     1      -5.749   2.888   0.148  1.00  0.00    -0.494 OA
ATOM     17  C   UNL     1      -6.570   3.981   0.541  1.00  0.00     0.278 C 
ENDBRANCH  10  16
BRANCH  14  18
ATOM     18  O   UNL     1      -7.196  -2.297   1.423  1.00  0.00    -0.507 OA
ATOM     19  H   UNL     1      -6.671  -2.922   0.870  1.00  0.00     0.293 HD
ENDBRANCH  14  18
ENDBRANCH   7   9
ENDBRANCH   1   7
BRANCH   4  20
ATOM     20  C   UNL     1       0.931  -1.613  -0.877  1.00  0.00     0.251 C 
ATOM     21  N   UNL     1       1.732  -1.424   0.232  1.00  0.00    -0.350 N 
ATOM     22  O   UNL     1       1.379  -1.789  -2.004  1.00  0.00    -0.269 OA
ATOM     23  H   UNL     1       1.324  -1.440   1.157  1.00  0.00     0.163 HD
BRANCH  21  24
ATOM     24  C   UNL     1       3.178  -1.420   0.117  1.00  0.00     0.137 C 
BRANCH  24  25
ATOM     25  C   UNL     1       3.732  -0.069  -0.337  1.00  0.00     0.137 C 
BRANCH  25  26
ATOM     26  N   UNL     1       5.186  -0.039  -0.336  1.00  0.00    -0.350 N 
ATOM     27  C   UNL     1       5.852   1.043  -0.878  1.00  0.00     0.251 C 
ATOM     28  H   UNL     1       5.672  -0.593   0.357  1.00  0.00     0.163 HD
ATOM     29  O   UNL     1       5.289   1.984  -1.426  1.00  0.00    -0.269 OA
BRANCH  27  30
ATOM     30  C   UNL     1       7.331   1.051  -0.722  1.00  0.00     0.042 A 
ATOM     31  C   UNL     1       7.988   2.282  -0.704  1.00  0.00     0.034 A 
ATOM     32  C   UNL     1       8.070  -0.129  -0.622  1.00  0.00     0.034 A 
ATOM     33  C   UNL     1       9.362   2.283  -0.557  1.00  0.00     0.112 A 
ATOM     34  C   UNL     1       9.442  -0.022  -0.479  1.00  0.00     0.112 A 
ATOM     35  N   UNL     1      10.101   1.156  -0.435  1.00  0.00    -0.265 NA
ENDBRANCH  27  30
ENDBRANCH  25  26
ENDBRANCH  24  25
ENDBRANCH  21  24
ENDBRANCH   4  20
TORSDOF 9
