MODEL        8USER    Run = 8USERUSER    Estimated Free Energy of Binding    =  -9.92 kcal/mol  [=(1)+(2)+(3)-(4)]USERUSER    (1) Final Intermolecular Energy     = -12.30 kcal/molUSER        vdW + Hbond + desolv Energy     = -12.42 kcal/molUSER        Electrostatic Energy            =  +0.12 kcal/molUSER        Moving Ligand-Fixed Receptor    = -12.30 kcal/molUSER        Moving Ligand-Moving Receptor   =  +0.00 kcal/molUSER    (2) Final Total Internal Energy     =  -2.84 kcal/molUSER    (3) Torsional Free Energy           =  +2.39 kcal/molUSER    (4) Unbound System's Energy         =  -2.84 kcal/molUSERUSERREMARK SMILES COc1ccc(O)c(C(=O)c2ccc(C(=O)N[C@@H]3CCNC[C@@H]3NC(=O)c3ccncc3)cc2)c1FREMARK SMILES IDX 11 1 12 2 13 3 14 4 33 5 34 6 9 7 10 8 8 9 3 10 4 11 35 12REMARK SMILES IDX 5 13 6 14 36 15 2 16 1 17 7 18 15 20 17 21 16 22 18 24 19 25REMARK SMILES IDX 23 26 20 27 22 28 21 29 24 31 25 32 26 34 27 35 28 36 32 37REMARK SMILES IDX 29 38 31 39 30 40REMARK H PARENT 7 19 17 23 21 30 24 33USER                              x       y       z     vdW  Elec       q    TypeUSER                           _______ _______ _______ _____ _____    ______ ____ROOTATOM      1  C   UNL     1      36.745  43.473  20.349 -0.39 -0.00    +0.023 A  ATOM      2  C   UNL     1      35.446  43.631  19.855 -0.41 -0.00    +0.013 A  ATOM      3  C   UNL     1      35.217  44.415  18.720 -0.35 -0.00    +0.014 A  ATOM      4  C   UNL     1      36.288  45.043  18.073 -0.31 -0.01    +0.039 A  ATOM      5  C   UNL     1      37.593  44.852  18.545 -0.36 -0.00    +0.014 A  ATOM      6  C   UNL     1      37.823  44.063  19.677 -0.33 -0.00    +0.013 A  ENDROOTBRANCH   1   7ATOM      7  C   UNL     1      36.946  42.613  21.540 -0.38 +0.01    +0.199 C  ATOM      8  O   UNL     1      37.166  41.412  21.374 -0.39 -0.01    -0.288 OA BRANCH   7   9ATOM      9  C   UNL     1      36.952  43.133  22.925 -0.32 +0.01    +0.104 A  ATOM     10  C   UNL     1      37.358  44.911  24.546 -0.20 +0.02    +0.155 A  ATOM     11  C   UNL     1      36.963  44.058  25.579 -0.31 -0.00    +0.053 A  ATOM     12  C   UNL     1      37.340  44.440  23.225 -0.20 +0.02    +0.179 A  ATOM     13  C   UNL     1      36.539  42.758  25.288 -0.36 -0.00    +0.051 A  ATOM     14  C   UNL     1      36.522  42.307  23.971 -0.29 +0.01    +0.130 A  ATOM     15  F   UNL     1      37.688  45.283  22.239 -0.10 -0.02    -0.202 F  BRANCH  10  16ATOM     16  O   UNL     1      37.779  46.204  24.705 -0.56 -0.09    -0.494 OA ATOM     17  C   UNL     1      37.292  46.915  25.836 -0.25 +0.00    +0.278 C  ENDBRANCH  10  16BRANCH  14  18ATOM     18  O   UNL     1      36.066  41.030  23.773 -0.04 +0.06    -0.507 OA ATOM     19  H   UNL     1      36.346  40.745  22.872 +0.20 -0.00    +0.293 HD ENDBRANCH  14  18ENDBRANCH   7   9ENDBRANCH   1   7BRANCH   4  20ATOM     20  C   UNL     1      36.003  45.880  16.873 -0.24 -0.16    +0.251 C  ATOM     21  N   UNL     1      36.335  45.322  15.655 -0.11 +0.18    -0.347 N  ATOM     22  O   UNL     1      35.536  47.005  17.000 -0.27 +0.33    -0.269 OA ATOM     23  H   UNL     1      37.022  44.577  15.666 +0.11 -0.06    +0.164 HD BRANCH  21  24ATOM     24  C   UNL     1      36.278  46.105  14.416 -0.40 -0.06    +0.107 C  ATOM     25  C   UNL     1      37.002  45.416  13.255 -0.53 -0.02    +0.042 C  ATOM     26  C   UNL     1      36.868  47.528  14.626 -0.44 -0.08    +0.118 C  ATOM     27  C   UNL     1      36.790  46.200  11.956 -0.65 -0.03    +0.083 C  ATOM     28  C   UNL     1      37.431  48.115  13.309 -0.42 -0.04    +0.108 C  ATOM     29  N   UNL     1      36.722  47.657  12.116 -0.87 +0.11    -0.315 NA ATOM     30  H   UNL     1      35.745  47.950  12.167 -0.01 -0.07    +0.122 HD BRANCH  26  31ATOM     31  N   UNL     1      37.913  47.520  15.661 -0.18 +0.20    -0.346 N  ATOM     32  C   UNL     1      39.182  47.049  15.403 -0.34 -0.07    +0.251 C  ATOM     33  H   UNL     1      37.621  47.726  16.606 +0.10 -0.12    +0.164 HD ATOM     34  O   UNL     1      39.565  46.733  14.283 -0.31 +0.05    -0.269 OA BRANCH  32  35ATOM     35  C   UNL     1      40.114  46.977  16.556 -0.47 -0.01    +0.042 A  ATOM     36  C   UNL     1      40.238  45.832  17.345 -0.41 -0.00    +0.034 A  ATOM     37  C   UNL     1      40.899  48.097  16.836 -0.52 -0.00    +0.034 A  ATOM     38  C   UNL     1      41.130  45.871  18.402 -0.40 +0.00    +0.112 A  ATOM     39  C   UNL     1      41.757  48.034  17.916 -0.36 -0.00    +0.112 A  ATOM     40  N   UNL     1      41.881  46.950  18.710 -0.35 -0.01    -0.265 NA ENDBRANCH  32  35ENDBRANCH  26  31ENDBRANCH  21  24ENDBRANCH   4  20TORSDOF 8TERENDMDL