REMARK SMILES COc1ccc(O)c(C(=O)c2ccc(C(=O)N[C@@H]3CCCNC3)cc2)c1F
REMARK SMILES IDX 11 1 12 2 13 3 14 4 24 5 25 6 9 7 10 8 8 9 3 10 4 11 26 12
REMARK SMILES IDX 5 13 6 14 27 15 2 16 1 17 7 18 15 20 17 21 16 22 18 24 19 25
REMARK SMILES IDX 23 26 20 27 22 28 21 29
REMARK H PARENT 7 19 17 23 22 30
ROOT
ATOM      1  C   UNL     1       1.649   1.428   0.973  1.00  0.00     0.023 A 
ATOM      2  C   UNL     1       1.199   0.172   0.544  1.00  0.00     0.013 A 
ATOM      3  C   UNL     1      -0.172  -0.109   0.506  1.00  0.00     0.014 A 
ATOM      4  C   UNL     1      -1.100   0.866   0.891  1.00  0.00     0.039 A 
ATOM      5  C   UNL     1      -0.653   2.115   1.333  1.00  0.00     0.014 A 
ATOM      6  C   UNL     1       0.716   2.398   1.364  1.00  0.00     0.013 A 
ENDROOT
BRANCH   1   7
ATOM      7  C   UNL     1       3.095   1.784   1.016  1.00  0.00     0.199 C 
ATOM      8  O   UNL     1       3.453   2.951   1.143  1.00  0.00    -0.288 OA
BRANCH   7   9
ATOM      9  C   UNL     1       4.128   0.745   0.917  1.00  0.00     0.104 A 
ATOM     10  C   UNL     1       5.885  -0.311  -0.380  1.00  0.00     0.155 A 
ATOM     11  C   UNL     1       6.153  -1.160   0.698  1.00  0.00     0.053 A 
ATOM     12  C   UNL     1       4.870   0.645  -0.256  1.00  0.00     0.179 A 
ATOM     13  C   UNL     1       5.409  -1.060   1.881  1.00  0.00     0.051 A 
ATOM     14  C   UNL     1       4.397  -0.108   1.987  1.00  0.00     0.130 A 
ATOM     15  F   UNL     1       4.591   1.449  -1.296  1.00  0.00    -0.202 F 
BRANCH  10  16
ATOM     16  O   UNL     1       6.530  -0.336  -1.586  1.00  0.00    -0.494 OA
ATOM     17  C   UNL     1       7.624  -1.232  -1.728  1.00  0.00     0.278 C 
ENDBRANCH  10  16
BRANCH  14  18
ATOM     18  O   UNL     1       3.663  -0.017   3.135  1.00  0.00    -0.507 OA
ATOM     19  H   UNL     1       4.090  -0.533   3.840  1.00  0.00     0.293 HD
ENDBRANCH  14  18
ENDBRANCH   7   9
ENDBRANCH   1   7
BRANCH   4  20
ATOM     20  C   UNL     1      -2.564   0.605   0.861  1.00  0.00     0.251 C 
ATOM     21  N   UNL     1      -3.006  -0.249  -0.130  1.00  0.00    -0.348 N 
ATOM     22  O   UNL     1      -3.308   1.160   1.659  1.00  0.00    -0.269 OA
ATOM     23  H   UNL     1      -2.387  -0.428  -0.910  1.00  0.00     0.164 HD
BRANCH  21  24
ATOM     24  C   UNL     1      -4.432  -0.456  -0.352  1.00  0.00     0.096 C 
ATOM     25  C   UNL     1      -4.668  -1.718  -1.181  1.00  0.00     0.027 C 
ATOM     26  C   UNL     1      -5.095   0.770  -1.034  1.00  0.00     0.105 C 
ATOM     27  C   UNL     1      -6.161  -1.953  -1.436  1.00  0.00     0.017 C 
ATOM     28  N   UNL     1      -6.320   0.472  -1.794  1.00  0.00    -0.315 NA
ATOM     29  C   UNL     1      -7.014  -0.693  -1.261  1.00  0.00     0.081 C 
ATOM     30  H   UNL     1      -6.931   1.288  -1.768  1.00  0.00     0.122 HD
ENDBRANCH  21  24
ENDBRANCH   4  20
TORSDOF 6
