MODEL        2USER    Run = 2USERUSER    Estimated Free Energy of Binding    =  -8.71 kcal/mol  [=(1)+(2)+(3)-(4)]USERUSER    (1) Final Intermolecular Energy     =  -9.60 kcal/molUSER        vdW + Hbond + desolv Energy     =  -9.48 kcal/molUSER        Electrostatic Energy            =  -0.12 kcal/molUSER        Moving Ligand-Fixed Receptor    =  -9.60 kcal/molUSER        Moving Ligand-Moving Receptor   =  +0.00 kcal/molUSER    (2) Final Total Internal Energy     =  -0.57 kcal/molUSER    (3) Torsional Free Energy           =  +0.89 kcal/molUSER    (4) Unbound System's Energy         =  -0.57 kcal/molUSERUSERREMARK SMILES Cn1cc(-c2cnc3c(c2)nnn3-c2cccc(C(F)(F)F)c2)cn1REMARK SMILES IDX 5 1 6 2 7 3 8 4 9 5 10 6 11 7 12 8 13 9 4 10 2 11 3 12 25 13REMARK SMILES IDX 24 14 1 15 14 16 15 17 23 18 16 19 18 20 17 21 19 22 20 23REMARK SMILES IDX 21 24 22 25REMARK H PARENTUSER                              x       y       z     vdW  Elec       q    TypeUSER                           _______ _______ _______ _____ _____    ______ ____ROOTATOM      1  C   UNL     1      38.825  47.350  15.297 -0.47 -0.00    +0.006 A  ATOM      2  C   UNL     1      38.763  46.342  16.265 -0.33 -0.04    +0.122 A  ATOM      3  N   UNL     1      39.583  46.199  17.341 -0.28 +0.04    -0.234 NA ATOM      4  C   UNL     1      40.524  47.168  17.417 -0.37 -0.03    +0.183 A  ATOM      5  C   UNL     1      40.692  48.222  16.528 -0.44 -0.02    +0.133 A  ATOM      6  C   UNL     1      39.821  48.325  15.435 -0.52 -0.01    +0.044 A  ATOM      7  N   UNL     1      41.738  49.000  16.918 -0.92 -0.02    -0.128 NA ATOM      8  N   UNL     1      42.244  48.478  18.027 -0.55 -0.00    -0.060 NA ATOM      9  N   UNL     1      41.529  47.362  18.358 -0.42 +0.01    -0.194 N  ENDROOTBRANCH   1  10ATOM     10  C   UNL     1      37.892  47.404  14.186 -0.48 -0.01    +0.021 A  ATOM     11  N   UNL     1      36.554  46.804  12.547 -0.41 +0.12    -0.275 N  ATOM     12  C   UNL     1      37.367  46.309  13.526 -0.39 -0.04    +0.117 A  ATOM     13  N   UNL     1      36.510  48.146  12.516 -0.96 +0.07    -0.181 NA ATOM     14  C   UNL     1      37.325  48.510  13.509 -0.35 -0.06    +0.143 A  ATOM     15  C   UNL     1      35.785  46.047  11.588 -0.18 -0.09    +0.173 C  ENDBRANCH   1  10BRANCH   9  16ATOM     16  C   UNL     1      41.865  46.601  19.515 -0.42 +0.01    +0.069 A  ATOM     17  C   UNL     1      41.263  45.347  19.710 -0.39 +0.00    +0.028 A  ATOM     18  C   UNL     1      42.783  47.071  20.465 -0.38 +0.01    +0.041 A  ATOM     19  C   UNL     1      41.577  44.578  20.832 -0.33 +0.00    +0.003 A  ATOM     20  C   UNL     1      43.097  46.303  21.603 -0.28 +0.02    +0.058 A  ATOM     21  C   UNL     1      42.490  45.052  21.772 -0.25 +0.00    +0.013 A  BRANCH  20  22ATOM     22  C   UNL     1      44.102  46.817  22.606 -0.12 +0.16    +0.416 C  ATOM     23  F   UNL     1      43.751  48.022  23.137 -0.12 -0.04    -0.166 F  ATOM     24  F   UNL     1      45.337  46.994  22.060 -0.10 -0.16    -0.166 F  ATOM     25  F   UNL     1      44.280  45.984  23.670 -0.01 -0.04    -0.166 F  ENDBRANCH  20  22ENDBRANCH   9  16TORSDOF 3TERENDMDL