REMARK SMILES CN(C)C1CCN(C(=O)c2ccc(-c3nc(N=Cc4cncn4C)ccc3C#N)cc2F)CC1
REMARK SMILES IDX 14 1 15 2 16 3 25 4 26 5 27 6 13 7 10 8 11 9 31 10 12 11
REMARK SMILES IDX 30 12 32 13 8 14 4 15 5 16 34 17 6 18 33 19 7 20 9 21 2 22
REMARK SMILES IDX 1 23 3 24 28 25 29 26 17 27 18 28 19 29 20 30 23 31 21 32
REMARK SMILES IDX 22 33 24 34
REMARK H PARENT
ROOT
ATOM      1  C   UNL     1       2.601   1.455   2.318  1.00  0.00     0.091 A 
ATOM      2  N   UNL     1       3.361   1.433   1.186  1.00  0.00    -0.227 NA
ATOM      3  C   UNL     1       4.483   2.183   1.144  1.00  0.00     0.152 A 
ATOM      4  C   UNL     1       4.892   2.975   2.202  1.00  0.00     0.050 A 
ATOM      5  C   UNL     1       4.132   2.980   3.367  1.00  0.00     0.025 A 
ATOM      6  C   UNL     1       2.969   2.207   3.438  1.00  0.00     0.078 A 
ENDROOT
BRANCH   1   7
ATOM      7  C   UNL     1       1.391   0.609   2.221  1.00  0.00     0.005 A 
ATOM      8  C   UNL     1      -0.886  -1.032   1.954  1.00  0.00     0.075 A 
ATOM      9  C   UNL     1      -1.020   0.259   2.468  1.00  0.00     0.017 A 
ATOM     10  C   UNL     1       0.363  -1.510   1.581  1.00  0.00     0.136 A 
ATOM     11  C   UNL     1       0.111   1.076   2.585  1.00  0.00     0.011 A 
ATOM     12  C   UNL     1       1.490  -0.700   1.709  1.00  0.00     0.050 A 
ATOM     13  F   UNL     1       0.507  -2.739   1.067  1.00  0.00    -0.206 F 
BRANCH   8  14
ATOM     14  C   UNL     1      -2.061  -1.908   1.849  1.00  0.00     0.256 C 
ATOM     15  C   UNL     1      -5.136  -0.654  -0.657  1.00  0.00     0.059 C 
ATOM     16  C   UNL     1      -5.370  -1.864   0.276  1.00  0.00     0.040 C 
ATOM     17  C   UNL     1      -3.783  -0.764  -1.373  1.00  0.00     0.040 C 
ATOM     18  C   UNL     1      -4.083  -2.596   0.654  1.00  0.00     0.121 C 
ATOM     19  C   UNL     1      -2.656  -0.817  -0.339  1.00  0.00     0.121 C 
ATOM     20  N   UNL     1      -2.953  -1.688   0.799  1.00  0.00    -0.338 N 
ATOM     21  O   UNL     1      -2.206  -2.764   2.718  1.00  0.00    -0.269 OA
BRANCH  15  22
ATOM     22  N   UNL     1      -6.317  -0.432  -1.519  1.00  0.00    -0.306 NA
ATOM     23  C   UNL     1      -6.420   0.961  -1.963  1.00  0.00     0.105 C 
ATOM     24  C   UNL     1      -6.396  -1.331  -2.672  1.00  0.00     0.105 C 
ENDBRANCH  15  22
ENDBRANCH   8  14
ENDBRANCH   1   7
BRANCH   6  25
ATOM     25  C   UNL     1       2.220   2.199   4.656  1.00  0.00     0.101 C 
ATOM     26  N   UNL     1       1.613   2.218   5.645  1.00  0.00    -0.192 NA
ENDBRANCH   6  25
BRANCH   3  27
ATOM     27  N   UNL     1       5.234   2.183  -0.033  1.00  0.00    -0.235 NA
BRANCH  27  28
ATOM     28  C   UNL     1       5.197   1.123  -0.770  1.00  0.00     0.141 C 
BRANCH  28  29
ATOM     29  C   UNL     1       5.947   1.073  -1.995  1.00  0.00     0.079 A 
ATOM     30  C   UNL     1       6.670   2.074  -2.620  1.00  0.00     0.140 A 
ATOM     31  N   UNL     1       6.106  -0.012  -2.825  1.00  0.00    -0.333 N 
ATOM     32  N   UNL     1       7.247   1.628  -3.781  1.00  0.00    -0.245 NA
ATOM     33  C   UNL     1       6.890   0.367  -3.877  1.00  0.00     0.199 A 
ATOM     34  C   UNL     1       5.572  -1.339  -2.627  1.00  0.00     0.151 C 
ENDBRANCH  28  29
ENDBRANCH  27  28
ENDBRANCH   3  27
TORSDOF 7
