MODEL        2USER    Run = 2USERUSER    Estimated Free Energy of Binding    =  -9.05 kcal/mol  [=(1)+(2)+(3)-(4)]USERUSER    (1) Final Intermolecular Energy     = -10.84 kcal/molUSER        vdW + Hbond + desolv Energy     = -10.50 kcal/molUSER        Electrostatic Energy            =  -0.34 kcal/molUSER        Moving Ligand-Fixed Receptor    = -10.84 kcal/molUSER        Moving Ligand-Moving Receptor   =  +0.00 kcal/molUSER    (2) Final Total Internal Energy     =  -1.19 kcal/molUSER    (3) Torsional Free Energy           =  +1.79 kcal/molUSER    (4) Unbound System's Energy         =  -1.19 kcal/molUSERUSERREMARK SMILES COc1ccc(O)c(C(=O)c2ccc(C(=O)N[C@@H]3CCCNC3)cc2)c1FREMARK SMILES IDX 11 1 12 2 13 3 14 4 24 5 25 6 9 7 10 8 8 9 3 10 4 11 26 12REMARK SMILES IDX 5 13 6 14 27 15 2 16 1 17 7 18 15 20 17 21 16 22 18 24 19 25REMARK SMILES IDX 23 26 20 27 22 28 21 29REMARK H PARENT 7 19 17 23 22 30USER                              x       y       z     vdW  Elec       q    TypeUSER                           _______ _______ _______ _____ _____    ______ ____ROOTATOM      1  C   UNL     1      42.138  46.982  19.184 -0.51 +0.00    +0.023 A  ATOM      2  C   UNL     1      42.165  48.106  18.348 -0.38 -0.00    +0.013 A  ATOM      3  C   UNL     1      41.406  48.128  17.173 -0.49 -0.00    +0.014 A  ATOM      4  C   UNL     1      40.611  47.027  16.830 -0.47 -0.01    +0.039 A  ATOM      5  C   UNL     1      40.593  45.898  17.655 -0.47 -0.00    +0.014 A  ATOM      6  C   UNL     1      41.346  45.880  18.833 -0.47 +0.00    +0.013 A  ENDROOTBRANCH   1   7ATOM      7  C   UNL     1      42.914  46.914  20.454 -0.35 +0.05    +0.199 C  ATOM      8  O   UNL     1      44.138  47.009  20.451 -0.45 -0.23    -0.288 OA BRANCH   7   9ATOM      9  C   UNL     1      42.232  46.743  21.743 -0.24 +0.02    +0.104 A  ATOM     10  C   UNL     1      40.910  45.341  23.216 -0.11 +0.01    +0.155 A  ATOM     11  C   UNL     1      40.980  46.331  24.201 -0.14 +0.00    +0.053 A  ATOM     12  C   UNL     1      41.547  45.557  21.989 -0.17 +0.02    +0.179 A  ATOM     13  C   UNL     1      41.671  47.525  23.957 -0.23 +0.01    +0.051 A  ATOM     14  C   UNL     1      42.295  47.729  22.728 -0.20 +0.02    +0.130 A  ATOM     15  F   UNL     1      41.464  44.620  21.029 -0.08 -0.02    -0.202 F  BRANCH  10  16ATOM     16  O   UNL     1      40.245  44.152  23.336 -0.00 -0.02    -0.494 OA ATOM     17  C   UNL     1      39.037  43.997  22.604 -0.17 +0.01    +0.278 C  ENDBRANCH  10  16BRANCH  14  18ATOM     18  O   UNL     1      42.959  48.897  22.485 -0.64 -0.11    -0.507 OA ATOM     19  H   UNL     1      43.585  48.773  21.751 -0.43 -0.04    +0.293 HD ENDBRANCH  14  18ENDBRANCH   7   9ENDBRANCH   1   7BRANCH   4  20ATOM     20  C   UNL     1      39.788  47.015  15.591 -0.35 -0.05    +0.251 C  ATOM     21  N   UNL     1      38.422  47.104  15.771 -0.17 +0.15    -0.348 N  ATOM     22  O   UNL     1      40.320  46.894  14.495 -0.28 +0.03    -0.269 OA ATOM     23  H   UNL     1      38.053  46.908  16.693 +0.10 -0.08    +0.164 HD BRANCH  21  24ATOM     24  C   UNL     1      37.511  46.947  14.643 -0.43 -0.05    +0.096 C  ATOM     25  C   UNL     1      37.707  45.583  13.982 -0.47 -0.01    +0.027 C  ATOM     26  C   UNL     1      37.680  48.083  13.600 -0.50 -0.04    +0.105 C  ATOM     27  C   UNL     1      36.766  45.397  12.786 -0.59 -0.01    +0.017 C  ATOM     28  N   UNL     1      37.264  47.737  12.231 -0.95 +0.05    -0.315 NA ATOM     29  C   UNL     1      36.225  46.715  12.226 -0.69 -0.04    +0.081 C  ATOM     30  H   UNL     1      36.930  48.581  11.765 -0.19 -0.01    +0.122 HD ENDBRANCH  21  24ENDBRANCH   4  20TORSDOF 6TERENDMDL