MODEL        3USER    Run = 3USERUSER    Estimated Free Energy of Binding    =  -8.73 kcal/mol  [=(1)+(2)+(3)-(4)]USERUSER    (1) Final Intermolecular Energy     = -11.41 kcal/molUSER        vdW + Hbond + desolv Energy     = -11.13 kcal/molUSER        Electrostatic Energy            =  -0.28 kcal/molUSER        Moving Ligand-Fixed Receptor    = -11.41 kcal/molUSER        Moving Ligand-Moving Receptor   =  +0.00 kcal/molUSER    (2) Final Total Internal Energy     =  -2.35 kcal/molUSER    (3) Torsional Free Energy           =  +2.68 kcal/molUSER    (4) Unbound System's Energy         =  -2.35 kcal/molUSERUSERREMARK SMILES COc1ccc(O)c(C(=O)c2ccc(C(=O)NCCNC(=O)c3ccncc3)cc2)c1FREMARK SMILES IDX 11 1 12 2 13 3 14 4 29 5 30 6 9 7 10 8 8 9 3 10 4 11 31 12REMARK SMILES IDX 5 13 6 14 32 15 2 16 1 17 7 18 15 20 17 21 16 22 18 24 19 25REMARK SMILES IDX 20 26 21 27 22 29 23 30 24 31 28 32 25 33 27 34 26 35REMARK H PARENT 7 19 17 23 20 28USER                              x       y       z     vdW  Elec       q    TypeUSER                           _______ _______ _______ _____ _____    ______ ____ROOTATOM      1  C   UNL     1      40.009  47.185  16.510 -0.49 -0.00    +0.023 A  ATOM      2  C   UNL     1      39.984  45.900  17.064 -0.41 -0.00    +0.013 A  ATOM      3  C   UNL     1      40.760  45.608  18.191 -0.46 -0.00    +0.014 A  ATOM      4  C   UNL     1      41.585  46.592  18.752 -0.49 +0.00    +0.039 A  ATOM      5  C   UNL     1      41.610  47.877  18.191 -0.37 -0.00    +0.014 A  ATOM      6  C   UNL     1      40.835  48.169  17.066 -0.48 -0.00    +0.013 A  ENDROOTBRANCH   1   7ATOM      7  C   UNL     1      39.232  47.522  15.294 -0.41 -0.06    +0.199 C  ATOM      8  O   UNL     1      39.771  48.199  14.416 -0.36 +0.08    -0.288 OA BRANCH   7   9ATOM      9  C   UNL     1      37.855  47.036  15.050 -0.36 -0.05    +0.104 A  ATOM     10  C   UNL     1      35.744  46.090  15.833 -0.25 -0.13    +0.155 A  ATOM     11  C   UNL     1      35.256  46.101  14.524 -0.36 -0.04    +0.053 A  ATOM     12  C   UNL     1      37.041  46.567  16.084 -0.26 -0.11    +0.179 A  ATOM     13  C   UNL     1      36.050  46.597  13.486 -0.49 -0.03    +0.051 A  ATOM     14  C   UNL     1      37.333  47.073  13.751 -0.41 -0.06    +0.130 A  ATOM     15  F   UNL     1      37.484  46.586  17.352 -0.09 +0.09    -0.202 F  BRANCH  10  16ATOM     16  O   UNL     1      35.061  45.639  16.931 -0.06 +0.36    -0.494 OA ATOM     17  C   UNL     1      34.649  46.608  17.887 -0.28 -0.26    +0.278 C  ENDBRANCH  10  16BRANCH  14  18ATOM     18  O   UNL     1      38.032  47.566  12.681 -0.67 +0.04    -0.507 OA ATOM     19  H   UNL     1      38.848  47.998  13.027 +0.22 -0.02    +0.293 HD ENDBRANCH  14  18ENDBRANCH   7   9ENDBRANCH   1   7BRANCH   4  20ATOM     20  C   UNL     1      42.439  46.327  19.944 -0.24 +0.06    +0.251 C  ATOM     21  N   UNL     1      43.527  47.158  20.121 -0.22 -0.14    -0.350 N  ATOM     22  O   UNL     1      42.145  45.433  20.729 -0.23 -0.06    -0.269 OA ATOM     23  H   UNL     1      43.638  47.975  19.535 -0.43 +0.01    +0.163 HD BRANCH  21  24ATOM     24  C   UNL     1      44.401  47.011  21.269 -0.19 +0.11    +0.137 C  BRANCH  24  25ATOM     25  C   UNL     1      43.948  47.845  22.468 -0.26 +0.04    +0.137 C  BRANCH  25  26ATOM     26  N   UNL     1      42.649  47.429  22.973 -0.12 -0.06    -0.350 N  ATOM     27  C   UNL     1      41.821  48.350  23.584 -0.26 +0.05    +0.251 C  ATOM     28  H   UNL     1      42.221  46.609  22.563 +0.08 +0.03    +0.163 HD ATOM     29  O   UNL     1      42.135  49.518  23.786 -0.84 -0.10    -0.269 OA BRANCH  27  30ATOM     30  C   UNL     1      40.464  47.870  23.956 -0.29 +0.01    +0.042 A  ATOM     31  C   UNL     1      39.984  46.707  23.351 -0.24 +0.00    +0.034 A  ATOM     32  C   UNL     1      39.658  48.561  24.862 -0.29 +0.00    +0.034 A  ATOM     33  C   UNL     1      38.723  46.265  23.702 -0.26 +0.01    +0.112 A  ATOM     34  C   UNL     1      38.410  48.038  25.147 -0.31 +0.01    +0.112 A  ATOM     35  N   UNL     1      37.930  46.902  24.595 -0.57 -0.05    -0.265 NA ENDBRANCH  27  30ENDBRANCH  25  26ENDBRANCH  24  25ENDBRANCH  21  24ENDBRANCH   4  20TORSDOF 9TERENDMDL