REMARK SMILES Nc1cc(C(=O)Nc2nc3ccccc3s2)ccn1
REMARK SMILES IDX 2 1 3 2 4 3 17 4 18 5 19 6 1 7 5 10 7 11 6 12 8 14 9 15
REMARK SMILES IDX 16 16 10 17 15 18 11 19 14 20 12 21 13 22
REMARK H PARENT 1 8 1 9 7 13
ROOT
ATOM      1  C   UNL     1      -4.439  -0.532   0.826  1.00  0.00     0.124 A 
ATOM      2  C   UNL     1      -3.084  -0.555   0.542  1.00  0.00     0.060 A 
ATOM      3  C   UNL     1      -2.628   0.151  -0.573  1.00  0.00     0.045 A 
ATOM      4  C   UNL     1      -3.544   0.826  -1.379  1.00  0.00     0.034 A 
ATOM      5  C   UNL     1      -4.874   0.782  -1.017  1.00  0.00     0.114 A 
ATOM      6  N   UNL     1      -5.333   0.124   0.070  1.00  0.00    -0.240 NA
ENDROOT
BRANCH   1   7
ATOM      7  N   UNL     1      -4.947  -1.239   1.911  1.00  0.00    -0.384 N 
ATOM      8  H   UNL     1      -5.949  -1.059   1.938  1.00  0.00     0.158 HD
ATOM      9  H   UNL     1      -4.500  -0.982   2.782  1.00  0.00     0.158 HD
ENDBRANCH   1   7
BRANCH   3  10
ATOM     10  C   UNL     1      -1.190   0.179  -0.962  1.00  0.00     0.257 C 
ATOM     11  N   UNL     1      -0.304   0.106   0.087  1.00  0.00    -0.298 N 
ATOM     12  O   UNL     1      -0.925   0.299  -2.151  1.00  0.00    -0.269 OA
ATOM     13  H   UNL     1      -0.633   0.139   1.041  1.00  0.00     0.172 HD
BRANCH  11  14
ATOM     14  C   UNL     1       1.066   0.085   0.014  1.00  0.00     0.190 A 
ATOM     15  N   UNL     1       1.787   0.085   1.109  1.00  0.00    -0.220 NA
ATOM     16  S   UNL     1       1.921   0.030  -1.453  1.00  0.00    -0.097 S 
ATOM     17  C   UNL     1       3.132   0.051   0.778  1.00  0.00     0.084 A 
ATOM     18  C   UNL     1       3.409   0.018  -0.590  1.00  0.00     0.056 A 
ATOM     19  C   UNL     1       4.210   0.046   1.688  1.00  0.00     0.030 A 
ATOM     20  C   UNL     1       4.724  -0.019  -1.082  1.00  0.00     0.021 A 
ATOM     21  C   UNL     1       5.524   0.009   1.209  1.00  0.00     0.002 A 
ATOM     22  C   UNL     1       5.775  -0.023  -0.160  1.00  0.00     0.002 A 
ENDBRANCH  11  14
ENDBRANCH   3  10
TORSDOF 3
