MODEL        9USER    Run = 9USERUSER    Estimated Free Energy of Binding    =  -8.49 kcal/mol  [=(1)+(2)+(3)-(4)]USERUSER    (1) Final Intermolecular Energy     =  -9.39 kcal/molUSER        vdW + Hbond + desolv Energy     =  -9.27 kcal/molUSER        Electrostatic Energy            =  -0.11 kcal/molUSER        Moving Ligand-Fixed Receptor    =  -9.39 kcal/molUSER        Moving Ligand-Moving Receptor   =  +0.00 kcal/molUSER    (2) Final Total Internal Energy     =  -0.55 kcal/molUSER    (3) Torsional Free Energy           =  +0.89 kcal/molUSER    (4) Unbound System's Energy         =  -0.55 kcal/molUSERUSERREMARK SMILES Nc1ccc(-c2cnc3cnc(-c4cccs4)cn23)cc1REMARK SMILES IDX 2 1 3 2 4 3 5 4 20 5 21 6 1 7 6 10 7 11 19 12 8 13 18 14REMARK SMILES IDX 9 15 12 16 10 17 11 18 13 19 14 20 17 21 15 22 16 23REMARK H PARENT 1 8 1 9USER                              x       y       z     vdW  Elec       q    TypeUSER                           _______ _______ _______ _____ _____    ______ ____ROOTATOM      1  C   UNL     1      34.854  43.105  16.368 -0.39 -0.01    +0.031 A  ATOM      2  C   UNL     1      36.161  42.940  15.906 -0.44 -0.01    +0.026 A  ATOM      3  C   UNL     1      36.866  44.013  15.353 -0.31 -0.00    +0.012 A  ATOM      4  C   UNL     1      36.254  45.261  15.207 -0.36 -0.00    +0.000 A  ATOM      5  C   UNL     1      34.928  45.418  15.624 -0.33 -0.01    +0.012 A  ATOM      6  C   UNL     1      34.229  44.340  16.178 -0.31 -0.01    +0.026 A  ENDROOTBRANCH   1   7ATOM      7  N   UNL     1      34.116  42.002  16.807 -0.14 +0.20    -0.399 N  ATOM      8  H   UNL     1      33.331  41.765  16.207 -0.49 -0.12    +0.156 HD ATOM      9  H   UNL     1      34.682  41.190  17.035 -0.49 -0.11    +0.156 HD ENDBRANCH   1   7BRANCH   4  10ATOM     10  C   UNL     1      36.990  46.374  14.627 -0.36 -0.04    +0.073 A  ATOM     11  C   UNL     1      36.721  47.142  13.503 -0.44 -0.07    +0.140 A  ATOM     12  N   UNL     1      38.152  46.920  15.135 -0.19 +0.12    -0.296 N  ATOM     13  N   UNL     1      37.680  48.104  13.294 -0.77 +0.06    -0.235 NA ATOM     14  C   UNL     1      38.920  46.643  16.254 -0.34 -0.04    +0.123 A  ATOM     15  C   UNL     1      38.518  47.936  14.290 -0.39 -0.06    +0.155 A  ATOM     16  C   UNL     1      40.028  47.382  16.474 -0.44 -0.02    +0.097 A  ATOM     17  C   UNL     1      39.713  48.672  14.584 -0.36 -0.06    +0.159 A  ATOM     18  N   UNL     1      40.445  48.405  15.630 -0.37 +0.06    -0.250 NA BRANCH  16  19ATOM     19  C   UNL     1      40.845  47.118  17.624 -0.48 -0.01    +0.054 A  ATOM     20  C   UNL     1      41.983  47.778  18.072 -0.44 -0.00    +0.022 A  ATOM     21  S   UNL     1      40.479  45.804  18.689 -0.55 +0.00    -0.142 S  ATOM     22  C   UNL     1      42.538  47.216  19.258 -0.52 +0.00    +0.012 A  ATOM     23  C   UNL     1      41.813  46.135  19.698 -0.39 +0.01    +0.065 A  ENDBRANCH  16  19ENDBRANCH   4  10TORSDOF 3TERENDMDL