MODEL        6USER    Run = 6USERUSER    Estimated Free Energy of Binding    =  -9.88 kcal/mol  [=(1)+(2)+(3)-(4)]USERUSER    (1) Final Intermolecular Energy     = -11.97 kcal/molUSER        vdW + Hbond + desolv Energy     = -11.93 kcal/molUSER        Electrostatic Energy            =  -0.04 kcal/molUSER        Moving Ligand-Fixed Receptor    = -11.97 kcal/molUSER        Moving Ligand-Moving Receptor   =  +0.00 kcal/molUSER    (2) Final Total Internal Energy     =  -0.99 kcal/molUSER    (3) Torsional Free Energy           =  +2.09 kcal/molUSER    (4) Unbound System's Energy         =  -0.99 kcal/molUSERUSERREMARK SMILES CN(C)C1CCN(C(=O)c2ccc(-c3nc(N=Cc4cncn4C)ccc3C#N)cc2F)CC1REMARK SMILES IDX 14 1 15 2 16 3 25 4 26 5 27 6 13 7 10 8 11 9 31 10 12 11REMARK SMILES IDX 30 12 32 13 8 14 4 15 5 16 34 17 6 18 33 19 7 20 9 21 2 22REMARK SMILES IDX 1 23 3 24 28 25 29 26 17 27 18 28 19 29 20 30 23 31 21 32REMARK SMILES IDX 22 33 24 34REMARK H PARENTUSER                              x       y       z     vdW  Elec       q    TypeUSER                           _______ _______ _______ _____ _____    ______ ____ROOTATOM      1  C   UNL     1      37.660  43.955  22.641 -0.31 +0.01    +0.091 A  ATOM      2  N   UNL     1      37.684  44.972  23.549 -0.27 -0.03    -0.227 NA ATOM      3  C   UNL     1      37.209  44.743  24.792 -0.23 +0.01    +0.152 A  ATOM      4  C   UNL     1      36.698  43.518  25.182 -0.33 +0.00    +0.050 A  ATOM      5  C   UNL     1      36.695  42.472  24.266 -0.38 +0.00    +0.025 A  ATOM      6  C   UNL     1      37.187  42.682  22.974 -0.37 +0.01    +0.078 A  ENDROOTBRANCH   1   7ATOM      7  C   UNL     1      38.186  44.348  21.315 -0.37 +0.00    +0.005 A  ATOM      8  C   UNL     1      39.205  45.181  18.822 -0.37 -0.01    +0.075 A  ATOM      9  C   UNL     1      38.050  44.399  18.871 -0.34 -0.00    +0.017 A  ATOM     10  C   UNL     1      39.855  45.543  19.994 -0.29 +0.00    +0.136 A  ATOM     11  C   UNL     1      37.539  44.000  20.112 -0.36 -0.00    +0.011 A  ATOM     12  C   UNL     1      39.351  45.136  21.229 -0.31 +0.00    +0.050 A  ATOM     13  F   UNL     1      40.953  46.311  19.967 -0.10 -0.01    -0.206 F  BRANCH   8  14ATOM     14  C   UNL     1      39.766  45.586  17.525 -0.28 -0.03    +0.256 C  ATOM     15  C   UNL     1      37.073  46.242  14.423 -0.44 -0.03    +0.059 C  ATOM     16  C   UNL     1      38.586  46.205  14.112 -0.42 -0.01    +0.040 C  ATOM     17  C   UNL     1      36.786  47.102  15.662 -0.43 -0.03    +0.040 C  ATOM     18  C   UNL     1      39.461  46.577  15.309 -0.43 -0.03    +0.121 C  ATOM     19  C   UNL     1      37.526  46.527  16.871 -0.32 -0.06    +0.121 C  ATOM     20  N   UNL     1      38.898  46.114  16.570 -0.17 +0.09    -0.338 N  ATOM     21  O   UNL     1      40.967  45.400  17.348 -0.28 +0.00    -0.269 OA BRANCH  15  22ATOM     22  N   UNL     1      36.304  46.573  13.204 -0.30 +0.16    -0.306 NA ATOM     23  C   UNL     1      36.500  47.965  12.791 -0.62 -0.05    +0.105 C  ATOM     24  C   UNL     1      36.556  45.676  12.074 -0.60 -0.04    +0.105 C  ENDBRANCH  15  22ENDBRANCH   8  14ENDBRANCH   1   7BRANCH   6  25ATOM     25  C   UNL     1      37.208  41.585  22.057 -0.53 +0.01    +0.101 C  ATOM     26  N   UNL     1      37.224  40.678  21.333 -0.38 -0.00    -0.192 NA ENDBRANCH   6  25BRANCH   3  27ATOM     27  N   UNL     1      37.203  45.801  25.702 -0.50 -0.00    -0.235 NA BRANCH  27  28ATOM     28  C   UNL     1      37.332  45.517  26.956 -0.31 -0.02    +0.141 C  BRANCH  28  29ATOM     29  C   UNL     1      36.169  45.430  27.796 -0.25 -0.02    +0.079 A  ATOM     30  C   UNL     1      35.409  44.322  28.126 -0.44 -0.04    +0.140 A  ATOM     31  N   UNL     1      35.553  46.461  28.466 -0.21 +0.10    -0.333 N  ATOM     32  N   UNL     1      34.372  44.653  28.960 -0.47 +0.05    -0.245 NA ATOM     33  C   UNL     1      34.486  45.949  29.148 -0.24 -0.04    +0.199 A  ATOM     34  C   UNL     1      35.960  47.846  28.487 -0.32 -0.03    +0.151 C  ENDBRANCH  28  29ENDBRANCH  27  28ENDBRANCH   3  27TORSDOF 7TERENDMDL