REMARK SMILES Nc1ccc(-c2cnc3cnc(-c4cccs4)cn23)cc1
REMARK SMILES IDX 2 1 3 2 4 3 5 4 20 5 21 6 1 7 6 10 7 11 19 12 8 13 18 14
REMARK SMILES IDX 9 15 12 16 10 17 11 18 13 19 14 20 17 21 15 22 16 23
REMARK H PARENT 1 8 1 9
ROOT
ATOM      1  C   UNL     1       3.924   1.216  -0.378  1.00  0.00     0.031 A 
ATOM      2  C   UNL     1       3.793   0.754   0.933  1.00  0.00     0.026 A 
ATOM      3  C   UNL     1       2.828  -0.203   1.262  1.00  0.00     0.012 A 
ATOM      4  C   UNL     1       1.943  -0.677   0.290  1.00  0.00     0.000 A 
ATOM      5  C   UNL     1       2.039  -0.180  -1.014  1.00  0.00     0.012 A 
ATOM      6  C   UNL     1       3.008   0.776  -1.336  1.00  0.00     0.026 A 
ENDROOT
BRANCH   1   7
ATOM      7  N   UNL     1       4.808   2.258  -0.674  1.00  0.00    -0.399 N 
ATOM      8  H   UNL     1       5.615   2.301  -0.059  1.00  0.00     0.156 HD
ATOM      9  H   UNL     1       5.069   2.312  -1.654  1.00  0.00     0.156 HD
ENDBRANCH   1   7
BRANCH   4  10
ATOM     10  C   UNL     1       0.937  -1.670   0.638  1.00  0.00     0.073 A 
ATOM     11  C   UNL     1       1.079  -2.957   1.137  1.00  0.00     0.140 A 
ATOM     12  N   UNL     1      -0.429  -1.493   0.552  1.00  0.00    -0.296 N 
ATOM     13  N   UNL     1      -0.135  -3.572   1.328  1.00  0.00    -0.235 NA
ATOM     14  C   UNL     1      -1.225  -0.426   0.169  1.00  0.00     0.123 A 
ATOM     15  C   UNL     1      -1.010  -2.664   0.965  1.00  0.00     0.155 A 
ATOM     16  C   UNL     1      -2.566  -0.578   0.200  1.00  0.00     0.097 A 
ATOM     17  C   UNL     1      -2.441  -2.755   0.963  1.00  0.00     0.159 A 
ATOM     18  N   UNL     1      -3.193  -1.756   0.590  1.00  0.00    -0.250 NA
BRANCH  16  19
ATOM     19  C   UNL     1      -3.417   0.508  -0.192  1.00  0.00     0.054 A 
ATOM     20  C   UNL     1      -3.210   1.495  -1.149  1.00  0.00     0.022 A 
ATOM     21  S   UNL     1      -4.953   0.750   0.569  1.00  0.00    -0.142 S 
ATOM     22  C   UNL     1      -4.286   2.424  -1.251  1.00  0.00     0.012 A 
ATOM     23  C   UNL     1      -5.299   2.131  -0.370  1.00  0.00     0.065 A 
ENDBRANCH  16  19
ENDBRANCH   4  10
TORSDOF 3
