REMARK SMILES Cn1cc(-c2cnc3c(c2)nnn3-c2cccc(C(F)(F)F)c2)cn1
REMARK SMILES IDX 5 1 6 2 7 3 8 4 9 5 10 6 11 7 12 8 13 9 4 10 2 11 3 12 25 13
REMARK SMILES IDX 24 14 1 15 14 16 15 17 23 18 16 19 18 20 17 21 19 22 20 23
REMARK SMILES IDX 21 24 22 25
REMARK H PARENT
ROOT
ATOM      1  C   UNL     1      -2.170  -0.164  -0.531  1.00  0.00     0.006 A 
ATOM      2  C   UNL     1      -1.169   0.545   0.141  1.00  0.00     0.122 A 
ATOM      3  N   UNL     1       0.163   0.270   0.137  1.00  0.00    -0.234 NA
ATOM      4  C   UNL     1       0.474  -0.809  -0.618  1.00  0.00     0.183 A 
ATOM      5  C   UNL     1      -0.419  -1.594  -1.336  1.00  0.00     0.133 A 
ATOM      6  C   UNL     1      -1.781  -1.269  -1.299  1.00  0.00     0.044 A 
ATOM      7  N   UNL     1       0.248  -2.592  -1.978  1.00  0.00    -0.128 NA
ATOM      8  N   UNL     1       1.538  -2.470  -1.693  1.00  0.00    -0.060 NA
ATOM      9  N   UNL     1       1.710  -1.395  -0.868  1.00  0.00    -0.194 N 
ENDROOT
BRANCH   1  10
ATOM     10  C   UNL     1      -3.567   0.224  -0.455  1.00  0.00     0.021 A 
ATOM     11  N   UNL     1      -5.473   1.046   0.271  1.00  0.00    -0.275 N 
ATOM     12  C   UNL     1      -4.155   0.899   0.597  1.00  0.00     0.117 A 
ATOM     13  N   UNL     1      -5.792   0.513  -0.920  1.00  0.00    -0.181 NA
ATOM     14  C   UNL     1      -4.635   0.011  -1.359  1.00  0.00     0.143 A 
ATOM     15  C   UNL     1      -6.499   1.685   1.060  1.00  0.00     0.173 C 
ENDBRANCH   1  10
BRANCH   9  16
ATOM     16  C   UNL     1       3.008  -1.036  -0.404  1.00  0.00     0.069 A 
ATOM     17  C   UNL     1       4.117  -1.798  -0.808  1.00  0.00     0.028 A 
ATOM     18  C   UNL     1       3.209   0.061   0.446  1.00  0.00     0.041 A 
ATOM     19  C   UNL     1       5.401  -1.466  -0.372  1.00  0.00     0.003 A 
ATOM     20  C   UNL     1       4.501   0.396   0.896  1.00  0.00     0.058 A 
ATOM     21  C   UNL     1       5.593  -0.374   0.473  1.00  0.00     0.013 A 
BRANCH  20  22
ATOM     22  C   UNL     1       4.701   1.592   1.796  1.00  0.00     0.416 C 
ATOM     23  F   UNL     1       3.765   1.673   2.783  1.00  0.00    -0.166 F 
ATOM     24  F   UNL     1       4.631   2.770   1.117  1.00  0.00    -0.166 F 
ATOM     25  F   UNL     1       5.907   1.597   2.430  1.00  0.00    -0.166 F 
ENDBRANCH  20  22
ENDBRANCH   9  16
TORSDOF 3
