
     RDKit          3D

 50 53  0  0  0  0  0  0  0  0999 V2000
   -3.0499   -2.9464    0.1927 O   0  0  0  0  0  0  0  0  0  0  0  0
   -2.7882   -1.7554    0.3429 C   0  0  0  0  0  0  0  0  0  0  0  0
   -3.9250   -0.8120    0.4240 C   0  0  0  0  0  0  0  0  0  0  0  0
   -4.8883   -0.8242   -0.5877 C   0  0  0  0  0  0  0  0  0  0  0  0
   -5.9850    0.0372   -0.5111 C   0  0  0  0  0  0  0  0  0  0  0  0
   -6.1399    0.8998    0.5876 C   0  0  0  0  0  0  0  0  0  0  0  0
   -7.3166    1.8449    0.6588 C   0  0  0  0  0  0  0  0  0  0  0  0
   -7.6896    2.1390    1.9354 F   0  0  0  0  0  0  0  0  0  0  0  0
   -8.4320    1.3593    0.0469 F   0  0  0  0  0  0  0  0  0  0  0  0
   -7.0514    3.0396    0.0622 F   0  0  0  0  0  0  0  0  0  0  0  0
   -5.1711    0.8892    1.6059 C   0  0  0  0  0  0  0  0  0  0  0  0
   -4.0733    0.0288    1.5317 C   0  0  0  0  0  0  0  0  0  0  0  0
   -1.4878   -1.2567    0.4608 N   0  0  0  0  0  0  0  0  0  0  0  0
   -1.1274    0.0952    0.0147 C   0  0  0  0  0  0  0  0  0  0  0  0
    0.2307    0.5613    0.5772 C   0  0  0  0  0  0  0  0  0  0  0  0
    1.3455   -0.3922    0.3957 N   0  0  0  0  0  0  0  0  0  0  0  0
    1.7559   -0.4554   -1.0209 C   0  0  0  0  0  0  0  0  0  0  0  0
    3.0287   -1.2421   -1.1838 C   0  0  0  0  0  0  0  0  0  0  0  0
    2.9248   -2.5730   -1.5887 N   0  0  0  0  0  0  0  0  0  0  0  0
    4.1237   -3.0994   -1.6871 C   0  0  0  0  0  0  0  0  0  0  0  0
    5.4367   -2.0636   -1.3317 S   0  0  0  0  0  0  0  0  0  0  0  0
    4.3304   -0.7863   -1.0084 C   0  0  0  0  0  0  0  0  0  0  0  0
    4.8312    0.5256   -0.6001 C   0  0  0  0  0  0  0  0  0  0  0  0
    4.4830    1.0559    0.6514 C   0  0  0  0  0  0  0  0  0  0  0  0
    4.9488    2.3128    1.0435 C   0  0  0  0  0  0  0  0  0  0  0  0
    5.7626    3.0400    0.1840 C   0  0  0  0  0  0  0  0  0  0  0  0
    6.2089    4.2455    0.5597 F   0  0  0  0  0  0  0  0  0  0  0  0
    6.1199    2.5349   -1.0601 C   0  0  0  0  0  0  0  0  0  0  0  0
    5.6541    1.2780   -1.4533 C   0  0  0  0  0  0  0  0  0  0  0  0
    0.9241   -1.7095    0.9294 C   0  0  0  0  0  0  0  0  0  0  0  0
   -0.4072   -2.2438    0.3711 C   0  0  0  0  0  0  0  0  0  0  0  0
   -4.7869   -1.5070   -1.4287 H   0  0  0  0  0  0  0  0  0  0  0  0
   -6.7279    0.0248   -1.3080 H   0  0  0  0  0  0  0  0  0  0  0  0
   -5.2773    1.5453    2.4693 H   0  0  0  0  0  0  0  0  0  0  0  0
   -3.3438    0.0072    2.3379 H   0  0  0  0  0  0  0  0  0  0  0  0
   -1.1054    0.0767   -1.0817 H   0  0  0  0  0  0  0  0  0  0  0  0
   -1.8937    0.8195    0.2986 H   0  0  0  0  0  0  0  0  0  0  0  0
    0.4926    1.5367    0.1493 H   0  0  0  0  0  0  0  0  0  0  0  0
    0.1156    0.7362    1.6552 H   0  0  0  0  0  0  0  0  0  0  0  0
    0.9780   -0.8846   -1.6627 H   0  0  0  0  0  0  0  0  0  0  0  0
    1.9400    0.5593   -1.3969 H   0  0  0  0  0  0  0  0  0  0  0  0
    4.2790   -4.1296   -1.9795 H   0  0  0  0  0  0  0  0  0  0  0  0
    3.8502    0.4887    1.3320 H   0  0  0  0  0  0  0  0  0  0  0  0
    4.6837    2.7240    2.0123 H   0  0  0  0  0  0  0  0  0  0  0  0
    6.7579    3.1196   -1.7147 H   0  0  0  0  0  0  0  0  0  0  0  0
    5.9348    0.8920   -2.4310 H   0  0  0  0  0  0  0  0  0  0  0  0
    0.8167   -1.5978    2.0171 H   0  0  0  0  0  0  0  0  0  0  0  0
    1.7097   -2.4618    0.8023 H   0  0  0  0  0  0  0  0  0  0  0  0
   -0.6944   -3.1439    0.9273 H   0  0  0  0  0  0  0  0  0  0  0  0
   -0.3054   -2.5323   -0.6816 H   0  0  0  0  0  0  0  0  0  0  0  0
  1  2  2  0
  2  3  1  0
  3  4  2  0
  4  5  1  0
  5  6  2  0
  6  7  1  0
  7  8  1  0
  7  9  1  0
  7 10  1  0
  6 11  1  0
 11 12  2  0
  2 13  1  0
 13 14  1  0
 14 15  1  0
 15 16  1  0
 16 17  1  0
 17 18  1  0
 18 19  1  0
 19 20  2  0
 20 21  1  0
 21 22  1  0
 22 23  1  0
 23 24  2  0
 24 25  1  0
 25 26  2  0
 26 27  1  0
 26 28  1  0
 28 29  2  0
 16 30  1  0
 30 31  1  0
 12  3  1  0
 31 13  1  0
 22 18  2  0
 29 23  1  0
  4 32  1  0
  5 33  1  0
 11 34  1  0
 12 35  1  0
 14 36  1  0
 14 37  1  0
 15 38  1  0
 15 39  1  0
 17 40  1  0
 17 41  1  0
 20 42  1  0
 24 43  1  0
 25 44  1  0
 28 45  1  0
 29 46  1  0
 30 47  1  0
 30 48  1  0
 31 49  1  0
 31 50  1  0
M  END
$$$$
