
     RDKit          3D

 41 43  0  0  0  0  0  0  0  0999 V2000
    4.3580    1.4872   -1.8956 C   0  0  0  0  0  0  0  0  0  0  0  0
    3.7635    0.7806   -0.6804 C   0  0  0  0  0  0  0  0  0  0  0  0
    2.9558   -0.3840   -1.0785 N   0  0  0  0  0  0  0  0  0  0  0  0
    1.6095    0.0152   -1.5578 C   0  0  0  0  0  0  0  0  0  0  0  0
    0.4551   -0.0336   -0.5162 C   0  0  0  0  0  0  0  0  0  0  0  0
    0.9264    0.1875    0.8495 N   0  0  0  0  0  0  0  0  0  0  0  0
   -0.1208    0.4049    1.8523 C   0  0  0  0  0  0  0  0  0  0  0  0
   -1.0606   -0.7585    2.0450 C   0  0  0  0  0  0  0  0  0  0  0  0
   -0.7011   -1.7485    2.9611 N   0  0  0  0  0  0  0  0  0  0  0  0
   -1.6254   -2.6795    3.0003 C   0  0  0  0  0  0  0  0  0  0  0  0
   -2.9777   -2.4427    1.9839 S   0  0  0  0  0  0  0  0  0  0  0  0
   -2.2926   -0.9638    1.4321 C   0  0  0  0  0  0  0  0  0  0  0  0
   -3.0283   -0.1467    0.4688 C   0  0  0  0  0  0  0  0  0  0  0  0
   -3.2845   -0.6225   -0.8271 C   0  0  0  0  0  0  0  0  0  0  0  0
   -3.9784    0.1680   -1.7460 C   0  0  0  0  0  0  0  0  0  0  0  0
   -4.4172    1.4314   -1.3694 C   0  0  0  0  0  0  0  0  0  0  0  0
   -5.0824    2.1889   -2.2509 F   0  0  0  0  0  0  0  0  0  0  0  0
   -4.1762    1.9202   -0.0911 C   0  0  0  0  0  0  0  0  0  0  0  0
   -3.4819    1.1314    0.8290 C   0  0  0  0  0  0  0  0  0  0  0  0
    1.9439   -0.7990    1.2400 C   0  0  0  0  0  0  0  0  0  0  0  0
    2.7994   -1.3198    0.0535 C   0  0  0  0  0  0  0  0  0  0  0  0
    5.0128    2.3020   -1.5690 H   0  0  0  0  0  0  0  0  0  0  0  0
    4.9596    0.7960   -2.4959 H   0  0  0  0  0  0  0  0  0  0  0  0
    3.5888    1.9202   -2.5415 H   0  0  0  0  0  0  0  0  0  0  0  0
    4.6114    0.4497   -0.0671 H   0  0  0  0  0  0  0  0  0  0  0  0
    3.1941    1.4961   -0.0754 H   0  0  0  0  0  0  0  0  0  0  0  0
    1.3412   -0.6608   -2.3797 H   0  0  0  0  0  0  0  0  0  0  0  0
    1.6355    1.0158   -2.0049 H   0  0  0  0  0  0  0  0  0  0  0  0
   -0.2801    0.7305   -0.7957 H   0  0  0  0  0  0  0  0  0  0  0  0
   -0.0387   -1.0107   -0.5936 H   0  0  0  0  0  0  0  0  0  0  0  0
   -0.6855    1.3056    1.5866 H   0  0  0  0  0  0  0  0  0  0  0  0
    0.3487    0.6401    2.8163 H   0  0  0  0  0  0  0  0  0  0  0  0
   -1.5417   -3.5489    3.6391 H   0  0  0  0  0  0  0  0  0  0  0  0
   -2.9404   -1.6091   -1.1307 H   0  0  0  0  0  0  0  0  0  0  0  0
   -4.1762   -0.1931   -2.7498 H   0  0  0  0  0  0  0  0  0  0  0  0
   -4.5315    2.9089    0.1819 H   0  0  0  0  0  0  0  0  0  0  0  0
   -3.3054    1.5174    1.8308 H   0  0  0  0  0  0  0  0  0  0  0  0
    1.5064   -1.6780    1.7233 H   0  0  0  0  0  0  0  0  0  0  0  0
    2.6089   -0.3242    1.9711 H   0  0  0  0  0  0  0  0  0  0  0  0
    2.3264   -2.2307   -0.3392 H   0  0  0  0  0  0  0  0  0  0  0  0
    3.7811   -1.6434    0.4213 H   0  0  0  0  0  0  0  0  0  0  0  0
  1  2  1  0
  2  3  1  0
  3  4  1  0
  4  5  1  0
  5  6  1  0
  6  7  1  0
  7  8  1  0
  8  9  1  0
  9 10  2  0
 10 11  1  0
 11 12  1  0
 12 13  1  0
 13 14  2  0
 14 15  1  0
 15 16  2  0
 16 17  1  0
 16 18  1  0
 18 19  2  0
  6 20  1  0
 20 21  1  0
 21  3  1  0
 12  8  2  0
 19 13  1  0
  1 22  1  0
  1 23  1  0
  1 24  1  0
  2 25  1  0
  2 26  1  0
  4 27  1  0
  4 28  1  0
  5 29  1  0
  5 30  1  0
  7 31  1  0
  7 32  1  0
 10 33  1  0
 14 34  1  0
 15 35  1  0
 18 36  1  0
 19 37  1  0
 20 38  1  0
 20 39  1  0
 21 40  1  0
 21 41  1  0
M  END
$$$$
