
     RDKit          3D

 49 52  0  0  0  0  0  0  0  0999 V2000
    7.1753    0.7142    1.9672 C   0  0  0  0  0  0  0  0  0  0  0  0
    6.1412    0.8364    0.8886 C   0  0  0  0  0  0  0  0  0  0  0  0
    5.1861   -0.1560    0.7225 C   0  0  0  0  0  0  0  0  0  0  0  0
    4.2424    0.0034   -0.2905 C   0  0  0  0  0  0  0  0  0  0  0  0
    3.2302   -1.0549   -0.4897 C   0  0  0  0  0  0  0  0  0  0  0  0
    3.6285   -2.2118   -0.5992 O   0  0  0  0  0  0  0  0  0  0  0  0
    1.8882   -0.6995   -0.5457 N   0  0  0  0  0  0  0  0  0  0  0  0
    1.3357    0.5808   -0.0868 C   0  0  0  0  0  0  0  0  0  0  0  0
   -0.0677    0.4182    0.5293 C   0  0  0  0  0  0  0  0  0  0  0  0
   -1.0648   -0.2468   -0.3340 N   0  0  0  0  0  0  0  0  0  0  0  0
   -1.9451    0.7357   -0.9937 C   0  0  0  0  0  0  0  0  0  0  0  0
   -3.0988    0.0563   -1.6829 C   0  0  0  0  0  0  0  0  0  0  0  0
   -2.9856   -0.2007   -3.0493 N   0  0  0  0  0  0  0  0  0  0  0  0
   -4.0779   -0.7884   -3.4798 C   0  0  0  0  0  0  0  0  0  0  0  0
   -5.3024   -1.0558   -2.3171 S   0  0  0  0  0  0  0  0  0  0  0  0
   -4.3060   -0.3348   -1.1144 C   0  0  0  0  0  0  0  0  0  0  0  0
   -4.7826   -0.2363    0.2648 C   0  0  0  0  0  0  0  0  0  0  0  0
   -4.0831   -0.8744    1.3005 C   0  0  0  0  0  0  0  0  0  0  0  0
   -4.5258   -0.7752    2.6214 C   0  0  0  0  0  0  0  0  0  0  0  0
   -5.6678   -0.0376    2.9071 C   0  0  0  0  0  0  0  0  0  0  0  0
   -6.0915    0.0591    4.1738 F   0  0  0  0  0  0  0  0  0  0  0  0
   -6.3760    0.6031    1.8977 C   0  0  0  0  0  0  0  0  0  0  0  0
   -5.9339    0.5047    0.5763 C   0  0  0  0  0  0  0  0  0  0  0  0
   -0.4267   -1.1518   -1.3220 C   0  0  0  0  0  0  0  0  0  0  0  0
    0.9088   -1.7461   -0.8441 C   0  0  0  0  0  0  0  0  0  0  0  0
    4.2964    1.1080   -1.1355 C   0  0  0  0  0  0  0  0  0  0  0  0
    5.2831    2.0429   -0.8957 C   0  0  0  0  0  0  0  0  0  0  0  0
    6.1906    1.9373    0.0999 N   0  0  0  0  0  0  0  0  0  0  0  0
    7.7805   -0.1841    1.8105 H   0  0  0  0  0  0  0  0  0  0  0  0
    6.6936    0.6575    2.9483 H   0  0  0  0  0  0  0  0  0  0  0  0
    7.8443    1.5807    1.9656 H   0  0  0  0  0  0  0  0  0  0  0  0
    5.1723   -1.0356    1.3582 H   0  0  0  0  0  0  0  0  0  0  0  0
    1.2849    1.2450   -0.9571 H   0  0  0  0  0  0  0  0  0  0  0  0
    2.0040    1.0331    0.6525 H   0  0  0  0  0  0  0  0  0  0  0  0
    0.0312   -0.2027    1.4297 H   0  0  0  0  0  0  0  0  0  0  0  0
   -0.4271    1.3911    0.8864 H   0  0  0  0  0  0  0  0  0  0  0  0
   -1.3859    1.3471   -1.7135 H   0  0  0  0  0  0  0  0  0  0  0  0
   -2.3600    1.4278   -0.2497 H   0  0  0  0  0  0  0  0  0  0  0  0
   -4.2037   -1.0869   -4.5123 H   0  0  0  0  0  0  0  0  0  0  0  0
   -3.1904   -1.4584    1.0833 H   0  0  0  0  0  0  0  0  0  0  0  0
   -3.9880   -1.2694    3.4240 H   0  0  0  0  0  0  0  0  0  0  0  0
   -7.2653    1.1744    2.1442 H   0  0  0  0  0  0  0  0  0  0  0  0
   -6.4909    1.0146   -0.2069 H   0  0  0  0  0  0  0  0  0  0  0  0
   -0.2264   -0.6148   -2.2594 H   0  0  0  0  0  0  0  0  0  0  0  0
   -1.1150   -1.9732   -1.5511 H   0  0  0  0  0  0  0  0  0  0  0  0
    0.7648   -2.3377    0.0683 H   0  0  0  0  0  0  0  0  0  0  0  0
    1.3175   -2.4152   -1.6099 H   0  0  0  0  0  0  0  0  0  0  0  0
    3.6067    1.2280   -1.9621 H   0  0  0  0  0  0  0  0  0  0  0  0
    5.3820    2.9282   -1.5176 H   0  0  0  0  0  0  0  0  0  0  0  0
  1  2  1  0
  2  3  2  0
  3  4  1  0
  4  5  1  0
  5  6  2  0
  5  7  1  0
  7  8  1  0
  8  9  1  0
  9 10  1  0
 10 11  1  0
 11 12  1  0
 12 13  1  0
 13 14  2  0
 14 15  1  0
 15 16  1  0
 16 17  1  0
 17 18  2  0
 18 19  1  0
 19 20  2  0
 20 21  1  0
 20 22  1  0
 22 23  2  0
 10 24  1  0
 24 25  1  0
  4 26  2  0
 26 27  1  0
 27 28  2  0
 28  2  1  0
 25  7  1  0
 16 12  2  0
 23 17  1  0
  1 29  1  0
  1 30  1  0
  1 31  1  0
  3 32  1  0
  8 33  1  0
  8 34  1  0
  9 35  1  0
  9 36  1  0
 11 37  1  0
 11 38  1  0
 14 39  1  0
 18 40  1  0
 19 41  1  0
 22 42  1  0
 23 43  1  0
 24 44  1  0
 24 45  1  0
 25 46  1  0
 25 47  1  0
 26 48  1  0
 27 49  1  0
M  END
$$$$
