
     RDKit          3D

 51 54  0  0  0  0  0  0  0  0999 V2000
   -7.4874    1.6016   -1.4433 C   0  0  0  0  0  0  0  0  0  0  0  0
   -6.8064    0.5437   -2.1061 O   0  0  0  0  0  0  0  0  0  0  0  0
   -5.7390   -0.0109   -1.4553 C   0  0  0  0  0  0  0  0  0  0  0  0
   -5.2334    0.3922   -0.2168 C   0  0  0  0  0  0  0  0  0  0  0  0
   -4.1286   -0.2635    0.3372 C   0  0  0  0  0  0  0  0  0  0  0  0
   -3.5204   -1.3147   -0.3568 C   0  0  0  0  0  0  0  0  0  0  0  0
   -2.3691   -2.0363    0.2289 C   0  0  0  0  0  0  0  0  0  0  0  0
   -2.4645   -3.2546    0.3559 O   0  0  0  0  0  0  0  0  0  0  0  0
   -1.2502   -1.3013    0.6293 N   0  0  0  0  0  0  0  0  0  0  0  0
   -0.8399   -0.0721   -0.0590 C   0  0  0  0  0  0  0  0  0  0  0  0
    0.1387    0.7668    0.7823 C   0  0  0  0  0  0  0  0  0  0  0  0
    1.3085   -0.0165    1.2298 N   0  0  0  0  0  0  0  0  0  0  0  0
    2.1995    0.8354    2.0410 C   0  0  0  0  0  0  0  0  0  0  0  0
    3.5192    0.1562    2.2897 C   0  0  0  0  0  0  0  0  0  0  0  0
    3.7210   -0.4514    3.5288 N   0  0  0  0  0  0  0  0  0  0  0  0
    4.9209   -0.9829    3.5698 C   0  0  0  0  0  0  0  0  0  0  0  0
    5.8856   -0.7837    2.1721 S   0  0  0  0  0  0  0  0  0  0  0  0
    4.6033    0.0829    1.4225 C   0  0  0  0  0  0  0  0  0  0  0  0
    4.7662    0.5916    0.0619 C   0  0  0  0  0  0  0  0  0  0  0  0
    3.9506    0.1132   -0.9730 C   0  0  0  0  0  0  0  0  0  0  0  0
    4.0923    0.6030   -2.2743 C   0  0  0  0  0  0  0  0  0  0  0  0
    5.0517    1.5754   -2.5461 C   0  0  0  0  0  0  0  0  0  0  0  0
    5.2250    2.1818   -4.1465 Cl  0  0  0  0  0  0  0  0  0  0  0  0
    5.8705    2.0616   -1.5290 C   0  0  0  0  0  0  0  0  0  0  0  0
    5.7277    1.5708   -0.2278 C   0  0  0  0  0  0  0  0  0  0  0  0
    0.8360   -1.1910    2.0011 C   0  0  0  0  0  0  0  0  0  0  0  0
   -0.1375   -2.0674    1.1921 C   0  0  0  0  0  0  0  0  0  0  0  0
   -4.0357   -1.7390   -1.5821 C   0  0  0  0  0  0  0  0  0  0  0  0
   -5.1371   -1.0787   -2.1304 C   0  0  0  0  0  0  0  0  0  0  0  0
   -8.3163    1.9184   -2.0835 H   0  0  0  0  0  0  0  0  0  0  0  0
   -6.8292    2.4647   -1.2993 H   0  0  0  0  0  0  0  0  0  0  0  0
   -7.9115    1.2638   -0.4920 H   0  0  0  0  0  0  0  0  0  0  0  0
   -5.6797    1.2054    0.3458 H   0  0  0  0  0  0  0  0  0  0  0  0
   -3.7514    0.0387    1.3110 H   0  0  0  0  0  0  0  0  0  0  0  0
   -1.7028    0.5425   -0.3234 H   0  0  0  0  0  0  0  0  0  0  0  0
   -0.3652   -0.3749   -1.0013 H   0  0  0  0  0  0  0  0  0  0  0  0
    0.4732    1.6129    0.1700 H   0  0  0  0  0  0  0  0  0  0  0  0
   -0.3974    1.1778    1.6484 H   0  0  0  0  0  0  0  0  0  0  0  0
    1.7313    1.1071    2.9959 H   0  0  0  0  0  0  0  0  0  0  0  0
    2.4023    1.7759    1.5121 H   0  0  0  0  0  0  0  0  0  0  0  0
    5.2865   -1.5156    4.4378 H   0  0  0  0  0  0  0  0  0  0  0  0
    3.2001   -0.6497   -0.7723 H   0  0  0  0  0  0  0  0  0  0  0  0
    3.4537    0.2201   -3.0657 H   0  0  0  0  0  0  0  0  0  0  0  0
    6.6193    2.8205   -1.7397 H   0  0  0  0  0  0  0  0  0  0  0  0
    6.3695    1.9624    0.5588 H   0  0  0  0  0  0  0  0  0  0  0  0
    1.6803   -1.8248    2.2932 H   0  0  0  0  0  0  0  0  0  0  0  0
    0.3351   -0.8612    2.9211 H   0  0  0  0  0  0  0  0  0  0  0  0
    0.3879   -2.5474    0.3565 H   0  0  0  0  0  0  0  0  0  0  0  0
   -0.5286   -2.8638    1.8357 H   0  0  0  0  0  0  0  0  0  0  0  0
   -3.5871   -2.5802   -2.1047 H   0  0  0  0  0  0  0  0  0  0  0  0
   -5.5375   -1.4047   -3.0877 H   0  0  0  0  0  0  0  0  0  0  0  0
  1  2  1  0
  2  3  1  0
  3  4  2  0
  4  5  1  0
  5  6  2  0
  6  7  1  0
  7  8  2  0
  7  9  1  0
  9 10  1  0
 10 11  1  0
 11 12  1  0
 12 13  1  0
 13 14  1  0
 14 15  1  0
 15 16  2  0
 16 17  1  0
 17 18  1  0
 18 19  1  0
 19 20  2  0
 20 21  1  0
 21 22  2  0
 22 23  1  0
 22 24  1  0
 24 25  2  0
 12 26  1  0
 26 27  1  0
  6 28  1  0
 28 29  2  0
 29  3  1  0
 27  9  1  0
 18 14  2  0
 25 19  1  0
  1 30  1  0
  1 31  1  0
  1 32  1  0
  4 33  1  0
  5 34  1  0
 10 35  1  0
 10 36  1  0
 11 37  1  0
 11 38  1  0
 13 39  1  0
 13 40  1  0
 16 41  1  0
 20 42  1  0
 21 43  1  0
 24 44  1  0
 25 45  1  0
 26 46  1  0
 26 47  1  0
 27 48  1  0
 27 49  1  0
 28 50  1  0
 29 51  1  0
M  END
$$$$
