
     RDKit          3D

 38 40  0  0  0  0  0  0  0  0999 V2000
   -4.3125    0.1407   -0.0861 C   0  0  0  0  0  0  0  0  0  0  0  0
   -3.4824   -0.7339   -0.9183 N   0  0  0  0  0  0  0  0  0  0  0  0
   -3.0186   -1.8998   -0.1481 C   0  0  0  0  0  0  0  0  0  0  0  0
   -1.9908   -1.5972    0.9750 C   0  0  0  0  0  0  0  0  0  0  0  0
   -1.1984   -0.3674    0.7772 N   0  0  0  0  0  0  0  0  0  0  0  0
    0.0453   -0.4223    1.5594 C   0  0  0  0  0  0  0  0  0  0  0  0
    0.6730    0.9406    1.6946 C   0  0  0  0  0  0  0  0  0  0  0  0
    0.1109    1.8419    2.5988 N   0  0  0  0  0  0  0  0  0  0  0  0
    0.7726    2.9746    2.5695 C   0  0  0  0  0  0  0  0  0  0  0  0
    2.1112    3.0399    1.5079 S   0  0  0  0  0  0  0  0  0  0  0  0
    1.7946    1.4199    1.0271 C   0  0  0  0  0  0  0  0  0  0  0  0
    2.6697    0.7706    0.0545 C   0  0  0  0  0  0  0  0  0  0  0  0
    3.4844   -0.3024    0.4463 C   0  0  0  0  0  0  0  0  0  0  0  0
    4.3123   -0.9355   -0.4832 C   0  0  0  0  0  0  0  0  0  0  0  0
    4.3246   -0.4957   -1.8016 C   0  0  0  0  0  0  0  0  0  0  0  0
    5.1178   -1.1045   -2.6922 F   0  0  0  0  0  0  0  0  0  0  0  0
    3.5261    0.5661   -2.2093 C   0  0  0  0  0  0  0  0  0  0  0  0
    2.6981    1.2009   -1.2812 C   0  0  0  0  0  0  0  0  0  0  0  0
   -0.9849   -0.1270   -0.6548 C   0  0  0  0  0  0  0  0  0  0  0  0
   -2.3145    0.0022   -1.4501 C   0  0  0  0  0  0  0  0  0  0  0  0
   -5.1708   -0.4126    0.3115 H   0  0  0  0  0  0  0  0  0  0  0  0
   -4.7257    0.9556   -0.6913 H   0  0  0  0  0  0  0  0  0  0  0  0
   -3.7721    0.5852    0.7560 H   0  0  0  0  0  0  0  0  0  0  0  0
   -2.5526   -2.5952   -0.8598 H   0  0  0  0  0  0  0  0  0  0  0  0
   -3.8728   -2.4462    0.2711 H   0  0  0  0  0  0  0  0  0  0  0  0
   -2.5292   -1.4956    1.9251 H   0  0  0  0  0  0  0  0  0  0  0  0
   -1.3372   -2.4750    1.0653 H   0  0  0  0  0  0  0  0  0  0  0  0
   -0.1770   -0.7663    2.5786 H   0  0  0  0  0  0  0  0  0  0  0  0
    0.7478   -1.1470    1.1321 H   0  0  0  0  0  0  0  0  0  0  0  0
    0.4937    3.8205    3.1839 H   0  0  0  0  0  0  0  0  0  0  0  0
    3.4853   -0.6452    1.4790 H   0  0  0  0  0  0  0  0  0  0  0  0
    4.9480   -1.7640   -0.1873 H   0  0  0  0  0  0  0  0  0  0  0  0
    3.5534    0.8933   -3.2439 H   0  0  0  0  0  0  0  0  0  0  0  0
    2.0726    2.0299   -1.6062 H   0  0  0  0  0  0  0  0  0  0  0  0
   -0.4231    0.7986   -0.8180 H   0  0  0  0  0  0  0  0  0  0  0  0
   -0.3910   -0.9453   -1.0842 H   0  0  0  0  0  0  0  0  0  0  0  0
   -2.1273   -0.3681   -2.4661 H   0  0  0  0  0  0  0  0  0  0  0  0
   -2.5604    1.0655   -1.5715 H   0  0  0  0  0  0  0  0  0  0  0  0
  1  2  1  0
  2  3  1  0
  3  4  1  0
  4  5  1  0
  5  6  1  0
  6  7  1  0
  7  8  1  0
  8  9  2  0
  9 10  1  0
 10 11  1  0
 11 12  1  0
 12 13  2  0
 13 14  1  0
 14 15  2  0
 15 16  1  0
 15 17  1  0
 17 18  2  0
  5 19  1  0
 19 20  1  0
 20  2  1  0
 11  7  2  0
 18 12  1  0
  1 21  1  0
  1 22  1  0
  1 23  1  0
  3 24  1  0
  3 25  1  0
  4 26  1  0
  4 27  1  0
  6 28  1  0
  6 29  1  0
  9 30  1  0
 13 31  1  0
 14 32  1  0
 17 33  1  0
 18 34  1  0
 19 35  1  0
 19 36  1  0
 20 37  1  0
 20 38  1  0
M  END
$$$$
