
     RDKit          3D

 43 46  0  0  0  0  0  0  0  0999 V2000
    1.9393    2.3638   -1.7947 O   0  0  0  0  0  0  0  0  0  0  0  0
    1.5385    1.2014   -1.8629 C   0  0  0  0  0  0  0  0  0  0  0  0
    0.4315    0.7929   -2.8204 C   0  0  0  0  0  0  0  0  0  0  0  0
   -0.8435    0.3958   -2.1162 C   0  0  0  0  0  0  0  0  0  0  0  0
   -1.3700   -0.8919   -2.2612 C   0  0  0  0  0  0  0  0  0  0  0  0
   -2.5489   -1.2545   -1.6003 C   0  0  0  0  0  0  0  0  0  0  0  0
   -3.2359   -0.3413   -0.7845 C   0  0  0  0  0  0  0  0  0  0  0  0
   -4.4738   -0.7261   -0.0873 C   0  0  0  0  0  0  0  0  0  0  0  0
   -4.5117   -1.8554    0.7467 C   0  0  0  0  0  0  0  0  0  0  0  0
   -5.6855   -2.2209    1.4114 C   0  0  0  0  0  0  0  0  0  0  0  0
   -6.8433   -1.4623    1.2528 C   0  0  0  0  0  0  0  0  0  0  0  0
   -6.8277   -0.3389    0.4307 C   0  0  0  0  0  0  0  0  0  0  0  0
   -5.6525    0.0271   -0.2325 C   0  0  0  0  0  0  0  0  0  0  0  0
   -2.7041    0.9513   -0.6530 C   0  0  0  0  0  0  0  0  0  0  0  0
   -1.5246    1.3164   -1.3099 C   0  0  0  0  0  0  0  0  0  0  0  0
    2.0362    0.1415   -1.1172 N   0  0  0  0  0  0  0  0  0  0  0  0
    3.0673    0.2874   -0.2126 C   0  0  0  0  0  0  0  0  0  0  0  0
    3.6376   -0.6586    0.6112 C   0  0  0  0  0  0  0  0  0  0  0  0
    4.6658   -0.0194    1.3612 C   0  0  0  0  0  0  0  0  0  0  0  0
    5.5744   -0.4541    2.3463 C   0  0  0  0  0  0  0  0  0  0  0  0
    6.4762    0.4646    2.8978 C   0  0  0  0  0  0  0  0  0  0  0  0
    6.4819    1.7960    2.4803 C   0  0  0  0  0  0  0  0  0  0  0  0
    5.5897    2.2504    1.5034 C   0  0  0  0  0  0  0  0  0  0  0  0
    4.6952    1.3191    0.9631 C   0  0  0  0  0  0  0  0  0  0  0  0
    3.7173    1.4748    0.0090 N   0  0  0  0  0  0  0  0  0  0  0  0
    0.8068   -0.0275   -3.4445 H   0  0  0  0  0  0  0  0  0  0  0  0
    0.2240    1.6294   -3.4999 H   0  0  0  0  0  0  0  0  0  0  0  0
   -0.8770   -1.6267   -2.8950 H   0  0  0  0  0  0  0  0  0  0  0  0
   -2.9420   -2.2610   -1.7380 H   0  0  0  0  0  0  0  0  0  0  0  0
   -3.6152   -2.4562    0.8957 H   0  0  0  0  0  0  0  0  0  0  0  0
   -5.6926   -3.0970    2.0559 H   0  0  0  0  0  0  0  0  0  0  0  0
   -7.7569   -1.7482    1.7702 H   0  0  0  0  0  0  0  0  0  0  0  0
   -7.7294    0.2546    0.3031 H   0  0  0  0  0  0  0  0  0  0  0  0
   -5.6653    0.9060   -0.8766 H   0  0  0  0  0  0  0  0  0  0  0  0
   -3.2028    1.6867   -0.0236 H   0  0  0  0  0  0  0  0  0  0  0  0
   -1.1413    2.3284   -1.1818 H   0  0  0  0  0  0  0  0  0  0  0  0
    1.5950   -0.7678   -1.1883 H   0  0  0  0  0  0  0  0  0  0  0  0
    3.3522   -1.6995    0.6816 H   0  0  0  0  0  0  0  0  0  0  0  0
    5.5746   -1.4879    2.6808 H   0  0  0  0  0  0  0  0  0  0  0  0
    7.1773    0.1350    3.6606 H   0  0  0  0  0  0  0  0  0  0  0  0
    7.1875    2.4956    2.9238 H   0  0  0  0  0  0  0  0  0  0  0  0
    5.5905    3.2885    1.1835 H   0  0  0  0  0  0  0  0  0  0  0  0
    3.4850    2.3370   -0.4684 H   0  0  0  0  0  0  0  0  0  0  0  0
  1  2  2  0
  2  3  1  0
  3  4  1  0
  4  5  2  0
  5  6  1  0
  6  7  2  0
  7  8  1  0
  8  9  2  0
  9 10  1  0
 10 11  2  0
 11 12  1  0
 12 13  2  0
  7 14  1  0
 14 15  2  0
  2 16  1  0
 16 17  1  0
 17 18  2  0
 18 19  1  0
 19 20  2  0
 20 21  1  0
 21 22  2  0
 22 23  1  0
 23 24  2  0
 24 25  1  0
 15  4  1  0
 25 17  1  0
 13  8  1  0
 24 19  1  0
  3 26  1  0
  3 27  1  0
  5 28  1  0
  6 29  1  0
  9 30  1  0
 10 31  1  0
 11 32  1  0
 12 33  1  0
 13 34  1  0
 14 35  1  0
 15 36  1  0
 16 37  1  0
 18 38  1  0
 20 39  1  0
 21 40  1  0
 22 41  1  0
 23 42  1  0
 25 43  1  0
M  END
$$$$
