
     RDKit          3D

 46 49  0  0  0  0  0  0  0  0999 V2000
   -1.6145    1.9214    1.4528 O   0  0  0  0  0  0  0  0  0  0  0  0
   -2.0433    0.5792    1.1196 S   0  0  0  0  0  0  0  0  0  0  0  0
   -1.6860   -0.5511    1.9501 O   0  0  0  0  0  0  0  0  0  0  0  0
   -1.5264    0.3018   -0.4717 N   0  0  0  0  0  0  0  0  0  0  0  0
   -1.3863   -1.0604   -0.8930 C   0  0  0  0  0  0  0  0  0  0  0  0
   -2.5324   -1.7849   -1.2258 C   0  0  0  0  0  0  0  0  0  0  0  0
   -2.4158   -3.1193   -1.5933 C   0  0  0  0  0  0  0  0  0  0  0  0
   -3.5159   -3.8107   -1.9182 F   0  0  0  0  0  0  0  0  0  0  0  0
   -1.1788   -3.7486   -1.6330 C   0  0  0  0  0  0  0  0  0  0  0  0
   -0.0308   -3.0283   -1.3009 C   0  0  0  0  0  0  0  0  0  0  0  0
   -0.1140   -1.6753   -0.9234 C   0  0  0  0  0  0  0  0  0  0  0  0
    1.1171   -0.9478   -0.5892 C   0  0  0  0  0  0  0  0  0  0  0  0
    1.5278   -0.8011    0.7414 C   0  0  0  0  0  0  0  0  0  0  0  0
    2.6928   -0.0937    1.0572 C   0  0  0  0  0  0  0  0  0  0  0  0
    3.4846    0.4837    0.0530 C   0  0  0  0  0  0  0  0  0  0  0  0
    4.7107    1.2255    0.3859 C   0  0  0  0  0  0  0  0  0  0  0  0
    5.7157    0.6485    1.1711 C   0  0  0  0  0  0  0  0  0  0  0  0
    6.8554    1.3851    1.4552 C   0  0  0  0  0  0  0  0  0  0  0  0
    7.0634    2.6445    1.0198 N   0  0  0  0  0  0  0  0  0  0  0  0
    6.0859    3.1910    0.2683 C   0  0  0  0  0  0  0  0  0  0  0  0
    4.9137    2.5329   -0.0711 C   0  0  0  0  0  0  0  0  0  0  0  0
    3.0714    0.3288   -1.2793 C   0  0  0  0  0  0  0  0  0  0  0  0
    1.9057   -0.3774   -1.5969 C   0  0  0  0  0  0  0  0  0  0  0  0
   -3.8088    0.6272    0.9467 C   0  0  0  0  0  0  0  0  0  0  0  0
   -4.3993    1.7052    0.2798 C   0  0  0  0  0  0  0  0  0  0  0  0
   -5.7865    1.7501    0.1442 C   0  0  0  0  0  0  0  0  0  0  0  0
   -6.5738    0.7280    0.6780 C   0  0  0  0  0  0  0  0  0  0  0  0
   -5.9794   -0.3398    1.3534 C   0  0  0  0  0  0  0  0  0  0  0  0
   -4.5928   -0.3922    1.4946 C   0  0  0  0  0  0  0  0  0  0  0  0
   -0.7402    0.9212   -0.6776 H   0  0  0  0  0  0  0  0  0  0  0  0
   -3.5150   -1.3267   -1.2219 H   0  0  0  0  0  0  0  0  0  0  0  0
   -1.1147   -4.7933   -1.9211 H   0  0  0  0  0  0  0  0  0  0  0  0
    0.9366   -3.5271   -1.3309 H   0  0  0  0  0  0  0  0  0  0  0  0
    0.9366   -1.2321    1.5488 H   0  0  0  0  0  0  0  0  0  0  0  0
    2.9691    0.0142    2.1047 H   0  0  0  0  0  0  0  0  0  0  0  0
    5.6231   -0.3644    1.5495 H   0  0  0  0  0  0  0  0  0  0  0  0
    7.6556    0.9656    2.0582 H   0  0  0  0  0  0  0  0  0  0  0  0
    6.2721    4.2079   -0.0651 H   0  0  0  0  0  0  0  0  0  0  0  0
    4.1671    3.0423   -0.6716 H   0  0  0  0  0  0  0  0  0  0  0  0
    3.6666    0.7485   -2.0884 H   0  0  0  0  0  0  0  0  0  0  0  0
    1.6187   -0.4807   -2.6417 H   0  0  0  0  0  0  0  0  0  0  0  0
   -3.7880    2.5060   -0.1297 H   0  0  0  0  0  0  0  0  0  0  0  0
   -6.2562    2.5833   -0.3731 H   0  0  0  0  0  0  0  0  0  0  0  0
   -7.6557    0.7667    0.5728 H   0  0  0  0  0  0  0  0  0  0  0  0
   -6.5987   -1.1292    1.7730 H   0  0  0  0  0  0  0  0  0  0  0  0
   -4.1364   -1.2245    2.0259 H   0  0  0  0  0  0  0  0  0  0  0  0
  1  2  2  0
  2  3  2  0
  2  4  1  0
  4  5  1  0
  5  6  2  0
  6  7  1  0
  7  8  1  0
  7  9  2  0
  9 10  1  0
 10 11  2  0
 11 12  1  0
 12 13  2  0
 13 14  1  0
 14 15  2  0
 15 16  1  0
 16 17  2  0
 17 18  1  0
 18 19  2  0
 19 20  1  0
 20 21  2  0
 15 22  1  0
 22 23  2  0
  2 24  1  0
 24 25  2  0
 25 26  1  0
 26 27  2  0
 27 28  1  0
 28 29  2  0
 11  5  1  0
 23 12  1  0
 29 24  1  0
 21 16  1  0
  4 30  1  0
  6 31  1  0
  9 32  1  0
 10 33  1  0
 13 34  1  0
 14 35  1  0
 17 36  1  0
 18 37  1  0
 20 38  1  0
 21 39  1  0
 22 40  1  0
 23 41  1  0
 25 42  1  0
 26 43  1  0
 27 44  1  0
 28 45  1  0
 29 46  1  0
M  END
$$$$
