
     RDKit          3D

 46 49  0  0  0  0  0  0  0  0999 V2000
    2.8180    3.2070   -0.7799 O   0  0  0  0  0  0  0  0  0  0  0  0
    2.9688    1.9910   -0.6846 C   0  0  0  0  0  0  0  0  0  0  0  0
    4.3245    1.4575   -0.9106 C   0  0  0  0  0  0  0  0  0  0  0  0
    4.9921    0.7834    0.1092 C   0  0  0  0  0  0  0  0  0  0  0  0
    6.2716    0.3355   -0.1564 C   0  0  0  0  0  0  0  0  0  0  0  0
    6.9008    0.5232   -1.3379 N   0  0  0  0  0  0  0  0  0  0  0  0
    6.2342    1.2136   -2.2911 C   0  0  0  0  0  0  0  0  0  0  0  0
    4.9538    1.7052   -2.1273 C   0  0  0  0  0  0  0  0  0  0  0  0
    1.9448    1.1097   -0.3634 N   0  0  0  0  0  0  0  0  0  0  0  0
    0.6352    1.6847   -0.0542 C   0  0  0  0  0  0  0  0  0  0  0  0
   -0.4666    0.6330    0.1880 C   0  0  0  0  0  0  0  0  0  0  0  0
    0.0065   -0.4532    1.0576 N   0  0  0  0  0  0  0  0  0  0  0  0
   -1.0271   -1.4395    1.4045 C   0  0  0  0  0  0  0  0  0  0  0  0
   -2.1028   -0.8393    2.2711 C   0  0  0  0  0  0  0  0  0  0  0  0
   -1.8044   -0.5529    3.6013 N   0  0  0  0  0  0  0  0  0  0  0  0
   -2.8526   -0.0218    4.1879 C   0  0  0  0  0  0  0  0  0  0  0  0
   -4.2572    0.1400    3.2261 S   0  0  0  0  0  0  0  0  0  0  0  0
   -3.4104   -0.5502    1.9010 C   0  0  0  0  0  0  0  0  0  0  0  0
   -4.0998   -0.7592    0.6332 C   0  0  0  0  0  0  0  0  0  0  0  0
   -4.5012   -2.0485    0.2612 C   0  0  0  0  0  0  0  0  0  0  0  0
   -5.1401   -2.2483   -0.9595 C   0  0  0  0  0  0  0  0  0  0  0  0
   -5.5047   -3.4882   -1.3134 F   0  0  0  0  0  0  0  0  0  0  0  0
   -5.3943   -1.1877   -1.8240 C   0  0  0  0  0  0  0  0  0  0  0  0
   -4.9938    0.0982   -1.4648 C   0  0  0  0  0  0  0  0  0  0  0  0
   -4.3496    0.3037   -0.2445 C   0  0  0  0  0  0  0  0  0  0  0  0
   -3.9517    1.5460    0.0651 F   0  0  0  0  0  0  0  0  0  0  0  0
    1.2078   -1.1136    0.5097 C   0  0  0  0  0  0  0  0  0  0  0  0
    1.9613   -0.3340   -0.5907 C   0  0  0  0  0  0  0  0  0  0  0  0
    4.5327    0.6238    1.0778 H   0  0  0  0  0  0  0  0  0  0  0  0
    6.8480   -0.1980    0.5945 H   0  0  0  0  0  0  0  0  0  0  0  0
    6.7794    1.3686   -3.2183 H   0  0  0  0  0  0  0  0  0  0  0  0
    4.4622    2.2671   -2.9136 H   0  0  0  0  0  0  0  0  0  0  0  0
    0.7616    2.3127    0.8368 H   0  0  0  0  0  0  0  0  0  0  0  0
    0.3384    2.3436   -0.8793 H   0  0  0  0  0  0  0  0  0  0  0  0
   -1.3192    1.1582    0.6312 H   0  0  0  0  0  0  0  0  0  0  0  0
   -0.8024    0.2240   -0.7748 H   0  0  0  0  0  0  0  0  0  0  0  0
   -0.5763   -2.2585    1.9830 H   0  0  0  0  0  0  0  0  0  0  0  0
   -1.4525   -1.8907    0.4997 H   0  0  0  0  0  0  0  0  0  0  0  0
   -2.8362    0.2896    5.2224 H   0  0  0  0  0  0  0  0  0  0  0  0
   -4.3359   -2.9016    0.9138 H   0  0  0  0  0  0  0  0  0  0  0  0
   -5.8947   -1.3725   -2.7703 H   0  0  0  0  0  0  0  0  0  0  0  0
   -5.1755    0.9419   -2.1252 H   0  0  0  0  0  0  0  0  0  0  0  0
    0.9713   -2.1040    0.0990 H   0  0  0  0  0  0  0  0  0  0  0  0
    1.8932   -1.2784    1.3502 H   0  0  0  0  0  0  0  0  0  0  0  0
    1.4679   -0.4951   -1.5587 H   0  0  0  0  0  0  0  0  0  0  0  0
    2.9749   -0.7260   -0.6948 H   0  0  0  0  0  0  0  0  0  0  0  0
  1  2  2  0
  2  3  1  0
  3  4  2  0
  4  5  1  0
  5  6  2  0
  6  7  1  0
  7  8  2  0
  2  9  1  0
  9 10  1  0
 10 11  1  0
 11 12  1  0
 12 13  1  0
 13 14  1  0
 14 15  1  0
 15 16  2  0
 16 17  1  0
 17 18  1  0
 18 19  1  0
 19 20  2  0
 20 21  1  0
 21 22  1  0
 21 23  2  0
 23 24  1  0
 24 25  2  0
 25 26  1  0
 12 27  1  0
 27 28  1  0
  8  3  1  0
 28  9  1  0
 18 14  2  0
 25 19  1  0
  4 29  1  0
  5 30  1  0
  7 31  1  0
  8 32  1  0
 10 33  1  0
 10 34  1  0
 11 35  1  0
 11 36  1  0
 13 37  1  0
 13 38  1  0
 16 39  1  0
 20 40  1  0
 23 41  1  0
 24 42  1  0
 27 43  1  0
 27 44  1  0
 28 45  1  0
 28 46  1  0
M  END
$$$$
