REMARK SMILES CN1C[CH]N(c2ccc(-c3nc4cccnc4nc3-c3ccc(CN4CCC(n5c(O)nc6ncccc65)CC4)cc3)cn2)C[C@H]1O
REMARK SMILES IDX 20 1 21 2 22 3 23 4 41 5 42 6 19 7 10 8 11 9 12 10 18 11
REMARK SMILES IDX 13 12 17 13 14 14 16 15 15 16 9 17 6 18 7 19 44 20 8 21
REMARK SMILES IDX 43 22 5 23 2 24 3 25 46 26 4 27 45 28 1 29 47 30 24 32 25 33
REMARK SMILES IDX 26 34 40 35 27 36 39 37 28 38 29 39 30 40 38 41 32 42 37 43
REMARK SMILES IDX 33 44 36 45 34 46 35 47 31 48
REMARK H PARENT 47 31 31 49
ROOT
ATOM      1  C   UNL     1       0.712  -2.347  -0.504  1.00  0.00     0.002 A 
ATOM      2  C   UNL     1       0.673  -1.764   0.772  1.00  0.00     0.011 A 
ATOM      3  C   UNL     1      -0.277  -0.785   1.085  1.00  0.00     0.006 A 
ATOM      4  C   UNL     1      -1.206  -0.353   0.128  1.00  0.00    -0.034 A 
ATOM      5  C   UNL     1      -1.174  -0.930  -1.147  1.00  0.00     0.006 A 
ATOM      6  C   UNL     1      -0.236  -1.924  -1.452  1.00  0.00     0.011 A 
ENDROOT
BRANCH   1   7
ATOM      7  C   UNL     1       1.684  -3.400  -0.842  1.00  0.00     0.099 A 
ATOM      8  C   UNL     1       3.074  -3.260  -0.758  1.00  0.00     0.099 A 
ATOM      9  N   UNL     1       3.891  -4.316  -1.017  1.00  0.00    -0.242 NA
ATOM     10  C   UNL     1       3.302  -5.466  -1.404  1.00  0.00     0.108 A 
ATOM     11  N   UNL     1       1.110  -4.571  -1.237  1.00  0.00    -0.224 NA
ATOM     12  C   UNL     1       4.086  -6.568  -1.709  1.00  0.00     0.034 A 
ATOM     13  C   UNL     1       1.900  -5.606  -1.526  1.00  0.00     0.178 A 
ATOM     14  C   UNL     1       3.502  -7.759  -2.123  1.00  0.00     0.022 A 
ATOM     15  N   UNL     1       1.329  -6.749  -1.923  1.00  0.00    -0.235 NA
ATOM     16  C   UNL     1       2.125  -7.799  -2.212  1.00  0.00     0.114 A 
BRANCH   8  17
ATOM     17  C   UNL     1       3.788  -2.013  -0.462  1.00  0.00     0.021 A 
ATOM     18  C   UNL     1       5.307   0.289   0.117  1.00  0.00     0.129 A 
ATOM     19  C   UNL     1       4.295   0.327  -0.845  1.00  0.00     0.047 A 
ATOM     20  N   UNL     1       5.537  -0.866   0.789  1.00  0.00    -0.239 NA
ATOM     21  C   UNL     1       3.544  -0.818  -1.136  1.00  0.00     0.016 A 
ATOM     22  C   UNL     1       4.804  -1.967   0.483  1.00  0.00     0.124 A 
BRANCH  18  23
ATOM     23  N   UNL     1       6.110   1.415   0.409  1.00  0.00    -0.346 N 
ATOM     24  N   UNL     1       7.599   3.836   1.076  1.00  0.00    -0.278 NA
ATOM     25  C   UNL     1       7.883   2.582   1.801  1.00  0.00     0.114 C 
ATOM     26  C   UNL     1       7.309   3.494  -0.321  1.00  0.00     0.204 C 
ATOM     27  C   UNL     1       6.925   1.459   1.532  1.00  0.00     0.122 C 
ATOM     28  C   UNL     1       6.098   2.548  -0.535  1.00  0.00     0.166 C 
ATOM     29  C   UNL     1       6.497   4.554   1.724  1.00  0.00     0.108 C 
BRANCH  26  30
ATOM     30  O   UNL     1       7.136   4.690  -1.068  1.00  0.00    -0.377 OA
ATOM     31  H   UNL     1       7.809   5.282  -0.685  1.00  0.00     0.212 HD
ENDBRANCH  26  30
ENDBRANCH  18  23
ENDBRANCH   8  17
ENDBRANCH   1   7
BRANCH   4  32
ATOM     32  C   UNL     1      -2.243   0.693   0.487  1.00  0.00     0.120 C 
BRANCH  32  33
ATOM     33  N   UNL     1      -3.257   0.177   1.415  1.00  0.00    -0.299 NA
ATOM     34  C   UNL     1      -3.958   1.233   2.144  1.00  0.00     0.087 C 
ATOM     35  C   UNL     1      -4.154  -0.817   0.805  1.00  0.00     0.087 C 
ATOM     36  C   UNL     1      -5.023   1.950   1.318  1.00  0.00     0.041 C 
ATOM     37  C   UNL     1      -5.645  -0.489   0.933  1.00  0.00     0.041 C 
ATOM     38  C   UNL     1      -5.892   0.968   0.519  1.00  0.00     0.095 C 
BRANCH  38  39
ATOM     39  N   UNL     1      -7.295   1.359   0.517  1.00  0.00    -0.289 N 
ATOM     40  C   UNL     1      -8.214   1.162   1.512  1.00  0.00     0.296 A 
ATOM     41  C   UNL     1      -7.944   2.046  -0.485  1.00  0.00     0.091 A 
ATOM     42  N   UNL     1      -9.412   1.587   1.210  1.00  0.00    -0.175 NA
ATOM     43  C   UNL     1      -7.553   2.600  -1.709  1.00  0.00     0.032 A 
ATOM     44  C   UNL     1      -9.261   2.144  -0.029  1.00  0.00     0.181 A 
ATOM     45  C   UNL     1      -8.561   3.242  -2.426  1.00  0.00     0.022 A 
ATOM     46  N   UNL     1     -10.247   2.747  -0.729  1.00  0.00    -0.235 NA
ATOM     47  C   UNL     1      -9.854   3.280  -1.907  1.00  0.00     0.114 A 
BRANCH  40  48
ATOM     48  O   UNL     1      -7.953   0.615   2.683  1.00  0.00    -0.480 OA
ATOM     49  H   UNL     1      -8.828   0.655   3.115  1.00  0.00     0.296 HD
ENDBRANCH  40  48
ENDBRANCH  38  39
ENDBRANCH  32  33
ENDBRANCH   4  32
TORSDOF 8
