MODEL        7USER    Run = 7USERUSER    Estimated Free Energy of Binding    = -11.22 kcal/mol  [=(1)+(2)+(3)-(4)]USERUSER    (1) Final Intermolecular Energy     = -14.20 kcal/molUSER        vdW + Hbond + desolv Energy     = -14.22 kcal/molUSER        Electrostatic Energy            =  +0.01 kcal/molUSER        Moving Ligand-Fixed Receptor    = -14.20 kcal/molUSER        Moving Ligand-Moving Receptor   =  +0.00 kcal/molUSER    (2) Final Total Internal Energy     =  -3.89 kcal/molUSER    (3) Torsional Free Energy           =  +2.98 kcal/molUSER    (4) Unbound System's Energy         =  -3.89 kcal/molUSERUSERREMARK SMILES COc1ccc(O)c(C(=O)c2ccc(C(=O)N[C@@H]3CCN(CC(=O)N4CCOCC4)C[C@@H]3NC(=O)c3ccncc3)cc2)c1FREMARK SMILES IDX 11 1 12 2 13 3 14 4 42 5 43 6 9 7 10 8 8 9 3 10 4 11 44 12REMARK SMILES IDX 5 13 6 14 45 15 2 16 1 17 7 18 15 20 17 21 16 22 18 24 19 25REMARK SMILES IDX 32 26 20 27 31 28 21 29 33 30 34 31 35 33 36 34 37 35 41 36REMARK SMILES IDX 38 37 40 38 39 39 22 40 23 41 25 42 26 43 30 44 27 45 29 46REMARK SMILES IDX 28 47 24 48REMARK H PARENT 7 19 17 23 33 32USER                              x       y       z     vdW  Elec       q    TypeUSER                           _______ _______ _______ _____ _____    ______ ____ROOTATOM      1  C   UNL     1      37.767  44.646  23.928 -0.30 +0.00    +0.023 A  ATOM      2  C   UNL     1      38.420  45.792  23.454 -0.31 +0.00    +0.013 A  ATOM      3  C   UNL     1      38.913  45.828  22.144 -0.30 +0.00    +0.014 A  ATOM      4  C   UNL     1      38.742  44.717  21.306 -0.33 +0.00    +0.039 A  ATOM      5  C   UNL     1      38.049  43.591  21.773 -0.35 +0.00    +0.014 A  ATOM      6  C   UNL     1      37.562  43.552  23.082 -0.35 +0.00    +0.013 A  ENDROOTBRANCH   1   7ATOM      7  C   UNL     1      37.246  44.646  25.313 -0.26 +0.01    +0.199 C  ATOM      8  O   UNL     1      36.893  45.713  25.818 -0.50 +0.01    -0.288 OA BRANCH   7   9ATOM      9  C   UNL     1      37.083  43.403  26.099 -0.27 -0.01    +0.104 A  ATOM     10  C   UNL     1      37.977  41.336  27.036 -0.33 -0.02    +0.155 A  ATOM     11  C   UNL     1      36.729  41.057  27.601 -0.50 -0.02    +0.053 A  ATOM     12  C   UNL     1      38.140  42.512  26.287 -0.19 -0.01    +0.179 A  ATOM     13  C   UNL     1      35.671  41.955  27.438 -0.53 -0.02    +0.051 A  ATOM     14  C   UNL     1      35.854  43.127  26.707 -0.37 -0.02    +0.130 A  ATOM     15  F   UNL     1      39.351  42.784  25.773 -0.03 +0.00    -0.202 F  BRANCH  10  16ATOM     16  O   UNL     1      39.091  40.550  27.141 -0.18 +0.01    -0.494 OA ATOM     17  C   UNL     1      40.106  40.972  28.046 -0.20 -0.01    +0.278 C  ENDBRANCH  10  16BRANCH  14  18ATOM     18  O   UNL     1      34.776  43.970  26.624 -0.08 +0.09    -0.507 OA ATOM     19  H   UNL     1      35.117  44.893  26.591 -0.18 -0.17    +0.293 HD ENDBRANCH  14  18ENDBRANCH   7   9ENDBRANCH   1   7BRANCH   4  20ATOM     20  C   UNL     1      39.229  44.700  19.900 -0.26 -0.00    +0.251 C  ATOM     21  N   UNL     1      39.679  45.896  19.381 -0.19 +0.01    -0.347 N  ATOM     22  O   UNL     1      39.217  43.651  19.260 +0.02 +0.01    -0.269 OA ATOM     23  H   UNL     1      39.708  46.729  19.957 +0.11 -0.00    +0.164 HD BRANCH  21  24ATOM     24  C   UNL     1      40.191  46.016  18.005 -0.46 -0.01    +0.107 C  ATOM     25  C   UNL     1      40.992  47.321  17.862 -0.56 -0.00    +0.042 C  ATOM     26  C   UNL     1      39.065  45.895  16.941 -0.39 -0.03    +0.118 C  ATOM     27  C   UNL     1      40.838  47.924  16.469 -0.53 -0.01    +0.087 C  ATOM     28  C   UNL     1      38.462  47.294  16.671 -0.33 -0.05    +0.112 C  ATOM     29  N   UNL     1      39.444  48.298  16.213 -0.25 +0.12    -0.292 NA BRANCH  26  30ATOM     30  N   UNL     1      38.052  44.908  17.318 -0.14 +0.08    -0.346 N  ATOM     31  C   UNL     1      36.789  44.929  16.771 -0.23 -0.09    +0.251 C  ATOM     32  H   UNL     1      38.399  44.043  17.718 +0.10 -0.02    +0.164 HD ATOM     33  O   UNL     1      36.427  45.775  15.959 -0.20 +0.15    -0.269 OA BRANCH  31  34ATOM     34  C   UNL     1      35.854  43.849  17.196 -0.30 -0.01    +0.042 A  ATOM     35  C   UNL     1      35.798  43.521  18.550 -0.32 -0.01    +0.034 A  ATOM     36  C   UNL     1      35.074  43.134  16.285 -0.40 -0.01    +0.034 A  ATOM     37  C   UNL     1      34.954  42.497  18.941 -0.34 -0.02    +0.112 A  ATOM     38  C   UNL     1      34.261  42.127  16.777 -0.29 -0.05    +0.112 A  ATOM     39  N   UNL     1      34.181  41.798  18.083 -0.26 +0.07    -0.265 NA ENDBRANCH  31  34ENDBRANCH  26  30BRANCH  29  40ATOM     40  C   UNL     1      39.233  48.653  14.791 -0.39 -0.08    +0.185 C  BRANCH  40  41ATOM     41  C   UNL     1      37.737  48.587  14.390 -0.39 -0.14    +0.236 C  ATOM     42  N   UNL     1      37.323  47.441  13.719 -0.25 +0.15    -0.337 N  ATOM     43  C   UNL     1      38.150  46.256  13.463 -0.25 -0.04    +0.148 C  ATOM     44  C   UNL     1      35.951  47.365  13.215 -0.51 -0.09    +0.148 C  ATOM     45  C   UNL     1      37.281  45.013  13.240 -0.36 -0.06    +0.181 C  ATOM     46  C   UNL     1      35.872  46.489  11.961 -0.53 -0.10    +0.181 C  ATOM     47  O   UNL     1      36.364  45.152  12.147 -0.32 +0.14    -0.378 OA ATOM     48  O   UNL     1      36.950  49.508  14.615 -0.44 +0.27    -0.273 OA ENDBRANCH  40  41ENDBRANCH  29  40ENDBRANCH  21  24ENDBRANCH   4  20TORSDOF 10TERENDMDL