REMARK SMILES COc1ccc(O)c(C(=O)c2ccc(C(=O)N[C@@H]3CCCN(C)C[C@H]3NC(=O)c3ccnc(Cl)c3)cc2)c1N1CCOCC1
REMARK SMILES IDX 15 1 16 2 17 3 14 5 11 6 12 7 37 8 13 9 36 10 9 11 10 12
REMARK SMILES IDX 8 13 3 14 4 15 38 16 5 17 6 18 2 19 1 20 39 21 40 22 44 23
REMARK SMILES IDX 41 24 43 25 42 26 7 27 18 29 19 30 25 32 24 33 22 34 23 35
REMARK SMILES IDX 21 36 20 37 26 39 27 40 28 42 29 43 30 44 35 45 31 46 33 47
REMARK SMILES IDX 32 48 34 49
REMARK H PARENT 17 4 7 28 26 41
REMARK Flexibility Score:  129.900
ROOT
ATOM      1  C   UNL     1       0.536  -0.826  -0.874  1.00  0.00     0.251 C 
ATOM      2  O   UNL     1       0.330  -1.010  -2.067  1.00  0.00    -0.269 OA
ATOM      3  N   UNL     1       1.783  -0.580  -0.336  1.00  0.00    -0.347 N 
ATOM      4  H   UNL     1       1.895  -0.672   0.665  1.00  0.00     0.164 HD
ENDROOT
BRANCH   1   5
ATOM      5  C   UNL     1      -0.592  -0.894   0.094  1.00  0.00     0.039 A 
ATOM      6  C   UNL     1      -2.785  -1.020   1.823  1.00  0.00     0.023 A 
ATOM      7  C   UNL     1      -1.692  -0.204   2.138  1.00  0.00     0.013 A 
ATOM      8  C   UNL     1      -2.773  -1.795   0.659  1.00  0.00     0.013 A 
ATOM      9  C   UNL     1      -0.601  -0.131   1.269  1.00  0.00     0.014 A 
ATOM     10  C   UNL     1      -1.681  -1.722  -0.210  1.00  0.00     0.014 A 
BRANCH   6  11
ATOM     11  C   UNL     1      -3.921  -1.075   2.768  1.00  0.00     0.198 C 
ATOM     12  O   UNL     1      -3.683  -1.167   3.974  1.00  0.00    -0.288 OA
BRANCH  11  13
ATOM     13  C   UNL     1      -5.335  -1.116   2.318  1.00  0.00     0.091 A 
ATOM     14  C   UNL     1      -7.216  -0.363   0.971  1.00  0.00     0.143 A 
ATOM     15  C   UNL     1      -8.032  -1.309   1.608  1.00  0.00     0.052 A 
ATOM     16  C   UNL     1      -5.833  -0.268   1.296  1.00  0.00     0.095 A 
ATOM     17  C   UNL     1      -7.519  -2.130   2.610  1.00  0.00     0.051 A 
ATOM     18  C   UNL     1      -6.189  -2.011   2.982  1.00  0.00     0.129 A 
BRANCH  14  19
ATOM     19  O   UNL     1      -7.693   0.537   0.048  1.00  0.00    -0.495 OA
ATOM     20  C   UNL     1      -9.091   0.555  -0.211  1.00  0.00     0.278 C 
ENDBRANCH  14  19
BRANCH  16  21
ATOM     21  N   UNL     1      -4.978   0.690   0.713  1.00  0.00    -0.363 N 
ATOM     22  C   UNL     1      -5.110   2.046   1.296  1.00  0.00     0.145 C 
ATOM     23  C   UNL     1      -4.846   0.678  -0.759  1.00  0.00     0.145 C 
ATOM     24  C   UNL     1      -5.312   3.115   0.208  1.00  0.00     0.181 C 
ATOM     25  C   UNL     1      -3.860   1.785  -1.167  1.00  0.00     0.181 C 
ATOM     26  O   UNL     1      -4.289   3.109  -0.799  1.00  0.00    -0.378 OA
ENDBRANCH  16  21
BRANCH  18  27
ATOM     27  O   UNL     1      -5.776  -2.802   4.022  1.00  0.00    -0.507 OA
ATOM     28  H   UNL     1      -4.941  -2.417   4.371  1.00  0.00     0.293 HD
ENDBRANCH  18  27
ENDBRANCH  11  13
ENDBRANCH   6  11
ENDBRANCH   1   5
BRANCH   3  29
ATOM     29  C   UNL     1       2.992  -0.542  -1.169  1.00  0.00     0.106 C 
BRANCH  29  30
ATOM     30  C   UNL     1       3.447  -1.961  -1.565  1.00  0.00     0.028 CG0
ATOM     31  G   UNL     1       3.825  -2.849  -0.381  1.00  0.00     0.000 G0
ENDBRANCH  29  30
BRANCH  29  32
ATOM     32  C   UNL     1       4.082   0.353  -0.523  1.00  0.00     0.118 C 
BRANCH  32  33
ATOM     33  C   UNL     1       4.878  -0.314   0.628  1.00  0.00     0.111 C 
BRANCH  33  34
ATOM     34  N   UNL     1       5.814  -1.326   0.103  1.00  0.00    -0.304 NA
ATOM     35  C   UNL     1       7.085  -1.297   0.832  1.00  0.00     0.105 C 
BRANCH  34  36
ATOM     36  C   UNL     1       5.269  -2.687   0.105  1.00  0.00     0.084 C 
BRANCH  36  37
ATOM     37  C   UNL     1       3.825  -2.849  -0.381  1.00  0.00     0.018 CG0
ATOM     38  G   UNL     1       3.447  -1.961  -1.565  1.00  0.00     0.000 G0
ENDBRANCH  36  37
ENDBRANCH  34  36
ENDBRANCH  33  34
ENDBRANCH  32  33
BRANCH  32  39
ATOM     39  N   UNL     1       5.020   0.847  -1.545  1.00  0.00    -0.346 N 
ATOM     40  C   UNL     1       5.652   2.062  -1.385  1.00  0.00     0.251 C 
ATOM     41  H   UNL     1       5.559   0.110  -1.984  1.00  0.00     0.164 HD
ATOM     42  O   UNL     1       5.377   2.857  -0.493  1.00  0.00    -0.269 OA
BRANCH  40  43
ATOM     43  C   UNL     1       6.747   2.373  -2.343  1.00  0.00     0.044 A 
ATOM     44  C   UNL     1       7.690   3.337  -1.981  1.00  0.00     0.034 A 
ATOM     45  C   UNL     1       6.834   1.757  -3.590  1.00  0.00     0.054 A 
ATOM     46  C   UNL     1       8.702   3.630  -2.875  1.00  0.00     0.113 A 
ATOM     47  C   UNL     1       7.887   2.126  -4.405  1.00  0.00     0.129 A 
ATOM     48  N   UNL     1       8.826   3.037  -4.080  1.00  0.00    -0.245 NA
ATOM     49  Cl  UNL     1       8.083   1.421  -5.956  1.00  0.00    -0.062 Cl
ENDBRANCH  40  43
ENDBRANCH  32  39
ENDBRANCH  29  32
ENDBRANCH   3  29
TORSDOF 9
