MODEL        9USER    Run = 9USERUSER    Estimated Free Energy of Binding    =  -8.18 kcal/mol  [=(1)+(2)+(3)-(4)]USERUSER    (1) Final Intermolecular Energy     = -12.66 kcal/molUSER        vdW + Hbond + desolv Energy     = -12.82 kcal/molUSER        Electrostatic Energy            =  -0.18 kcal/molUSER        Moving Ligand-Fixed Receptor    = -12.99 kcal/molUSER        Moving Ligand-Moving Receptor   =  +0.33 kcal/molUSER    (2) Final Total Internal Energy     =  -3.70 kcal/molUSER    (3) Torsional Free Energy           =  +4.47 kcal/molUSER    (4) Unbound System's Energy         =  -3.70 kcal/molUSERUSERREMARK SMILES COc1ccc(O)c(C(=O)c2ccc(C(=O)N[C@@H]3CCCN(C)C[C@H]3NC(=O)c3ccnc(Cl)c3)cc2)c1N1CCOCC1REMARK SMILES IDX 15 1 16 2 17 3 14 5 11 6 12 7 37 8 13 9 36 10 9 11 10 12REMARK SMILES IDX 8 13 3 14 4 15 38 16 5 17 6 18 2 19 1 20 39 21 40 22 44 23REMARK SMILES IDX 41 24 43 25 42 26 7 27 18 29 19 30 25 32 24 33 22 34 23 35REMARK SMILES IDX 21 36 20 37 26 39 27 40 28 42 29 43 30 44 35 45 31 46 33 47REMARK SMILES IDX 32 48 34 49REMARK H PARENT 17 4 7 28 26 41REMARK Flexibility Score:  129.900USER                              x       y       z     vdW  Elec       q    TypeUSER                           _______ _______ _______ _____ _____    ______ ____ROOTATOM      1  C   UNL     1      39.506  46.093  17.971 -0.33 -0.04    +0.251 C  ATOM      2  O   UNL     1      39.851  47.258  17.817 -0.34 +0.05    -0.269 OA ATOM      3  N   UNL     1      38.789  45.372  17.039 -0.14 +0.07    -0.347 N  ATOM      4  H   UNL     1      38.352  44.510  17.339 +0.10 -0.03    +0.164 HD ENDROOTBRANCH   1   5ATOM      5  C   UNL     1      39.833  45.383  19.237 -0.40 -0.00    +0.039 A  ATOM      6  C   UNL     1      40.368  44.115  21.670 -0.27 +0.00    +0.023 A  ATOM      7  C   UNL     1      41.420  44.454  20.812 -0.33 +0.00    +0.013 A  ATOM      8  C   UNL     1      39.045  44.383  21.303 -0.32 +0.00    +0.013 A  ATOM      9  C   UNL     1      41.155  45.099  19.602 -0.40 +0.00    +0.014 A  ATOM     10  C   UNL     1      38.781  45.028  20.092 -0.36 -0.00    +0.014 A  BRANCH   6  11ATOM     11  C   UNL     1      40.685  43.430  22.942 -0.20 +0.01    +0.198 C  ATOM     12  O   UNL     1      39.949  42.518  23.322 -0.18 -0.02    -0.288 OA BRANCH  11  13ATOM     13  C   UNL     1      41.801  43.857  23.824 -0.13 +0.00    +0.091 A  ATOM     14  C   UNL     1      42.771  45.163  25.632 -0.02 +0.01    +0.143 A  ATOM     15  C   UNL     1      44.015  44.568  25.375 -0.02 +0.00    +0.052 A  ATOM     16  C   UNL     1      41.624  44.794  24.874 -0.06 +0.00    +0.095 A  ATOM     17  C   UNL     1      44.162  43.651  24.337 -0.08 +0.00    +0.051 A  ATOM     18  C   UNL     1      43.070  43.323  23.549 -0.17 +0.00    +0.129 A  BRANCH  14  19ATOM     19  O   UNL     1      42.592  46.144  26.578 +0.01 -0.03    -0.495 OA ATOM     20  C   UNL     1      42.578  47.499  26.145 -0.07 +0.02    +0.278 C  ENDBRANCH  14  19BRANCH  16  21ATOM     21  N   UNL     1      40.360  45.389  25.066 +0.00 -0.01    -0.363 N  ATOM     22  C   UNL     1      39.329  44.455  25.578 -0.12 +0.00    +0.145 C  ATOM     23  C   UNL     1      39.873  46.307  24.016 -0.20 +0.01    +0.145 C  ATOM     24  C   UNL     1      38.047  44.504  24.728 -0.22 +0.01    +0.181 C  ATOM     25  C   UNL     1      38.498  46.846  24.441 -0.28 +0.02    +0.181 C  ATOM     26  O   UNL     1      37.496  45.823  24.597 -0.60 -0.08    -0.378 OA ENDBRANCH  16  21BRANCH  18  27ATOM     27  O   UNL     1      43.309  42.470  22.504 -0.14 +0.03    -0.507 OA ATOM     28  H   UNL     1      42.588  41.800  22.501 -0.40 -0.07    +0.293 HD ENDBRANCH  18  27ENDBRANCH  11  13ENDBRANCH   6  11ENDBRANCH   1   5BRANCH   3  29ATOM     29  C   UNL     1      38.351  45.967  15.769 -0.37 -0.03    +0.106 C  BRANCH  29  30ATOM     30  C   UNL     1      39.507  46.706  15.066 -0.50 -0.01    +0.028 CG0ATOM     31  G   UNL     1      39.259  48.198  14.858 +0.00 +0.00    +0.000 G0 ENDBRANCH  29  30BRANCH  29  32ATOM     32  C   UNL     1      37.051  46.790  15.962 -0.37 -0.08    +0.118 C  BRANCH  32  33ATOM     33  C   UNL     1      36.272  47.099  14.658 -0.38 -0.09    +0.111 C  BRANCH  33  34ATOM     34  N   UNL     1      37.198  47.437  13.560 -0.37 +0.13    -0.304 NA ATOM     35  C   UNL     1      36.465  47.754  12.331 -0.65 -0.04    +0.105 C  BRANCH  34  36ATOM     36  C   UNL     1      38.121  48.528  13.886 -0.44 -0.04    +0.084 C  BRANCH  36  37ATOM     37  C   UNL     1      39.257  48.199  14.860 -0.59 -0.01    +0.018 CG0ATOM     38  G   UNL     1      39.506  46.707  15.069 +0.00 +0.00    +0.000 G0 ENDBRANCH  36  37ENDBRANCH  34  36ENDBRANCH  33  34ENDBRANCH  32  33BRANCH  32  39ATOM     39  N   UNL     1      36.154  46.126  16.923 -0.15 +0.23    -0.346 N  ATOM     40  C   UNL     1      36.058  44.751  16.954 -0.21 -0.10    +0.251 C  ATOM     41  H   UNL     1      36.095  46.605  17.813 +0.09 -0.10    +0.164 HD ATOM     42  O   UNL     1      36.575  44.016  16.119 -0.25 +0.09    -0.269 OA BRANCH  40  43ATOM     43  C   UNL     1      35.311  44.162  18.098 -0.29 -0.01    +0.044 A  ATOM     44  C   UNL     1      33.944  44.424  18.201 -0.32 -0.01    +0.034 A  ATOM     45  C   UNL     1      35.942  43.393  19.074 -0.33 -0.01    +0.054 A  ATOM     46  C   UNL     1      33.253  43.882  19.268 -0.35 -0.02    +0.113 A  ATOM     47  C   UNL     1      35.155  42.902  20.098 -0.34 -0.00    +0.129 A  ATOM     48  N   UNL     1      33.830  43.117  20.218 -0.68 -0.04    -0.245 NA ATOM     49  Cl  UNL     1      35.838  41.941  21.344 -0.66 -0.00    -0.062 Cl ENDBRANCH  40  43ENDBRANCH  32  39ENDBRANCH  29  32ENDBRANCH   3  29TORSDOF 9TERENDMDL