MODEL        8USER    Run = 8USERUSER    Estimated Free Energy of Binding    =  -8.01 kcal/mol  [=(1)+(2)+(3)-(4)]USERUSER    (1) Final Intermolecular Energy     = -13.08 kcal/molUSER        vdW + Hbond + desolv Energy     = -13.14 kcal/molUSER        Electrostatic Energy            =  -0.18 kcal/molUSER        Moving Ligand-Fixed Receptor    = -13.31 kcal/molUSER        Moving Ligand-Moving Receptor   =  +0.23 kcal/molUSER    (2) Final Total Internal Energy     =  -3.95 kcal/molUSER    (3) Torsional Free Energy           =  +5.07 kcal/molUSER    (4) Unbound System's Energy         =  -3.95 kcal/molUSERUSERREMARK SMILES COc1ccc(O)c(C(=O)c2ccc(C(=O)N[C@@H]3CCCN(CCO)C[C@H]3NC(=O)c3ccnc(Cl)c3)cc2)c1FREMARK SMILES IDX 18 1 17 3 15 4 16 5 14 7 11 8 12 9 39 10 13 11 38 12 9 13REMARK SMILES IDX 10 14 8 15 3 16 4 17 40 18 5 19 6 20 41 21 2 22 1 23 7 24REMARK SMILES IDX 27 26 26 27 22 28 21 29 20 30 19 31 23 33 24 34 25 35 28 37REMARK SMILES IDX 29 38 30 40 31 41 32 42 37 43 33 44 35 45 34 46 36 47REMARK H PARENT 17 6 7 25 25 36 28 39REMARK Flexibility Score:  100.900USER                              x       y       z     vdW  Elec       q    TypeUSER                           _______ _______ _______ _____ _____    ______ ____ROOTATOM      1  C   UNL     1      33.496  44.352  17.674 -0.30 -0.04    +0.106 CG0ATOM      2  G   UNL     1      32.520  43.477  18.477 +0.00 +0.00    +0.000 G0 ENDROOTBRANCH   1   3ATOM      3  N   UNL     1      34.700  44.584  18.488 -0.12 +0.11    -0.347 N  ATOM      4  C   UNL     1      35.676  43.621  18.627 -0.23 -0.05    +0.251 C  ATOM      5  O   UNL     1      35.637  42.515  18.103 -0.26 +0.07    -0.269 OA ATOM      6  H   UNL     1      34.723  45.382  19.111 +0.05 -0.06    +0.164 HD BRANCH   4   7ATOM      7  C   UNL     1      36.809  43.981  19.517 -0.35 -0.00    +0.039 A  ATOM      8  C   UNL     1      38.970  44.700  21.154 -0.33 +0.00    +0.023 A  ATOM      9  C   UNL     1      38.895  45.170  19.836 -0.37 -0.00    +0.013 A  ATOM     10  C   UNL     1      37.938  43.901  21.662 -0.36 +0.00    +0.013 A  ATOM     11  C   UNL     1      37.815  44.815  19.021 -0.35 -0.00    +0.014 A  ATOM     12  C   UNL     1      36.865  43.531  20.841 -0.41 +0.00    +0.014 A  BRANCH   8  13ATOM     13  C   UNL     1      40.114  45.151  21.991 -0.22 +0.01    +0.199 C  ATOM     14  O   UNL     1      41.210  44.604  21.850 -0.15 -0.02    -0.288 OA BRANCH  13  15ATOM     15  C   UNL     1      40.039  46.273  22.951 -0.21 +0.01    +0.104 A  ATOM     16  C   UNL     1      38.845  47.609  24.605 -0.28 +0.02    +0.155 A  ATOM     17  C   UNL     1      39.960  48.439  24.737 -0.29 +0.01    +0.053 A  ATOM     18  C   UNL     1      38.901  46.522  23.719 -0.23 +0.02    +0.179 A  ATOM     19  C   UNL     1      41.119  48.177  24.001 -0.31 +0.01    +0.051 A  ATOM     20  C   UNL     1      41.160  47.095  23.126 -0.16 +0.01    +0.130 A  ATOM     21  F   UNL     1      37.836  45.709  23.627 -0.07 -0.04    -0.202 F  BRANCH  16  22ATOM     22  O   UNL     1      37.664  47.757  25.283 -0.35 -0.05    -0.494 OA ATOM     23  C   UNL     1      36.941  48.965  25.076 -0.33 +0.01    +0.278 C  ENDBRANCH  16  22BRANCH  20  24ATOM     24  O   UNL     1      42.344  46.887  22.470 -0.05 -0.08    -0.507 OA ATOM     25  H   UNL     1      42.426  45.920  22.301 +0.14 +0.06    +0.293 HD ENDBRANCH  20  24ENDBRANCH  13  15ENDBRANCH   8  13ENDBRANCH   4   7ENDBRANCH   1   3BRANCH   1  26ATOM     26  C   UNL     1      33.868  43.820  16.262 -0.31 -0.06    +0.118 C  BRANCH  26  27ATOM     27  C   UNL     1      32.661  43.636  15.308 -0.10 -0.06    +0.111 C  BRANCH  27  28ATOM     28  N   UNL     1      31.439  44.347  15.767 -0.18 +0.14    -0.299 NA BRANCH  28  29ATOM     29  C   UNL     1      30.663  43.547  16.732 -0.29 -0.03    +0.085 C  BRANCH  29  30ATOM     30  C   UNL     1      31.040  43.721  18.203 -0.15 -0.00    +0.018 C  BRANCH  30  31ATOM     31  C   UNL     1      32.519  43.478  18.477 -0.39 -0.00    +0.028 CG0ATOM     32  G   UNL     1      33.495  44.354  17.674 +0.00 +0.00    +0.000 G0 ENDBRANCH  30  31ENDBRANCH  29  30ENDBRANCH  28  29BRANCH  28  33ATOM     33  C   UNL     1      30.551  44.676  14.615 -0.34 -0.09    +0.112 C  BRANCH  33  34ATOM     34  C   UNL     1      30.367  46.181  14.345 -0.45 -0.09    +0.171 C  BRANCH  34  35ATOM     35  O   UNL     1      30.933  46.966  15.390 -0.76 +0.17    -0.395 OA ATOM     36  H   UNL     1      31.764  46.531  15.650 -0.29 -0.22    +0.210 HD ENDBRANCH  34  35ENDBRANCH  33  34ENDBRANCH  28  33ENDBRANCH  27  28ENDBRANCH  26  27BRANCH  26  37ATOM     37  N   UNL     1      34.873  44.665  15.604 -0.10 +0.19    -0.346 N  ATOM     38  C   UNL     1      34.546  45.699  14.763 -0.16 -0.21    +0.251 C  ATOM     39  H   UNL     1      35.832  44.447  15.850 +0.11 -0.07    +0.164 HD ATOM     40  O   UNL     1      33.394  46.058  14.549 -0.28 +0.29    -0.269 OA BRANCH  38  41ATOM     41  C   UNL     1      35.676  46.410  14.112 -0.42 -0.03    +0.044 A  ATOM     42  C   UNL     1      35.778  46.530  12.723 -0.58 -0.02    +0.034 A  ATOM     43  C   UNL     1      36.637  47.003  14.930 -0.37 -0.04    +0.054 A  ATOM     44  C   UNL     1      36.863  47.224  12.212 -0.57 -0.04    +0.113 A  ATOM     45  C   UNL     1      37.676  47.666  14.314 -0.41 -0.06    +0.129 A  ATOM     46  N   UNL     1      37.820  47.786  12.977 -0.82 +0.04    -0.245 NA ATOM     47  Cl  UNL     1      38.913  48.418  15.235 -0.76 +0.03    -0.062 Cl ENDBRANCH  38  41ENDBRANCH  26  37ENDBRANCH   1  26TORSDOF 11TERENDMDL