MODEL        8USER    Run = 8USERUSER    Estimated Free Energy of Binding    =  -7.24 kcal/mol  [=(1)+(2)+(3)-(4)]USERUSER    (1) Final Intermolecular Energy     = -11.42 kcal/molUSER        vdW + Hbond + desolv Energy     = -11.90 kcal/molUSER        Electrostatic Energy            =  -0.45 kcal/molUSER        Moving Ligand-Fixed Receptor    = -12.34 kcal/molUSER        Moving Ligand-Moving Receptor   =  +0.93 kcal/molUSER    (2) Final Total Internal Energy     =  -2.57 kcal/molUSER    (3) Torsional Free Energy           =  +4.18 kcal/molUSER    (4) Unbound System's Energy         =  -2.57 kcal/molUSERUSERREMARK SMILES COc1ccc(O)c(C(=O)c2ccc(C(=O)N[C@@H]3CCCNC[C@@H]3NC(=O)c3cnoc3)cc2)c1FREMARK SMILES IDX 15 1 16 2 17 3 14 5 11 6 12 7 34 8 13 9 33 10 9 11 10 12REMARK SMILES IDX 8 13 3 14 4 15 35 16 5 17 6 18 36 19 2 20 1 21 7 22 18 24REMARK SMILES IDX 19 25 24 27 23 28 22 29 21 31 20 32 25 34 26 35 27 37 28 38REMARK SMILES IDX 29 39 32 40 30 41 31 42REMARK H PARENT 17 4 7 23 22 30 25 36REMARK Flexibility Score:   72.900USER                              x       y       z     vdW  Elec       q    TypeUSER                           _______ _______ _______ _____ _____    ______ ____ROOTATOM      1  C   UNL     1      40.299  46.315  16.249 -0.31 -0.03    +0.251 C  ATOM      2  O   UNL     1      41.058  45.953  15.357 -0.41 -0.04    -0.269 OA ATOM      3  N   UNL     1      38.983  46.655  16.026 -0.17 +0.10    -0.347 N  ATOM      4  H   UNL     1      38.370  46.873  16.809 +0.10 -0.07    +0.164 HD ENDROOTBRANCH   1   5ATOM      5  C   UNL     1      40.780  46.376  17.659 -0.47 -0.00    +0.039 A  ATOM      6  C   UNL     1      41.737  46.595  20.290 -0.32 +0.00    +0.023 A  ATOM      7  C   UNL     1      42.208  47.462  19.298 -0.33 +0.00    +0.013 A  ATOM      8  C   UNL     1      40.803  45.605  19.963 -0.40 +0.00    +0.013 A  ATOM      9  C   UNL     1      41.723  47.359  17.992 -0.47 -0.00    +0.014 A  ATOM     10  C   UNL     1      40.318  45.503  18.654 -0.45 -0.00    +0.014 A  BRANCH   6  11ATOM     11  C   UNL     1      42.300  46.714  21.655 -0.24 +0.04    +0.199 C  ATOM     12  O   UNL     1      43.441  46.297  21.864 -0.20 -0.12    -0.288 OA BRANCH  11  13ATOM     13  C   UNL     1      41.541  47.260  22.802 -0.14 +0.01    +0.104 A  ATOM     14  C   UNL     1      39.588  47.285  24.264 -0.23 +0.02    +0.155 A  ATOM     15  C   UNL     1      40.152  48.330  24.997 -0.28 +0.01    +0.053 A  ATOM     16  C   UNL     1      40.288  46.762  23.166 -0.14 +0.02    +0.179 A  ATOM     17  C   UNL     1      41.391  48.857  24.624 -0.34 +0.01    +0.051 A  ATOM     18  C   UNL     1      42.072  48.335  23.527 -0.29 +0.02    +0.130 A  ATOM     19  F   UNL     1      39.718  45.782  22.448 -0.07 -0.01    -0.202 F  BRANCH  14  20ATOM     20  O   UNL     1      38.379  46.697  24.523 -0.28 -0.07    -0.494 OA ATOM     21  C   UNL     1      38.183  46.155  25.823 -0.19 +0.00    +0.278 C  ENDBRANCH  14  20BRANCH  18  22ATOM     22  O   UNL     1      43.265  48.930  23.213 -0.72 -0.18    -0.507 OA ATOM     23  H   UNL     1      43.661  48.432  22.461 -0.09 +0.05    +0.293 HD ENDBRANCH  18  22ENDBRANCH  11  13ENDBRANCH   6  11ENDBRANCH   1   5BRANCH   3  24ATOM     24  C   UNL     1      38.379  46.640  14.686 -0.42 -0.04    +0.106 C  BRANCH  24  25ATOM     25  C   UNL     1      37.849  48.047  14.356 -0.59 -0.01    +0.028 CG0ATOM     26  G   UNL     1      36.484  48.091  13.679 +0.00 +0.00    +0.000 G0 ENDBRANCH  24  25BRANCH  24  27ATOM     27  C   UNL     1      37.288  45.535  14.606 -0.37 -0.05    +0.118 C  BRANCH  27  28ATOM     28  C   UNL     1      36.764  45.300  13.169 -0.47 -0.04    +0.108 C  BRANCH  28  29ATOM     29  N   UNL     1      37.056  46.275  12.123 -0.36 +0.10    -0.315 NA ATOM     30  H   UNL     1      36.845  45.866  11.212 +0.08 -0.04    +0.122 HD BRANCH  29  31ATOM     31  C   UNL     1      36.449  47.586  12.243 -0.66 -0.04    +0.081 C  BRANCH  31  32ATOM     32  C   UNL     1      36.485  48.091  13.681 -0.54 -0.01    +0.017 CG0ATOM     33  G   UNL     1      37.844  48.049  14.371 +0.00 +0.00    +0.000 G0 ENDBRANCH  31  32ENDBRANCH  29  31ENDBRANCH  28  29ENDBRANCH  27  28BRANCH  27  34ATOM     34  N   UNL     1      36.174  45.723  15.552 -0.12 +0.21    -0.346 N  ATOM     35  C   UNL     1      36.286  45.481  16.902 -0.23 -0.13    +0.256 C  ATOM     36  H   UNL     1      35.338  46.162  15.197 +0.12 -0.15    +0.164 HD ATOM     37  O   UNL     1      37.325  45.075  17.415 -0.22 +0.08    -0.269 OA BRANCH  35  38ATOM     38  C   UNL     1      35.111  45.757  17.697 -0.32 -0.06    +0.099 A  ATOM     39  C   UNL     1      34.622  47.026  18.082 -0.06 -0.17    +0.171 A  ATOM     40  C   UNL     1      34.207  44.892  18.267 -0.21 -0.10    +0.244 A  ATOM     41  N   UNL     1      33.510  46.944  18.815 -0.83 +0.06    -0.088 NA ATOM     42  O   UNL     1      33.252  45.589  18.931 -0.27 +0.16    -0.364 OA ENDBRANCH  35  38ENDBRANCH  27  34ENDBRANCH  24  27ENDBRANCH   3  24TORSDOF 8TERENDMDL