REMARK SMILES COc1ccc(O)c(C(=O)c2ccc(C(=O)N[C@@H]3CCCN(CCO)C[C@H]3NC(=O)c3ccnc(Cl)c3)cc2)c1F
REMARK SMILES IDX 18 1 17 3 15 4 16 5 14 7 11 8 12 9 39 10 13 11 38 12 9 13
REMARK SMILES IDX 10 14 8 15 3 16 4 17 40 18 5 19 6 20 41 21 2 22 1 23 7 24
REMARK SMILES IDX 27 26 26 27 22 28 21 29 20 30 19 31 23 33 24 34 25 35 28 37
REMARK SMILES IDX 29 38 30 40 31 41 32 42 37 43 33 44 35 45 34 46 36 47
REMARK H PARENT 17 6 7 25 25 36 28 39
REMARK Flexibility Score:  100.900
ROOT
ATOM      1  C   UNL     1      -1.708  -1.484   0.174  1.00  0.00     0.106 CG0
ATOM      2  G   UNL     1      -1.961  -2.586  -0.868  1.00  0.00     0.000 G0
ENDROOT
BRANCH   1   3
ATOM      3  N   UNL     1      -0.261  -1.223   0.242  1.00  0.00    -0.347 N 
ATOM      4  C   UNL     1       0.604  -2.097   0.864  1.00  0.00     0.251 C 
ATOM      5  O   UNL     1       0.262  -3.143   1.402  1.00  0.00    -0.269 OA
ATOM      6  H   UNL     1       0.081  -0.300   0.004  1.00  0.00     0.164 HD
BRANCH   4   7
ATOM      7  C   UNL     1       2.028  -1.677   0.895  1.00  0.00     0.039 A 
ATOM      8  C   UNL     1       4.724  -0.912   1.009  1.00  0.00     0.023 A 
ATOM      9  C   UNL     1       4.122  -1.546   2.104  1.00  0.00     0.013 A 
ATOM     10  C   UNL     1       3.980  -0.699  -0.159  1.00  0.00     0.013 A 
ATOM     11  C   UNL     1       2.779  -1.931   2.046  1.00  0.00     0.014 A 
ATOM     12  C   UNL     1       2.631  -1.069  -0.212  1.00  0.00     0.014 A 
BRANCH   8  13
ATOM     13  C   UNL     1       6.168  -0.571   1.107  1.00  0.00     0.199 C 
ATOM     14  O   UNL     1       6.894  -1.250   1.836  1.00  0.00    -0.288 OA
BRANCH  13  15
ATOM     15  C   UNL     1       6.815   0.504   0.325  1.00  0.00     0.104 A 
ATOM     16  C   UNL     1       6.795   2.704  -0.727  1.00  0.00     0.155 A 
ATOM     17  C   UNL     1       8.097   2.494  -1.187  1.00  0.00     0.053 A 
ATOM     18  C   UNL     1       6.170   1.708   0.038  1.00  0.00     0.179 A 
ATOM     19  C   UNL     1       8.767   1.308  -0.874  1.00  0.00     0.051 A 
ATOM     20  C   UNL     1       8.134   0.329  -0.113  1.00  0.00     0.130 A 
ATOM     21  F   UNL     1       4.931   1.936   0.506  1.00  0.00    -0.202 F 
BRANCH  16  22
ATOM     22  O   UNL     1       6.047   3.828  -0.957  1.00  0.00    -0.494 OA
ATOM     23  C   UNL     1       6.608   4.822  -1.807  1.00  0.00     0.278 C 
ENDBRANCH  16  22
BRANCH  20  24
ATOM     24  O   UNL     1       8.872  -0.787   0.179  1.00  0.00    -0.507 OA
ATOM     25  H   UNL     1       8.421  -1.259   0.917  1.00  0.00     0.293 HD
ENDBRANCH  20  24
ENDBRANCH  13  15
ENDBRANCH   8  13
ENDBRANCH   4   7
ENDBRANCH   1   3
BRANCH   1  26
ATOM     26  C   UNL     1      -2.505  -0.167  -0.035  1.00  0.00     0.118 C 
BRANCH  26  27
ATOM     27  C   UNL     1      -2.754   0.202  -1.519  1.00  0.00     0.111 C 
BRANCH  27  28
ATOM     28  N   UNL     1      -3.997  -0.398  -2.071  1.00  0.00    -0.299 NA
BRANCH  28  29
ATOM     29  C   UNL     1      -3.810  -1.813  -2.442  1.00  0.00     0.085 C 
BRANCH  29  30
ATOM     30  C   UNL     1      -3.410  -2.756  -1.307  1.00  0.00     0.018 C 
BRANCH  30  31
ATOM     31  C   UNL     1      -1.961  -2.586  -0.868  1.00  0.00     0.028 CG0
ATOM     32  G   UNL     1      -1.708  -1.484   0.174  1.00  0.00     0.000 G0
ENDBRANCH  30  31
ENDBRANCH  29  30
ENDBRANCH  28  29
BRANCH  28  33
ATOM     33  C   UNL     1      -4.454   0.343  -3.281  1.00  0.00     0.112 C 
BRANCH  33  34
ATOM     34  C   UNL     1      -4.988   1.762  -3.012  1.00  0.00     0.171 C 
BRANCH  34  35
ATOM     35  O   UNL     1      -3.938   2.724  -3.053  1.00  0.00    -0.395 OA
ATOM     36  H   UNL     1      -4.336   3.584  -2.831  1.00  0.00     0.210 HD
ENDBRANCH  34  35
ENDBRANCH  33  34
ENDBRANCH  28  33
ENDBRANCH  27  28
ENDBRANCH  26  27
BRANCH  26  37
ATOM     37  N   UNL     1      -3.791  -0.185   0.675  1.00  0.00    -0.346 N 
ATOM     38  C   UNL     1      -3.899  -0.008   2.032  1.00  0.00     0.251 C 
ATOM     39  H   UNL     1      -4.600  -0.304   0.076  1.00  0.00     0.164 HD
ATOM     40  O   UNL     1      -2.948   0.259   2.757  1.00  0.00    -0.269 OA
BRANCH  38  41
ATOM     41  C   UNL     1      -5.261  -0.133   2.612  1.00  0.00     0.044 A 
ATOM     42  C   UNL     1      -6.257  -0.909   2.011  1.00  0.00     0.034 A 
ATOM     43  C   UNL     1      -5.525   0.520   3.816  1.00  0.00     0.054 A 
ATOM     44  C   UNL     1      -7.491  -0.974   2.636  1.00  0.00     0.113 A 
ATOM     45  C   UNL     1      -6.790   0.389   4.347  1.00  0.00     0.129 A 
ATOM     46  N   UNL     1      -7.783  -0.333   3.786  1.00  0.00    -0.245 NA
ATOM     47  Cl  UNL     1      -7.214   1.164   5.817  1.00  0.00    -0.062 Cl
ENDBRANCH  38  41
ENDBRANCH  26  37
ENDBRANCH   1  26
TORSDOF 11
