MODEL        8USER    Run = 8USERUSER    Estimated Free Energy of Binding    = -12.79 kcal/mol  [=(1)+(2)+(3)-(4)]USERUSER    (1) Final Intermolecular Energy     = -15.18 kcal/molUSER        vdW + Hbond + desolv Energy     = -14.95 kcal/molUSER        Electrostatic Energy            =  -0.23 kcal/molUSER        Moving Ligand-Fixed Receptor    = -15.18 kcal/molUSER        Moving Ligand-Moving Receptor   =  +0.00 kcal/molUSER    (2) Final Total Internal Energy     =  -3.76 kcal/molUSER    (3) Torsional Free Energy           =  +2.39 kcal/molUSER    (4) Unbound System's Energy         =  -3.76 kcal/molUSERUSERREMARK SMILES O=C(c1ccc(-c2nc3ccc(F)cc3nc2-c2ccc(CN3CCC(n4c(O)nc5ccccc54)CC3)cc2)cc1)N1CC(O)C1REMARK SMILES IDX 18 1 19 2 20 3 21 4 39 5 40 6 17 7 7 8 8 9 9 10 16 11 10 12REMARK SMILES IDX 15 13 11 14 14 15 12 16 13 17 6 18 3 19 4 20 42 21 5 22REMARK SMILES IDX 41 23 2 24 43 25 44 26 47 27 45 28 1 29 46 30 22 32 23 33REMARK SMILES IDX 24 34 38 35 25 36 37 37 26 38 27 39 28 40 36 41 30 42 35 43REMARK SMILES IDX 31 44 34 45 32 46 33 47 29 48REMARK H PARENT 46 31 29 49USER                              x       y       z     vdW  Elec       q    TypeUSER                           _______ _______ _______ _____ _____    ______ ____ROOTATOM      1  C   UNL     1      39.505  44.195  22.311 -0.27 +0.00    +0.002 A  ATOM      2  C   UNL     1      39.302  45.547  21.988 -0.32 +0.00    +0.011 A  ATOM      3  C   UNL     1      40.149  46.212  21.098 +0.17 +0.00    +0.006 A  ATOM      4  C   UNL     1      41.212  45.536  20.488 -0.35 -0.00    -0.034 A  ATOM      5  C   UNL     1      41.428  44.190  20.808 -0.34 +0.00    +0.006 A  ATOM      6  C   UNL     1      40.581  43.528  21.704 -0.22 +0.00    +0.011 A  ENDROOTBRANCH   1   7ATOM      7  C   UNL     1      38.584  43.508  23.230 -0.23 +0.01    +0.097 A  ATOM      8  C   UNL     1      37.313  43.020  22.887 -0.34 +0.01    +0.097 A  ATOM      9  N   UNL     1      36.505  42.455  23.829 -0.26 -0.02    -0.244 NA ATOM     10  C   UNL     1      36.977  42.357  25.082 -0.33 -0.00    +0.090 A  ATOM     11  N   UNL     1      39.063  43.396  24.501 -0.10 -0.01    -0.244 NA ATOM     12  C   UNL     1      36.188  41.776  26.068 -0.44 -0.01    +0.033 A  ATOM     13  C   UNL     1      38.267  42.828  25.420 -0.22 -0.00    +0.092 A  ATOM     14  C   UNL     1      36.646  41.657  27.380 -0.49 -0.01    +0.041 A  ATOM     15  C   UNL     1      38.716  42.706  26.726 -0.23 -0.00    +0.069 A  ATOM     16  C   UNL     1      37.910  42.126  27.695 -0.32 -0.02    +0.125 A  ATOM     17  F   UNL     1      38.359  42.019  28.952 -0.00 +0.03    -0.207 F  BRANCH   8  18ATOM     18  C   UNL     1      36.726  43.042  21.533 -0.43 +0.00    +0.002 A  ATOM     19  C   UNL     1      35.595  43.040  18.935 -0.35 -0.01    +0.040 A  ATOM     20  C   UNL     1      35.941  44.244  19.552 -0.38 -0.00    +0.014 A  ATOM     21  C   UNL     1      35.857  41.834  19.591 -0.18 -0.00    +0.014 A  ATOM     22  C   UNL     1      36.497  44.242  20.838 -0.34 +0.00    +0.011 A  ATOM     23  C   UNL     1      36.416  41.839  20.874 -0.51 -0.00    +0.011 A  BRANCH  19  24ATOM     24  C   UNL     1      35.003  42.995  17.570 -0.25 -0.08    +0.254 C  ATOM     25  N   UNL     1      34.049  43.938  17.249 -0.07 +0.13    -0.333 N  ATOM     26  C   UNL     1      32.994  44.483  18.098 -0.29 -0.05    +0.153 C  ATOM     27  C   UNL     1      33.221  43.899  16.048 -0.28 -0.08    +0.153 C  ATOM     28  C   UNL     1      32.093  44.553  16.858 -0.25 -0.05    +0.153 C  ATOM     29  O   UNL     1      35.365  42.124  16.781 -0.38 +0.12    -0.269 OA BRANCH  28  30ATOM     30  O   UNL     1      31.678  45.877  16.450 -0.59 +0.15    -0.389 OA ATOM     31  H   UNL     1      32.503  46.373  16.318 -0.35 -0.31    +0.211 HD ENDBRANCH  28  30ENDBRANCH  19  24ENDBRANCH   8  18ENDBRANCH   1   7BRANCH   4  32ATOM     32  C   UNL     1      42.104  46.250  19.493 -0.40 +0.02    +0.120 C  BRANCH  32  33ATOM     33  N   UNL     1      41.512  46.354  18.150 -0.27 +0.01    -0.299 NA ATOM     34  C   UNL     1      40.822  45.128  17.736 -0.30 -0.00    +0.087 C  ATOM     35  C   UNL     1      40.729  47.583  17.970 -0.40 -0.01    +0.087 C  ATOM     36  C   UNL     1      39.301  45.186  17.863 -0.42 -0.01    +0.041 C  ATOM     37  C   UNL     1      39.741  47.475  16.813 -0.51 -0.01    +0.041 C  ATOM     38  C   UNL     1      38.697  46.397  17.128 -0.40 -0.03    +0.095 C  BRANCH  38  39ATOM     39  N   UNL     1      37.903  46.042  15.959 -0.17 +0.11    -0.291 N  ATOM     40  C   UNL     1      37.456  44.795  15.619 -0.13 -0.10    +0.295 A  ATOM     41  C   UNL     1      37.468  46.903  14.971 -0.37 -0.04    +0.072 A  ATOM     42  N   UNL     1      36.778  44.772  14.506 -0.27 +0.07    -0.195 NA ATOM     43  C   UNL     1      37.605  48.283  14.761 -0.51 -0.02    +0.029 A  ATOM     44  C   UNL     1      36.773  46.079  14.083 -0.37 -0.04    +0.092 A  ATOM     45  C   UNL     1      37.011  48.819  13.612 -0.42 -0.00    +0.002 A  ATOM     46  C   UNL     1      36.190  46.637  12.936 -0.58 -0.02    +0.031 A  ATOM     47  C   UNL     1      36.314  48.013  12.714 -0.63 -0.00    +0.002 A  BRANCH  40  48ATOM     48  O   UNL     1      37.670  43.702  16.320 -0.05 +0.12    -0.480 OA ATOM     49  H   UNL     1      36.954  43.123  15.996 +0.20 -0.09    +0.296 HD ENDBRANCH  40  48ENDBRANCH  38  39ENDBRANCH  32  33ENDBRANCH   4  32TORSDOF 8TERENDMDL