MODEL        8USER    Run = 8USERUSER    Estimated Free Energy of Binding    = -12.76 kcal/mol  [=(1)+(2)+(3)-(4)]USERUSER    (1) Final Intermolecular Energy     = -15.15 kcal/molUSER        vdW + Hbond + desolv Energy     = -14.73 kcal/molUSER        Electrostatic Energy            =  -0.41 kcal/molUSER        Moving Ligand-Fixed Receptor    = -15.15 kcal/molUSER        Moving Ligand-Moving Receptor   =  +0.00 kcal/molUSER    (2) Final Total Internal Energy     =  -2.55 kcal/molUSER    (3) Torsional Free Energy           =  +2.39 kcal/molUSER    (4) Unbound System's Energy         =  -2.55 kcal/molUSERUSERREMARK SMILES CN1CCN(S(=O)(=O)c2ccc(-c3nc4ccc(F)cc4nc3-c3ccc(CN4CCC(n5c(O)nc6ccccc65)CC4)cc3)cc2)CC1REMARK SMILES IDX 24 1 25 2 26 3 27 4 45 5 46 6 23 7 13 8 14 9 15 10 22 11REMARK SMILES IDX 16 12 21 13 17 14 20 15 18 16 19 17 12 18 9 19 10 20 48 21REMARK SMILES IDX 11 22 47 23 6 24 7 25 8 26 5 27 2 28 3 29 50 30 4 31 49 32REMARK SMILES IDX 1 33 28 34 29 35 30 36 44 37 31 38 43 39 32 40 33 41 34 42REMARK SMILES IDX 42 43 36 44 41 45 37 46 40 47 38 48 39 49 35 50REMARK H PARENT 35 51USER                              x       y       z     vdW  Elec       q    TypeUSER                           _______ _______ _______ _____ _____    ______ ____ROOTATOM      1  C   UNL     1      34.796  46.393  28.914 -0.35 -0.00    +0.002 A  ATOM      2  C   UNL     1      35.888  47.037  28.309 -0.28 -0.00    +0.011 A  ATOM      3  C   UNL     1      36.868  46.315  27.618 -0.33 -0.00    +0.006 A  ATOM      4  C   UNL     1      36.787  44.922  27.512 -0.38 +0.01    -0.034 A  ATOM      5  C   UNL     1      35.715  44.268  28.132 -0.51 -0.00    +0.006 A  ATOM      6  C   UNL     1      34.749  44.991  28.840 -0.53 -0.00    +0.011 A  ENDROOTBRANCH   1   7ATOM      7  C   UNL     1      33.745  47.181  29.593 -0.33 -0.01    +0.097 A  ATOM      8  C   UNL     1      33.896  48.501  30.056 -0.28 -0.01    +0.097 A  ATOM      9  N   UNL     1      32.862  49.177  30.631 -0.15 -0.00    -0.244 NA ATOM     10  C   UNL     1      31.697  48.521  30.765 -0.30 +0.00    +0.090 A  ATOM     11  N   UNL     1      32.564  46.520  29.743 -0.74 -0.03    -0.244 NA ATOM     12  C   UNL     1      30.616  49.162  31.357 -0.24 +0.00    +0.033 A  ATOM     13  C   UNL     1      31.548  47.184  30.320 -0.45 +0.00    +0.092 A  ATOM     14  C   UNL     1      29.391  48.515  31.516 -0.20 -0.00    +0.041 A  ATOM     15  C   UNL     1      30.331  46.542  30.486 -0.57 +0.00    +0.069 A  ATOM     16  C   UNL     1      29.262  47.207  31.077 -0.49 +0.00    +0.125 A  ATOM     17  F   UNL     1      28.093  46.573  31.232 -0.19 -0.02    -0.207 F  BRANCH   8  18ATOM     18  C   UNL     1      35.147  49.277  29.970 -0.24 -0.00    +0.002 A  ATOM     19  C   UNL     1      37.635  50.557  29.679 -0.12 +0.01    +0.082 A  ATOM     20  C   UNL     1      36.699  50.619  28.644 -0.18 +0.00    +0.022 A  ATOM     21  C   UNL     1      37.332  49.889  30.869 -0.03 -0.00    +0.022 A  ATOM     22  C   UNL     1      35.459  49.993  28.800 -0.22 +0.00    +0.012 A  ATOM     23  C   UNL     1      36.087  49.270  31.016 -0.17 -0.00    +0.012 A  BRANCH  19  24ATOM     24  S   UNL     1      39.280  51.197  29.423 -0.22 +0.13    +0.243 S  ATOM     25  O   UNL     1      39.182  52.275  28.463 -0.69 -0.32    -0.207 OA ATOM     26  O   UNL     1      39.856  51.421  30.732 -0.11 -0.08    -0.207 OA BRANCH  24  27ATOM     27  N   UNL     1      40.098  49.923  28.696 -0.19 -0.04    -0.195 NA ATOM     28  N   UNL     1      41.135  47.313  27.699 -0.64 -0.04    -0.304 NA ATOM     29  C   UNL     1      39.743  47.743  27.481 -0.15 +0.00    +0.101 C  ATOM     30  C   UNL     1      41.853  48.202  28.635 -0.16 +0.01    +0.101 C  ATOM     31  C   UNL     1      39.495  49.268  27.506 -0.24 +0.01    +0.118 C  ATOM     32  C   UNL     1      40.924  49.032  29.544 -0.14 +0.00    +0.118 C  ATOM     33  C   UNL     1      41.872  47.191  26.441 -0.12 +0.01    +0.105 C  ENDBRANCH  24  27ENDBRANCH  19  24ENDBRANCH   8  18ENDBRANCH   1   7BRANCH   4  34ATOM     34  C   UNL     1      37.821  44.143  26.722 -0.26 -0.01    +0.120 C  BRANCH  34  35ATOM     35  N   UNL     1      37.760  44.250  25.259 -0.12 -0.00    -0.299 NA ATOM     36  C   UNL     1      37.569  42.968  24.572 -0.34 +0.00    +0.087 C  ATOM     37  C   UNL     1      38.806  45.070  24.662 -0.21 +0.00    +0.087 C  ATOM     38  C   UNL     1      37.866  43.046  23.070 -0.38 +0.00    +0.041 C  ATOM     39  C   UNL     1      38.359  45.528  23.267 -0.33 +0.00    +0.041 C  ATOM     40  C   UNL     1      37.549  44.446  22.535 -0.34 +0.01    +0.095 C  BRANCH  40  41ATOM     41  N   UNL     1      37.646  44.545  21.084 -0.21 -0.01    -0.291 N  ATOM     42  C   UNL     1      36.652  44.241  20.179 -0.17 -0.02    +0.295 A  ATOM     43  C   UNL     1      38.770  44.887  20.352 -0.32 -0.00    +0.072 A  ATOM     44  N   UNL     1      37.075  44.301  18.942 -0.23 +0.03    -0.195 NA ATOM     45  C   UNL     1      40.059  45.322  20.697 -0.34 +0.00    +0.029 A  ATOM     46  C   UNL     1      38.381  44.705  19.025 -0.32 -0.01    +0.092 A  ATOM     47  C   UNL     1      40.960  45.561  19.650 -0.42 +0.00    +0.002 A  ATOM     48  C   UNL     1      39.299  44.944  17.991 -0.36 -0.00    +0.031 A  ATOM     49  C   UNL     1      40.589  45.373  18.318 -0.46 -0.00    +0.002 A  BRANCH  42  50ATOM     50  O   UNL     1      35.403  43.910  20.469 -0.16 +0.01    -0.480 OA ATOM     51  H   UNL     1      34.820  44.644  20.230 +0.14 -0.06    +0.296 HD ENDBRANCH  42  50ENDBRANCH  40  41ENDBRANCH  34  35ENDBRANCH   4  34TORSDOF 8TERENDMDL