REMARK SMILES CN1CCN(S(=O)(=O)c2ccc(-c3nc4ccc(F)cc4nc3-c3ccc(CN4CCC(n5c(O)nc6ccccc65)CC4)cc3)cc2)CC1
REMARK SMILES IDX 24 1 25 2 26 3 27 4 45 5 46 6 23 7 13 8 14 9 15 10 22 11
REMARK SMILES IDX 16 12 21 13 17 14 20 15 18 16 19 17 12 18 9 19 10 20 48 21
REMARK SMILES IDX 11 22 47 23 6 24 7 25 8 26 5 27 2 28 3 29 50 30 4 31 49 32
REMARK SMILES IDX 1 33 28 34 29 35 30 36 44 37 31 38 43 39 32 40 33 41 34 42
REMARK SMILES IDX 42 43 36 44 41 45 37 46 40 47 38 48 39 49 35 50
REMARK H PARENT 35 51
ROOT
ATOM      1  C   UNL     1      -0.129  -1.762  -0.288  1.00  0.00     0.002 A 
ATOM      2  C   UNL     1       0.618  -2.437   0.692  1.00  0.00     0.011 A 
ATOM      3  C   UNL     1       1.453  -1.745   1.577  1.00  0.00     0.006 A 
ATOM      4  C   UNL     1       1.569  -0.352   1.508  1.00  0.00    -0.034 A 
ATOM      5  C   UNL     1       0.846   0.328   0.520  1.00  0.00     0.006 A 
ATOM      6  C   UNL     1       0.030  -0.369  -0.377  1.00  0.00     0.011 A 
ENDROOT
BRANCH   1   7
ATOM      7  C   UNL     1      -1.045  -2.508  -1.176  1.00  0.00     0.097 A 
ATOM      8  C   UNL     1      -2.376  -2.145  -1.454  1.00  0.00     0.097 A 
ATOM      9  N   UNL     1      -3.143  -2.862  -2.323  1.00  0.00    -0.244 NA
ATOM     10  C   UNL     1      -2.586  -3.949  -2.883  1.00  0.00     0.090 A 
ATOM     11  N   UNL     1      -0.493  -3.618  -1.740  1.00  0.00    -0.244 NA
ATOM     12  C   UNL     1      -3.332  -4.721  -3.766  1.00  0.00     0.033 A 
ATOM     13  C   UNL     1      -1.254  -4.330  -2.588  1.00  0.00     0.092 A 
ATOM     14  C   UNL     1      -2.790  -5.857  -4.366  1.00  0.00     0.041 A 
ATOM     15  C   UNL     1      -0.722  -5.464  -3.182  1.00  0.00     0.069 A 
ATOM     16  C   UNL     1      -1.486  -6.217  -4.066  1.00  0.00     0.125 A 
ATOM     17  F   UNL     1      -0.959  -7.311  -4.630  1.00  0.00    -0.207 F 
BRANCH   8  18
ATOM     18  C   UNL     1      -3.065  -0.985  -0.860  1.00  0.00     0.002 A 
ATOM     19  C   UNL     1      -4.159   1.357   0.249  1.00  0.00     0.082 A 
ATOM     20  C   UNL     1      -4.117   1.202  -1.139  1.00  0.00     0.022 A 
ATOM     21  C   UNL     1      -3.689   0.344   1.089  1.00  0.00     0.022 A 
ATOM     22  C   UNL     1      -3.585   0.030  -1.684  1.00  0.00     0.012 A 
ATOM     23  C   UNL     1      -3.164  -0.826   0.534  1.00  0.00     0.012 A 
BRANCH  19  24
ATOM     24  S   UNL     1      -4.669   2.916   0.949  1.00  0.00     0.243 S 
ATOM     25  O   UNL     1      -4.155   2.974   2.301  1.00  0.00    -0.207 OA
ATOM     26  O   UNL     1      -4.335   3.943  -0.015  1.00  0.00    -0.207 OA
BRANCH  24  27
ATOM     27  N   UNL     1      -6.342   2.791   1.032  1.00  0.00    -0.195 NA
ATOM     28  N   UNL     1      -9.221   2.036   0.884  1.00  0.00    -0.304 NA
ATOM     29  C   UNL     1      -8.211   1.172   1.520  1.00  0.00     0.101 C 
ATOM     30  C   UNL     1      -8.609   3.167   0.157  1.00  0.00     0.101 C 
ATOM     31  C   UNL     1      -6.945   1.886   2.045  1.00  0.00     0.118 C 
ATOM     32  C   UNL     1      -7.129   2.942  -0.214  1.00  0.00     0.118 C 
ATOM     33  C   UNL     1     -10.209   2.521   1.847  1.00  0.00     0.105 C 
ENDBRANCH  24  27
ENDBRANCH  19  24
ENDBRANCH   8  18
ENDBRANCH   1   7
BRANCH   4  34
ATOM     34  C   UNL     1       2.435   0.404   2.497  1.00  0.00     0.120 C 
BRANCH  34  35
ATOM     35  N   UNL     1       3.832   0.643   2.111  1.00  0.00    -0.299 NA
ATOM     36  C   UNL     1       3.995   1.613   1.023  1.00  0.00     0.087 C 
ATOM     37  C   UNL     1       4.630  -0.563   1.929  1.00  0.00     0.087 C 
ATOM     38  C   UNL     1       5.395   1.580   0.399  1.00  0.00     0.041 C 
ATOM     39  C   UNL     1       6.119  -0.209   2.048  1.00  0.00     0.041 C 
ATOM     40  C   UNL     1       6.436   1.169   1.445  1.00  0.00     0.095 C 
BRANCH  40  41
ATOM     41  N   UNL     1       7.809   1.280   0.967  1.00  0.00    -0.291 N 
ATOM     42  C   UNL     1       8.781   2.117   1.471  1.00  0.00     0.295 A 
ATOM     43  C   UNL     1       8.361   0.625  -0.120  1.00  0.00     0.072 A 
ATOM     44  N   UNL     1       9.875   2.091   0.754  1.00  0.00    -0.195 NA
ATOM     45  C   UNL     1       7.892  -0.360  -1.003  1.00  0.00     0.029 A 
ATOM     46  C   UNL     1       9.640   1.170  -0.232  1.00  0.00     0.092 A 
ATOM     47  C   UNL     1       8.758  -0.777  -2.022  1.00  0.00     0.002 A 
ATOM     48  C   UNL     1      10.491   0.743  -1.263  1.00  0.00     0.031 A 
ATOM     49  C   UNL     1      10.037  -0.234  -2.154  1.00  0.00     0.002 A 
BRANCH  42  50
ATOM     50  O   UNL     1       8.672   2.888   2.543  1.00  0.00    -0.480 OA
ATOM     51  H   UNL     1       7.983   2.528   3.119  1.00  0.00     0.296 HD
ENDBRANCH  42  50
ENDBRANCH  40  41
ENDBRANCH  34  35
ENDBRANCH   4  34
TORSDOF 8
