MODEL        4USER    Run = 4USERUSER    Estimated Free Energy of Binding    = -12.53 kcal/mol  [=(1)+(2)+(3)-(4)]USERUSER    (1) Final Intermolecular Energy     = -14.62 kcal/molUSER        vdW + Hbond + desolv Energy     = -14.51 kcal/molUSER        Electrostatic Energy            =  -0.10 kcal/molUSER        Moving Ligand-Fixed Receptor    = -14.62 kcal/molUSER        Moving Ligand-Moving Receptor   =  +0.00 kcal/molUSER    (2) Final Total Internal Energy     =  -2.09 kcal/molUSER    (3) Torsional Free Energy           =  +2.09 kcal/molUSER    (4) Unbound System's Energy         =  -2.09 kcal/molUSERUSERREMARK SMILES O=C(c1ccc(-c2nc3ccc(F)cc3nc2-c2ccc(CN3CCC(n4c(O)nc5ccccc54)CC3)cc2)cc1)N1CCOCC1REMARK SMILES IDX 18 1 19 2 20 3 21 4 39 5 40 6 17 7 7 8 8 9 9 10 16 11 10 12REMARK SMILES IDX 15 13 11 14 14 15 12 16 13 17 6 18 3 19 4 20 42 21 5 22REMARK SMILES IDX 41 23 2 24 43 25 44 26 48 27 45 28 47 29 46 30 1 31 22 32REMARK SMILES IDX 23 33 24 34 38 35 25 36 37 37 26 38 27 39 28 40 36 41 30 42REMARK SMILES IDX 35 43 31 44 34 45 32 46 33 47 29 48REMARK H PARENT 29 49USER                              x       y       z     vdW  Elec       q    TypeUSER                           _______ _______ _______ _____ _____    ______ ____ROOTATOM      1  C   UNL     1      37.785  44.186  20.626 -0.37 -0.00    +0.002 A  ATOM      2  C   UNL     1      36.904  43.127  20.902 -0.41 +0.00    +0.011 A  ATOM      3  C   UNL     1      36.865  42.526  22.164 -0.47 +0.00    +0.006 A  ATOM      4  C   UNL     1      37.702  42.979  23.191 -0.35 -0.00    -0.034 A  ATOM      5  C   UNL     1      38.572  44.045  22.931 -0.29 +0.00    +0.006 A  ATOM      6  C   UNL     1      38.607  44.645  21.669 -0.34 +0.00    +0.011 A  ENDROOTBRANCH   1   7ATOM      7  C   UNL     1      37.814  44.799  19.286 -0.28 -0.01    +0.097 A  ATOM      8  C   UNL     1      36.873  44.563  18.269 -0.28 -0.02    +0.097 A  ATOM      9  N   UNL     1      37.021  45.120  17.034 -0.18 +0.09    -0.244 NA ATOM     10  C   UNL     1      38.077  45.927  16.835 -0.32 -0.03    +0.090 A  ATOM     11  N   UNL     1      38.875  45.629  19.082 -0.25 +0.02    -0.244 NA ATOM     12  C   UNL     1      38.258  46.523  15.592 -0.38 -0.01    +0.033 A  ATOM     13  C   UNL     1      39.009  46.186  17.866 -0.35 -0.02    +0.092 A  ATOM     14  C   UNL     1      39.340  47.367  15.348 -0.46 -0.01    +0.041 A  ATOM     15  C   UNL     1      40.084  47.026  17.617 -0.42 -0.01    +0.069 A  ATOM     16  C   UNL     1      40.246  47.610  16.369 -0.43 -0.03    +0.125 A  ATOM     17  F   UNL     1      41.291  48.417  16.146 -0.16 +0.01    -0.207 F  BRANCH   8  18ATOM     18  C   UNL     1      35.658  43.737  18.408 -0.33 -0.00    +0.002 A  ATOM     19  C   UNL     1      33.319  42.199  18.687 -0.37 -0.01    +0.040 A  ATOM     20  C   UNL     1      33.436  43.406  19.376 -0.41 -0.00    +0.014 A  ATOM     21  C   UNL     1      34.363  41.729  17.892 -0.36 -0.00    +0.014 A  ATOM     22  C   UNL     1      34.599  44.166  19.234 -0.39 -0.00    +0.011 A  ATOM     23  C   UNL     1      35.524  42.495  17.757 -0.31 -0.00    +0.011 A  BRANCH  19  24ATOM     24  C   UNL     1      32.101  41.381  18.830 -0.25 -0.01    +0.254 C  ATOM     25  N   UNL     1      31.095  41.539  17.885 -0.10 +0.06    -0.334 N  ATOM     26  C   UNL     1      31.211  42.347  16.665 -0.26 -0.06    +0.148 C  ATOM     27  C   UNL     1      29.908  40.684  17.957 -0.22 -0.01    +0.148 C  ATOM     28  C   UNL     1      29.853  42.515  15.977 -0.24 -0.08    +0.181 C  ATOM     29  C   UNL     1      29.503  40.204  16.560 -0.32 +0.00    +0.181 C  ATOM     30  O   UNL     1      29.241  41.265  15.629 -0.23 +0.14    -0.378 OA ATOM     31  O   UNL     1      32.050  40.588  19.766 -0.76 -0.05    -0.269 OA ENDBRANCH  19  24ENDBRANCH   8  18ENDBRANCH   1   7BRANCH   4  32ATOM     32  C   UNL     1      37.662  42.335  24.560 -0.31 +0.00    +0.120 C  BRANCH  32  33ATOM     33  N   UNL     1      37.748  43.302  25.669 -0.10 +0.01    -0.299 NA ATOM     34  C   UNL     1      39.141  43.689  25.943 -0.17 -0.00    +0.087 C  ATOM     35  C   UNL     1      36.845  44.442  25.451 -0.33 +0.00    +0.087 C  ATOM     36  C   UNL     1      39.220  44.826  26.961 -0.19 -0.00    +0.041 C  ATOM     37  C   UNL     1      37.549  45.785  25.285 -0.32 +0.00    +0.041 C  ATOM     38  C   UNL     1      38.446  46.070  26.495 -0.24 -0.00    +0.095 C  BRANCH  38  39ATOM     39  N   UNL     1      39.295  47.232  26.269 -0.10 -0.01    -0.291 N  ATOM     40  C   UNL     1      39.333  48.375  27.020 -0.12 +0.01    +0.295 A  ATOM     41  C   UNL     1      40.230  47.384  25.264 -0.18 +0.01    +0.072 A  ATOM     42  N   UNL     1      40.194  49.253  26.585 -0.20 -0.03    -0.195 NA ATOM     43  C   UNL     1      40.655  46.567  24.207 -0.18 +0.00    +0.029 A  ATOM     44  C   UNL     1      40.768  48.653  25.490 -0.25 +0.01    +0.092 A  ATOM     45  C   UNL     1      41.653  47.073  23.365 -0.23 +0.00    +0.002 A  ATOM     46  C   UNL     1      41.767  49.142  24.634 -0.34 +0.01    +0.031 A  ATOM     47  C   UNL     1      42.202  48.340  23.573 -0.37 +0.00    +0.002 A  BRANCH  40  48ATOM     48  O   UNL     1      38.588  48.605  28.081 -0.04 +0.06    -0.480 OA ATOM     49  H   UNL     1      39.147  48.232  28.788 -0.50 -0.13    +0.296 HD ENDBRANCH  40  48ENDBRANCH  38  39ENDBRANCH  32  33ENDBRANCH   4  32TORSDOF 7TERENDMDL