REMARK SMILES O=C(c1ccc(-c2nc3ccc(F)cc3nc2-c2ccc(CN3CCC(n4c(O)nc5ccccc54)CC3)cc2)cc1)N1CC(O)C1
REMARK SMILES IDX 18 1 19 2 20 3 21 4 39 5 40 6 17 7 7 8 8 9 9 10 16 11 10 12
REMARK SMILES IDX 15 13 11 14 14 15 12 16 13 17 6 18 3 19 4 20 42 21 5 22
REMARK SMILES IDX 41 23 2 24 43 25 44 26 47 27 45 28 1 29 46 30 22 32 23 33
REMARK SMILES IDX 24 34 38 35 25 36 37 37 26 38 27 39 28 40 36 41 30 42 35 43
REMARK SMILES IDX 31 44 34 45 32 46 33 47 29 48
REMARK H PARENT 46 31 29 49
ROOT
ATOM      1  C   UNL     1      -1.573  -2.024  -0.102  1.00  0.00     0.002 A 
ATOM      2  C   UNL     1      -0.869  -1.956  -1.316  1.00  0.00     0.011 A 
ATOM      3  C   UNL     1      -0.034  -0.875  -1.607  1.00  0.00     0.006 A 
ATOM      4  C   UNL     1       0.137   0.162  -0.682  1.00  0.00    -0.034 A 
ATOM      5  C   UNL     1      -0.566   0.108   0.528  1.00  0.00     0.006 A 
ATOM      6  C   UNL     1      -1.405  -0.974   0.815  1.00  0.00     0.011 A 
ENDROOT
BRANCH   1   7
ATOM      7  C   UNL     1      -2.425  -3.186   0.195  1.00  0.00     0.097 A 
ATOM      8  C   UNL     1      -3.789  -3.127   0.521  1.00  0.00     0.097 A 
ATOM      9  N   UNL     1      -4.479  -4.258   0.845  1.00  0.00    -0.244 NA
ATOM     10  C   UNL     1      -3.817  -5.426   0.814  1.00  0.00     0.090 A 
ATOM     11  N   UNL     1      -1.760  -4.375   0.154  1.00  0.00    -0.244 NA
ATOM     12  C   UNL     1      -4.488  -6.602   1.127  1.00  0.00     0.033 A 
ATOM     13  C   UNL     1      -2.448  -5.485   0.463  1.00  0.00     0.092 A 
ATOM     14  C   UNL     1      -3.833  -7.833   1.105  1.00  0.00     0.041 A 
ATOM     15  C   UNL     1      -1.803  -6.712   0.442  1.00  0.00     0.069 A 
ATOM     16  C   UNL     1      -2.492  -7.874   0.761  1.00  0.00     0.125 A 
ATOM     17  F   UNL     1      -1.852  -9.050   0.739  1.00  0.00    -0.207 F 
BRANCH   8  18
ATOM     18  C   UNL     1      -4.611  -1.901   0.538  1.00  0.00     0.002 A 
ATOM     19  C   UNL     1      -6.200   0.444   0.611  1.00  0.00     0.040 A 
ATOM     20  C   UNL     1      -5.412   0.161  -0.507  1.00  0.00     0.014 A 
ATOM     21  C   UNL     1      -6.234  -0.465   1.673  1.00  0.00     0.014 A 
ATOM     22  C   UNL     1      -4.625  -0.997  -0.539  1.00  0.00     0.011 A 
ATOM     23  C   UNL     1      -5.448  -1.622   1.633  1.00  0.00     0.011 A 
BRANCH  19  24
ATOM     24  C   UNL     1      -7.052   1.662   0.688  1.00  0.00     0.254 C 
ATOM     25  N   UNL     1      -6.599   2.807   0.066  1.00  0.00    -0.333 N 
ATOM     26  C   UNL     1      -5.231   3.310  -0.017  1.00  0.00     0.153 C 
ATOM     27  C   UNL     1      -7.198   4.127   0.230  1.00  0.00     0.153 C 
ATOM     28  C   UNL     1      -5.798   4.734   0.063  1.00  0.00     0.153 C 
ATOM     29  O   UNL     1      -8.115   1.619   1.304  1.00  0.00    -0.269 OA
BRANCH  28  30
ATOM     30  O   UNL     1      -5.581   5.569  -1.098  1.00  0.00    -0.389 OA
ATOM     31  H   UNL     1      -6.138   6.352  -0.955  1.00  0.00     0.211 HD
ENDBRANCH  28  30
ENDBRANCH  19  24
ENDBRANCH   8  18
ENDBRANCH   1   7
BRANCH   4  32
ATOM     32  C   UNL     1       1.074   1.313  -0.986  1.00  0.00     0.120 C 
BRANCH  32  33
ATOM     33  N   UNL     1       2.445   0.881  -1.298  1.00  0.00    -0.299 NA
ATOM     34  C   UNL     1       3.273   1.963  -1.842  1.00  0.00     0.087 C 
ATOM     35  C   UNL     1       3.067   0.134  -0.198  1.00  0.00     0.087 C 
ATOM     36  C   UNL     1       4.236   2.588  -0.835  1.00  0.00     0.041 C 
ATOM     37  C   UNL     1       4.589   0.114  -0.300  1.00  0.00     0.041 C 
ATOM     38  C   UNL     1       5.133   1.540  -0.152  1.00  0.00     0.095 C 
BRANCH  38  39
ATOM     39  N   UNL     1       6.539   1.634  -0.523  1.00  0.00    -0.291 N 
ATOM     40  C   UNL     1       7.067   1.492  -1.776  1.00  0.00     0.295 A 
ATOM     41  C   UNL     1       7.598   1.870   0.331  1.00  0.00     0.072 A 
ATOM     42  N   UNL     1       8.365   1.612  -1.809  1.00  0.00    -0.195 NA
ATOM     43  C   UNL     1       7.697   2.094   1.712  1.00  0.00     0.029 A 
ATOM     44  C   UNL     1       8.718   1.848  -0.503  1.00  0.00     0.092 A 
ATOM     45  C   UNL     1       8.977   2.300   2.239  1.00  0.00     0.002 A 
ATOM     46  C   UNL     1       9.992   2.053   0.047  1.00  0.00     0.031 A 
ATOM     47  C   UNL     1      10.107   2.282   1.423  1.00  0.00     0.002 A 
BRANCH  40  48
ATOM     48  O   UNL     1       6.368   1.257  -2.866  1.00  0.00    -0.480 OA
ATOM     49  H   UNL     1       7.073   1.193  -3.537  1.00  0.00     0.296 HD
ENDBRANCH  40  48
ENDBRANCH  38  39
ENDBRANCH  32  33
ENDBRANCH   4  32
TORSDOF 8
