MODEL        2USER    Run = 2USERUSER    Estimated Free Energy of Binding    = -10.89 kcal/mol  [=(1)+(2)+(3)-(4)]USERUSER    (1) Final Intermolecular Energy     = -13.57 kcal/molUSER        vdW + Hbond + desolv Energy     = -13.32 kcal/molUSER        Electrostatic Energy            =  -0.25 kcal/molUSER        Moving Ligand-Fixed Receptor    = -13.57 kcal/molUSER        Moving Ligand-Moving Receptor   =  +0.00 kcal/molUSER    (2) Final Total Internal Energy     =  -1.46 kcal/molUSER    (3) Torsional Free Energy           =  +2.68 kcal/molUSER    (4) Unbound System's Energy         =  -1.46 kcal/molUSERUSERREMARK SMILES NS(=O)(=O)C=Cc1ccc(N2CCC(C(F)(F)F)CC2)ccn[nH]c1SC(=O)C1CC1REMARK SMILES IDX 6 1 5 2 2 3 3 4 4 5 1 6 7 9 8 10 25 11 9 12 24 13 10 14REMARK SMILES IDX 23 15 21 16 22 17 26 19 27 20 28 21 29 22 30 23 31 24 11 25REMARK SMILES IDX 12 26 20 27 13 28 19 29 14 30 15 31 16 32 17 33 18 34REMARK H PARENT 1 7 1 8 24 18USER                              x       y       z     vdW  Elec       q    TypeUSER                           _______ _______ _______ _____ _____    ______ ____ROOTATOM      1  C   UNL     1      39.939  47.573  14.512 -0.46 -0.00    +0.024 C  ENDROOTBRANCH   1   2ATOM      2  C   UNL     1      40.219  48.878  14.352 -0.42 -0.04    +0.123 C  BRANCH   2   3ATOM      3  S   UNL     1      41.248  49.659  15.485 -0.70 -0.04    +0.231 S  ATOM      4  O   UNL     1      41.445  48.816  16.643 -1.04 -0.00    -0.208 OA ATOM      5  O   UNL     1      42.369  50.299  14.831 -0.71 +0.02    -0.208 OA BRANCH   3   6ATOM      6  N   UNL     1      40.344  50.954  16.087 -0.13 +0.12    -0.225 NA ATOM      7  H   UNL     1      40.924  51.464  16.753 -0.49 -0.10    +0.137 HD ATOM      8  H   UNL     1      40.057  51.528  15.290 -0.45 -0.12    +0.137 HD ENDBRANCH   3   6ENDBRANCH   2   3ENDBRANCH   1   2BRANCH   1   9ATOM      9  C   UNL     1      39.131  47.054  15.637 -0.46 -0.00    +0.007 A  ATOM     10  C   UNL     1      39.894  46.390  16.535 -0.45 -0.00    +0.013 A  ATOM     11  C   UNL     1      37.801  47.338  15.674 -0.36 -0.06    +0.104 A  ATOM     12  C   UNL     1      39.887  45.798  17.736 -0.43 -0.00    +0.026 A  ATOM     13  N   UNL     1      36.878  46.797  16.538 -0.20 +0.19    -0.271 N  ATOM     14  C   UNL     1      39.145  45.358  18.779 -0.39 -0.00    +0.038 A  ATOM     15  N   UNL     1      36.774  45.351  16.611 -0.22 +0.08    -0.183 NA ATOM     16  C   UNL     1      37.819  45.103  18.835 -0.32 -0.01    +0.048 A  ATOM     17  C   UNL     1      36.845  45.064  17.916 -0.25 -0.04    +0.135 A  ATOM     18  H   UNL     1      35.954  47.163  16.338 +0.12 -0.23    +0.191 HD BRANCH  11  19ATOM     19  S   UNL     1      37.132  48.562  14.554 -0.71 +0.02    -0.032 SA BRANCH  19  20ATOM     20  C   UNL     1      36.836  47.606  13.107 -0.52 -0.08    +0.198 C  ATOM     21  O   UNL     1      36.909  48.104  11.990 -1.04 +0.06    -0.286 OA BRANCH  20  22ATOM     22  C   UNL     1      36.363  46.198  13.270 -0.55 -0.03    +0.068 C  ATOM     23  C   UNL     1      37.359  45.061  13.407 -0.48 -0.00    +0.013 C  ATOM     24  C   UNL     1      36.568  45.207  12.142 -0.62 -0.00    +0.013 C  ENDBRANCH  20  22ENDBRANCH  19  20ENDBRANCH  11  19BRANCH  14  25ATOM     25  N   UNL     1      39.900  45.036  19.991 -0.15 -0.00    -0.371 N  ATOM     26  C   UNL     1      41.369  45.112  20.031 -0.36 +0.01    +0.117 C  ATOM     27  C   UNL     1      39.232  44.468  21.176 -0.31 +0.00    +0.117 C  ATOM     28  C   UNL     1      41.836  45.496  21.431 -0.32 +0.01    +0.034 C  ATOM     29  C   UNL     1      40.194  43.636  22.014 -0.29 +0.00    +0.034 C  ATOM     30  C   UNL     1      41.396  44.469  22.486 -0.22 +0.01    +0.098 C  BRANCH  30  31ATOM     31  C   UNL     1      42.540  43.554  22.876 -0.14 +0.02    +0.391 C  ATOM     32  F   UNL     1      42.163  42.688  23.849 -0.08 +0.01    -0.171 F  ATOM     33  F   UNL     1      43.606  44.241  23.334 -0.03 -0.03    -0.171 F  ATOM     34  F   UNL     1      42.944  42.814  21.819 -0.14 -0.00    -0.171 F  ENDBRANCH  30  31ENDBRANCH  14  25ENDBRANCH   1   9TORSDOF 9TERENDMDL