MODEL        3USER    Run = 3USERUSER    Estimated Free Energy of Binding    = -10.20 kcal/mol  [=(1)+(2)+(3)-(4)]USERUSER    (1) Final Intermolecular Energy     = -12.58 kcal/molUSER        vdW + Hbond + desolv Energy     = -12.46 kcal/molUSER        Electrostatic Energy            =  -0.12 kcal/molUSER        Moving Ligand-Fixed Receptor    = -12.58 kcal/molUSER        Moving Ligand-Moving Receptor   =  +0.00 kcal/molUSER    (2) Final Total Internal Energy     =  -1.41 kcal/molUSER    (3) Torsional Free Energy           =  +2.39 kcal/molUSER    (4) Unbound System's Energy         =  -1.41 kcal/molUSERUSERREMARK SMILES CC(=O)Sc1[nH]nccc(N2CCC(C(F)(F)F)CC2)ccc1C=CS(N)(=O)=OREMARK SMILES IDX 24 1 23 2 5 3 6 4 7 5 22 6 8 7 21 8 9 9 10 10 4 12 2 13 1 14REMARK SMILES IDX 3 15 11 16 12 17 20 18 13 19 19 20 14 21 15 22 16 23 17 24REMARK SMILES IDX 18 25 25 26 26 27 28 28 29 29 27 30REMARK H PARENT 6 11 27 31 27 32USER                              x       y       z     vdW  Elec       q    TypeUSER                           _______ _______ _______ _____ _____    ______ ____ROOTATOM      1  C   UNL     1      38.430  45.975  14.358 -0.46 -0.01    +0.024 C  ENDROOTBRANCH   1   2ATOM      2  C   UNL     1      38.849  46.310  15.734 -0.41 -0.00    +0.007 A  ATOM      3  C   UNL     1      39.568  47.441  15.962 -0.42 -0.03    +0.104 A  ATOM      4  N   UNL     1      40.120  47.776  17.176 -0.29 +0.06    -0.271 N  ATOM      5  N   UNL     1      41.371  47.109  17.506 -0.35 +0.02    -0.183 NA ATOM      6  C   UNL     1      38.412  45.417  16.648 -0.34 -0.00    +0.013 A  ATOM      7  C   UNL     1      41.239  46.574  18.724 -0.41 -0.00    +0.135 A  ATOM      8  C   UNL     1      38.473  45.117  17.952 -0.37 -0.00    +0.026 A  ATOM      9  C   UNL     1      40.290  45.921  19.410 -0.38 -0.00    +0.048 A  ATOM     10  C   UNL     1      39.113  45.329  19.121 -0.38 -0.00    +0.038 A  ATOM     11  H   UNL     1      40.329  48.771  17.194 +0.13 -0.05    +0.191 HD BRANCH   3  12ATOM     12  S   UNL     1      39.737  48.666  14.672 -0.68 +0.01    -0.032 SA BRANCH  12  13ATOM     13  C   UNL     1      41.241  49.419  15.194 -0.55 -0.03    +0.192 C  ATOM     14  C   UNL     1      42.221  49.773  14.109 -0.60 -0.01    +0.101 C  ATOM     15  O   UNL     1      41.455  49.657  16.379 -1.08 +0.00    -0.287 OA ENDBRANCH  12  13ENDBRANCH   3  12BRANCH  10  16ATOM     16  N   UNL     1      38.518  44.702  20.279 -0.14 +0.01    -0.371 N  ATOM     17  C   UNL     1      37.546  43.620  20.107 -0.30 -0.00    +0.117 C  ATOM     18  C   UNL     1      39.268  44.685  21.540 -0.30 +0.00    +0.117 C  ATOM     19  C   UNL     1      36.533  43.673  21.249 -0.44 +0.00    +0.034 C  ATOM     20  C   UNL     1      38.286  44.753  22.708 -0.36 +0.00    +0.034 C  ATOM     21  C   UNL     1      37.197  43.673  22.635 -0.36 +0.01    +0.098 C  BRANCH  21  22ATOM     22  C   UNL     1      37.732  42.299  23.008 -0.19 +0.03    +0.391 C  ATOM     23  F   UNL     1      37.589  42.073  24.336 -0.12 -0.01    -0.171 F  ATOM     24  F   UNL     1      39.033  42.127  22.710 -0.08 -0.02    -0.171 F  ATOM     25  F   UNL     1      37.038  41.327  22.367 -0.22 -0.01    -0.171 F  ENDBRANCH  21  22ENDBRANCH  10  16ENDBRANCH   1   2BRANCH   1  26ATOM     26  C   UNL     1      37.219  46.333  13.900 -0.43 -0.05    +0.123 C  BRANCH  26  27ATOM     27  S   UNL     1      37.072  47.624  12.777 -0.61 -0.07    +0.231 S  ATOM     28  O   UNL     1      37.802  47.315  11.568 -0.93 +0.01    -0.208 OA ATOM     29  O   UNL     1      37.230  48.893  13.455 -0.73 +0.09    -0.208 OA BRANCH  27  30ATOM     30  N   UNL     1      35.446  47.578  12.325 -0.28 +0.15    -0.225 NA ATOM     31  H   UNL     1      35.105  46.621  12.258 -0.13 -0.10    +0.137 HD ATOM     32  H   UNL     1      35.274  48.161  11.508 -0.24 -0.11    +0.137 HD ENDBRANCH  27  30ENDBRANCH  26  27ENDBRANCH   1  26TORSDOF 8TERENDMDL