MODEL        4USER    Run = 4USERUSER    Estimated Free Energy of Binding    = -10.09 kcal/mol  [=(1)+(2)+(3)-(4)]USERUSER    (1) Final Intermolecular Energy     = -12.47 kcal/molUSER        vdW + Hbond + desolv Energy     = -12.23 kcal/molUSER        Electrostatic Energy            =  -0.25 kcal/molUSER        Moving Ligand-Fixed Receptor    = -12.47 kcal/molUSER        Moving Ligand-Moving Receptor   =  +0.00 kcal/molUSER    (2) Final Total Internal Energy     =  -1.37 kcal/molUSER    (3) Torsional Free Energy           =  +2.39 kcal/molUSER    (4) Unbound System's Energy         =  -1.37 kcal/molUSERUSERREMARK SMILES NC(=O)Sc1[nH]nccc(N2CCC(C(F)(F)F)CC2)ccc1C=CS(N)(=O)=OREMARK SMILES IDX 24 1 23 2 5 3 6 4 7 5 22 6 8 7 21 8 9 9 10 10 4 12 2 13 1 14REMARK SMILES IDX 3 17 11 18 12 19 20 20 13 21 19 22 14 23 15 24 16 25 17 26REMARK SMILES IDX 18 27 25 28 26 29 28 30 29 31 27 32REMARK H PARENT 6 11 1 15 1 16 27 33 27 34USER                              x       y       z     vdW  Elec       q    TypeUSER                           _______ _______ _______ _____ _____    ______ ____ROOTATOM      1  C   UNL     1      35.781  44.897  16.563 -0.36 -0.01    +0.024 C  ENDROOTBRANCH   1   2ATOM      2  C   UNL     1      37.095  45.535  16.361 -0.35 -0.00    +0.007 A  ATOM      3  C   UNL     1      37.382  46.090  15.154 -0.31 -0.05    +0.106 A  ATOM      4  N   UNL     1      38.645  46.552  14.826 -0.23 +0.08    -0.271 N  ATOM      5  N   UNL     1      38.838  47.983  14.967 -0.35 +0.08    -0.183 NA ATOM      6  C   UNL     1      37.928  45.392  17.412 -0.36 -0.00    +0.013 A  ATOM      7  C   UNL     1      39.831  48.220  15.829 -0.44 -0.04    +0.135 A  ATOM      8  C   UNL     1      39.131  45.759  17.871 -0.41 -0.00    +0.026 A  ATOM      9  C   UNL     1      40.415  47.628  16.880 -0.49 -0.01    +0.048 A  ATOM     10  C   UNL     1      40.184  46.586  17.703 -0.46 -0.00    +0.038 A  ATOM     11  H   UNL     1      38.789  46.365  13.833 +0.14 -0.04    +0.191 HD BRANCH   3  12ATOM     12  S   UNL     1      36.225  45.999  13.798 -0.65 +0.00    -0.009 SA BRANCH  12  13ATOM     13  C   UNL     1      36.839  47.137  12.628 -0.48 -0.11    +0.282 C  ATOM     14  N   UNL     1      35.796  47.809  12.059 -0.28 +0.22    -0.360 N  ATOM     15  H   UNL     1      36.038  48.661  11.576 -0.37 -0.09    +0.160 HD ATOM     16  H   UNL     1      34.899  47.739  12.520 -0.10 -0.13    +0.160 HD ATOM     17  O   UNL     1      38.004  47.410  12.370 -0.91 +0.01    -0.262 OA ENDBRANCH  12  13ENDBRANCH   3  12BRANCH  10  18ATOM     18  N   UNL     1      41.221  46.364  18.693 -0.23 -0.00    -0.371 N  ATOM     19  C   UNL     1      40.943  45.446  19.810 -0.39 +0.01    +0.117 C  ATOM     20  C   UNL     1      42.192  47.444  18.929 -0.47 +0.00    +0.117 C  ATOM     21  C   UNL     1      41.156  46.145  21.149 -0.30 +0.00    +0.034 C  ATOM     22  C   UNL     1      43.239  46.996  19.940 -0.45 +0.01    +0.034 C  ATOM     23  C   UNL     1      42.595  46.671  21.301 -0.34 +0.02    +0.098 C  BRANCH  23  24ATOM     24  C   UNL     1      43.465  45.692  22.069 -0.09 +0.15    +0.391 C  ATOM     25  F   UNL     1      43.312  45.850  23.407 -0.01 -0.03    -0.171 F  ATOM     26  F   UNL     1      43.167  44.409  21.774 -0.08 -0.05    -0.171 F  ATOM     27  F   UNL     1      44.776  45.887  21.796 -0.06 -0.19    -0.171 F  ENDBRANCH  23  24ENDBRANCH  10  18ENDBRANCH   1   2BRANCH   1  28ATOM     28  C   UNL     1      35.217  44.705  17.764 -0.30 -0.05    +0.123 C  BRANCH  28  29ATOM     29  S   UNL     1      33.731  45.489  18.145 -0.46 -0.12    +0.231 S  ATOM     30  O   UNL     1      33.186  44.886  19.342 -0.40 +0.06    -0.208 OA ATOM     31  O   UNL     1      32.930  45.630  16.949 -0.35 +0.16    -0.208 OA BRANCH  29  32ATOM     32  N   UNL     1      34.155  47.058  18.596 -0.93 +0.17    -0.225 NA ATOM     33  H   UNL     1      33.947  47.235  19.579 -0.46 -0.04    +0.137 HD ATOM     34  H   UNL     1      33.783  47.751  17.944 -0.48 -0.25    +0.137 HD ENDBRANCH  29  32ENDBRANCH  28  29ENDBRANCH   1  28TORSDOF 8TERENDMDL