REMARK SMILES CC(=O)Sc1[nH]nccc(N2CCC(C(F)(F)F)CC2)ccc1C=CS(N)(=O)=O
REMARK SMILES IDX 24 1 23 2 5 3 6 4 7 5 22 6 8 7 21 8 9 9 10 10 4 12 2 13 1 14
REMARK SMILES IDX 3 15 11 16 12 17 20 18 13 19 19 20 14 21 15 22 16 23 17 24
REMARK SMILES IDX 18 25 25 26 26 27 28 28 29 29 27 30
REMARK H PARENT 6 11 27 31 27 32
ROOT
ATOM      1  C   UNL     1       3.265   1.521   0.537  1.00  0.00     0.024 C 
ENDROOT
BRANCH   1   2
ATOM      2  C   UNL     1       2.337   0.398   0.295  1.00  0.00     0.007 A 
ATOM      3  C   UNL     1       2.827  -0.863   0.157  1.00  0.00     0.104 A 
ATOM      4  N   UNL     1       2.070  -1.953  -0.202  1.00  0.00    -0.271 N 
ATOM      5  N   UNL     1       1.783  -2.083  -1.623  1.00  0.00    -0.183 NA
ATOM      6  C   UNL     1       1.042   0.782   0.275  1.00  0.00     0.013 A 
ATOM      7  C   UNL     1       0.464  -2.246  -1.760  1.00  0.00     0.135 A 
ATOM      8  C   UNL     1      -0.198   0.321   0.069  1.00  0.00     0.026 A 
ATOM      9  C   UNL     1      -0.649  -1.735  -1.213  1.00  0.00     0.048 A 
ATOM     10  C   UNL     1      -0.952  -0.685  -0.422  1.00  0.00     0.038 A 
ATOM     11  H   UNL     1       2.556  -2.807   0.057  1.00  0.00     0.191 HD
BRANCH   3  12
ATOM     12  S   UNL     1       4.531  -1.208   0.570  1.00  0.00    -0.032 SA
BRANCH  12  13
ATOM     13  C   UNL     1       4.399  -1.218   2.326  1.00  0.00     0.192 C 
ATOM     14  C   UNL     1       3.388  -2.164   2.913  1.00  0.00     0.101 C 
ATOM     15  O   UNL     1       5.115  -0.503   3.021  1.00  0.00    -0.287 OA
ENDBRANCH  12  13
ENDBRANCH   3  12
BRANCH  10  16
ATOM     16  N   UNL     1      -2.373  -0.571  -0.185  1.00  0.00    -0.371 N 
ATOM     17  C   UNL     1      -2.883  -0.503   1.186  1.00  0.00     0.117 C 
ATOM     18  C   UNL     1      -3.213   0.066  -1.206  1.00  0.00     0.117 C 
ATOM     19  C   UNL     1      -4.259  -1.164   1.240  1.00  0.00     0.034 C 
ATOM     20  C   UNL     1      -4.596  -0.582  -1.193  1.00  0.00     0.034 C 
ATOM     21  C   UNL     1      -5.237  -0.590   0.203  1.00  0.00     0.098 C 
BRANCH  21  22
ATOM     22  C   UNL     1      -5.746   0.786   0.603  1.00  0.00     0.391 C 
ATOM     23  F   UNL     1      -6.651   1.243  -0.295  1.00  0.00    -0.171 F 
ATOM     24  F   UNL     1      -4.775   1.713   0.701  1.00  0.00    -0.171 F 
ATOM     25  F   UNL     1      -6.375   0.731   1.802  1.00  0.00    -0.171 F 
ENDBRANCH  21  22
ENDBRANCH  10  16
ENDBRANCH   1   2
BRANCH   1  26
ATOM     26  C   UNL     1       3.981   2.052  -0.467  1.00  0.00     0.123 C 
BRANCH  26  27
ATOM     27  S   UNL     1       4.983   3.418  -0.180  1.00  0.00     0.231 S 
ATOM     28  O   UNL     1       6.323   2.989   0.152  1.00  0.00    -0.208 OA
ATOM     29  O   UNL     1       4.277   4.392   0.625  1.00  0.00    -0.208 OA
BRANCH  27  30
ATOM     30  N   UNL     1       5.123   4.138  -1.701  1.00  0.00    -0.225 NA
ATOM     31  H   UNL     1       4.217   4.436  -2.057  1.00  0.00     0.137 HD
ATOM     32  H   UNL     1       5.672   3.559  -2.334  1.00  0.00     0.137 HD
ENDBRANCH  27  30
ENDBRANCH  26  27
ENDBRANCH   1  26
TORSDOF 8
