REMARK SMILES NS(=O)(=O)C=Cc1ccc(N2CCC(C(F)(F)F)CC2)ccn[nH]c1SC(=O)C1CC1
REMARK SMILES IDX 6 1 5 2 2 3 3 4 4 5 1 6 7 9 8 10 25 11 9 12 24 13 10 14
REMARK SMILES IDX 23 15 21 16 22 17 26 19 27 20 28 21 29 22 30 23 31 24 11 25
REMARK SMILES IDX 12 26 20 27 13 28 19 29 14 30 15 31 16 32 17 33 18 34
REMARK H PARENT 1 7 1 8 24 18
ROOT
ATOM      1  C   UNL     1      -2.566  -2.474   0.280  1.00  0.00     0.024 C 
ENDROOT
BRANCH   1   2
ATOM      2  C   UNL     1      -2.938  -3.447   1.129  1.00  0.00     0.123 C 
BRANCH   2   3
ATOM      3  S   UNL     1      -3.635  -4.886   0.500  1.00  0.00     0.231 S 
ATOM      4  O   UNL     1      -3.783  -5.869   1.550  1.00  0.00    -0.208 OA
ATOM      5  O   UNL     1      -4.726  -4.595  -0.406  1.00  0.00    -0.208 OA
BRANCH   3   6
ATOM      6  N   UNL     1      -2.450  -5.553  -0.503  1.00  0.00    -0.225 NA
ATOM      7  H   UNL     1      -2.039  -6.352  -0.022  1.00  0.00     0.137 HD
ATOM      8  H   UNL     1      -2.900  -5.810  -1.385  1.00  0.00     0.137 HD
ENDBRANCH   3   6
ENDBRANCH   2   3
ENDBRANCH   1   2
BRANCH   1   9
ATOM      9  C   UNL     1      -1.899  -1.229   0.722  1.00  0.00     0.007 A 
ATOM     10  C   UNL     1      -0.572  -1.255   0.461  1.00  0.00     0.013 A 
ATOM     11  C   UNL     1      -2.658  -0.232   1.252  1.00  0.00     0.104 A 
ATOM     12  C   UNL     1       0.549  -0.523   0.475  1.00  0.00     0.026 A 
ATOM     13  N   UNL     1      -2.191   0.905   1.868  1.00  0.00    -0.271 N 
ATOM     14  C   UNL     1       1.144   0.633   0.850  1.00  0.00     0.038 A 
ATOM     15  N   UNL     1      -1.263   0.752   2.974  1.00  0.00    -0.183 NA
ATOM     16  C   UNL     1       0.745   1.538   1.771  1.00  0.00     0.048 A 
ATOM     17  C   UNL     1      -0.238   1.560   2.681  1.00  0.00     0.135 A 
ATOM     18  H   UNL     1      -2.966   1.471   2.192  1.00  0.00     0.191 HD
BRANCH  11  19
ATOM     19  S   UNL     1      -4.440  -0.321   1.123  1.00  0.00    -0.032 SA
BRANCH  19  20
ATOM     20  C   UNL     1      -4.775   0.887  -0.111  1.00  0.00     0.198 C 
ATOM     21  O   UNL     1      -5.888   1.388  -0.225  1.00  0.00    -0.286 OA
BRANCH  20  22
ATOM     22  C   UNL     1      -3.708   1.199  -1.109  1.00  0.00     0.068 C 
ATOM     23  C   UNL     1      -4.065   1.795  -2.458  1.00  0.00     0.013 C 
ATOM     24  C   UNL     1      -3.604   0.371  -2.374  1.00  0.00     0.013 C 
ENDBRANCH  20  22
ENDBRANCH  19  20
ENDBRANCH  11  19
BRANCH  14  25
ATOM     25  N   UNL     1       2.442   0.898   0.228  1.00  0.00    -0.371 N 
ATOM     26  C   UNL     1       3.521   1.589   0.952  1.00  0.00     0.117 C 
ATOM     27  C   UNL     1       2.671   0.627  -1.203  1.00  0.00     0.117 C 
ATOM     28  C   UNL     1       4.879   1.085   0.476  1.00  0.00     0.034 C 
ATOM     29  C   UNL     1       3.763   1.522  -1.774  1.00  0.00     0.034 C 
ATOM     30  C   UNL     1       5.092   1.338  -1.025  1.00  0.00     0.098 C 
BRANCH  30  31
ATOM     31  C   UNL     1       5.991   2.535  -1.261  1.00  0.00     0.391 C 
ATOM     32  F   UNL     1       7.196   2.367  -0.662  1.00  0.00    -0.171 F 
ATOM     33  F   UNL     1       5.454   3.676  -0.782  1.00  0.00    -0.171 F 
ATOM     34  F   UNL     1       6.223   2.707  -2.582  1.00  0.00    -0.171 F 
ENDBRANCH  30  31
ENDBRANCH  14  25
ENDBRANCH   1   9
TORSDOF 9
