REMARK SMILES Cc1cccc(-c2n[nH]c3cc(NCC[C@@H](N)c4nnn[nH]4)ccc23)c1C
REMARK SMILES IDX 14 1 13 2 12 4 7 5 8 6 25 7 9 8 24 9 10 10 23 11 11 12 6 14
REMARK SMILES IDX 2 15 3 16 26 17 4 18 5 19 1 20 27 21 15 22 16 23 17 24 18 27
REMARK SMILES IDX 19 28 22 29 20 30 21 31
REMARK H PARENT 13 3 9 13 17 25 17 26 22 32
ROOT
ATOM      1  C   UNL     1       3.507   1.602   0.115  1.00  0.00     0.115 C 
ENDROOT
BRANCH   1   2
ATOM      2  N   UNL     1       2.789   0.709  -0.794  1.00  0.00    -0.385 N 
ATOM      3  H   UNL     1       3.189  -0.223  -0.860  1.00  0.00     0.160 HD
BRANCH   2   4
ATOM      4  C   UNL     1       1.389   0.620  -0.698  1.00  0.00     0.036 A 
ATOM      5  C   UNL     1      -2.828   0.579  -0.501  1.00  0.00     0.100 A 
ATOM      6  N   UNL     1      -3.042   1.719   0.176  1.00  0.00    -0.174 NA
ATOM      7  C   UNL     1      -1.432   0.363  -0.719  1.00  0.00     0.028 A 
ATOM      8  N   UNL     1      -1.812   2.215   0.379  1.00  0.00    -0.277 N 
ATOM      9  C   UNL     1      -0.640  -0.614  -1.345  1.00  0.00     0.015 A 
ATOM     10  C   UNL     1      -0.801   1.446  -0.125  1.00  0.00     0.068 A 
ATOM     11  C   UNL     1       0.755  -0.459  -1.337  1.00  0.00     0.026 A 
ATOM     12  C   UNL     1       0.592   1.615  -0.112  1.00  0.00     0.054 A 
ATOM     13  H   UNL     1      -1.728   3.092   0.879  1.00  0.00     0.190 HD
BRANCH   5  14
ATOM     14  C   UNL     1      -3.937  -0.269  -0.939  1.00  0.00     0.006 A 
ATOM     15  C   UNL     1      -5.912  -1.641  -0.522  1.00  0.00    -0.048 A 
ATOM     16  C   UNL     1      -6.042  -1.837  -1.907  1.00  0.00     0.004 A 
ATOM     17  C   UNL     1      -4.832  -0.873  -0.022  1.00  0.00    -0.039 A 
ATOM     18  C   UNL     1      -5.143  -1.260  -2.800  1.00  0.00     0.001 A 
ATOM     19  C   UNL     1      -4.101  -0.474  -2.318  1.00  0.00     0.011 A 
ATOM     20  C   UNL     1      -6.924  -2.280   0.391  1.00  0.00     0.044 C 
ATOM     21  C   UNL     1      -4.667  -0.658   1.464  1.00  0.00     0.045 C 
ENDBRANCH   5  14
ENDBRANCH   2   4
ENDBRANCH   1   2
BRANCH   1  22
ATOM     22  C   UNL     1       5.017   1.543  -0.155  1.00  0.00     0.048 C 
BRANCH  22  23
ATOM     23  C   UNL     1       5.702   0.291   0.415  1.00  0.00     0.123 C 
BRANCH  23  24
ATOM     24  N   UNL     1       7.061   0.168  -0.142  1.00  0.00    -0.321 NA
ATOM     25  H   UNL     1       7.567   1.040   0.038  1.00  0.00     0.119 HD
ATOM     26  H   UNL     1       6.994   0.118  -1.161  1.00  0.00     0.119 HD
ENDBRANCH  23  24
BRANCH  23  27
ATOM     27  C   UNL     1       5.792   0.303   1.903  1.00  0.00     0.165 A 
ATOM     28  N   UNL     1       5.241   1.121   2.777  1.00  0.00    -0.112 NA
ATOM     29  N   UNL     1       6.521  -0.618   2.601  1.00  0.00    -0.241 N 
ATOM     30  N   UNL     1       5.632   0.676   4.017  1.00  0.00    -0.024 NA
ATOM     31  N   UNL     1       6.417  -0.387   3.915  1.00  0.00    -0.048 NA
ATOM     32  H   UNL     1       7.104  -1.369   2.252  1.00  0.00     0.193 HD
ENDBRANCH  23  27
ENDBRANCH  22  23
ENDBRANCH   1  22
TORSDOF 7
