MODEL        7USER    Run = 7USERUSER    Estimated Free Energy of Binding    = -10.84 kcal/mol  [=(1)+(2)+(3)-(4)]USERUSER    (1) Final Intermolecular Energy     = -12.92 kcal/molUSER        vdW + Hbond + desolv Energy     = -12.46 kcal/molUSER        Electrostatic Energy            =  -0.46 kcal/molUSER        Moving Ligand-Fixed Receptor    = -12.92 kcal/molUSER        Moving Ligand-Moving Receptor   =  +0.00 kcal/molUSER    (2) Final Total Internal Energy     =  -1.76 kcal/molUSER    (3) Torsional Free Energy           =  +2.09 kcal/molUSER    (4) Unbound System's Energy         =  -1.76 kcal/molUSERUSERREMARK SMILES OCCNC1=C(c2cccc(-c3ccc(O)cc3)c2)N=C2C=CN=C[C@@H]21REMARK SMILES IDX 5 1 6 2 20 3 21 4 22 5 23 6 24 7 25 8 26 9 4 10 3 12 2 13REMARK SMILES IDX 1 14 7 16 8 17 19 18 9 19 11 20 10 21 12 22 13 23 18 24REMARK SMILES IDX 14 25 17 26 15 27 16 28REMARK H PARENT 4 11 1 15 16 29USER                              x       y       z     vdW  Elec       q    TypeUSER                           _______ _______ _______ _____ _____    ______ ____ROOTATOM      1  C   UNL     1      38.342  47.505  15.636 -0.49 -0.03    +0.052 C  ATOM      2  C   UNL     1      37.714  46.544  16.353 -0.38 -0.04    +0.091 C  ATOM      3  N   UNL     1      36.487  46.171  15.841 -0.19 +0.16    -0.250 NA ATOM      4  C   UNL     1      36.387  46.855  14.747 -0.43 -0.04    +0.057 C  ATOM      5  C   UNL     1      35.391  46.663  13.694 -0.51 -0.03    +0.045 C  ATOM      6  C   UNL     1      35.843  46.946  12.463 -0.62 -0.06    +0.112 C  ATOM      7  N   UNL     1      37.120  47.350  12.122 -0.95 +0.07    -0.268 NA ATOM      8  C   UNL     1      37.904  47.749  13.083 -0.35 -0.02    +0.100 C  ATOM      9  C   UNL     1      37.439  47.893  14.505 -0.49 -0.08    +0.128 C  ENDROOTBRANCH   1  10ATOM     10  N   UNL     1      39.548  48.146  15.876 -0.21 +0.14    -0.383 N  ATOM     11  H   UNL     1      39.408  49.056  16.329 +0.10 -0.08    +0.160 HD BRANCH  10  12ATOM     12  C   UNL     1      40.644  48.240  14.911 -0.50 -0.02    +0.141 C  BRANCH  12  13ATOM     13  C   UNL     1      41.345  49.596  15.060 -0.59 -0.03    +0.177 C  BRANCH  13  14ATOM     14  O   UNL     1      41.436  49.945  16.441 -0.94 +0.02    -0.395 OA ATOM     15  H   UNL     1      41.412  50.916  16.491 -0.42 -0.08    +0.210 HD ENDBRANCH  13  14ENDBRANCH  12  13ENDBRANCH  10  12ENDBRANCH   1  10BRANCH   2  16ATOM     16  C   UNL     1      38.221  45.900  17.576 -0.39 -0.00    +0.003 A  ATOM     17  C   UNL     1      37.483  44.922  18.253 -0.36 -0.00    +0.010 A  ATOM     18  C   UNL     1      39.458  46.299  18.107 -0.41 -0.00    +0.019 A  ATOM     19  C   UNL     1      37.982  44.336  19.416 -0.36 -0.00    +0.001 A  ATOM     20  C   UNL     1      39.981  45.724  19.279 -0.41 +0.00    -0.018 A  ATOM     21  C   UNL     1      39.222  44.732  19.920 -0.37 -0.00    +0.009 A  BRANCH  20  22ATOM     22  C   UNL     1      41.281  46.155  19.821 -0.40 -0.00    -0.018 A  ATOM     23  C   UNL     1      42.156  46.949  19.059 -0.53 +0.00    +0.012 A  ATOM     24  C   UNL     1      41.686  45.785  21.116 -0.32 +0.00    +0.012 A  ATOM     25  C   UNL     1      43.389  47.363  19.569 -0.37 +0.01    +0.047 A  ATOM     26  C   UNL     1      42.919  46.196  21.629 -0.28 +0.01    +0.047 A  ATOM     27  C   UNL     1      43.759  46.982  20.852 -0.26 +0.06    +0.115 A  BRANCH  27  28ATOM     28  O   UNL     1      44.953  47.361  21.391 -0.66 -0.49    -0.508 OA ATOM     29  H   UNL     1      44.961  48.329  21.470 -0.38 +0.07    +0.293 HD ENDBRANCH  27  28ENDBRANCH  20  22ENDBRANCH   2  16TORSDOF 7TERENDMDL