REMARK SMILES CN[C@H]1CN(Cc2ccc(C(=O)Nc3cc(F)ccc3CN3CCC(C(=O)O)CC3)cc2)C[C@@H]1O
REMARK SMILES IDX 14 1 15 2 16 3 17 4 18 5 19 6 20 7 13 8 11 9 12 10 10 12
REMARK SMILES IDX 7 13 8 14 32 15 9 16 31 17 6 18 5 19 3 20 4 21 34 22 33 23
REMARK SMILES IDX 2 24 1 25 35 27 21 29 22 30 23 31 30 32 24 33 29 34 25 35
REMARK SMILES IDX 26 36 27 37 28 38
REMARK H PARENT 13 11 2 26 35 28 28 39
ROOT
ATOM      1  C   UNL     1       3.107   1.035   3.104  1.00  0.00     0.048 A 
ATOM      2  C   UNL     1       3.606   0.770   4.387  1.00  0.00     0.065 A 
ATOM      3  C   UNL     1       4.934   1.040   4.705  1.00  0.00     0.125 A 
ATOM      4  F   UNL     1       5.383   0.777   5.941  1.00  0.00    -0.207 F 
ATOM      5  C   UNL     1       5.801   1.576   3.769  1.00  0.00     0.040 A 
ATOM      6  C   UNL     1       5.325   1.855   2.493  1.00  0.00     0.010 A 
ATOM      7  C   UNL     1       3.977   1.605   2.142  1.00  0.00    -0.010 A 
ENDROOT
BRANCH   1   8
ATOM      8  N   UNL     1       1.761   0.755   2.762  1.00  0.00    -0.322 N 
ATOM      9  C   UNL     1       0.808   0.105   3.527  1.00  0.00     0.255 C 
ATOM     10  O   UNL     1       0.968  -0.425   4.619  1.00  0.00    -0.269 OA
ATOM     11  H   UNL     1       1.479   0.967   1.817  1.00  0.00     0.170 HD
BRANCH   9  12
ATOM     12  C   UNL     1      -0.540   0.027   2.898  1.00  0.00     0.040 A 
ATOM     13  C   UNL     1      -3.103  -0.173   1.766  1.00  0.00    -0.034 A 
ATOM     14  C   UNL     1      -2.349   1.000   1.615  1.00  0.00     0.006 A 
ATOM     15  C   UNL     1      -2.561  -1.243   2.493  1.00  0.00     0.006 A 
ATOM     16  C   UNL     1      -1.075   1.103   2.179  1.00  0.00     0.014 A 
ATOM     17  C   UNL     1      -1.290  -1.141   3.064  1.00  0.00     0.014 A 
BRANCH  13  18
ATOM     18  C   UNL     1      -4.494  -0.281   1.173  1.00  0.00     0.120 C 
BRANCH  18  19
ATOM     19  N   UNL     1      -4.564  -1.272   0.084  1.00  0.00    -0.295 NA
ATOM     20  C   UNL     1      -6.412  -0.435  -1.194  1.00  0.00     0.097 C 
ATOM     21  C   UNL     1      -5.965  -1.581  -0.275  1.00  0.00     0.106 C 
ATOM     22  C   UNL     1      -5.131  -0.104  -1.986  1.00  0.00     0.146 C 
ATOM     23  C   UNL     1      -3.989  -0.738  -1.173  1.00  0.00     0.118 C 
BRANCH  20  24
ATOM     24  N   UNL     1      -7.628  -0.610  -2.003  1.00  0.00    -0.313 NA
ATOM     25  C   UNL     1      -7.700  -1.863  -2.741  1.00  0.00     0.101 C 
ATOM     26  H   UNL     1      -7.727   0.169  -2.654  1.00  0.00     0.122 HD
ENDBRANCH  20  24
BRANCH  22  27
ATOM     27  O   UNL     1      -4.958   1.310  -2.102  1.00  0.00    -0.390 OA
ATOM     28  H   UNL     1      -5.807   1.682  -2.393  1.00  0.00     0.211 HD
ENDBRANCH  22  27
ENDBRANCH  18  19
ENDBRANCH  13  18
ENDBRANCH   9  12
ENDBRANCH   1   8
BRANCH   7  29
ATOM     29  C   UNL     1       3.574   1.965   0.720  1.00  0.00     0.122 C 
BRANCH  29  30
ATOM     30  N   UNL     1       4.137   1.055  -0.287  1.00  0.00    -0.299 NA
ATOM     31  C   UNL     1       3.608  -0.313  -0.172  1.00  0.00     0.086 C 
ATOM     32  C   UNL     1       3.985   1.579  -1.643  1.00  0.00     0.086 C 
ATOM     33  C   UNL     1       3.745  -1.136  -1.460  1.00  0.00     0.031 C 
ATOM     34  C   UNL     1       4.881   0.796  -2.607  1.00  0.00     0.031 C 
ATOM     35  C   UNL     1       4.964  -0.703  -2.275  1.00  0.00     0.101 C 
BRANCH  35  36
ATOM     36  C   UNL     1       5.089  -1.524  -3.536  1.00  0.00     0.306 C 
ATOM     37  O   UNL     1       4.337  -2.405  -3.920  1.00  0.00    -0.252 OA
BRANCH  36  38
ATOM     38  O   UNL     1       6.188  -1.210  -4.250  1.00  0.00    -0.481 OA
ATOM     39  H   UNL     1       6.162  -1.829  -5.010  1.00  0.00     0.296 HD
ENDBRANCH  36  38
ENDBRANCH  35  36
ENDBRANCH  29  30
ENDBRANCH   7  29
TORSDOF 10
