MODEL        5USER    Run = 5USERUSER    Estimated Free Energy of Binding    = -10.33 kcal/mol  [=(1)+(2)+(3)-(4)]USERUSER    (1) Final Intermolecular Energy     = -12.42 kcal/molUSER        vdW + Hbond + desolv Energy     = -12.17 kcal/molUSER        Electrostatic Energy            =  -0.25 kcal/molUSER        Moving Ligand-Fixed Receptor    = -12.42 kcal/molUSER        Moving Ligand-Moving Receptor   =  +0.00 kcal/molUSER    (2) Final Total Internal Energy     =  -1.54 kcal/molUSER    (3) Torsional Free Energy           =  +2.09 kcal/molUSER    (4) Unbound System's Energy         =  -1.54 kcal/molUSERUSERREMARK SMILES Cc1cccc(-c2n[nH]c3cc(NCC[C@@H](N)c4nnn[nH]4)ccc23)c1CREMARK SMILES IDX 14 1 13 2 12 4 7 5 8 6 25 7 9 8 24 9 10 10 23 11 11 12 6 14REMARK SMILES IDX 2 15 3 16 26 17 4 18 5 19 1 20 27 21 15 22 16 23 17 24 18 27REMARK SMILES IDX 19 28 22 29 20 30 21 31REMARK H PARENT 13 3 9 13 17 25 17 26 22 32USER                              x       y       z     vdW  Elec       q    TypeUSER                           _______ _______ _______ _____ _____    ______ ____ROOTATOM      1  C   UNL     1      37.671  45.561  15.853 -0.34 -0.04    +0.115 C  ENDROOTBRANCH   1   2ATOM      2  N   UNL     1      37.629  44.906  17.160 -0.10 +0.11    -0.385 N  ATOM      3  H   UNL     1      37.983  45.479  17.921 +0.10 -0.04    +0.160 HD BRANCH   2   4ATOM      4  C   UNL     1      36.448  44.258  17.561 -0.30 -0.01    +0.036 A  ATOM      5  C   UNL     1      32.792  42.532  18.777 -0.31 -0.01    +0.100 A  ATOM      6  N   UNL     1      32.546  43.257  19.881 -0.79 -0.01    -0.174 NA ATOM      7  C   UNL     1      34.007  42.946  18.148 -0.34 -0.01    +0.028 A  ATOM      8  N   UNL     1      33.579  44.111  19.948 -0.22 +0.03    -0.277 N  ATOM      9  C   UNL     1      34.740  42.574  17.009 -0.42 -0.01    +0.015 A  ATOM     10  C   UNL     1      34.496  43.971  18.944 -0.33 -0.01    +0.068 A  ATOM     11  C   UNL     1      35.938  43.248  16.727 -0.38 -0.01    +0.026 A  ATOM     12  C   UNL     1      35.690  44.655  18.673 -0.32 -0.01    +0.054 A  ATOM     13  H   UNL     1      33.603  44.770  20.717 -0.24 -0.06    +0.190 HD BRANCH   5  14ATOM     14  C   UNL     1      31.874  41.484  18.332 -0.35 -0.00    +0.006 A  ATOM     15  C   UNL     1      30.166  40.591  16.834 -0.35 +0.01    -0.048 A  ATOM     16  C   UNL     1      30.195  39.385  17.554 -0.32 +0.00    +0.004 A  ATOM     17  C   UNL     1      30.991  41.668  17.240 -0.29 +0.01    -0.039 A  ATOM     18  C   UNL     1      31.049  39.220  18.642 -0.42 +0.00    +0.001 A  ATOM     19  C   UNL     1      31.888  40.262  19.023 -0.38 +0.00    +0.011 A  ATOM     20  C   UNL     1      29.231  40.702  15.659 -0.44 -0.01    +0.044 C  ATOM     21  C   UNL     1      30.967  42.977  16.486 -0.33 -0.02    +0.045 C  ENDBRANCH   5  14ENDBRANCH   2   4ENDBRANCH   1   2BRANCH   1  22ATOM     22  C   UNL     1      37.902  47.070  16.015 -0.44 -0.03    +0.048 C  BRANCH  22  23ATOM     23  C   UNL     1      36.905  47.939  15.232 -0.39 -0.11    +0.123 C  BRANCH  23  24ATOM     24  N   UNL     1      37.304  49.356  15.316 -0.30 +0.34    -0.321 NA ATOM     25  H   UNL     1      36.468  49.920  15.494 -0.28 -0.22    +0.119 HD ATOM     26  H   UNL     1      37.626  49.661  14.395 -0.50 -0.10    +0.119 HD ENDBRANCH  23  24BRANCH  23  27ATOM     27  C   UNL     1      36.801  47.554  13.795 -0.41 -0.09    +0.165 A  ATOM     28  N   UNL     1      37.307  48.134  12.726 -1.03 +0.02    -0.112 NA ATOM     29  N   UNL     1      36.108  46.453  13.380 -0.33 +0.13    -0.241 N  ATOM     30  N   UNL     1      36.925  47.362  11.655 -1.14 +0.01    -0.024 NA ATOM     31  N   UNL     1      36.189  46.333  12.050 -0.64 +0.02    -0.048 NA ATOM     32  H   UNL     1      35.562  45.797  13.927 +0.14 -0.12    +0.193 HD ENDBRANCH  23  27ENDBRANCH  22  23ENDBRANCH   1  22TORSDOF 7TERENDMDL