MODEL        7USER    Run = 7USERUSER    Estimated Free Energy of Binding    = -10.99 kcal/mol  [=(1)+(2)+(3)-(4)]USERUSER    (1) Final Intermolecular Energy     = -13.98 kcal/molUSER        vdW + Hbond + desolv Energy     = -13.29 kcal/molUSER        Electrostatic Energy            =  -0.69 kcal/molUSER        Moving Ligand-Fixed Receptor    = -13.98 kcal/molUSER        Moving Ligand-Moving Receptor   =  +0.00 kcal/molUSER    (2) Final Total Internal Energy     =  -2.37 kcal/molUSER    (3) Torsional Free Energy           =  +2.98 kcal/molUSER    (4) Unbound System's Energy         =  -2.37 kcal/molUSERUSERREMARK SMILES CN[C@H]1CN(Cc2ccc(C(=O)Nc3cc(F)ccc3CN3CCC(C(=O)O)CC3)cc2)C[C@@H]1OREMARK SMILES IDX 14 1 15 2 16 3 17 4 18 5 19 6 20 7 13 8 11 9 12 10 10 12REMARK SMILES IDX 7 13 8 14 32 15 9 16 31 17 6 18 5 19 3 20 4 21 34 22 33 23REMARK SMILES IDX 2 24 1 25 35 27 21 29 22 30 23 31 30 32 24 33 29 34 25 35REMARK SMILES IDX 26 36 27 37 28 38REMARK H PARENT 13 11 2 26 35 28 28 39USER                              x       y       z     vdW  Elec       q    TypeUSER                           _______ _______ _______ _____ _____    ______ ____ROOTATOM      1  C   UNL     1      31.453  40.644  18.184 -0.34 -0.01    +0.048 A  ATOM      2  C   UNL     1      31.618  40.006  19.421 -0.34 +0.01    +0.065 A  ATOM      3  C   UNL     1      30.650  39.132  19.908 -0.29 +0.01    +0.125 A  ATOM      4  F   UNL     1      30.837  38.536  21.094 -0.12 -0.02    -0.207 F  ATOM      5  C   UNL     1      29.498  38.866  19.189 -0.31 +0.01    +0.040 A  ATOM      6  C   UNL     1      29.318  39.480  17.955 -0.32 +0.00    +0.010 A  ATOM      7  C   UNL     1      30.289  40.363  17.426 -0.35 +0.00    -0.010 A  ENDROOTBRANCH   1   8ATOM      8  N   UNL     1      32.423  41.545  17.681 -0.16 +0.10    -0.322 N  ATOM      9  C   UNL     1      33.199  42.443  18.393 -0.26 -0.05    +0.255 C  ATOM     10  O   UNL     1      33.139  42.688  19.591 -0.64 -0.02    -0.269 OA ATOM     11  H   UNL     1      32.501  41.615  16.677 -0.36 -0.11    +0.170 HD BRANCH   9  12ATOM     12  C   UNL     1      34.176  43.206  17.568 -0.31 -0.01    +0.040 A  ATOM     13  C   UNL     1      36.014  44.704  16.062 -0.32 +0.02    -0.034 A  ATOM     14  C   UNL     1      36.015  43.303  15.995 -0.44 -0.00    +0.006 A  ATOM     15  C   UNL     1      35.085  45.346  16.893 -0.33 -0.00    +0.006 A  ATOM     16  C   UNL     1      35.104  42.555  16.745 -0.44 -0.01    +0.014 A  ATOM     17  C   UNL     1      34.176  44.601  17.650 -0.31 -0.01    +0.014 A  BRANCH  13  18ATOM     18  C   UNL     1      37.015  45.518  15.266 -0.34 -0.05    +0.120 C  BRANCH  18  19ATOM     19  N   UNL     1      36.864  46.967  15.490 -0.19 +0.21    -0.295 NA ATOM     20  C   UNL     1      38.782  47.823  14.332 -0.50 -0.03    +0.097 C  ATOM     21  C   UNL     1      38.173  47.615  15.726 -0.44 -0.06    +0.106 C  ATOM     22  C   UNL     1      37.551  48.137  13.458 -0.45 -0.05    +0.146 C  ATOM     23  C   UNL     1      36.346  47.652  14.282 -0.34 -0.09    +0.118 C  BRANCH  20  24ATOM     24  N   UNL     1      39.914  48.750  14.185 -0.23 +0.10    -0.313 NA ATOM     25  C   UNL     1      40.480  49.232  15.437 -0.61 -0.03    +0.101 C  ATOM     26  H   UNL     1      39.639  49.547  13.613 -0.14 -0.07    +0.122 HD ENDBRANCH  20  24BRANCH  22  27ATOM     27  O   UNL     1      37.629  47.451  12.206 -0.92 +0.04    -0.390 OA ATOM     28  H   UNL     1      37.850  46.524  12.398 +0.16 -0.05    +0.211 HD ENDBRANCH  22  27ENDBRANCH  18  19ENDBRANCH  13  18ENDBRANCH   9  12ENDBRANCH   1   8BRANCH   7  29ATOM     29  C   UNL     1      29.982  40.962  16.062 -0.38 -0.03    +0.122 C  BRANCH  29  30ATOM     30  N   UNL     1      30.294  42.395  15.977 -0.16 +0.14    -0.299 NA ATOM     31  C   UNL     1      31.324  42.692  14.970 -0.06 -0.05    +0.086 C  ATOM     32  C   UNL     1      29.093  43.204  15.775 -0.25 -0.05    +0.086 C  ATOM     33  C   UNL     1      31.309  44.147  14.485 -0.32 -0.02    +0.031 C  ATOM     34  C   UNL     1      29.407  44.678  16.047 -0.35 -0.01    +0.031 C  ATOM     35  C   UNL     1      30.809  45.097  15.574 -0.39 -0.05    +0.101 C  BRANCH  35  36ATOM     36  C   UNL     1      30.805  46.525  15.084 -0.29 -0.13    +0.306 C  ATOM     37  O   UNL     1      30.983  46.913  13.941 -0.59 +0.12    -0.252 OA BRANCH  36  38ATOM     38  O   UNL     1      30.600  47.411  16.079 -0.62 -0.05    -0.481 OA ATOM     39  H   UNL     1      31.500  47.735  16.297 -0.24 -0.39    +0.296 HD ENDBRANCH  36  38ENDBRANCH  35  36ENDBRANCH  29  30ENDBRANCH   7  29TORSDOF 10TERENDMDL