MODEL        6USER    Run = 6USERUSER    Estimated Free Energy of Binding    = -11.87 kcal/mol  [=(1)+(2)+(3)-(4)]USERUSER    (1) Final Intermolecular Energy     = -13.96 kcal/molUSER        vdW + Hbond + desolv Energy     = -13.78 kcal/molUSER        Electrostatic Energy            =  -0.18 kcal/molUSER        Moving Ligand-Fixed Receptor    = -13.96 kcal/molUSER        Moving Ligand-Moving Receptor   =  +0.00 kcal/molUSER    (2) Final Total Internal Energy     =  -1.97 kcal/molUSER    (3) Torsional Free Energy           =  +2.09 kcal/molUSER    (4) Unbound System's Energy         =  -1.97 kcal/molUSERUSERREMARK SMILES Oc1cnccc1-c1nc2ccccc2nc1-c1ccc(CN2CCC(n3c(O)nc4ccccc43)CC2)cc1REMARK SMILES IDX 18 1 19 2 20 3 21 4 39 5 40 6 17 7 8 8 9 9 10 10 16 11 11 12REMARK SMILES IDX 15 13 12 14 14 15 13 16 7 17 2 18 3 19 4 20 6 21 5 22 1 23REMARK SMILES IDX 22 25 23 26 24 27 38 28 25 29 37 30 26 31 27 32 28 33 36 34REMARK SMILES IDX 30 35 35 36 31 37 34 38 32 39 33 40 29 41REMARK H PARENT 1 24 29 42USER                              x       y       z     vdW  Elec       q    TypeUSER                           _______ _______ _______ _____ _____    ______ ____ROOTATOM      1  C   UNL     1      38.672  45.810  24.150 -0.28 +0.00    +0.002 A  ATOM      2  C   UNL     1      38.224  44.615  23.561 -0.30 +0.00    +0.011 A  ATOM      3  C   UNL     1      38.917  44.027  22.499 -0.28 +0.00    +0.006 A  ATOM      4  C   UNL     1      40.077  44.623  21.992 -0.25 -0.00    -0.034 A  ATOM      5  C   UNL     1      40.519  45.826  22.557 -0.25 +0.00    +0.006 A  ATOM      6  C   UNL     1      39.821  46.413  23.618 -0.26 +0.00    +0.011 A  ENDROOTBRANCH   1   7ATOM      7  C   UNL     1      37.936  46.399  25.279 -0.25 +0.01    +0.097 A  ATOM      8  C   UNL     1      37.526  45.689  26.417 -0.27 -0.01    +0.101 A  ATOM      9  N   UNL     1      36.804  46.284  27.407 -0.22 +0.06    -0.244 NA ATOM     10  C   UNL     1      36.519  47.589  27.257 -0.26 -0.02    +0.089 A  ATOM     11  N   UNL     1      37.619  47.715  25.120 -0.56 -0.03    -0.244 NA ATOM     12  C   UNL     1      35.801  48.251  28.247 -0.33 -0.00    +0.030 A  ATOM     13  C   UNL     1      36.925  48.307  26.109 -0.37 -0.00    +0.089 A  ATOM     14  C   UNL     1      35.475  49.603  28.128 -0.25 -0.00    +0.002 A  ATOM     15  C   UNL     1      36.592  49.652  25.999 -0.42 +0.00    +0.030 A  ATOM     16  C   UNL     1      35.871  50.306  26.999 -0.28 +0.00    +0.002 A  BRANCH   8  17ATOM     17  C   UNL     1      37.743  44.251  26.610 -0.25 -0.00    +0.047 A  ATOM     18  C   UNL     1      36.684  43.343  26.698 -0.28 -0.02    +0.143 A  ATOM     19  C   UNL     1      36.970  41.994  26.870 -0.32 -0.03    +0.157 A  ATOM     20  N   UNL     1      38.222  41.492  26.955 -0.24 +0.02    -0.261 NA ATOM     21  C   UNL     1      39.048  43.744  26.691 -0.18 -0.00    +0.034 A  ATOM     22  C   UNL     1      39.233  42.381  26.862 -0.21 -0.01    +0.112 A  BRANCH  18  23ATOM     23  O   UNL     1      35.394  43.792  26.646 -0.15 +0.08    -0.506 OA ATOM     24  H   UNL     1      35.384  44.757  26.768 -0.23 -0.11    +0.293 HD ENDBRANCH  18  23ENDBRANCH   8  17ENDBRANCH   1   7BRANCH   4  25ATOM     25  C   UNL     1      40.827  43.993  20.837 -0.27 +0.01    +0.120 C  BRANCH  25  26ATOM     26  N   UNL     1      40.131  44.117  19.544 -0.13 -0.00    -0.299 NA ATOM     27  C   UNL     1      38.923  44.952  19.636 -0.38 -0.00    +0.087 C  ATOM     28  C   UNL     1      41.045  44.492  18.461 -0.32 +0.00    +0.087 C  ATOM     29  C   UNL     1      38.634  45.745  18.364 -0.41 -0.01    +0.041 C  ATOM     30  C   UNL     1      41.176  45.996  18.237 -0.52 -0.00    +0.041 C  ATOM     31  C   UNL     1      39.810  46.689  18.088 -0.40 -0.01    +0.095 C  BRANCH  31  32ATOM     32  N   UNL     1      39.667  47.431  16.843 -0.27 +0.08    -0.291 N  ATOM     33  C   UNL     1      40.591  48.314  16.352 -0.31 -0.06    +0.295 A  ATOM     34  C   UNL     1      38.632  47.390  15.932 -0.40 -0.03    +0.072 A  ATOM     35  N   UNL     1      40.252  48.836  15.206 -0.42 +0.06    -0.195 NA ATOM     36  C   UNL     1      37.416  46.696  15.868 -0.38 -0.02    +0.029 A  ATOM     37  C   UNL     1      39.032  48.274  14.925 -0.46 -0.04    +0.092 A  ATOM     38  C   UNL     1      36.603  46.916  14.750 -0.42 -0.00    +0.002 A  ATOM     39  C   UNL     1      38.201  48.481  13.812 -0.40 -0.01    +0.031 A  ATOM     40  C   UNL     1      36.986  47.793  13.737 -0.57 -0.00    +0.002 A  BRANCH  33  41ATOM     41  O   UNL     1      41.724  48.627  16.946 -0.68 -0.04    -0.480 OA ATOM     42  H   UNL     1      42.229  47.800  16.835 -0.32 -0.04    +0.296 HD ENDBRANCH  33  41ENDBRANCH  31  32ENDBRANCH  25  26ENDBRANCH   4  25TORSDOF 7TERENDMDL