REMARK SMILES Oc1cnccc1-c1nc2ccccc2nc1-c1ccc(CN2CCC(n3c(O)nc4ccccc43)CC2)cc1
REMARK SMILES IDX 18 1 19 2 20 3 21 4 39 5 40 6 17 7 8 8 9 9 10 10 16 11 11 12
REMARK SMILES IDX 15 13 12 14 14 15 13 16 7 17 2 18 3 19 4 20 6 21 5 22 1 23
REMARK SMILES IDX 22 25 23 26 24 27 38 28 25 29 37 30 26 31 27 32 28 33 36 34
REMARK SMILES IDX 30 35 35 36 31 37 34 38 32 39 33 40 29 41
REMARK H PARENT 1 24 29 42
ROOT
ATOM      1  C   UNL     1      -3.131  -1.080  -0.133  1.00  0.00     0.002 A 
ATOM      2  C   UNL     1      -2.395  -1.865   0.771  1.00  0.00     0.011 A 
ATOM      3  C   UNL     1      -1.062  -2.201   0.520  1.00  0.00     0.006 A 
ATOM      4  C   UNL     1      -0.428  -1.765  -0.650  1.00  0.00    -0.034 A 
ATOM      5  C   UNL     1      -1.160  -1.002  -1.568  1.00  0.00     0.006 A 
ATOM      6  C   UNL     1      -2.495  -0.670  -1.314  1.00  0.00     0.011 A 
ENDROOT
BRANCH   1   7
ATOM      7  C   UNL     1      -4.527  -0.723   0.163  1.00  0.00     0.097 A 
ATOM      8  C   UNL     1      -5.002   0.592   0.282  1.00  0.00     0.101 A 
ATOM      9  N   UNL     1      -6.298   0.854   0.606  1.00  0.00    -0.244 NA
ATOM     10  C   UNL     1      -7.111  -0.202   0.787  1.00  0.00     0.089 A 
ATOM     11  N   UNL     1      -5.348  -1.789   0.376  1.00  0.00    -0.244 NA
ATOM     12  C   UNL     1      -8.449   0.009   1.100  1.00  0.00     0.030 A 
ATOM     13  C   UNL     1      -6.634  -1.528   0.674  1.00  0.00     0.089 A 
ATOM     14  C   UNL     1      -9.325  -1.058   1.306  1.00  0.00     0.002 A 
ATOM     15  C   UNL     1      -7.514  -2.583   0.884  1.00  0.00     0.030 A 
ATOM     16  C   UNL     1      -8.855  -2.360   1.199  1.00  0.00     0.002 A 
BRANCH   8  17
ATOM     17  C   UNL     1      -4.156   1.784   0.166  1.00  0.00     0.047 A 
ATOM     18  C   UNL     1      -4.084   2.534  -1.011  1.00  0.00     0.143 A 
ATOM     19  C   UNL     1      -3.268   3.659  -1.041  1.00  0.00     0.157 A 
ATOM     20  N   UNL     1      -2.530   4.085   0.008  1.00  0.00    -0.261 NA
ATOM     21  C   UNL     1      -3.400   2.217   1.265  1.00  0.00     0.034 A 
ATOM     22  C   UNL     1      -2.615   3.353   1.138  1.00  0.00     0.112 A 
BRANCH  18  23
ATOM     23  O   UNL     1      -4.786   2.140  -2.116  1.00  0.00    -0.506 OA
ATOM     24  H   UNL     1      -4.788   2.861  -2.769  1.00  0.00     0.293 HD
ENDBRANCH  18  23
ENDBRANCH   8  17
ENDBRANCH   1   7
BRANCH   4  25
ATOM     25  C   UNL     1       1.014  -2.133  -0.930  1.00  0.00     0.120 C 
BRANCH  25  26
ATOM     26  N   UNL     1       1.899  -0.966  -1.096  1.00  0.00    -0.299 NA
ATOM     27  C   UNL     1       1.940  -0.119   0.106  1.00  0.00     0.087 C 
ATOM     28  C   UNL     1       3.216  -1.345  -1.615  1.00  0.00     0.087 C 
ATOM     29  C   UNL     1       3.292   0.554   0.330  1.00  0.00     0.041 C 
ATOM     30  C   UNL     1       4.255  -1.651  -0.539  1.00  0.00     0.041 C 
ATOM     31  C   UNL     1       4.362  -0.529   0.509  1.00  0.00     0.095 C 
BRANCH  31  32
ATOM     32  N   UNL     1       5.707   0.015   0.644  1.00  0.00    -0.291 N 
ATOM     33  C   UNL     1       6.481  -0.093   1.768  1.00  0.00     0.295 A 
ATOM     34  C   UNL     1       6.454   0.703  -0.289  1.00  0.00     0.072 A 
ATOM     35  N   UNL     1       7.659   0.451   1.642  1.00  0.00    -0.195 NA
ATOM     36  C   UNL     1       6.221   1.125  -1.605  1.00  0.00     0.029 A 
ATOM     37  C   UNL     1       7.664   0.955   0.365  1.00  0.00     0.092 A 
ATOM     38  C   UNL     1       7.251   1.815  -2.255  1.00  0.00     0.002 A 
ATOM     39  C   UNL     1       8.684   1.649  -0.305  1.00  0.00     0.031 A 
ATOM     40  C   UNL     1       8.464   2.075  -1.619  1.00  0.00     0.002 A 
BRANCH  33  41
ATOM     41  O   UNL     1       6.110  -0.685   2.885  1.00  0.00    -0.480 OA
ATOM     42  H   UNL     1       6.907  -0.567   3.434  1.00  0.00     0.296 HD
ENDBRANCH  33  41
ENDBRANCH  31  32
ENDBRANCH  25  26
ENDBRANCH   4  25
TORSDOF 7
