MODEL        2USER    Run = 2USERUSER    Estimated Free Energy of Binding    =  -8.47 kcal/mol  [=(1)+(2)+(3)-(4)]USERUSER    (1) Final Intermolecular Energy     =  -9.06 kcal/molUSER        vdW + Hbond + desolv Energy     =  -8.99 kcal/molUSER        Electrostatic Energy            =  -0.07 kcal/molUSER        Moving Ligand-Fixed Receptor    =  -9.06 kcal/molUSER        Moving Ligand-Moving Receptor   =  +0.00 kcal/molUSER    (2) Final Total Internal Energy     =  -0.67 kcal/molUSER    (3) Torsional Free Energy           =  +0.60 kcal/molUSER    (4) Unbound System's Energy         =  -0.67 kcal/molUSERUSERREMARK SMILES Cc1cc(-c2nn(C)c3c2CCN3c2ncccn2)ccc1FREMARK SMILES IDX 5 1 6 2 7 3 8 4 9 5 10 6 11 7 12 8 13 9 4 10 2 11 3 12 22 13REMARK SMILES IDX 21 14 20 15 1 16 23 17 14 18 15 19 19 20 16 21 18 22 17 23REMARK H PARENTUSER                              x       y       z     vdW  Elec       q    TypeUSER                           _______ _______ _______ _____ _____    ______ ____ROOTATOM      1  C   UNL     1      40.200  46.425  17.818 -0.41 -0.01    +0.098 A  ATOM      2  N   UNL     1      39.227  45.487  17.858 -0.30 +0.02    -0.171 NA ATOM      3  N   UNL     1      38.482  45.683  16.733 -0.21 +0.07    -0.251 N  ATOM      4  C   UNL     1      37.337  44.841  16.508 -0.28 -0.06    +0.176 C  ATOM      5  C   UNL     1      38.973  46.698  15.987 -0.34 -0.04    +0.137 A  ATOM      6  C   UNL     1      40.053  47.197  16.653 -0.49 -0.01    +0.025 A  ATOM      7  C   UNL     1      40.653  48.312  15.903 -0.60 -0.01    +0.064 C  ATOM      8  C   UNL     1      39.736  48.364  14.618 -0.49 -0.04    +0.132 C  ATOM      9  N   UNL     1      38.701  47.319  14.823 -0.23 +0.10    -0.295 N  ENDROOTBRANCH   1  10ATOM     10  C   UNL     1      41.208  46.519  18.879 -0.49 +0.00    +0.003 A  ATOM     11  C   UNL     1      41.976  45.886  21.120 -0.32 -0.00    -0.015 A  ATOM     12  C   UNL     1      41.023  45.826  20.091 -0.39 +0.00    +0.016 A  ATOM     13  C   UNL     1      43.111  46.674  20.932 -0.29 +0.05    +0.126 A  ATOM     14  C   UNL     1      43.314  47.372  19.747 -0.38 +0.01    +0.040 A  ATOM     15  C   UNL     1      42.366  47.294  18.723 -0.55 +0.00    +0.013 A  ATOM     16  C   UNL     1      41.754  45.169  22.416 -0.23 +0.01    +0.047 C  ATOM     17  F   UNL     1      44.028  46.771  21.905 -0.09 -0.11    -0.207 F  ENDBRANCH   1  10BRANCH   9  18ATOM     18  C   UNL     1      37.772  47.095  13.817 -0.31 -0.08    +0.230 A  ATOM     19  N   UNL     1      37.561  45.823  13.417 -0.29 +0.07    -0.221 NA ATOM     20  N   UNL     1      37.110  48.129  13.267 -0.78 +0.08    -0.221 NA ATOM     21  C   UNL     1      36.660  45.606  12.440 -0.48 -0.04    +0.117 A  ATOM     22  C   UNL     1      36.218  47.865  12.293 -0.50 -0.06    +0.117 A  ATOM     23  C   UNL     1      35.948  46.604  11.833 -0.56 -0.02    +0.040 A  ENDBRANCH   9  18TORSDOF 2TERENDMDL