REMARK SMILES Cc1cc(-c2nn(C)c3c2CCN3c2ncccn2)ccc1F
REMARK SMILES IDX 5 1 6 2 7 3 8 4 9 5 10 6 11 7 12 8 13 9 4 10 2 11 3 12 22 13
REMARK SMILES IDX 21 14 20 15 1 16 23 17 14 18 15 19 19 20 16 21 18 22 17 23
REMARK H PARENT
ROOT
ATOM      1  C   UNL     1       1.107   0.042  -0.161  1.00  0.00     0.098 A 
ATOM      2  N   UNL     1       0.689   1.204  -0.712  1.00  0.00    -0.171 NA
ATOM      3  N   UNL     1      -0.673   1.143  -0.708  1.00  0.00    -0.251 N 
ATOM      4  C   UNL     1      -1.414   2.242  -1.268  1.00  0.00     0.176 C 
ATOM      5  C   UNL     1      -1.114  -0.009  -0.155  1.00  0.00     0.137 A 
ATOM      6  C   UNL     1      -0.011  -0.733   0.190  1.00  0.00     0.025 A 
ATOM      7  C   UNL     1      -0.405  -2.011   0.806  1.00  0.00     0.064 C 
ATOM      8  C   UNL     1      -1.980  -1.897   0.802  1.00  0.00     0.132 C 
ATOM      9  N   UNL     1      -2.286  -0.605   0.136  1.00  0.00    -0.295 N 
ENDROOT
BRANCH   1  10
ATOM     10  C   UNL     1       2.535  -0.250   0.005  1.00  0.00     0.003 A 
ATOM     11  C   UNL     1       4.851   0.547   0.116  1.00  0.00    -0.015 A 
ATOM     12  C   UNL     1       3.479   0.793  -0.052  1.00  0.00     0.016 A 
ATOM     13  C   UNL     1       5.272  -0.767   0.316  1.00  0.00     0.126 A 
ATOM     14  C   UNL     1       4.360  -1.815   0.371  1.00  0.00     0.040 A 
ATOM     15  C   UNL     1       2.995  -1.558   0.217  1.00  0.00     0.013 A 
ATOM     16  C   UNL     1       5.848   1.660   0.023  1.00  0.00     0.047 C 
ATOM     17  F   UNL     1       6.578  -1.038   0.456  1.00  0.00    -0.207 F 
ENDBRANCH   1  10
BRANCH   9  18
ATOM     18  C   UNL     1      -3.611  -0.206   0.033  1.00  0.00     0.230 A 
ATOM     19  N   UNL     1      -4.566  -1.054   0.471  1.00  0.00    -0.221 NA
ATOM     20  N   UNL     1      -3.916   0.994  -0.491  1.00  0.00    -0.221 NA
ATOM     21  C   UNL     1      -5.852  -0.668   0.370  1.00  0.00     0.117 A 
ATOM     22  C   UNL     1      -5.215   1.339  -0.572  1.00  0.00     0.117 A 
ATOM     23  C   UNL     1      -6.241   0.536  -0.150  1.00  0.00     0.040 A 
ENDBRANCH   9  18
TORSDOF 2
