MODEL        9USER    Run = 9USERUSER    Estimated Free Energy of Binding    = -10.01 kcal/mol  [=(1)+(2)+(3)-(4)]USERUSER    (1) Final Intermolecular Energy     = -10.91 kcal/molUSER        vdW + Hbond + desolv Energy     = -10.78 kcal/molUSER        Electrostatic Energy            =  -0.13 kcal/molUSER        Moving Ligand-Fixed Receptor    = -10.91 kcal/molUSER        Moving Ligand-Moving Receptor   =  +0.00 kcal/molUSER    (2) Final Total Internal Energy     =  -1.44 kcal/molUSER    (3) Torsional Free Energy           =  +0.89 kcal/molUSER    (4) Unbound System's Energy         =  -1.44 kcal/molUSERUSERREMARK SMILES Cc1cc(-c2nn(-c3ccccc3)c3c2CCN3c2ncccn2)ccc1FREMARK SMILES IDX 5 1 6 2 7 3 14 4 15 5 16 6 17 7 18 8 4 9 2 10 3 11 27 12REMARK SMILES IDX 26 13 25 14 1 15 28 16 8 17 9 18 13 19 10 20 12 21 11 22REMARK SMILES IDX 19 23 20 24 24 25 21 26 23 27 22 28REMARK H PARENTUSER                              x       y       z     vdW  Elec       q    TypeUSER                           _______ _______ _______ _____ _____    ______ ____ROOTATOM      1  C   UNL     1      39.808  46.613  17.801 -0.39 -0.02    +0.098 A  ATOM      2  N   UNL     1      38.795  45.732  17.946 -0.30 +0.03    -0.166 NA ATOM      3  N   UNL     1      37.865  46.045  16.979 -0.24 +0.08    -0.216 N  ATOM      4  C   UNL     1      38.402  46.986  16.134 -0.32 -0.06    +0.143 A  ATOM      5  C   UNL     1      39.573  47.417  16.680 -0.46 -0.01    +0.025 A  ATOM      6  C   UNL     1      40.169  48.481  15.857 -0.59 -0.02    +0.064 C  ATOM      7  C   UNL     1      39.188  48.513  14.621 -0.48 -0.06    +0.132 C  ATOM      8  N   UNL     1      38.075  47.566  14.949 -0.23 +0.14    -0.294 N  ENDROOTBRANCH   1   9ATOM      9  C   UNL     1      40.952  46.612  18.715 -0.49 -0.00    +0.003 A  ATOM     10  C   UNL     1      42.037  45.863  20.776 -0.33 -0.00    -0.015 A  ATOM     11  C   UNL     1      40.941  45.853  19.898 -0.40 +0.00    +0.016 A  ATOM     12  C   UNL     1      43.158  46.625  20.442 -0.21 +0.05    +0.126 A  ATOM     13  C   UNL     1      43.195  47.378  19.274 -0.47 +0.01    +0.040 A  ATOM     14  C   UNL     1      42.096  47.370  18.414 -0.52 -0.00    +0.013 A  ATOM     15  C   UNL     1      42.035  45.027  22.019 -0.27 +0.01    +0.047 C  ATOM     16  F   UNL     1      44.224  46.635  21.253 -0.09 -0.18    -0.207 F  ENDBRANCH   1   9BRANCH   3  17ATOM     17  C   UNL     1      36.554  45.497  17.057 -0.30 -0.03    +0.067 A  ATOM     18  C   UNL     1      35.487  46.224  17.599 -0.35 -0.02    +0.028 A  ATOM     19  C   UNL     1      36.336  44.175  16.634 -0.33 -0.01    +0.028 A  ATOM     20  C   UNL     1      34.216  45.649  17.684 -0.41 -0.00    +0.002 A  ATOM     21  C   UNL     1      35.063  43.606  16.722 -0.36 -0.00    +0.002 A  ATOM     22  C   UNL     1      34.003  44.344  17.243 -0.30 -0.00    +0.000 A  ENDBRANCH   3  17BRANCH   8  23ATOM     23  C   UNL     1      37.606  46.878  13.815 -0.30 -0.09    +0.231 A  ATOM     24  N   UNL     1      37.384  47.588  12.690 -0.96 +0.05    -0.221 NA ATOM     25  N   UNL     1      37.392  45.552  13.882 -0.27 +0.08    -0.221 NA ATOM     26  C   UNL     1      36.915  46.925  11.615 -0.53 -0.04    +0.117 A  ATOM     27  C   UNL     1      36.923  44.931  12.785 -0.41 -0.04    +0.117 A  ATOM     28  C   UNL     1      36.663  45.578  11.605 -0.45 -0.01    +0.040 A  ENDBRANCH   8  23TORSDOF 3TERENDMDL