REMARK SMILES Cc1cc(-c2nn(-c3ccccc3)c3c2CCN3c2ncccn2)ccc1F
REMARK SMILES IDX 5 1 6 2 7 3 14 4 15 5 16 6 17 7 18 8 4 9 2 10 3 11 27 12
REMARK SMILES IDX 26 13 25 14 1 15 28 16 8 17 9 18 13 19 10 20 12 21 11 22
REMARK SMILES IDX 19 23 20 24 24 25 21 26 23 27 22 28
REMARK H PARENT
ROOT
ATOM      1  C   UNL     1       1.416  -0.341   0.014  1.00  0.00     0.098 A 
ATOM      2  N   UNL     1       0.533  -1.331  -0.236  1.00  0.00    -0.166 NA
ATOM      3  N   UNL     1      -0.687  -0.891   0.230  1.00  0.00    -0.216 N 
ATOM      4  C   UNL     1      -0.577   0.432   0.583  1.00  0.00     0.143 A 
ATOM      5  C   UNL     1       0.742   0.767   0.541  1.00  0.00     0.025 A 
ATOM      6  C   UNL     1       0.939   2.158   0.976  1.00  0.00     0.064 C 
ATOM      7  C   UNL     1      -0.550   2.646   1.162  1.00  0.00     0.132 C 
ATOM      8  N   UNL     1      -1.413   1.441   0.946  1.00  0.00    -0.294 N 
ENDROOT
BRANCH   1   9
ATOM      9  C   UNL     1       2.839  -0.496  -0.298  1.00  0.00     0.003 A 
ATOM     10  C   UNL     1       5.177   0.146   0.026  1.00  0.00    -0.015 A 
ATOM     11  C   UNL     1       3.815   0.291   0.337  1.00  0.00     0.016 A 
ATOM     12  C   UNL     1       5.553  -0.817  -0.912  1.00  0.00     0.126 A 
ATOM     13  C   UNL     1       4.606  -1.611  -1.548  1.00  0.00     0.040 A 
ATOM     14  C   UNL     1       3.254  -1.451  -1.241  1.00  0.00     0.013 A 
ATOM     15  C   UNL     1       6.218   0.962   0.729  1.00  0.00     0.047 C 
ATOM     16  F   UNL     1       6.848  -0.989  -1.210  1.00  0.00    -0.207 F 
ENDBRANCH   1   9
BRANCH   3  17
ATOM     17  C   UNL     1      -1.757  -1.816   0.387  1.00  0.00     0.067 A 
ATOM     18  C   UNL     1      -2.859  -1.531   1.202  1.00  0.00     0.028 A 
ATOM     19  C   UNL     1      -1.680  -3.068  -0.245  1.00  0.00     0.028 A 
ATOM     20  C   UNL     1      -3.883  -2.470   1.355  1.00  0.00     0.002 A 
ATOM     21  C   UNL     1      -2.707  -4.003  -0.089  1.00  0.00     0.002 A 
ATOM     22  C   UNL     1      -3.809  -3.702   0.708  1.00  0.00     0.000 A 
ENDBRANCH   3  17
BRANCH   8  23
ATOM     23  C   UNL     1      -2.624   1.757   0.304  1.00  0.00     0.231 A 
ATOM     24  N   UNL     1      -3.295   2.850   0.721  1.00  0.00    -0.221 NA
ATOM     25  N   UNL     1      -3.075   0.972  -0.690  1.00  0.00    -0.221 NA
ATOM     26  C   UNL     1      -4.464   3.134   0.114  1.00  0.00     0.117 A 
ATOM     27  C   UNL     1      -4.247   1.293  -1.267  1.00  0.00     0.117 A 
ATOM     28  C   UNL     1      -4.996   2.380  -0.899  1.00  0.00     0.040 A 
ENDBRANCH   8  23
TORSDOF 3
