MODEL        2USER    Run = 2USERUSER    Estimated Free Energy of Binding    =  -8.32 kcal/mol  [=(1)+(2)+(3)-(4)]USERUSER    (1) Final Intermolecular Energy     =  -9.81 kcal/molUSER        vdW + Hbond + desolv Energy     =  -9.65 kcal/molUSER        Electrostatic Energy            =  -0.16 kcal/molUSER        Moving Ligand-Fixed Receptor    =  -9.81 kcal/molUSER        Moving Ligand-Moving Receptor   =  +0.00 kcal/molUSER    (2) Final Total Internal Energy     =  -0.53 kcal/molUSER    (3) Torsional Free Energy           =  +1.49 kcal/molUSER    (4) Unbound System's Energy         =  -0.53 kcal/molUSERUSERREMARK SMILES Cc1cc(C(=O)Nc2cccc(-c3ccc(F)cc3O)c2)ccc1OREMARK SMILES IDX 8 1 9 2 10 3 11 4 12 5 21 6 7 7 5 8 6 9 4 11 2 12 3 13 24 14REMARK SMILES IDX 23 15 22 16 1 17 25 18 13 20 14 21 19 22 15 23 18 24 16 25REMARK SMILES IDX 17 26 20 27REMARK H PARENT 7 10 25 19 20 28USER                              x       y       z     vdW  Elec       q    TypeUSER                           _______ _______ _______ _____ _____    ______ ____ROOTATOM      1  C   UNL     1      35.909  44.921  16.657 -0.30 -0.02    +0.042 A  ATOM      2  C   UNL     1      35.954  43.662  17.252 -0.32 -0.01    +0.026 A  ATOM      3  C   UNL     1      34.826  42.840  17.251 -0.40 -0.00    +0.003 A  ATOM      4  C   UNL     1      33.642  43.273  16.651 -0.34 -0.00    +0.009 A  ATOM      5  C   UNL     1      33.564  44.535  16.042 -0.32 +0.01    -0.013 A  ATOM      6  C   UNL     1      34.714  45.344  16.056 -0.30 -0.03    +0.035 A  ENDROOTBRANCH   1   7ATOM      7  N   UNL     1      37.005  45.807  16.603 -0.14 +0.15    -0.322 N  ATOM      8  C   UNL     1      37.937  45.931  15.587 -0.25 -0.09    +0.255 C  ATOM      9  O   UNL     1      38.030  45.236  14.583 -0.26 +0.08    -0.269 OA ATOM     10  H   UNL     1      37.149  46.369  17.431 +0.10 -0.08    +0.170 HD BRANCH   8  11ATOM     11  C   UNL     1      38.949  47.006  15.796 -0.42 -0.01    +0.040 A  ATOM     12  C   UNL     1      40.850  47.842  17.085 -0.52 +0.00    -0.008 A  ATOM     13  C   UNL     1      39.874  46.861  16.840 -0.47 -0.00    +0.021 A  ATOM     14  C   UNL     1      40.882  48.965  16.251 -0.46 -0.02    +0.118 A  ATOM     15  C   UNL     1      39.976  49.109  15.200 -0.47 -0.02    +0.047 A  ATOM     16  C   UNL     1      39.011  48.129  14.965 -0.52 -0.01    +0.017 A  ATOM     17  C   UNL     1      41.817  47.650  18.217 -0.54 -0.00    +0.048 C  BRANCH  14  18ATOM     18  O   UNL     1      41.789  49.974  16.399 -0.80 -0.06    -0.508 OA ATOM     19  H   UNL     1      41.352  50.748  16.785 -0.34 -0.08    +0.293 HD ENDBRANCH  14  18ENDBRANCH   8  11ENDBRANCH   1   7BRANCH   5  20ATOM     20  C   UNL     1      32.307  45.001  15.424 -0.36 -0.02    +0.024 A  ATOM     21  C   UNL     1      31.071  44.574  15.950 -0.33 -0.01    +0.015 A  ATOM     22  C   UNL     1      32.280  45.869  14.314 -0.26 -0.10    +0.126 A  ATOM     23  C   UNL     1      29.863  44.994  15.389 -0.33 -0.02    +0.040 A  ATOM     24  C   UNL     1      31.075  46.292  13.749 -0.51 -0.05    +0.086 A  ATOM     25  C   UNL     1      29.879  45.847  14.296 -0.32 -0.09    +0.126 A  ATOM     26  F   UNL     1      28.721  46.252  13.757 -0.04 +0.16    -0.207 F  BRANCH  22  27ATOM     27  O   UNL     1      33.459  46.304  13.767 -0.08 +0.48    -0.507 OA ATOM     28  H   UNL     1      33.300  46.603  12.858 -0.36 -0.31    +0.293 HD ENDBRANCH  22  27ENDBRANCH   5  20TORSDOF 5TERENDMDL