REMARK SMILES COc1ccc(O)c(C(=O)c2ccc(CO[C@@H]3CCCNC[C@@H]3NC(=O)c3ccncc3)cc2)c1
REMARK SMILES IDX 16 1 15 2 14 3 11 4 12 5 34 6 13 7 33 8 9 9 10 10 8 11 3 12
REMARK SMILES IDX 4 13 35 14 5 15 6 16 2 17 1 18 7 19 17 21 18 22 23 24 22 25
REMARK SMILES IDX 21 26 20 28 19 29 24 31 25 32 26 34 27 35 28 36 32 37 29 38
REMARK SMILES IDX 31 39 30 40
REMARK H PARENT 7 20 21 27 24 33
REMARK Flexibility Score:   99.900
ROOT
ATOM      1  O   UNL     1      -1.557   0.237  -0.433  1.00  0.00    -0.371 OA
ENDROOT
BRANCH   1   2
ATOM      2  C   UNL     1      -0.955  -0.171   0.800  1.00  0.00     0.196 C 
BRANCH   2   3
ATOM      3  C   UNL     1       0.474  -0.607   0.584  1.00  0.00    -0.022 A 
ATOM      4  C   UNL     1       3.143  -1.396   0.213  1.00  0.00     0.023 A 
ATOM      5  C   UNL     1       2.274  -2.192   0.966  1.00  0.00     0.012 A 
ATOM      6  C   UNL     1       2.676  -0.217  -0.376  1.00  0.00     0.012 A 
ATOM      7  C   UNL     1       0.950  -1.794   1.159  1.00  0.00     0.007 A 
ATOM      8  C   UNL     1       1.351   0.178  -0.180  1.00  0.00     0.007 A 
BRANCH   4   9
ATOM      9  C   UNL     1       4.534  -1.863   0.014  1.00  0.00     0.196 C 
ATOM     10  O   UNL     1       4.736  -3.058  -0.202  1.00  0.00    -0.288 OA
BRANCH   9  11
ATOM     11  C   UNL     1       5.699  -0.941   0.041  1.00  0.00     0.068 A 
ATOM     12  C   UNL     1       6.772   1.116   0.775  1.00  0.00     0.119 A 
ATOM     13  C   UNL     1       7.919   0.772   0.058  1.00  0.00     0.050 A 
ATOM     14  C   UNL     1       5.668   0.256   0.769  1.00  0.00     0.062 A 
ATOM     15  C   UNL     1       7.968  -0.433  -0.648  1.00  0.00     0.051 A 
ATOM     16  C   UNL     1       6.869  -1.288  -0.645  1.00  0.00     0.127 A 
BRANCH  12  17
ATOM     17  O   UNL     1       6.600   2.254   1.516  1.00  0.00    -0.497 OA
ATOM     18  C   UNL     1       7.708   3.143   1.598  1.00  0.00     0.278 C 
ENDBRANCH  12  17
BRANCH  16  19
ATOM     19  O   UNL     1       7.008  -2.460  -1.339  1.00  0.00    -0.507 OA
ATOM     20  H   UNL     1       6.246  -3.037  -1.101  1.00  0.00     0.293 HD
ENDBRANCH  16  19
ENDBRANCH   9  11
ENDBRANCH   4   9
ENDBRANCH   2   3
ENDBRANCH   1   2
BRANCH   1  21
ATOM     21  C   UNL     1      -2.093  -0.864  -1.195  1.00  0.00     0.142 C 
BRANCH  21  22
ATOM     22  C   UNL     1      -1.775  -0.606  -2.673  1.00  0.00     0.035 CG0
ATOM     23  G   UNL     1      -2.295   0.712  -3.259  1.00  0.00     0.000 G0
ENDBRANCH  21  22
BRANCH  21  24
ATOM     24  C   UNL     1      -3.605  -1.111  -0.890  1.00  0.00     0.125 C 
BRANCH  24  25
ATOM     25  C   UNL     1      -4.565  -0.845  -2.080  1.00  0.00     0.108 C 
BRANCH  25  26
ATOM     26  N   UNL     1      -4.721   0.546  -2.525  1.00  0.00    -0.315 NA
ATOM     27  H   UNL     1      -5.180   0.547  -3.436  1.00  0.00     0.122 HD
BRANCH  26  28
ATOM     28  C   UNL     1      -3.506   1.345  -2.578  1.00  0.00     0.081 C 
BRANCH  28  29
ATOM     29  C   UNL     1      -2.295   0.712  -3.259  1.00  0.00     0.018 CG0
ATOM     30  G   UNL     1      -1.775  -0.606  -2.673  1.00  0.00     0.000 G0
ENDBRANCH  28  29
ENDBRANCH  26  28
ENDBRANCH  25  26
ENDBRANCH  24  25
BRANCH  24  31
ATOM     31  N   UNL     1      -4.058  -0.379   0.295  1.00  0.00    -0.345 N 
ATOM     32  C   UNL     1      -5.082  -0.840   1.088  1.00  0.00     0.251 C 
ATOM     33  H   UNL     1      -3.773   0.590   0.332  1.00  0.00     0.164 HD
ATOM     34  O   UNL     1      -5.515  -1.985   1.035  1.00  0.00    -0.269 OA
BRANCH  32  35
ATOM     35  C   UNL     1      -5.646   0.124   2.066  1.00  0.00     0.042 A 
ATOM     36  C   UNL     1      -5.709   1.492   1.804  1.00  0.00     0.034 A 
ATOM     37  C   UNL     1      -6.158  -0.375   3.264  1.00  0.00     0.034 A 
ATOM     38  C   UNL     1      -6.258   2.310   2.775  1.00  0.00     0.112 A 
ATOM     39  C   UNL     1      -6.684   0.526   4.170  1.00  0.00     0.112 A 
ATOM     40  N   UNL     1      -6.737   1.859   3.955  1.00  0.00    -0.265 NA
ENDBRANCH  32  35
ENDBRANCH  24  31
ENDBRANCH  21  24
ENDBRANCH   1  21
TORSDOF 9
