REMARK SMILES CC(C)Nc1ncc2c(n1)nc([C@@H](C)c1ccc(F)cc1)c(=O)n2C
REMARK SMILES IDX 5 1 6 2 7 3 8 4 9 5 10 6 11 7 12 8 22 9 23 10 24 11 25 12
REMARK SMILES IDX 4 13 2 15 1 16 3 17 13 18 14 19 15 20 16 21 21 22 17 23
REMARK SMILES IDX 20 24 18 25 19 26
REMARK H PARENT 4 14
ROOT
ATOM      1  C   UNL     1      -2.805   0.525   0.031  1.00  0.00     0.225 A 
ATOM      2  N   UNL     1      -3.007  -0.285   1.077  1.00  0.00    -0.219 NA
ATOM      3  C   UNL     1      -1.971  -1.044   1.485  1.00  0.00     0.145 A 
ATOM      4  C   UNL     1      -0.736  -1.035   0.880  1.00  0.00     0.108 A 
ATOM      5  C   UNL     1      -0.639  -0.170  -0.195  1.00  0.00     0.181 A 
ATOM      6  N   UNL     1      -1.647   0.605  -0.628  1.00  0.00    -0.191 NA
ATOM      7  N   UNL     1       0.540  -0.020  -0.933  1.00  0.00    -0.225 NA
ATOM      8  C   UNL     1       1.577  -0.731  -0.599  1.00  0.00     0.115 A 
ATOM      9  C   UNL     1       1.565  -1.731   0.560  1.00  0.00     0.273 A 
ATOM     10  O   UNL     1       2.569  -2.393   0.789  1.00  0.00    -0.267 OA
ATOM     11  N   UNL     1       0.374  -1.822   1.273  1.00  0.00    -0.306 N 
ATOM     12  C   UNL     1       0.272  -2.733   2.397  1.00  0.00     0.154 C 
ENDROOT
BRANCH   1  13
ATOM     13  N   UNL     1      -3.804   1.352  -0.438  1.00  0.00    -0.352 N 
ATOM     14  H   UNL     1      -3.487   1.681  -1.345  1.00  0.00     0.163 HD
BRANCH  13  15
ATOM     15  C   UNL     1      -5.207   0.960  -0.384  1.00  0.00     0.076 C 
ATOM     16  C   UNL     1      -5.778   1.030   1.029  1.00  0.00     0.030 C 
ATOM     17  C   UNL     1      -5.469  -0.387  -1.055  1.00  0.00     0.030 C 
ENDBRANCH  13  15
ENDBRANCH   1  13
BRANCH   8  18
ATOM     18  C   UNL     1       2.903  -0.565  -1.334  1.00  0.00     0.071 C 
ATOM     19  C   UNL     1       2.699  -0.202  -2.809  1.00  0.00     0.020 C 
BRANCH  18  20
ATOM     20  C   UNL     1       3.790   0.443  -0.618  1.00  0.00    -0.039 A 
ATOM     21  C   UNL     1       3.444   1.804  -0.550  1.00  0.00     0.007 A 
ATOM     22  C   UNL     1       4.966   0.011   0.018  1.00  0.00     0.007 A 
ATOM     23  C   UNL     1       4.263   2.711   0.125  1.00  0.00     0.039 A 
ATOM     24  C   UNL     1       5.783   0.920   0.692  1.00  0.00     0.039 A 
ATOM     25  C   UNL     1       5.425   2.261   0.738  1.00  0.00     0.123 A 
ATOM     26  F   UNL     1       6.209   3.132   1.388  1.00  0.00    -0.207 F 
ENDBRANCH  18  20
ENDBRANCH   8  18
TORSDOF 4
