REMARK SMILES O=C(Nc1cccc(-c2ccc(O)cc2O)c1)c1ccc(O)c(CF)c1
REMARK SMILES IDX 4 1 5 2 6 3 7 4 8 5 17 6 3 7 2 8 1 9 18 11 19 12 26 13 20 14
REMARK SMILES IDX 23 15 21 16 24 17 25 18 22 19 9 21 10 22 15 23 11 24 14 25
REMARK SMILES IDX 12 26 16 27 13 29
REMARK H PARENT 3 10 22 20 16 28 13 30
ROOT
ATOM      1  C   UNL     1       0.307   1.238  -0.096  1.00  0.00     0.042 A 
ATOM      2  C   UNL     1       0.582   2.583  -0.368  1.00  0.00     0.026 A 
ATOM      3  C   UNL     1       1.891   3.014  -0.582  1.00  0.00     0.003 A 
ATOM      4  C   UNL     1       2.941   2.100  -0.525  1.00  0.00     0.009 A 
ATOM      5  C   UNL     1       2.697   0.746  -0.251  1.00  0.00    -0.013 A 
ATOM      6  C   UNL     1       1.369   0.329  -0.042  1.00  0.00     0.035 A 
ENDROOT
BRANCH   1   7
ATOM      7  N   UNL     1      -1.046   0.886   0.100  1.00  0.00    -0.322 N 
ATOM      8  C   UNL     1      -1.553  -0.358   0.426  1.00  0.00     0.255 C 
ATOM      9  O   UNL     1      -0.911  -1.374   0.665  1.00  0.00    -0.269 OA
ATOM     10  H   UNL     1      -1.705   1.652   0.044  1.00  0.00     0.170 HD
BRANCH   8  11
ATOM     11  C   UNL     1      -3.040  -0.428   0.530  1.00  0.00     0.040 A 
ATOM     12  C   UNL     1      -3.602  -1.310   1.462  1.00  0.00     0.017 A 
ATOM     13  C   UNL     1      -3.879   0.335  -0.294  1.00  0.00     0.024 A 
ATOM     14  C   UNL     1      -4.988  -1.410   1.590  1.00  0.00     0.047 A 
ATOM     15  C   UNL     1      -5.275   0.248  -0.166  1.00  0.00     0.026 A 
ATOM     16  C   UNL     1      -5.812  -0.631   0.779  1.00  0.00     0.121 A 
BRANCH  15  17
ATOM     17  C   UNL     1      -6.175   1.065  -1.051  1.00  0.00     0.254 C 
ATOM     18  F   UNL     1      -5.492   1.966  -1.818  1.00  0.00    -0.246 F 
ENDBRANCH  15  17
BRANCH  16  19
ATOM     19  O   UNL     1      -7.170  -0.720   0.889  1.00  0.00    -0.508 OA
ATOM     20  H   UNL     1      -7.389  -1.380   1.568  1.00  0.00     0.293 HD
ENDBRANCH  16  19
ENDBRANCH   8  11
ENDBRANCH   1   7
BRANCH   5  21
ATOM     21  C   UNL     1       3.808  -0.218  -0.190  1.00  0.00     0.024 A 
ATOM     22  C   UNL     1       3.895  -1.238  -1.156  1.00  0.00     0.016 A 
ATOM     23  C   UNL     1       4.814  -0.159   0.791  1.00  0.00     0.127 A 
ATOM     24  C   UNL     1       4.952  -2.154  -1.149  1.00  0.00     0.047 A 
ATOM     25  C   UNL     1       5.876  -1.063   0.797  1.00  0.00     0.093 A 
ATOM     26  C   UNL     1       5.936  -2.054  -0.173  1.00  0.00     0.119 A 
BRANCH  23  27
ATOM     27  O   UNL     1       4.807   0.769   1.800  1.00  0.00    -0.507 OA
ATOM     28  H   UNL     1       3.930   1.190   1.817  1.00  0.00     0.293 HD
ENDBRANCH  23  27
BRANCH  26  29
ATOM     29  O   UNL     1       6.986  -2.924  -0.132  1.00  0.00    -0.508 OA
ATOM     30  H   UNL     1       6.883  -3.568  -0.852  1.00  0.00     0.293 HD
ENDBRANCH  26  29
ENDBRANCH   5  21
TORSDOF 7
