MODEL        7USER    Run = 7USERUSER    Estimated Free Energy of Binding    =  -8.27 kcal/mol  [=(1)+(2)+(3)-(4)]USERUSER    (1) Final Intermolecular Energy     = -10.35 kcal/molUSER        vdW + Hbond + desolv Energy     =  -9.45 kcal/molUSER        Electrostatic Energy            =  -0.90 kcal/molUSER        Moving Ligand-Fixed Receptor    = -10.35 kcal/molUSER        Moving Ligand-Moving Receptor   =  +0.00 kcal/molUSER    (2) Final Total Internal Energy     =  -0.45 kcal/molUSER    (3) Torsional Free Energy           =  +2.09 kcal/molUSER    (4) Unbound System's Energy         =  -0.45 kcal/molUSERUSERREMARK SMILES O=C(Nc1cccc(-c2ccc(O)cc2O)c1)c1ccc(O)c(CF)c1REMARK SMILES IDX 4 1 5 2 6 3 7 4 8 5 17 6 3 7 2 8 1 9 18 11 19 12 26 13 20 14REMARK SMILES IDX 23 15 21 16 24 17 25 18 22 19 9 21 10 22 15 23 11 24 14 25REMARK SMILES IDX 12 26 16 27 13 29REMARK H PARENT 3 10 22 20 16 28 13 30USER                              x       y       z     vdW  Elec       q    TypeUSER                           _______ _______ _______ _____ _____    ______ ____ROOTATOM      1  C   UNL     1      36.041  44.670  16.414 -0.31 -0.02    +0.042 A  ATOM      2  C   UNL     1      36.386  43.364  16.781 -0.30 -0.01    +0.026 A  ATOM      3  C   UNL     1      35.421  42.358  16.828 -0.40 -0.00    +0.003 A  ATOM      4  C   UNL     1      34.097  42.651  16.508 -0.38 -0.00    +0.009 A  ATOM      5  C   UNL     1      33.720  43.951  16.140 -0.32 +0.01    -0.013 A  ATOM      6  C   UNL     1      34.708  44.952  16.094 -0.30 -0.02    +0.035 A  ENDROOTBRANCH   1   7ATOM      7  N   UNL     1      37.080  45.625  16.384 -0.13 +0.14    -0.322 N  ATOM      8  C   UNL     1      38.045  45.788  15.407 -0.25 -0.09    +0.255 C  ATOM      9  O   UNL     1      38.137  45.169  14.354 -0.26 +0.08    -0.269 OA ATOM     10  H   UNL     1      37.076  46.293  17.144 +0.10 -0.08    +0.170 HD BRANCH   8  11ATOM     11  C   UNL     1      39.040  46.867  15.675 -0.42 -0.01    +0.040 A  ATOM     12  C   UNL     1      39.080  47.966  14.808 -0.51 -0.01    +0.017 A  ATOM     13  C   UNL     1      39.946  46.794  16.742 -0.47 -0.00    +0.024 A  ATOM     14  C   UNL     1      39.998  48.997  15.019 -0.47 -0.02    +0.047 A  ATOM     15  C   UNL     1      40.866  47.831  16.968 -0.51 -0.00    +0.026 A  ATOM     16  C   UNL     1      40.880  48.923  16.095 -0.50 -0.02    +0.121 A  BRANCH  15  17ATOM     17  C   UNL     1      41.839  47.752  18.112 -0.36 -0.01    +0.254 C  ATOM     18  F   UNL     1      41.692  46.617  18.858 -0.13 -0.01    -0.246 F  ENDBRANCH  15  17BRANCH  16  19ATOM     19  O   UNL     1      41.786  49.920  16.313 -0.80 -0.06    -0.508 OA ATOM     20  H   UNL     1      41.308  50.751  16.473 -0.29 -0.09    +0.293 HD ENDBRANCH  16  19ENDBRANCH   8  11ENDBRANCH   1   7BRANCH   5  21ATOM     21  C   UNL     1      32.320  44.258  15.804 -0.33 -0.01    +0.024 A  ATOM     22  C   UNL     1      31.289  43.451  16.320 -0.31 -0.01    +0.016 A  ATOM     23  C   UNL     1      31.953  45.347  14.993 -0.33 -0.09    +0.127 A  ATOM     24  C   UNL     1      29.946  43.729  16.048 -0.26 -0.02    +0.047 A  ATOM     25  C   UNL     1      30.615  45.636  14.726 -0.42 -0.06    +0.093 A  ATOM     26  C   UNL     1      29.622  44.823  15.255 -0.22 -0.08    +0.119 A  BRANCH  23  27ATOM     27  O   UNL     1      32.876  46.175  14.408 -0.11 +0.54    -0.507 OA ATOM     28  H   UNL     1      32.941  46.983  14.946 -0.28 -0.71    +0.293 HD ENDBRANCH  23  27BRANCH  26  29ATOM     29  O   UNL     1      28.324  45.133  14.968 +0.01 +0.37    -0.508 OA ATOM     30  H   UNL     1      28.136  44.860  14.055 -0.21 -0.60    +0.293 HD ENDBRANCH  26  29ENDBRANCH   5  21TORSDOF 7TERENDMDL