MODEL        8USER    Run = 8USERUSER    Estimated Free Energy of Binding    =  -8.78 kcal/mol  [=(1)+(2)+(3)-(4)]USERUSER    (1) Final Intermolecular Energy     =  -9.98 kcal/molUSER        vdW + Hbond + desolv Energy     =  -9.98 kcal/molUSER        Electrostatic Energy            =  -0.00 kcal/molUSER        Moving Ligand-Fixed Receptor    =  -9.98 kcal/molUSER        Moving Ligand-Moving Receptor   =  +0.00 kcal/molUSER    (2) Final Total Internal Energy     =  -0.28 kcal/molUSER    (3) Torsional Free Energy           =  +1.19 kcal/molUSER    (4) Unbound System's Energy         =  -0.28 kcal/molUSERUSERREMARK SMILES CC(C)Nc1ncc2c(n1)nc([C@@H](C)c1ccc(F)cc1)c(=O)n2CREMARK SMILES IDX 5 1 6 2 7 3 8 4 9 5 10 6 11 7 12 8 22 9 23 10 24 11 25 12REMARK SMILES IDX 4 13 2 15 1 16 3 17 13 18 14 19 15 20 16 21 21 22 17 23REMARK SMILES IDX 20 24 18 25 19 26REMARK H PARENT 4 14USER                              x       y       z     vdW  Elec       q    TypeUSER                           _______ _______ _______ _____ _____    ______ ____ROOTATOM      1  C   UNL     1      38.325  44.433  19.384 -0.21 -0.02    +0.225 A  ATOM      2  N   UNL     1      39.410  44.523  20.163 -0.22 +0.00    -0.219 NA ATOM      3  C   UNL     1      40.347  45.428  19.822 -0.32 +0.00    +0.145 A  ATOM      4  C   UNL     1      40.250  46.246  18.720 -0.38 -0.01    +0.108 A  ATOM      5  C   UNL     1      39.096  46.065  17.981 -0.30 -0.03    +0.181 A  ATOM      6  N   UNL     1      38.137  45.176  18.291 -0.27 +0.03    -0.191 NA ATOM      7  N   UNL     1      38.818  46.808  16.829 -0.27 +0.07    -0.225 NA ATOM      8  C   UNL     1      39.686  47.694  16.437 -0.41 -0.03    +0.115 A  ATOM      9  C   UNL     1      41.003  47.955  17.173 -0.29 -0.03    +0.273 A  ATOM     10  O   UNL     1      41.788  48.778  16.720 -0.91 -0.04    -0.267 OA ATOM     11  N   UNL     1      41.216  47.204  18.324 -0.31 +0.02    -0.306 N  ATOM     12  C   UNL     1      42.429  47.391  19.096 -0.48 +0.01    +0.154 C  ENDROOTBRANCH   1  13ATOM     13  N   UNL     1      37.307  43.548  19.673 -0.10 +0.03    -0.352 N  ATOM     14  H   UNL     1      37.255  42.918  18.878 +0.13 -0.02    +0.163 HD BRANCH  13  15ATOM     15  C   UNL     1      37.204  42.902  20.975 -0.39 +0.00    +0.076 C  ATOM     16  C   UNL     1      36.188  41.764  20.983 -0.57 +0.00    +0.030 C  ATOM     17  C   UNL     1      36.976  43.898  22.111 -0.41 +0.00    +0.030 C  ENDBRANCH  13  15ENDBRANCH   1  13BRANCH   8  18ATOM     18  C   UNL     1      39.408  48.571  15.221 -0.55 -0.03    +0.071 C  ATOM     19  C   UNL     1      40.689  48.902  14.447 -0.59 -0.00    +0.020 C  BRANCH  18  20ATOM     20  C   UNL     1      38.354  47.931  14.328 -0.49 +0.02    -0.039 A  ATOM     21  C   UNL     1      38.421  46.571  13.977 -0.43 -0.00    +0.007 A  ATOM     22  C   UNL     1      37.271  48.697  13.865 -0.52 -0.00    +0.007 A  ATOM     23  C   UNL     1      37.437  45.998  13.170 -0.43 -0.01    +0.039 A  ATOM     24  C   UNL     1      36.289  48.121  13.058 -0.51 -0.02    +0.039 A  ATOM     25  C   UNL     1      36.381  46.778  12.717 -0.54 -0.06    +0.123 A  ATOM     26  F   UNL     1      35.435  46.226  11.945 -0.21 +0.12    -0.207 F  ENDBRANCH  18  20ENDBRANCH   8  18TORSDOF 4TERENDMDL