REMARK SMILES Cc1cc(C(=O)Nc2cccc(-c3ccc(F)cc3O)c2)ccc1O
REMARK SMILES IDX 8 1 9 2 10 3 11 4 12 5 21 6 7 7 5 8 6 9 4 11 2 12 3 13 24 14
REMARK SMILES IDX 23 15 22 16 1 17 25 18 13 20 14 21 19 22 15 23 18 24 16 25
REMARK SMILES IDX 17 26 20 27
REMARK H PARENT 7 10 25 19 20 28
ROOT
ATOM      1  C   UNL     1      -0.681  -0.138   1.141  1.00  0.00     0.042 A 
ATOM      2  C   UNL     1      -1.050  -0.207   2.483  1.00  0.00     0.026 A 
ATOM      3  C   UNL     1      -2.396  -0.297   2.841  1.00  0.00     0.003 A 
ATOM      4  C   UNL     1      -3.385  -0.320   1.856  1.00  0.00     0.009 A 
ATOM      5  C   UNL     1      -3.047  -0.253   0.496  1.00  0.00    -0.013 A 
ATOM      6  C   UNL     1      -1.684  -0.163   0.160  1.00  0.00     0.035 A 
ENDROOT
BRANCH   1   7
ATOM      7  N   UNL     1       0.654  -0.058   0.693  1.00  0.00    -0.322 N 
ATOM      8  C   UNL     1       1.795   0.060   1.467  1.00  0.00     0.255 C 
ATOM      9  O   UNL     1       1.850   0.198   2.683  1.00  0.00    -0.269 OA
ATOM     10  H   UNL     1       0.773  -0.024  -0.311  1.00  0.00     0.170 HD
BRANCH   8  11
ATOM     11  C   UNL     1       3.073   0.061   0.699  1.00  0.00     0.040 A 
ATOM     12  C   UNL     1       5.355   0.906   0.474  1.00  0.00    -0.008 A 
ATOM     13  C   UNL     1       4.128   0.864   1.157  1.00  0.00     0.021 A 
ATOM     14  C   UNL     1       5.502   0.115  -0.671  1.00  0.00     0.118 A 
ATOM     15  C   UNL     1       4.464  -0.700  -1.123  1.00  0.00     0.047 A 
ATOM     16  C   UNL     1       3.249  -0.734  -0.438  1.00  0.00     0.017 A 
ATOM     17  C   UNL     1       6.456   1.784   0.994  1.00  0.00     0.048 C 
BRANCH  14  18
ATOM     18  O   UNL     1       6.652   0.079  -1.406  1.00  0.00    -0.508 OA
ATOM     19  H   UNL     1       7.321   0.641  -0.987  1.00  0.00     0.293 HD
ENDBRANCH  14  18
ENDBRANCH   8  11
ENDBRANCH   1   7
BRANCH   5  20
ATOM     20  C   UNL     1      -4.093  -0.258  -0.546  1.00  0.00     0.024 A 
ATOM     21  C   UNL     1      -5.118   0.709  -0.509  1.00  0.00     0.015 A 
ATOM     22  C   UNL     1      -4.119  -1.199  -1.595  1.00  0.00     0.126 A 
ATOM     23  C   UNL     1      -6.125   0.732  -1.477  1.00  0.00     0.040 A 
ATOM     24  C   UNL     1      -5.123  -1.180  -2.565  1.00  0.00     0.086 A 
ATOM     25  C   UNL     1      -6.116  -0.212  -2.493  1.00  0.00     0.126 A 
ATOM     26  F   UNL     1      -7.080  -0.190  -3.423  1.00  0.00    -0.207 F 
BRANCH  22  27
ATOM     27  O   UNL     1      -3.145  -2.160  -1.665  1.00  0.00    -0.507 OA
ATOM     28  H   UNL     1      -3.377  -2.803  -2.354  1.00  0.00     0.293 HD
ENDBRANCH  22  27
ENDBRANCH   5  20
TORSDOF 5
