MODEL        8USER    Run = 8USERUSER    Estimated Free Energy of Binding    =  -6.51 kcal/mol  [=(1)+(2)+(3)-(4)]USERUSER    (1) Final Intermolecular Energy     = -10.98 kcal/molUSER        vdW + Hbond + desolv Energy     = -11.30 kcal/molUSER        Electrostatic Energy            =  -0.16 kcal/molUSER        Moving Ligand-Fixed Receptor    = -11.46 kcal/molUSER        Moving Ligand-Moving Receptor   =  +0.48 kcal/molUSER    (2) Final Total Internal Energy     =  -1.95 kcal/molUSER    (3) Torsional Free Energy           =  +4.47 kcal/molUSER    (4) Unbound System's Energy         =  -1.95 kcal/molUSERUSERREMARK SMILES COc1ccc(O)c(C(=O)c2ccc(CO[C@@H]3CCCNC[C@@H]3NC(=O)c3ccncc3)cc2)c1REMARK SMILES IDX 16 1 15 2 14 3 11 4 12 5 34 6 13 7 33 8 9 9 10 10 8 11 3 12REMARK SMILES IDX 4 13 35 14 5 15 6 16 2 17 1 18 7 19 17 21 18 22 23 24 22 25REMARK SMILES IDX 21 26 20 28 19 29 24 31 25 32 26 34 27 35 28 36 32 37 29 38REMARK SMILES IDX 31 39 30 40REMARK H PARENT 7 20 21 27 24 33REMARK Flexibility Score:   99.900USER                              x       y       z     vdW  Elec       q    TypeUSER                           _______ _______ _______ _____ _____    ______ ____ROOTATOM      1  O   UNL     1      41.833  44.786  21.316 -0.14 -0.06    -0.371 OA ENDROOTBRANCH   1   2ATOM      2  C   UNL     1      40.442  44.759  20.980 -0.26 +0.01    +0.196 C  BRANCH   2   3ATOM      3  C   UNL     1      40.199  45.403  19.636 -0.40 -0.00    -0.022 A  ATOM      4  C   UNL     1      39.746  46.636  17.155 -0.46 -0.00    +0.023 A  ATOM      5  C   UNL     1      41.052  46.386  17.586 -0.47 -0.00    +0.012 A  ATOM      6  C   UNL     1      38.662  46.250  17.950 -0.35 -0.00    +0.012 A  ATOM      7  C   UNL     1      41.277  45.783  18.824 -0.47 +0.00    +0.007 A  ATOM      8  C   UNL     1      38.892  45.647  19.189 -0.35 -0.00    +0.007 A  BRANCH   4   9ATOM      9  C   UNL     1      39.548  47.259  15.826 -0.41 -0.05    +0.196 C  ATOM     10  O   UNL     1      40.252  48.217  15.507 -0.36 +0.07    -0.288 OA BRANCH   9  11ATOM     11  C   UNL     1      38.547  46.758  14.849 -0.39 -0.02    +0.068 A  ATOM     12  C   UNL     1      36.994  45.053  14.074 -0.33 -0.04    +0.119 A  ATOM     13  C   UNL     1      36.668  45.851  12.975 -0.51 -0.02    +0.050 A  ATOM     14  C   UNL     1      37.927  45.512  15.010 -0.33 -0.02    +0.062 A  ATOM     15  C   UNL     1      37.261  47.107  12.822 -0.56 -0.02    +0.051 A  ATOM     16  C   UNL     1      38.185  47.561  13.760 -0.40 -0.04    +0.127 A  BRANCH  12  17ATOM     17  O   UNL     1      36.477  43.815  14.348 -0.00 +0.17    -0.497 OA ATOM     18  C   UNL     1      36.172  43.531  15.708 -0.29 -0.10    +0.278 C  ENDBRANCH  12  17BRANCH  16  19ATOM     19  O   UNL     1      38.699  48.813  13.552 -0.07 +0.17    -0.507 OA ATOM     20  H   UNL     1      38.716  49.274  14.422 -0.23 -0.20    +0.293 HD ENDBRANCH  16  19ENDBRANCH   9  11ENDBRANCH   4   9ENDBRANCH   2   3ENDBRANCH   1   2BRANCH   1  21ATOM     21  C   UNL     1      42.315  46.108  21.632 -0.27 +0.03    +0.142 C  BRANCH  21  22ATOM     22  C   UNL     1      43.683  45.956  22.308 -0.25 +0.01    +0.035 CG0ATOM     23  G   UNL     1      44.636  47.151  22.187 +0.00 +0.00    +0.000 G0 ENDBRANCH  21  22BRANCH  21  24ATOM     24  C   UNL     1      41.274  46.935  22.453 -0.11 +0.01    +0.125 C  BRANCH  24  25ATOM     25  C   UNL     1      41.887  47.964  23.439 -0.30 +0.02    +0.108 C  BRANCH  25  26ATOM     26  N   UNL     1      42.914  48.874  22.916 -0.81 -0.09    -0.315 NA ATOM     27  H   UNL     1      42.679  49.110  21.952 -0.27 +0.01    +0.122 HD BRANCH  26  28ATOM     28  C   UNL     1      44.289  48.404  22.993 -0.22 +0.02    +0.081 C  BRANCH  28  29ATOM     29  C   UNL     1      44.637  47.155  22.186 -0.32 +0.01    +0.018 CG0ATOM     30  G   UNL     1      43.683  45.960  22.306 +0.00 +0.00    +0.000 G0 ENDBRANCH  28  29ENDBRANCH  26  28ENDBRANCH  25  26ENDBRANCH  24  25BRANCH  24  31ATOM     31  N   UNL     1      40.314  46.078  23.153 -0.08 -0.03    -0.345 N  ATOM     32  C   UNL     1      39.190  46.587  23.759 -0.22 +0.03    +0.251 C  ATOM     33  H   UNL     1      40.661  45.160  23.397 +0.08 +0.01    +0.164 HD ATOM     34  O   UNL     1      38.766  47.718  23.554 -0.32 -0.04    -0.269 OA BRANCH  32  35ATOM     35  C   UNL     1      38.467  45.677  24.682 -0.24 +0.00    +0.042 A  ATOM     36  C   UNL     1      38.272  44.328  24.389 -0.24 +0.00    +0.034 A  ATOM     37  C   UNL     1      38.007  46.195  25.893 -0.28 +0.00    +0.034 A  ATOM     38  C   UNL     1      37.592  43.559  25.315 -0.23 -0.00    +0.112 A  ATOM     39  C   UNL     1      37.337  45.343  26.750 -0.28 -0.01    +0.112 A  ATOM     40  N   UNL     1      37.111  44.038  26.483 -0.16 +0.03    -0.265 NA ENDBRANCH  32  35ENDBRANCH  24  31ENDBRANCH  21  24ENDBRANCH   1  21TORSDOF 9TERENDMDL