REMARK SMILES COc1cc(F)c(O)c(C(=O)c2ccc(C(=O)N[C@@H]3CCN(C)C[C@H]3[C@H](C)NC(=O)c3cnc(OC)nc3)cc2)c1
REMARK SMILES IDX 19 1 20 2 21 3 22 4 23 5 24 6 25 7 18 8 16 9 17 10 15 12
REMARK SMILES IDX 12 13 13 14 40 15 14 16 39 17 10 18 11 19 9 20 3 21 4 22
REMARK SMILES IDX 41 23 5 24 7 25 6 26 2 27 1 28 8 29 26 31 27 32 28 33 29 34
REMARK SMILES IDX 30 36 31 37 32 38 38 39 33 40 37 41 34 42 35 43 36 44
REMARK H PARENT 18 11 8 30 28 35
ROOT
ATOM      1  C   UNL     1      -1.401  -2.173   0.875  1.00  0.00     0.090 C 
ATOM      2  C   UNL     1      -1.700  -3.658   0.617  1.00  0.00     0.041 C 
ATOM      3  C   UNL     1      -2.190  -3.921  -0.802  1.00  0.00     0.086 C 
ATOM      4  N   UNL     1      -3.360  -3.088  -1.106  1.00  0.00    -0.306 NA
ATOM      5  C   UNL     1      -3.893  -3.431  -2.426  1.00  0.00     0.105 C 
ATOM      6  C   UNL     1      -3.001  -1.668  -1.050  1.00  0.00     0.092 C 
ATOM      7  C   UNL     1      -2.497  -1.220   0.336  1.00  0.00     0.048 C 
ENDROOT
BRANCH   1   8
ATOM      8  N   UNL     1      -0.092  -1.820   0.304  1.00  0.00    -0.349 N 
ATOM      9  C   UNL     1       1.089  -2.175   0.928  1.00  0.00     0.251 C 
ATOM     10  O   UNL     1       1.130  -2.793   1.986  1.00  0.00    -0.269 OA
ATOM     11  H   UNL     1      -0.068  -1.176  -0.474  1.00  0.00     0.164 HD
BRANCH   9  12
ATOM     12  C   UNL     1       2.357  -1.744   0.271  1.00  0.00     0.039 A 
ATOM     13  C   UNL     1       4.806  -0.967  -0.864  1.00  0.00     0.023 A 
ATOM     14  C   UNL     1       3.661  -1.074  -1.662  1.00  0.00     0.013 A 
ATOM     15  C   UNL     1       4.736  -1.286   0.496  1.00  0.00     0.013 A 
ATOM     16  C   UNL     1       2.440  -1.461  -1.099  1.00  0.00     0.014 A 
ATOM     17  C   UNL     1       3.514  -1.667   1.059  1.00  0.00     0.014 A 
BRANCH  13  18
ATOM     18  C   UNL     1       6.085  -0.582  -1.511  1.00  0.00     0.196 C 
ATOM     19  O   UNL     1       6.308  -0.948  -2.664  1.00  0.00    -0.288 OA
BRANCH  18  20
ATOM     20  C   UNL     1       7.127   0.210  -0.813  1.00  0.00     0.071 A 
ATOM     21  C   UNL     1       7.778   1.921   0.785  1.00  0.00     0.122 A 
ATOM     22  C   UNL     1       9.118   1.669   0.489  1.00  0.00     0.089 A 
ATOM     23  C   UNL     1       6.780   1.194   0.129  1.00  0.00     0.062 A 
ATOM     24  C   UNL     1       9.459   0.717  -0.465  1.00  0.00     0.169 A 
ATOM     25  C   UNL     1       8.474  -0.006  -1.132  1.00  0.00     0.162 A 
ATOM     26  F   UNL     1      10.755   0.514  -0.743  1.00  0.00    -0.203 F 
BRANCH  21  27
ATOM     27  O   UNL     1       7.574   2.890   1.727  1.00  0.00    -0.497 OA
ATOM     28  C   UNL     1       6.229   3.248   2.018  1.00  0.00     0.278 C 
ENDBRANCH  21  27
BRANCH  25  29
ATOM     29  O   UNL     1       8.868  -0.913  -2.081  1.00  0.00    -0.504 OA
ATOM     30  H   UNL     1       8.086  -1.137  -2.632  1.00  0.00     0.293 HD
ENDBRANCH  25  29
ENDBRANCH  18  20
ENDBRANCH  13  18
ENDBRANCH   9  12
ENDBRANCH   1   8
BRANCH   7  31
ATOM     31  C   UNL     1      -3.623  -0.932   1.374  1.00  0.00     0.085 C 
ATOM     32  C   UNL     1      -4.469  -2.120   1.821  1.00  0.00     0.031 C 
BRANCH  31  33
ATOM     33  N   UNL     1      -4.517   0.134   0.900  1.00  0.00    -0.349 N 
ATOM     34  C   UNL     1      -4.156   1.466   0.938  1.00  0.00     0.254 C 
ATOM     35  H   UNL     1      -5.442  -0.147   0.603  1.00  0.00     0.164 HD
ATOM     36  O   UNL     1      -3.081   1.861   1.376  1.00  0.00    -0.269 OA
BRANCH  34  37
ATOM     37  C   UNL     1      -5.132   2.448   0.435  1.00  0.00     0.076 A 
ATOM     38  C   UNL     1      -6.135   2.167  -0.466  1.00  0.00     0.132 A 
ATOM     39  C   UNL     1      -5.056   3.767   0.831  1.00  0.00     0.132 A 
ATOM     40  N   UNL     1      -7.013   3.088  -0.922  1.00  0.00    -0.203 NA
ATOM     41  N   UNL     1      -5.907   4.730   0.409  1.00  0.00    -0.203 NA
ATOM     42  C   UNL     1      -6.858   4.338  -0.457  1.00  0.00     0.316 A 
BRANCH  42  43
ATOM     43  O   UNL     1      -7.768   5.249  -0.945  1.00  0.00    -0.467 OA
ATOM     44  C   UNL     1      -7.579   6.558  -0.425  1.00  0.00     0.282 C 
ENDBRANCH  42  43
ENDBRANCH  34  37
ENDBRANCH  31  33
ENDBRANCH   7  31
TORSDOF 10
