REMARK SMILES COc1ncc(C(=O)N[C@@H]2CN(C)CC[C@H]2NC(=O)c2ccc(C(=O)c3c(O)c(F)cc(OC)c3F)cc2)cn1
REMARK SMILES IDX 17 1 18 2 19 3 16 5 10 6 11 7 12 8 15 9 14 10 13 11 9 12
REMARK SMILES IDX 7 13 8 14 6 16 3 17 4 18 40 19 5 20 39 21 2 22 1 23 20 24
REMARK SMILES IDX 21 25 38 26 22 27 37 28 23 29 24 30 25 31 26 32 27 33 35 34
REMARK SMILES IDX 29 35 32 36 31 37 36 38 30 39 28 40 33 42 34 43
REMARK H PARENT 17 4 9 15 28 41
ROOT
ATOM      1  N   UNL     1      -0.653  -2.077   1.372  1.00  0.00    -0.347 N 
ATOM      2  C   UNL     1      -0.242  -0.793   1.079  1.00  0.00     0.251 C 
ATOM      3  O   UNL     1      -0.894   0.214   1.354  1.00  0.00    -0.269 OA
ATOM      4  H   UNL     1      -0.065  -2.861   1.120  1.00  0.00     0.164 HD
ENDROOT
BRANCH   1   5
ATOM      5  C   UNL     1      -2.040  -2.372   1.731  1.00  0.00     0.107 C 
ATOM      6  C   UNL     1      -2.945  -2.407   0.467  1.00  0.00     0.118 C 
ATOM      7  C   UNL     1      -4.097  -3.430   0.612  1.00  0.00     0.111 C 
ATOM      8  N   UNL     1      -4.595  -3.452   1.994  1.00  0.00    -0.304 NA
ATOM      9  C   UNL     1      -2.138  -3.688   2.496  1.00  0.00     0.042 C 
ATOM     10  C   UNL     1      -3.583  -3.947   2.945  1.00  0.00     0.086 C 
ATOM     11  C   UNL     1      -5.836  -4.216   2.107  1.00  0.00     0.105 C 
BRANCH   6  12
ATOM     12  N   UNL     1      -3.460  -1.067   0.183  1.00  0.00    -0.346 N 
ATOM     13  C   UNL     1      -3.681  -0.623  -1.098  1.00  0.00     0.254 C 
ATOM     14  O   UNL     1      -3.438  -1.287  -2.101  1.00  0.00    -0.269 OA
ATOM     15  H   UNL     1      -3.825  -0.553   0.977  1.00  0.00     0.164 HD
BRANCH  13  16
ATOM     16  C   UNL     1      -4.280   0.717  -1.232  1.00  0.00     0.076 A 
ATOM     17  C   UNL     1      -5.490   3.123  -1.520  1.00  0.00     0.316 A 
ATOM     18  N   UNL     1      -5.660   2.224  -2.502  1.00  0.00    -0.203 NA
ATOM     19  N   UNL     1      -4.744   2.938  -0.416  1.00  0.00    -0.203 NA
ATOM     20  C   UNL     1      -5.036   1.034  -2.339  1.00  0.00     0.132 A 
ATOM     21  C   UNL     1      -4.140   1.731  -0.305  1.00  0.00     0.132 A 
BRANCH  17  22
ATOM     22  O   UNL     1      -6.163   4.313  -1.702  1.00  0.00    -0.467 OA
ATOM     23  C   UNL     1      -6.148   5.143  -0.547  1.00  0.00     0.282 C 
ENDBRANCH  17  22
ENDBRANCH  13  16
ENDBRANCH   6  12
ENDBRANCH   1   5
BRANCH   2  24
ATOM     24  C   UNL     1       1.098  -0.657   0.445  1.00  0.00     0.039 A 
ATOM     25  C   UNL     1       1.807   0.537   0.629  1.00  0.00     0.014 A 
ATOM     26  C   UNL     1       1.664  -1.679  -0.327  1.00  0.00     0.014 A 
ATOM     27  C   UNL     1       3.097   0.686   0.106  1.00  0.00     0.013 A 
ATOM     28  C   UNL     1       2.957  -1.532  -0.839  1.00  0.00     0.013 A 
ATOM     29  C   UNL     1       3.694  -0.364  -0.601  1.00  0.00     0.023 A 
BRANCH  29  30
ATOM     30  C   UNL     1       5.095  -0.310  -1.109  1.00  0.00     0.199 C 
ATOM     31  O   UNL     1       5.562  -1.241  -1.766  1.00  0.00    -0.288 OA
BRANCH  30  32
ATOM     32  C   UNL     1       5.976   0.816  -0.792  1.00  0.00     0.107 A 
ATOM     33  C   UNL     1       6.499   0.986   0.488  1.00  0.00     0.165 A 
ATOM     34  C   UNL     1       6.328   1.700  -1.810  1.00  0.00     0.180 A 
ATOM     35  C   UNL     1       7.361   2.047   0.734  1.00  0.00     0.169 A 
ATOM     36  C   UNL     1       7.201   2.766  -1.560  1.00  0.00     0.158 A 
ATOM     37  C   UNL     1       7.725   2.934  -0.275  1.00  0.00     0.092 A 
ATOM     38  F   UNL     1       5.786   1.563  -3.033  1.00  0.00    -0.202 F 
ATOM     39  F   UNL     1       7.839   2.224   1.975  1.00  0.00    -0.203 F 
BRANCH  33  40
ATOM     40  O   UNL     1       6.156   0.141   1.507  1.00  0.00    -0.504 OA
ATOM     41  H   UNL     1       6.622   0.432   2.315  1.00  0.00     0.293 HD
ENDBRANCH  33  40
BRANCH  36  42
ATOM     42  O   UNL     1       7.459   3.584  -2.627  1.00  0.00    -0.494 OA
ATOM     43  C   UNL     1       8.570   4.469  -2.511  1.00  0.00     0.278 C 
ENDBRANCH  36  42
ENDBRANCH  30  32
ENDBRANCH  29  30
ENDBRANCH   2  24
TORSDOF 9
