MODEL        7USER    Run = 7USERUSER    Estimated Free Energy of Binding    = -10.06 kcal/mol  [=(1)+(2)+(3)-(4)]USERUSER    (1) Final Intermolecular Energy     = -12.75 kcal/molUSER        vdW + Hbond + desolv Energy     = -12.79 kcal/molUSER        Electrostatic Energy            =  +0.04 kcal/molUSER        Moving Ligand-Fixed Receptor    = -12.75 kcal/molUSER        Moving Ligand-Moving Receptor   =  +0.00 kcal/molUSER    (2) Final Total Internal Energy     =  -1.92 kcal/molUSER    (3) Torsional Free Energy           =  +2.68 kcal/molUSER    (4) Unbound System's Energy         =  -1.92 kcal/molUSERUSERREMARK SMILES COc1cc(F)c(O)c(C(=O)c2ccc(C(=O)N[C@H]3C[C@H](F)N(C)C[C@@H]3NC(=O)c3cnc(OC)nc3)cc2)c1REMARK SMILES IDX 16 1 17 2 18 3 15 5 12 6 13 7 39 8 14 9 38 10 10 11 11 12REMARK SMILES IDX 9 13 3 14 4 15 40 16 5 17 7 18 6 19 2 20 1 21 8 22 19 24REMARK SMILES IDX 20 25 26 26 21 27 25 28 23 29 22 30 24 31 27 32 28 33 29 35REMARK SMILES IDX 30 36 31 37 37 38 32 39 36 40 33 41 34 42 35 43REMARK H PARENT 18 4 8 23 27 34USER                              x       y       z     vdW  Elec       q    TypeUSER                           _______ _______ _______ _____ _____    ______ ____ROOTATOM      1  C   UNL     1      39.474  45.776  18.284 -0.32 -0.03    +0.251 C  ATOM      2  O   UNL     1      40.389  46.572  18.454 -0.34 +0.02    -0.269 OA ATOM      3  N   UNL     1      38.874  45.560  17.060 -0.15 +0.07    -0.347 N  ATOM      4  H   UNL     1      38.009  45.039  17.029 +0.11 -0.04    +0.164 HD ENDROOTBRANCH   1   5ATOM      5  C   UNL     1      38.912  45.020  19.435 -0.37 -0.00    +0.039 A  ATOM      6  C   UNL     1      37.927  43.620  21.648 -0.35 +0.00    +0.023 A  ATOM      7  C   UNL     1      37.168  43.701  20.474 -0.38 -0.00    +0.013 A  ATOM      8  C   UNL     1      39.198  44.204  21.703 -0.29 +0.00    +0.013 A  ATOM      9  C   UNL     1      37.656  44.404  19.369 -0.35 -0.00    +0.014 A  ATOM     10  C   UNL     1      39.688  44.902  20.596 -0.35 +0.00    +0.014 A  BRANCH   6  11ATOM     11  C   UNL     1      37.378  42.854  22.791 -0.33 +0.02    +0.196 C  ATOM     12  O   UNL     1      37.179  41.647  22.655 -0.38 -0.02    -0.288 OA BRANCH  11  13ATOM     13  C   UNL     1      37.067  43.483  24.100 -0.31 +0.01    +0.071 A  ATOM     14  C   UNL     1      36.993  45.434  25.560 -0.25 +0.00    +0.122 A  ATOM     15  C   UNL     1      36.445  44.653  26.574 -0.25 -0.02    +0.089 A  ATOM     16  C   UNL     1      37.300  44.848  24.326 -0.24 +0.01    +0.062 A  ATOM     17  C   UNL     1      36.193  43.303  26.344 -0.29 -0.02    +0.169 A  ATOM     18  C   UNL     1      36.485  42.713  25.116 -0.26 -0.00    +0.162 A  ATOM     19  F   UNL     1      35.652  42.575  27.332 -0.12 +0.05    -0.203 F  BRANCH  14  20ATOM     20  O   UNL     1      37.280  46.770  25.640 -0.58 -0.02    -0.497 OA ATOM     21  C   UNL     1      36.937  47.433  26.853 -0.25 -0.04    +0.278 C  ENDBRANCH  14  20BRANCH  18  22ATOM     22  O   UNL     1      36.185  41.385  24.956 -0.09 +0.11    -0.504 OA ATOM     23  H   UNL     1      36.328  41.151  24.011 +0.12 -0.04    +0.293 HD ENDBRANCH  18  22ENDBRANCH  11  13ENDBRANCH   6  11ENDBRANCH   1   5BRANCH   3  24ATOM     24  C   UNL     1      39.312  46.289  15.864 -0.41 -0.02    +0.110 C  ATOM     25  C   UNL     1      38.725  45.676  14.588 -0.37 -0.02    +0.081 C  ATOM     26  C   UNL     1      38.990  47.801  15.954 -0.45 -0.05    +0.119 C  ATOM     27  C   UNL     1      37.243  45.998  14.433 -0.29 -0.10    +0.239 C  ATOM     28  C   UNL     1      37.484  48.059  15.687 -0.38 -0.09    +0.114 C  ATOM     29  N   UNL     1      36.922  47.422  14.488 -0.24 +0.18    -0.275 NA ATOM     30  F   UNL     1      36.824  45.497  13.240 -0.10 +0.09    -0.230 F  ATOM     31  C   UNL     1      37.246  48.123  13.253 -0.48 -0.04    +0.108 C  BRANCH  26  32ATOM     32  N   UNL     1      39.854  48.590  15.066 -0.27 +0.12    -0.346 N  ATOM     33  C   UNL     1      41.026  49.149  15.533 -0.49 -0.04    +0.254 C  ATOM     34  H   UNL     1      39.586  48.674  14.094 +0.05 -0.06    +0.164 HD ATOM     35  O   UNL     1      41.425  48.988  16.681 -1.02 -0.00    -0.269 OA BRANCH  33  36ATOM     36  C   UNL     1      41.826  49.955  14.594 -0.62 -0.01    +0.076 A  ATOM     37  C   UNL     1      41.863  49.623  13.256 -0.10 -0.03    +0.132 A  ATOM     38  C   UNL     1      42.600  51.038  14.946 -0.12 -0.02    +0.132 A  ATOM     39  N   UNL     1      42.572  50.309  12.330 -0.51 +0.08    -0.203 NA ATOM     40  N   UNL     1      43.326  51.760  14.066 -0.20 +0.05    -0.203 NA ATOM     41  C   UNL     1      43.276  51.360  12.785 -0.16 -0.14    +0.316 A  BRANCH  41  42ATOM     42  O   UNL     1      44.022  52.121  11.915 -0.17 +0.24    -0.467 OA ATOM     43  C   UNL     1      43.411  52.275  10.641 -0.39 -0.16    +0.282 C  ENDBRANCH  41  42ENDBRANCH  33  36ENDBRANCH  26  32ENDBRANCH   3  24TORSDOF 9TERENDMDL