MODEL        1USER    Run = 1USERUSER    Estimated Free Energy of Binding    = -10.26 kcal/mol  [=(1)+(2)+(3)-(4)]USERUSER    (1) Final Intermolecular Energy     = -13.24 kcal/molUSER        vdW + Hbond + desolv Energy     = -13.01 kcal/molUSER        Electrostatic Energy            =  -0.24 kcal/molUSER        Moving Ligand-Fixed Receptor    = -13.24 kcal/molUSER        Moving Ligand-Moving Receptor   =  +0.00 kcal/molUSER    (2) Final Total Internal Energy     =  -2.88 kcal/molUSER    (3) Torsional Free Energy           =  +2.98 kcal/molUSER    (4) Unbound System's Energy         =  -2.88 kcal/molUSERUSERREMARK SMILES COc1cc(F)c(O)c(C(=O)c2ccc(S(=O)(=O)N[C@@H]3CCN(C)C[C@H]3NC(=O)c3cnc(OC)nc3)cc2)c1REMARK SMILES IDX 16 1 17 2 18 3 15 4 12 5 13 6 39 7 14 8 38 9 10 10 11 11REMARK SMILES IDX 9 12 3 13 4 14 40 15 5 16 7 17 6 18 2 19 1 20 8 21 19 23REMARK SMILES IDX 20 25 21 26 26 27 22 28 25 29 23 30 24 31 27 32 28 33 29 35REMARK SMILES IDX 30 36 31 37 37 38 32 39 36 40 33 41 34 42 35 43REMARK H PARENT 8 22 19 24 27 34USER                              x       y       z     vdW  Elec       q    TypeUSER                           _______ _______ _______ _____ _____    ______ ____ROOTATOM      1  S   UNL     1      37.083  43.001  21.905 -0.44 +0.01    +0.240 S  ATOM      2  O   UNL     1      37.862  41.913  22.446 -0.36 -0.02    -0.207 OA ATOM      3  O   UNL     1      35.772  42.792  21.326 -0.35 -0.02    -0.207 OA ENDROOTBRANCH   1   4ATOM      4  C   UNL     1      38.099  43.878  20.742 -0.27 -0.00    +0.082 A  ATOM      5  C   UNL     1      39.682  45.272  18.908 -0.41 -0.00    +0.023 A  ATOM      6  C   UNL     1      38.442  44.748  18.510 -0.37 -0.00    +0.013 A  ATOM      7  C   UNL     1      40.106  45.113  20.235 -0.37 +0.00    +0.013 A  ATOM      8  C   UNL     1      37.651  44.050  19.429 -0.32 -0.00    +0.022 A  ATOM      9  C   UNL     1      39.316  44.422  21.156 -0.31 +0.00    +0.022 A  BRANCH   5  10ATOM     10  C   UNL     1      40.589  45.983  17.963 -0.40 -0.01    +0.196 C  ATOM     11  O   UNL     1      41.800  45.774  17.968 -0.31 -0.00    -0.288 OA BRANCH  10  12ATOM     12  C   UNL     1      40.049  46.889  16.937 -0.44 -0.01    +0.071 A  ATOM     13  C   UNL     1      38.392  47.301  15.217 -0.37 -0.05    +0.122 A  ATOM     14  C   UNL     1      39.042  48.498  14.903 -0.46 -0.04    +0.089 A  ATOM     15  C   UNL     1      38.907  46.485  16.227 -0.38 -0.02    +0.062 A  ATOM     16  C   UNL     1      40.177  48.881  15.612 -0.45 -0.06    +0.169 A  ATOM     17  C   UNL     1      40.687  48.089  16.635 -0.41 -0.03    +0.162 A  ATOM     18  F   UNL     1      40.791  50.034  15.307 -0.21 +0.07    -0.203 F  BRANCH  13  19ATOM     19  O   UNL     1      37.290  47.036  14.454 -0.08 +0.26    -0.497 OA ATOM     20  C   UNL     1      36.875  48.045  13.542 -0.42 -0.14    +0.278 C  ENDBRANCH  13  19BRANCH  17  21ATOM     21  O   UNL     1      41.787  48.501  17.330 -0.60 -0.03    -0.504 OA ATOM     22  H   UNL     1      42.420  47.754  17.338 -0.33 -0.04    +0.293 HD ENDBRANCH  17  21ENDBRANCH  10  12ENDBRANCH   5  10ENDBRANCH   1   4BRANCH   1  23ATOM     23  N   UNL     1      36.922  44.121  23.142 -0.23 -0.03    -0.206 NA ATOM     24  H   UNL     1      36.976  45.091  22.827 +0.06 +0.02    +0.141 HD BRANCH  23  25ATOM     25  C   UNL     1      37.378  43.785  24.509 -0.33 +0.01    +0.095 C  ATOM     26  C   UNL     1      36.543  42.630  25.047 -0.43 -0.00    +0.038 C  ATOM     27  C   UNL     1      37.274  45.021  25.447 -0.32 +0.00    +0.114 C  ATOM     28  C   UNL     1      37.098  42.175  26.401 -0.40 -0.01    +0.086 C  ATOM     29  C   UNL     1      36.998  44.571  26.911 -0.35 -0.02    +0.110 C  ATOM     30  N   UNL     1      37.535  43.258  27.288 -0.14 +0.04    -0.304 NA ATOM     31  C   UNL     1      38.982  43.287  27.481 -0.25 -0.01    +0.105 C  BRANCH  27  32ATOM     32  N   UNL     1      38.455  45.884  25.297 -0.09 -0.02    -0.346 N  ATOM     33  C   UNL     1      38.778  46.446  24.078 -0.22 +0.03    +0.254 C  ATOM     34  H   UNL     1      39.245  45.626  25.889 +0.07 +0.00    +0.164 HD ATOM     35  O   UNL     1      38.050  46.388  23.093 -0.16 -0.05    -0.269 OA BRANCH  33  36ATOM     36  C   UNL     1      40.081  47.133  23.973 -0.24 +0.01    +0.076 A  ATOM     37  C   UNL     1      41.152  46.506  23.372 -0.15 +0.01    +0.132 A  ATOM     38  C   UNL     1      40.329  48.418  24.400 -0.26 +0.02    +0.132 A  ATOM     39  N   UNL     1      42.374  47.070  23.221 -0.14 -0.03    -0.203 NA ATOM     40  N   UNL     1      41.528  49.034  24.275 -0.34 -0.04    -0.203 NA ATOM     41  C   UNL     1      42.503  48.322  23.691 -0.21 +0.06    +0.316 A  BRANCH  41  42ATOM     42  O   UNL     1      43.706  48.981  23.589 -0.61 -0.17    -0.467 OA ATOM     43  C   UNL     1      44.477  48.918  24.780 -0.19 +0.05    +0.282 C  ENDBRANCH  41  42ENDBRANCH  33  36ENDBRANCH  27  32ENDBRANCH  23  25ENDBRANCH   1  23TORSDOF 10TERENDMDL