REMARK SMILES COc1cc(F)c(O)c(C(=O)c2ccc(C(=O)N[C@H]3C[C@H](F)N(C)C[C@@H]3NC(=O)c3cnc(OC)nc3)cc2)c1
REMARK SMILES IDX 16 1 17 2 18 3 15 5 12 6 13 7 39 8 14 9 38 10 10 11 11 12
REMARK SMILES IDX 9 13 3 14 4 15 40 16 5 17 7 18 6 19 2 20 1 21 8 22 19 24
REMARK SMILES IDX 20 25 26 26 21 27 25 28 23 29 22 30 24 31 27 32 28 33 29 35
REMARK SMILES IDX 30 36 31 37 37 38 32 39 36 40 33 41 34 42 35 43
REMARK H PARENT 18 4 8 23 27 34
ROOT
ATOM      1  C   UNL     1      -0.361  -1.186   1.604  1.00  0.00     0.251 C 
ATOM      2  O   UNL     1       0.069  -1.023   2.739  1.00  0.00    -0.269 OA
ATOM      3  N   UNL     1       0.446  -1.221   0.485  1.00  0.00    -0.347 N 
ATOM      4  H   UNL     1       0.013  -1.167  -0.427  1.00  0.00     0.164 HD
ENDROOT
BRANCH   1   5
ATOM      5  C   UNL     1      -1.824  -1.305   1.365  1.00  0.00     0.039 A 
ATOM      6  C   UNL     1      -4.591  -1.472   0.982  1.00  0.00     0.023 A 
ATOM      7  C   UNL     1      -3.722  -2.170   0.134  1.00  0.00     0.013 A 
ATOM      8  C   UNL     1      -4.080  -0.723   2.048  1.00  0.00     0.013 A 
ATOM      9  C   UNL     1      -2.339  -2.084   0.321  1.00  0.00     0.014 A 
ATOM     10  C   UNL     1      -2.697  -0.642   2.238  1.00  0.00     0.014 A 
BRANCH   6  11
ATOM     11  C   UNL     1      -6.049  -1.601   0.757  1.00  0.00     0.196 C 
ATOM     12  O   UNL     1      -6.511  -2.709   0.482  1.00  0.00    -0.288 OA
BRANCH  11  13
ATOM     13  C   UNL     1      -6.980  -0.448   0.859  1.00  0.00     0.071 A 
ATOM     14  C   UNL     1      -7.426   1.945   0.724  1.00  0.00     0.122 A 
ATOM     15  C   UNL     1      -8.765   1.711   1.030  1.00  0.00     0.089 A 
ATOM     16  C   UNL     1      -6.539   0.865   0.637  1.00  0.00     0.062 A 
ATOM     17  C   UNL     1      -9.208   0.406   1.229  1.00  0.00     0.169 A 
ATOM     18  C   UNL     1      -8.335  -0.676   1.134  1.00  0.00     0.162 A 
ATOM     19  F   UNL     1     -10.504   0.206   1.509  1.00  0.00    -0.203 F 
BRANCH  14  20
ATOM     20  O   UNL     1      -6.857   3.167   0.491  1.00  0.00    -0.497 OA
ATOM     21  C   UNL     1      -7.732   4.290   0.447  1.00  0.00     0.278 C 
ENDBRANCH  14  20
BRANCH  18  22
ATOM     22  O   UNL     1      -8.850  -1.933   1.317  1.00  0.00    -0.504 OA
ATOM     23  H   UNL     1      -8.173  -2.586   1.030  1.00  0.00     0.293 HD
ENDBRANCH  18  22
ENDBRANCH  11  13
ENDBRANCH   6  11
ENDBRANCH   1   5
BRANCH   3  24
ATOM     24  C   UNL     1       1.900  -1.062   0.596  1.00  0.00     0.110 C 
ATOM     25  C   UNL     1       2.567  -2.347   1.098  1.00  0.00     0.081 C 
ATOM     26  C   UNL     1       2.537  -0.587  -0.733  1.00  0.00     0.119 C 
ATOM     27  C   UNL     1       2.610  -3.423   0.019  1.00  0.00     0.239 C 
ATOM     28  C   UNL     1       2.638  -1.759  -1.744  1.00  0.00     0.114 C 
ATOM     29  N   UNL     1       3.232  -3.002  -1.234  1.00  0.00    -0.275 NA
ATOM     30  F   UNL     1       3.293  -4.491   0.513  1.00  0.00    -0.230 F 
ATOM     31  C   UNL     1       4.686  -2.961  -1.159  1.00  0.00     0.108 C 
BRANCH  26  32
ATOM     32  N   UNL     1       3.834   0.064  -0.507  1.00  0.00    -0.346 N 
ATOM     33  C   UNL     1       4.377   0.906  -1.456  1.00  0.00     0.254 C 
ATOM     34  H   UNL     1       4.295  -0.090   0.380  1.00  0.00     0.164 HD
ATOM     35  O   UNL     1       3.801   1.186  -2.501  1.00  0.00    -0.269 OA
BRANCH  33  36
ATOM     36  C   UNL     1       5.697   1.498  -1.175  1.00  0.00     0.076 A 
ATOM     37  C   UNL     1       6.108   2.626  -1.854  1.00  0.00     0.132 A 
ATOM     38  C   UNL     1       6.614   0.991  -0.282  1.00  0.00     0.132 A 
ATOM     39  N   UNL     1       7.303   3.230  -1.657  1.00  0.00    -0.203 NA
ATOM     40  N   UNL     1       7.819   1.552  -0.043  1.00  0.00    -0.203 NA
ATOM     41  C   UNL     1       8.110   2.658  -0.747  1.00  0.00     0.316 A 
BRANCH  41  42
ATOM     42  O   UNL     1       9.342   3.206  -0.474  1.00  0.00    -0.467 OA
ATOM     43  C   UNL     1       9.618   4.371  -1.240  1.00  0.00     0.282 C 
ENDBRANCH  41  42
ENDBRANCH  33  36
ENDBRANCH  26  32
ENDBRANCH   3  24
TORSDOF 9
