REMARK SMILES COc1cc(F)c(O)c(C(=O)c2ccc(S(=O)(=O)N[C@@H]3CCN(C)C[C@H]3NC(=O)c3cnc(OC)nc3)cc2)c1
REMARK SMILES IDX 16 1 17 2 18 3 15 4 12 5 13 6 39 7 14 8 38 9 10 10 11 11
REMARK SMILES IDX 9 12 3 13 4 14 40 15 5 16 7 17 6 18 2 19 1 20 8 21 19 23
REMARK SMILES IDX 20 25 21 26 26 27 22 28 25 29 23 30 24 31 27 32 28 33 29 35
REMARK SMILES IDX 30 36 31 37 37 38 32 39 36 40 33 41 34 42 35 43
REMARK H PARENT 8 22 19 24 27 34
ROOT
ATOM      1  S   UNL     1       0.473   1.322  -1.392  1.00  0.00     0.240 S 
ATOM      2  O   UNL     1       0.179   2.317  -2.395  1.00  0.00    -0.207 OA
ATOM      3  O   UNL     1       1.731   0.603  -1.371  1.00  0.00    -0.207 OA
ENDROOT
BRANCH   1   4
ATOM      4  C   UNL     1      -0.864   0.154  -1.369  1.00  0.00     0.082 A 
ATOM      5  C   UNL     1      -2.973  -1.681  -1.354  1.00  0.00     0.023 A 
ATOM      6  C   UNL     1      -3.205  -0.347  -1.722  1.00  0.00     0.013 A 
ATOM      7  C   UNL     1      -1.673  -2.090  -1.020  1.00  0.00     0.013 A 
ATOM      8  C   UNL     1      -2.149   0.571  -1.729  1.00  0.00     0.022 A 
ATOM      9  C   UNL     1      -0.616  -1.178  -1.032  1.00  0.00     0.022 A 
BRANCH   5  10
ATOM     10  C   UNL     1      -4.065  -2.692  -1.282  1.00  0.00     0.196 C 
ATOM     11  O   UNL     1      -3.824  -3.870  -1.026  1.00  0.00    -0.288 OA
BRANCH  10  12
ATOM     12  C   UNL     1      -5.474  -2.292  -1.427  1.00  0.00     0.071 A 
ATOM     13  C   UNL     1      -7.462  -1.346  -0.414  1.00  0.00     0.122 A 
ATOM     14  C   UNL     1      -8.168  -1.617  -1.590  1.00  0.00     0.089 A 
ATOM     15  C   UNL     1      -6.113  -1.699  -0.326  1.00  0.00     0.062 A 
ATOM     16  C   UNL     1      -7.520  -2.211  -2.669  1.00  0.00     0.169 A 
ATOM     17  C   UNL     1      -6.173  -2.548  -2.603  1.00  0.00     0.162 A 
ATOM     18  F   UNL     1      -8.205  -2.463  -3.795  1.00  0.00    -0.203 F 
BRANCH  13  19
ATOM     19  O   UNL     1      -8.205  -0.760   0.572  1.00  0.00    -0.497 OA
ATOM     20  C   UNL     1      -7.521  -0.376   1.758  1.00  0.00     0.278 C 
ENDBRANCH  13  19
BRANCH  17  21
ATOM     21  O   UNL     1      -5.557  -3.107  -3.686  1.00  0.00    -0.504 OA
ATOM     22  H   UNL     1      -6.258  -3.338  -4.329  1.00  0.00     0.293 HD
ENDBRANCH  17  21
ENDBRANCH  10  12
ENDBRANCH   5  10
ENDBRANCH   1   4
BRANCH   1  23
ATOM     23  N   UNL     1       0.297   2.085   0.090  1.00  0.00    -0.206 NA
ATOM     24  H   UNL     1       0.245   3.103   0.023  1.00  0.00     0.141 HD
BRANCH  23  25
ATOM     25  C   UNL     1       0.870   1.475   1.310  1.00  0.00     0.095 C 
ATOM     26  C   UNL     1      -0.040   1.772   2.494  1.00  0.00     0.038 C 
ATOM     27  C   UNL     1       2.307   2.009   1.574  1.00  0.00     0.114 C 
ATOM     28  C   UNL     1       0.461   1.025   3.735  1.00  0.00     0.086 C 
ATOM     29  C   UNL     1       2.609   2.024   3.100  1.00  0.00     0.110 C 
ATOM     30  N   UNL     1       1.918   1.004   3.899  1.00  0.00    -0.304 NA
ATOM     31  C   UNL     1       2.493  -0.326   3.713  1.00  0.00     0.105 C 
BRANCH  27  32
ATOM     32  N   UNL     1       3.290   1.263   0.775  1.00  0.00    -0.346 N 
ATOM     33  C   UNL     1       4.602   1.684   0.683  1.00  0.00     0.254 C 
ATOM     34  H   UNL     1       2.907   0.821  -0.062  1.00  0.00     0.164 HD
ATOM     35  O   UNL     1       5.066   2.599   1.353  1.00  0.00    -0.269 OA
BRANCH  33  36
ATOM     36  C   UNL     1       5.468   0.992  -0.293  1.00  0.00     0.076 A 
ATOM     37  C   UNL     1       6.692   1.525  -0.639  1.00  0.00     0.132 A 
ATOM     38  C   UNL     1       5.175  -0.215  -0.888  1.00  0.00     0.132 A 
ATOM     39  N   UNL     1       7.552   0.948  -1.511  1.00  0.00    -0.203 NA
ATOM     40  N   UNL     1       5.994  -0.840  -1.765  1.00  0.00    -0.203 NA
ATOM     41  C   UNL     1       7.152  -0.220  -2.041  1.00  0.00     0.316 A 
BRANCH  41  42
ATOM     42  O   UNL     1       7.952  -0.884  -2.941  1.00  0.00    -0.467 OA
ATOM     43  C   UNL     1       9.172  -0.207  -3.206  1.00  0.00     0.282 C 
ENDBRANCH  41  42
ENDBRANCH  33  36
ENDBRANCH  27  32
ENDBRANCH  23  25
ENDBRANCH   1  23
TORSDOF 10
