MODEL        8USER    Run = 8USERUSER    Estimated Free Energy of Binding    = -10.29 kcal/mol  [=(1)+(2)+(3)-(4)]USERUSER    (1) Final Intermolecular Energy     = -12.98 kcal/molUSER        vdW + Hbond + desolv Energy     = -12.47 kcal/molUSER        Electrostatic Energy            =  -0.50 kcal/molUSER        Moving Ligand-Fixed Receptor    = -12.98 kcal/molUSER        Moving Ligand-Moving Receptor   =  +0.00 kcal/molUSER    (2) Final Total Internal Energy     =  -1.95 kcal/molUSER    (3) Torsional Free Energy           =  +2.68 kcal/molUSER    (4) Unbound System's Energy         =  -1.95 kcal/molUSERUSERREMARK SMILES COc1ncc(C(=O)N[C@@H]2CN(C)CC[C@H]2NC(=O)c2ccc(C(=O)c3c(O)c(F)cc(OC)c3F)cc2)cn1REMARK SMILES IDX 17 1 18 2 19 3 16 5 10 6 11 7 12 8 15 9 14 10 13 11 9 12REMARK SMILES IDX 7 13 8 14 6 16 3 17 4 18 40 19 5 20 39 21 2 22 1 23 20 24REMARK SMILES IDX 21 25 38 26 22 27 37 28 23 29 24 30 25 31 26 32 27 33 35 34REMARK SMILES IDX 29 35 32 36 31 37 36 38 30 39 28 40 33 42 34 43REMARK H PARENT 17 4 9 15 28 41USER                              x       y       z     vdW  Elec       q    TypeUSER                           _______ _______ _______ _____ _____    ______ ____ROOTATOM      1  N   UNL     1      38.764  45.931  16.849 -0.16 +0.09    -0.347 N  ATOM      2  C   UNL     1      39.661  46.977  16.929 -0.35 -0.06    +0.251 C  ATOM      3  O   UNL     1      39.638  47.956  16.184 -0.35 +0.09    -0.269 OA ATOM      4  H   UNL     1      38.838  45.157  17.497 +0.10 -0.03    +0.164 HD ENDROOTBRANCH   1   5ATOM      5  C   UNL     1      37.922  45.735  15.669 -0.35 -0.04    +0.107 C  ATOM      6  C   UNL     1      36.487  46.281  15.915 -0.35 -0.08    +0.118 C  ATOM      7  C   UNL     1      35.855  46.843  14.619 -0.34 -0.10    +0.111 C  ATOM      8  N   UNL     1      36.250  46.031  13.460 -0.24 +0.15    -0.304 NA ATOM      9  C   UNL     1      38.542  46.393  14.441 -0.46 -0.01    +0.042 C  ATOM     10  C   UNL     1      37.698  46.109  13.190 -0.39 -0.03    +0.086 C  ATOM     11  C   UNL     1      35.478  46.380  12.269 -0.41 -0.06    +0.105 C  BRANCH   6  12ATOM     12  N   UNL     1      35.648  45.237  16.503 -0.09 +0.20    -0.346 N  ATOM     13  C   UNL     1      35.917  44.686  17.733 -0.21 -0.09    +0.254 C  ATOM     14  O   UNL     1      36.888  44.992  18.419 -0.23 +0.06    -0.269 OA ATOM     15  H   UNL     1      34.756  45.075  16.050 +0.12 -0.11    +0.164 HD BRANCH  13  16ATOM     16  C   UNL     1      34.941  43.704  18.238 -0.27 -0.02    +0.076 A  ATOM     17  C   UNL     1      33.236  41.805  19.144 -0.14 -0.00    +0.316 A  ATOM     18  N   UNL     1      33.927  41.532  18.027 -0.30 +0.06    -0.203 NA ATOM     19  N   UNL     1      33.298  42.956  19.837 -0.77 -0.02    -0.203 NA ATOM     20  C   UNL     1      34.764  42.502  17.589 -0.32 -0.04    +0.132 A  ATOM     21  C   UNL     1      34.149  43.893  19.353 -0.31 -0.02    +0.132 A  BRANCH  17  22ATOM     22  O   UNL     1      32.415  40.786  19.580 -0.52 -0.09    -0.467 OA ATOM     23  C   UNL     1      31.780  40.088  18.515 -0.28 -0.01    +0.282 C  ENDBRANCH  17  22ENDBRANCH  13  16ENDBRANCH   6  12ENDBRANCH   1   5BRANCH   2  24ATOM     24  C   UNL     1      40.662  46.906  18.028 -0.48 -0.00    +0.039 A  ATOM     25  C   UNL     1      41.786  47.740  17.965 -0.51 -0.00    +0.014 A  ATOM     26  C   UNL     1      40.516  46.033  19.114 -0.44 -0.00    +0.014 A  ATOM     27  C   UNL     1      42.721  47.754  19.006 -0.48 +0.00    +0.013 A  ATOM     28  C   UNL     1      41.446  46.057  20.158 -0.39 +0.00    +0.013 A  ATOM     29  C   UNL     1      42.536  46.938  20.128 -0.42 +0.00    +0.023 A  BRANCH  29  30ATOM     30  C   UNL     1      43.441  46.965  21.313 -0.30 +0.07    +0.199 C  ATOM     31  O   UNL     1      44.661  47.051  21.170 -0.69 -0.30    -0.288 OA BRANCH  30  32ATOM     32  C   UNL     1      42.916  46.827  22.673 -0.21 +0.02    +0.107 A  ATOM     33  C   UNL     1      42.651  47.945  23.462 -0.25 +0.03    +0.165 A  ATOM     34  C   UNL     1      42.638  45.552  23.159 -0.08 +0.03    +0.180 A  ATOM     35  C   UNL     1      42.118  47.769  24.732 -0.16 +0.02    +0.169 A  ATOM     36  C   UNL     1      42.097  45.377  24.439 -0.04 +0.01    +0.158 A  ATOM     37  C   UNL     1      41.831  46.500  25.228 -0.07 +0.01    +0.092 A  ATOM     38  F   UNL     1      42.939  44.472  22.417 -0.04 -0.04    -0.202 F  ATOM     39  F   UNL     1      41.892  48.846  25.499 -0.10 -0.03    -0.203 F  BRANCH  33  40ATOM     40  O   UNL     1      42.930  49.206  23.013 -0.76 -0.21    -0.504 OA ATOM     41  H   UNL     1      43.575  49.134  22.282 -0.37 +0.05    +0.293 HD ENDBRANCH  33  40BRANCH  36  42ATOM     42  O   UNL     1      41.886  44.080  24.822 +0.01 -0.01    -0.494 OA ATOM     43  C   UNL     1      43.035  43.309  25.161 -0.06 -0.01    +0.278 C  ENDBRANCH  36  42ENDBRANCH  30  32ENDBRANCH  29  30ENDBRANCH   2  24TORSDOF 9TERENDMDL