MODEL        2USER    Run = 2USERUSER    Estimated Free Energy of Binding    = -10.12 kcal/mol  [=(1)+(2)+(3)-(4)]USERUSER    (1) Final Intermolecular Energy     = -13.11 kcal/molUSER        vdW + Hbond + desolv Energy     = -12.52 kcal/molUSER        Electrostatic Energy            =  -0.58 kcal/molUSER        Moving Ligand-Fixed Receptor    = -13.11 kcal/molUSER        Moving Ligand-Moving Receptor   =  +0.00 kcal/molUSER    (2) Final Total Internal Energy     =  -2.38 kcal/molUSER    (3) Torsional Free Energy           =  +2.98 kcal/molUSER    (4) Unbound System's Energy         =  -2.38 kcal/molUSERUSERREMARK SMILES COc1cc(F)c(O)c(C(=O)c2ccc(C(=O)N[C@@H]3CCN(C)C[C@H]3[C@H](C)NC(=O)c3cnc(OC)nc3)cc2)c1REMARK SMILES IDX 19 1 20 2 21 3 22 4 23 5 24 6 25 7 18 8 16 9 17 10 15 12REMARK SMILES IDX 12 13 13 14 40 15 14 16 39 17 10 18 11 19 9 20 3 21 4 22REMARK SMILES IDX 41 23 5 24 7 25 6 26 2 27 1 28 8 29 26 31 27 32 28 33 29 34REMARK SMILES IDX 30 36 31 37 32 38 38 39 33 40 37 41 34 42 35 43 36 44REMARK H PARENT 18 11 8 30 28 35USER                              x       y       z     vdW  Elec       q    TypeUSER                           _______ _______ _______ _____ _____    ______ ____ROOTATOM      1  C   UNL     1      35.399  45.322  16.214 -0.33 -0.06    +0.090 C  ATOM      2  C   UNL     1      35.421  46.638  15.422 -0.20 -0.05    +0.041 C  ATOM      3  C   UNL     1      35.556  46.418  13.920 -0.46 -0.06    +0.086 C  ATOM      4  N   UNL     1      36.742  45.605  13.622 -0.22 +0.13    -0.306 NA ATOM      5  C   UNL     1      36.928  45.496  12.174 -0.55 -0.04    +0.105 C  ATOM      6  C   UNL     1      36.609  44.275  14.224 -0.19 -0.03    +0.092 C  ATOM      7  C   UNL     1      36.481  44.310  15.760 -0.40 -0.02    +0.048 C  ENDROOTBRANCH   1   8ATOM      8  N   UNL     1      34.063  44.712  16.133 -0.09 +0.21    -0.349 N  ATOM      9  C   UNL     1      33.785  43.498  16.733 -0.22 -0.11    +0.251 C  ATOM     10  O   UNL     1      34.617  42.851  17.358 -0.24 +0.09    -0.269 OA ATOM     11  H   UNL     1      33.390  45.118  15.499 +0.10 -0.12    +0.164 HD BRANCH   9  12ATOM     12  C   UNL     1      32.402  42.963  16.566 -0.29 -0.02    +0.039 A  ATOM     13  C   UNL     1      29.789  42.022  16.147 -0.31 -0.01    +0.023 A  ATOM     14  C   UNL     1      30.611  41.419  17.107 -0.31 -0.00    +0.013 A  ATOM     15  C   UNL     1      30.287  43.071  15.368 -0.25 -0.01    +0.013 A  ATOM     16  C   UNL     1      31.913  41.887  17.317 -0.30 -0.00    +0.014 A  ATOM     17  C   UNL     1      31.586  43.541  15.583 -0.35 -0.01    +0.014 A  BRANCH  13  18ATOM     18  C   UNL     1      28.426  41.473  15.938 -0.24 -0.07    +0.196 C  ATOM     19  O   UNL     1      28.283  40.258  15.804 -0.29 -0.02    -0.288 OA BRANCH  18  20ATOM     20  C   UNL     1      27.221  42.334  15.857 -0.20 -0.03    +0.071 A  ATOM     21  C   UNL     1      25.943  44.270  16.581 -0.29 -0.00    +0.122 A  ATOM     22  C   UNL     1      24.945  43.938  15.664 -0.26 +0.00    +0.089 A  ATOM     23  C   UNL     1      27.081  43.464  16.682 -0.22 -0.01    +0.062 A  ATOM     24  C   UNL     1      25.071  42.803  14.871 -0.24 -0.03    +0.169 A  ATOM     25  C   UNL     1      26.195  41.987  14.969 -0.21 -0.08    +0.162 A  ATOM     26  F   UNL     1      24.084  42.498  14.016 +0.09 -0.01    -0.203 F  BRANCH  21  27ATOM     27  O   UNL     1      25.694  45.398  17.312 -0.53 -0.13    -0.497 OA ATOM     28  C   UNL     1      26.036  45.373  18.691 -0.35 -0.01    +0.278 C  ENDBRANCH  21  27BRANCH  25  29ATOM     29  O   UNL     1      26.252  40.867  14.181 -0.16 +0.31    -0.504 OA ATOM     30  H   UNL     1      27.195  40.696  13.963 +0.03 -0.31    +0.293 HD ENDBRANCH  25  29ENDBRANCH  18  20ENDBRANCH  13  18ENDBRANCH   9  12ENDBRANCH   1   8BRANCH   7  31ATOM     31  C   UNL     1      37.831  44.473  16.521 -0.25 -0.02    +0.085 C  ATOM     32  C   UNL     1      37.767  44.478  18.045 -0.38 -0.01    +0.031 C  BRANCH  31  33ATOM     33  N   UNL     1      38.546  45.676  16.073 -0.12 +0.10    -0.349 N  ATOM     34  C   UNL     1      39.664  46.152  16.729 -0.31 -0.04    +0.254 C  ATOM     35  H   UNL     1      38.143  46.182  15.296 +0.12 -0.06    +0.164 HD ATOM     36  O   UNL     1      40.134  45.624  17.730 -0.28 +0.02    -0.269 OA BRANCH  34  37ATOM     37  C   UNL     1      40.301  47.366  16.190 -0.46 -0.01    +0.076 A  ATOM     38  C   UNL     1      40.239  47.767  14.873 -0.40 -0.02    +0.132 A  ATOM     39  C   UNL     1      41.061  48.173  17.010 -0.41 -0.01    +0.132 A  ATOM     40  N   UNL     1      40.841  48.880  14.399 -0.41 +0.04    -0.203 NA ATOM     41  N   UNL     1      41.685  49.298  16.591 -0.93 -0.03    -0.203 NA ATOM     42  C   UNL     1      41.541  49.602  15.289 -0.30 -0.03    +0.316 A  BRANCH  42  43ATOM     43  O   UNL     1      42.143  50.726  14.770 -0.43 +0.08    -0.467 OA ATOM     44  C   UNL     1      42.544  50.568  13.416 -0.48 -0.08    +0.282 C  ENDBRANCH  42  43ENDBRANCH  34  37ENDBRANCH  31  33ENDBRANCH   7  31TORSDOF 10TERENDMDL