REMARK SMILES CCNC(=O)C1CCN(Cc2ccc(Cl)cc2NC(=O)c2ccc(CN3C[C@H](NC)[C@@H](O)C3)cc2)CC1
REMARK SMILES IDX 11 1 12 2 13 3 14 4 15 5 16 6 17 7 10 8 9 9 6 10 7 11 37 12
REMARK SMILES IDX 8 13 36 14 4 15 3 16 5 18 2 19 1 20 18 21 19 22 20 24 21 25
REMARK SMILES IDX 22 26 35 27 23 28 34 29 24 30 25 31 26 32 33 33 27 34 31 35
REMARK SMILES IDX 28 36 32 37 29 39 30 40
REMARK H PARENT 3 17 18 23 32 38 29 41
ROOT
ATOM      1  C   UNL     1      -2.731  -3.571  -0.890  1.00  0.00    -0.010 A 
ATOM      2  C   UNL     1      -3.916  -4.329  -1.011  1.00  0.00     0.009 A 
ATOM      3  C   UNL     1      -4.183  -5.409  -0.169  1.00  0.00     0.021 A 
ATOM      4  C   UNL     1      -3.269  -5.745   0.818  1.00  0.00     0.043 A 
ATOM      5  Cl  UNL     1      -3.601  -7.058   1.881  1.00  0.00    -0.084 Cl
ATOM      6  C   UNL     1      -2.079  -5.033   0.948  1.00  0.00     0.047 A 
ATOM      7  C   UNL     1      -1.780  -3.978   0.071  1.00  0.00     0.047 A 
ENDROOT
BRANCH   1   8
ATOM      8  C   UNL     1      -2.619  -2.306  -1.731  1.00  0.00     0.122 C 
BRANCH   8   9
ATOM      9  N   UNL     1      -3.236  -1.100  -1.162  1.00  0.00    -0.299 NA
ATOM     10  C   UNL     1      -4.823   0.608   0.660  1.00  0.00     0.081 C 
ATOM     11  C   UNL     1      -5.397  -0.657   0.006  1.00  0.00     0.029 C 
ATOM     12  C   UNL     1      -3.292   0.678   0.524  1.00  0.00     0.029 C 
ATOM     13  C   UNL     1      -4.684  -0.983  -1.307  1.00  0.00     0.085 C 
ATOM     14  C   UNL     1      -2.680  -0.659   0.108  1.00  0.00     0.085 C 
BRANCH  10  15
ATOM     15  C   UNL     1      -5.471   1.874   0.097  1.00  0.00     0.223 C 
ATOM     16  N   UNL     1      -5.044   3.034   0.716  1.00  0.00    -0.356 N 
ATOM     17  H   UNL     1      -4.582   2.944   1.610  1.00  0.00     0.163 HD
ATOM     18  O   UNL     1      -6.307   1.866  -0.801  1.00  0.00    -0.275 OA
BRANCH  16  19
ATOM     19  C   UNL     1      -5.644   4.311   0.388  1.00  0.00     0.112 C 
ATOM     20  C   UNL     1      -4.753   5.464   0.810  1.00  0.00     0.027 C 
ENDBRANCH  16  19
ENDBRANCH  10  15
ENDBRANCH   8   9
ENDBRANCH   1   8
BRANCH   7  21
ATOM     21  N   UNL     1      -0.522  -3.359   0.265  1.00  0.00    -0.322 N 
ATOM     22  C   UNL     1       0.378  -3.119  -0.762  1.00  0.00     0.255 C 
ATOM     23  H   UNL     1      -0.077  -3.532   1.158  1.00  0.00     0.170 HD
ATOM     24  O   UNL     1       0.242  -3.481  -1.926  1.00  0.00    -0.269 OA
BRANCH  22  25
ATOM     25  C   UNL     1       1.636  -2.432  -0.349  1.00  0.00     0.040 A 
ATOM     26  C   UNL     1       1.677  -1.575   0.760  1.00  0.00     0.014 A 
ATOM     27  C   UNL     1       2.791  -2.626  -1.114  1.00  0.00     0.014 A 
ATOM     28  C   UNL     1       2.868  -0.932   1.106  1.00  0.00     0.006 A 
ATOM     29  C   UNL     1       3.981  -1.984  -0.765  1.00  0.00     0.006 A 
ATOM     30  C   UNL     1       4.030  -1.127   0.345  1.00  0.00    -0.034 A 
BRANCH  30  31
ATOM     31  C   UNL     1       5.320  -0.420   0.713  1.00  0.00     0.120 C 
BRANCH  31  32
ATOM     32  N   UNL     1       5.852   0.408  -0.386  1.00  0.00    -0.295 NA
ATOM     33  C   UNL     1       7.154   0.997  -0.008  1.00  0.00     0.118 C 
ATOM     34  C   UNL     1       5.014   1.592  -0.667  1.00  0.00     0.106 C 
ATOM     35  C   UNL     1       6.881   2.344   0.681  1.00  0.00     0.146 C 
ATOM     36  C   UNL     1       5.393   2.642   0.391  1.00  0.00     0.097 C 
BRANCH  35  37
ATOM     37  O   UNL     1       7.096   2.240   2.092  1.00  0.00    -0.390 OA
ATOM     38  H   UNL     1       8.059   2.234   2.232  1.00  0.00     0.211 HD
ENDBRANCH  35  37
BRANCH  36  39
ATOM     39  N   UNL     1       5.064   4.050   0.106  1.00  0.00    -0.313 NA
ATOM     40  C   UNL     1       5.546   4.552  -1.171  1.00  0.00     0.101 C 
ATOM     41  H   UNL     1       4.051   4.164   0.141  1.00  0.00     0.122 HD
ENDBRANCH  36  39
ENDBRANCH  31  32
ENDBRANCH  30  31
ENDBRANCH  22  25
ENDBRANCH   7  21
TORSDOF 10
