MODEL        7USER    Run = 7USERUSER    Estimated Free Energy of Binding    =  -9.11 kcal/mol  [=(1)+(2)+(3)-(4)]USERUSER    (1) Final Intermolecular Energy     = -11.49 kcal/molUSER        vdW + Hbond + desolv Energy     = -11.18 kcal/molUSER        Electrostatic Energy            =  -0.31 kcal/molUSER        Moving Ligand-Fixed Receptor    = -11.49 kcal/molUSER        Moving Ligand-Moving Receptor   =  +0.00 kcal/molUSER    (2) Final Total Internal Energy     =  -1.49 kcal/molUSER    (3) Torsional Free Energy           =  +2.39 kcal/molUSER    (4) Unbound System's Energy         =  -1.49 kcal/molUSERUSERREMARK SMILES CNC(=O)[C@H](N)CCNc1ccc2c(-c3cccc(OC)c3C)n[nH]c2c1REMARK SMILES IDX 8 1 7 2 5 3 3 4 2 5 1 6 4 8 6 9 9 12 10 14 11 15 27 16 12 17REMARK SMILES IDX 26 18 13 19 25 20 14 21 24 22 15 24 16 25 22 26 17 27 19 28REMARK SMILES IDX 18 29 23 30 20 31 21 32REMARK H PARENT 2 7 6 10 6 11 9 13 25 23USER                              x       y       z     vdW  Elec       q    TypeUSER                           _______ _______ _______ _____ _____    ______ ____ROOTATOM      1  C   UNL     1      32.328  43.121  19.507 -0.37 +0.00    +0.115 C  ENDROOTBRANCH   1   2ATOM      2  C   UNL     1      32.134  42.829  18.017 -0.34 -0.01    +0.050 C  BRANCH   2   3ATOM      3  C   UNL     1      32.477  41.381  17.633 -0.32 -0.05    +0.142 C  BRANCH   3   4ATOM      4  C   UNL     1      31.826  40.376  18.605 -0.30 -0.01    +0.236 C  ATOM      5  N   UNL     1      30.537  40.001  18.275 -0.12 -0.01    -0.358 N  ATOM      6  C   UNL     1      29.771  39.134  19.132 -0.29 +0.02    +0.142 C  ATOM      7  H   UNL     1      30.077  40.435  17.487 +0.09 -0.01    +0.163 HD ATOM      8  O   UNL     1      32.403  39.976  19.612 -0.77 -0.10    -0.273 OA ENDBRANCH   3   4BRANCH   3   9ATOM      9  N   UNL     1      33.939  41.141  17.584 -0.11 +0.15    -0.320 NA ATOM     10  H   UNL     1      34.189  40.966  16.606 -0.51 -0.10    +0.119 HD ATOM     11  H   UNL     1      34.158  40.273  18.071 -0.38 -0.05    +0.119 HD ENDBRANCH   3   9ENDBRANCH   2   3ENDBRANCH   1   2BRANCH   1  12ATOM     12  N   UNL     1      32.807  44.487  19.689 -0.19 +0.06    -0.385 N  ATOM     13  H   UNL     1      32.807  44.736  20.687 -0.43 -0.03    +0.160 HD BRANCH  12  14ATOM     14  C   UNL     1      34.008  44.880  19.078 -0.38 -0.01    +0.036 A  ATOM     15  C   UNL     1      33.942  45.845  18.060 -0.45 -0.02    +0.026 A  ATOM     16  C   UNL     1      35.238  44.259  19.339 -0.35 -0.01    +0.054 A  ATOM     17  C   UNL     1      35.076  46.259  17.344 -0.38 -0.01    +0.015 A  ATOM     18  C   UNL     1      36.364  44.687  18.622 -0.30 -0.02    +0.068 A  ATOM     19  C   UNL     1      36.314  45.666  17.640 -0.32 -0.01    +0.028 A  ATOM     20  N   UNL     1      37.675  44.301  18.674 -0.18 +0.04    -0.277 N  ATOM     21  C   UNL     1      37.657  45.790  17.170 -0.31 -0.03    +0.100 A  ATOM     22  N   UNL     1      38.479  44.950  17.818 -0.27 +0.03    -0.174 NA ATOM     23  H   UNL     1      38.087  43.600  19.278 +0.12 -0.01    +0.190 HD BRANCH  21  24ATOM     24  C   UNL     1      38.149  46.670  16.112 -0.40 -0.00    +0.009 A  ATOM     25  C   UNL     1      39.116  47.628  16.454 -0.44 -0.00    +0.011 A  ATOM     26  C   UNL     1      37.683  46.581  14.782 -0.42 -0.00    +0.000 A  ATOM     27  C   UNL     1      39.611  48.504  15.493 -0.55 -0.00    +0.005 A  ATOM     28  C   UNL     1      38.171  47.495  13.821 -0.41 -0.04    +0.122 A  ATOM     29  C   UNL     1      39.138  48.440  14.184 -0.42 -0.02    +0.047 A  ATOM     30  C   UNL     1      36.634  45.566  14.398 -0.43 -0.02    +0.049 C  BRANCH  28  31ATOM     31  O   UNL     1      37.647  47.378  12.558 -0.79 +0.09    -0.496 OA ATOM     32  C   UNL     1      36.331  47.870  12.342 -0.45 -0.12    +0.278 C  ENDBRANCH  28  31ENDBRANCH  21  24ENDBRANCH  12  14ENDBRANCH   1  12TORSDOF 8TERENDMDL