REMARK SMILES CNC(=O)[C@H](N)CCNc1ccc2c(-c3cccc(OC)c3C)n[nH]c2c1
REMARK SMILES IDX 8 1 7 2 5 3 3 4 2 5 1 6 4 8 6 9 9 12 10 14 11 15 27 16 12 17
REMARK SMILES IDX 26 18 13 19 25 20 14 21 24 22 15 24 16 25 22 26 17 27 19 28
REMARK SMILES IDX 18 29 23 30 20 31 21 32
REMARK H PARENT 2 7 6 10 6 11 9 13 25 23
ROOT
ATOM      1  C   UNL     1      -3.431   0.382   1.259  1.00  0.00     0.115 C 
ENDROOT
BRANCH   1   2
ATOM      2  C   UNL     1      -4.866  -0.106   1.038  1.00  0.00     0.050 C 
BRANCH   2   3
ATOM      3  C   UNL     1      -5.298  -0.069  -0.436  1.00  0.00     0.142 C 
BRANCH   3   4
ATOM      4  C   UNL     1      -6.819  -0.283  -0.578  1.00  0.00     0.236 C 
ATOM      5  N   UNL     1      -7.290  -1.470  -0.050  1.00  0.00    -0.358 N 
ATOM      6  C   UNL     1      -8.674  -1.847  -0.181  1.00  0.00     0.142 C 
ATOM      7  H   UNL     1      -6.637  -2.144   0.326  1.00  0.00     0.163 HD
ATOM      8  O   UNL     1      -7.540   0.528  -1.151  1.00  0.00    -0.273 OA
ENDBRANCH   3   4
BRANCH   3   9
ATOM      9  N   UNL     1      -4.581  -1.070  -1.261  1.00  0.00    -0.320 NA
ATOM     10  H   UNL     1      -4.854  -0.918  -2.236  1.00  0.00     0.119 HD
ATOM     11  H   UNL     1      -4.921  -2.004  -1.035  1.00  0.00     0.119 HD
ENDBRANCH   3   9
ENDBRANCH   2   3
ENDBRANCH   1   2
BRANCH   1  12
ATOM     12  N   UNL     1      -2.486  -0.591   0.722  1.00  0.00    -0.385 N 
ATOM     13  H   UNL     1      -2.810  -0.937  -0.191  1.00  0.00     0.160 HD
BRANCH  12  14
ATOM     14  C   UNL     1      -1.121  -0.269   0.676  1.00  0.00     0.036 A 
ATOM     15  C   UNL     1      -0.302  -1.003  -0.197  1.00  0.00     0.026 A 
ATOM     16  C   UNL     1      -0.521   0.647   1.553  1.00  0.00     0.054 A 
ATOM     17  C   UNL     1       1.085  -0.802  -0.271  1.00  0.00     0.015 A 
ATOM     18  C   UNL     1       0.864   0.843   1.463  1.00  0.00     0.068 A 
ATOM     19  C   UNL     1       1.675   0.148   0.578  1.00  0.00     0.028 A 
ATOM     20  N   UNL     1       1.711   1.671   2.148  1.00  0.00    -0.277 N 
ATOM     21  C   UNL     1       2.994   0.642   0.816  1.00  0.00     0.100 A 
ATOM     22  N   UNL     1       2.997   1.579   1.778  1.00  0.00    -0.174 NA
ATOM     23  H   UNL     1       1.470   2.328   2.880  1.00  0.00     0.190 HD
BRANCH  21  24
ATOM     24  C   UNL     1       4.231   0.221   0.162  1.00  0.00     0.009 A 
ATOM     25  C   UNL     1       4.668  -1.096   0.372  1.00  0.00     0.011 A 
ATOM     26  C   UNL     1       4.982   1.092  -0.659  1.00  0.00     0.000 A 
ATOM     27  C   UNL     1       5.847  -1.549  -0.212  1.00  0.00     0.005 A 
ATOM     28  C   UNL     1       6.192   0.630  -1.223  1.00  0.00     0.122 A 
ATOM     29  C   UNL     1       6.607  -0.689  -1.003  1.00  0.00     0.047 A 
ATOM     30  C   UNL     1       4.534   2.515  -0.886  1.00  0.00     0.049 C 
BRANCH  28  31
ATOM     31  O   UNL     1       6.891   1.539  -1.977  1.00  0.00    -0.496 OA
ATOM     32  C   UNL     1       8.178   1.157  -2.444  1.00  0.00     0.278 C 
ENDBRANCH  28  31
ENDBRANCH  21  24
ENDBRANCH  12  14
ENDBRANCH   1  12
TORSDOF 8
