MODEL        3USER    Run = 3USERUSER    Estimated Free Energy of Binding    =  -8.43 kcal/mol  [=(1)+(2)+(3)-(4)]USERUSER    (1) Final Intermolecular Energy     = -11.11 kcal/molUSER        vdW + Hbond + desolv Energy     = -10.85 kcal/molUSER        Electrostatic Energy            =  -0.27 kcal/molUSER        Moving Ligand-Fixed Receptor    = -11.11 kcal/molUSER        Moving Ligand-Moving Receptor   =  +0.00 kcal/molUSER    (2) Final Total Internal Energy     =  -2.07 kcal/molUSER    (3) Torsional Free Energy           =  +2.68 kcal/molUSER    (4) Unbound System's Energy         =  -2.07 kcal/molUSERUSERREMARK SMILES C[C@H](O)Cn1cnc2c(NCc3ccc(F)cc3)nc(Nc3cccc(O)c3)nc21REMARK SMILES IDX 5 1 6 2 7 3 8 4 9 5 19 6 20 7 29 8 30 9 4 10 2 11 1 12 3 13REMARK SMILES IDX 21 15 22 17 23 18 28 19 24 20 26 21 25 22 27 23 10 25 11 27REMARK SMILES IDX 12 28 13 29 18 30 14 31 17 32 15 33 16 34REMARK H PARENT 3 14 21 16 27 24 10 26USER                              x       y       z     vdW  Elec       q    TypeUSER                           _______ _______ _______ _____ _____    ______ ____ROOTATOM      1  N   UNL     1      39.385  48.403  15.417 -0.28 +0.13    -0.312 N  ATOM      2  C   UNL     1      40.577  49.069  15.511 -0.45 -0.05    +0.202 A  ATOM      3  N   UNL     1      41.381  48.511  16.392 -0.81 +0.01    -0.231 NA ATOM      4  C   UNL     1      40.667  47.438  16.889 -0.41 -0.02    +0.150 A  ATOM      5  C   UNL     1      40.967  46.460  17.849 -0.39 -0.01    +0.160 A  ATOM      6  N   UNL     1      40.006  45.540  18.126 -0.30 +0.01    -0.193 NA ATOM      7  C   UNL     1      38.816  45.564  17.487 -0.25 -0.05    +0.231 A  ATOM      8  N   UNL     1      38.456  46.465  16.551 -0.27 +0.07    -0.193 NA ATOM      9  C   UNL     1      39.418  47.364  16.304 -0.35 -0.05    +0.167 A  ENDROOTBRANCH   1  10ATOM     10  C   UNL     1      38.283  48.748  14.551 -0.33 -0.09    +0.156 C  BRANCH  10  11ATOM     11  C   UNL     1      37.452  47.547  14.089 -0.48 -0.06    +0.131 C  ATOM     12  C   UNL     1      36.815  47.760  12.720 -0.67 -0.01    +0.040 C  BRANCH  11  13ATOM     13  O   UNL     1      36.405  47.338  15.041 -0.18 +0.35    -0.392 OA ATOM     14  H   UNL     1      36.750  47.590  15.917 +0.15 -0.21    +0.211 HD ENDBRANCH  11  13ENDBRANCH  10  11ENDBRANCH   1  10BRANCH   7  15ATOM     15  N   UNL     1      37.824  44.630  17.785 -0.15 +0.07    -0.324 N  ATOM     16  H   UNL     1      38.211  43.702  17.701 +0.11 -0.03    +0.170 HD BRANCH  15  17ATOM     17  C   UNL     1      36.498  44.726  18.220 -0.31 -0.01    +0.045 A  ATOM     18  C   UNL     1      35.875  43.569  18.721 -0.33 -0.01    +0.026 A  ATOM     19  C   UNL     1      35.733  45.894  18.151 -0.16 -0.03    +0.072 A  ATOM     20  C   UNL     1      34.543  43.583  19.149 -0.39 -0.00    +0.006 A  ATOM     21  C   UNL     1      34.405  45.905  18.580 -0.37 -0.06    +0.117 A  ATOM     22  C   UNL     1      33.802  44.758  19.080 -0.39 -0.01    +0.046 A  BRANCH  21  23ATOM     23  O   UNL     1      33.719  47.083  18.492 -0.71 +0.46    -0.508 OA ATOM     24  H   UNL     1      33.754  47.395  17.573 -0.33 -0.62    +0.293 HD ENDBRANCH  21  23ENDBRANCH  15  17ENDBRANCH   7  15BRANCH   5  25ATOM     25  N   UNL     1      42.207  46.420  18.495 -0.22 -0.02    -0.364 N  ATOM     26  H   UNL     1      42.909  46.901  17.937 -0.49 -0.02    +0.162 HD BRANCH  25  27ATOM     27  C   UNL     1      42.171  46.787  19.897 -0.38 +0.02    +0.150 C  BRANCH  27  28ATOM     28  C   UNL     1      41.482  45.688  20.674 -0.34 -0.00    -0.029 A  ATOM     29  C   UNL     1      40.142  45.839  21.071 -0.26 +0.00    +0.008 A  ATOM     30  C   UNL     1      42.156  44.495  20.983 -0.24 +0.00    +0.008 A  ATOM     31  C   UNL     1      39.495  44.824  21.775 -0.28 +0.00    +0.039 A  ATOM     32  C   UNL     1      41.506  43.481  21.689 -0.32 +0.00    +0.039 A  ATOM     33  C   UNL     1      40.183  43.655  22.079 -0.20 +0.01    +0.123 A  ATOM     34  F   UNL     1      39.562  42.680  22.755 -0.07 -0.02    -0.207 F  ENDBRANCH  27  28ENDBRANCH  25  27ENDBRANCH   5  25TORSDOF 9TERENDMDL