MODEL        8USER    Run = 8USERUSER    Estimated Free Energy of Binding    = -10.84 kcal/mol  [=(1)+(2)+(3)-(4)]USERUSER    (1) Final Intermolecular Energy     = -12.93 kcal/molUSER        vdW + Hbond + desolv Energy     = -12.44 kcal/molUSER        Electrostatic Energy            =  -0.48 kcal/molUSER        Moving Ligand-Fixed Receptor    = -12.93 kcal/molUSER        Moving Ligand-Moving Receptor   =  +0.00 kcal/molUSER    (2) Final Total Internal Energy     =  -1.77 kcal/molUSER    (3) Torsional Free Energy           =  +2.09 kcal/molUSER    (4) Unbound System's Energy         =  -1.77 kcal/molUSERUSERREMARK SMILES OCCNC1=C(c2cccc(-c3ccc(O)cc3)c2)N=C2C=CN=C[C@@H]21REMARK SMILES IDX 5 1 6 2 20 3 21 4 22 5 23 6 24 7 25 8 26 9 4 10 3 12 2 13REMARK SMILES IDX 1 14 7 16 8 17 19 18 9 19 11 20 10 21 12 22 13 23 18 24REMARK SMILES IDX 14 25 17 26 15 27 16 28REMARK H PARENT 4 11 1 15 16 29USER                              x       y       z     vdW  Elec       q    TypeUSER                           _______ _______ _______ _____ _____    ______ ____ROOTATOM      1  C   UNL     1      38.362  47.500  15.645 -0.49 -0.03    +0.052 C  ATOM      2  C   UNL     1      37.725  46.545  16.363 -0.38 -0.04    +0.091 C  ATOM      3  N   UNL     1      36.497  46.180  15.849 -0.19 +0.16    -0.250 NA ATOM      4  C   UNL     1      36.405  46.863  14.754 -0.43 -0.04    +0.057 C  ATOM      5  C   UNL     1      35.409  46.677  13.698 -0.51 -0.03    +0.045 C  ATOM      6  C   UNL     1      35.866  46.954  12.468 -0.62 -0.06    +0.112 C  ATOM      7  N   UNL     1      37.147  47.348  12.130 -0.96 +0.07    -0.268 NA ATOM      8  C   UNL     1      37.932  47.743  13.091 -0.35 -0.02    +0.100 C  ATOM      9  C   UNL     1      37.465  47.893  14.512 -0.49 -0.08    +0.128 C  ENDROOTBRANCH   1  10ATOM     10  N   UNL     1      39.572  48.133  15.888 -0.21 +0.14    -0.383 N  ATOM     11  H   UNL     1      39.441  49.018  16.390 +0.10 -0.08    +0.160 HD BRANCH  10  12ATOM     12  C   UNL     1      40.643  48.280  14.901 -0.51 -0.02    +0.141 C  BRANCH  12  13ATOM     13  C   UNL     1      41.306  49.653  15.064 -0.59 -0.03    +0.177 C  BRANCH  13  14ATOM     14  O   UNL     1      41.411  49.979  16.449 -0.93 +0.03    -0.395 OA ATOM     15  H   UNL     1      41.415  50.950  16.514 -0.43 -0.08    +0.210 HD ENDBRANCH  13  14ENDBRANCH  12  13ENDBRANCH  10  12ENDBRANCH   1  10BRANCH   2  16ATOM     16  C   UNL     1      38.225  45.900  17.588 -0.39 -0.00    +0.003 A  ATOM     17  C   UNL     1      37.478  44.928  18.265 -0.36 -0.00    +0.010 A  ATOM     18  C   UNL     1      39.463  46.291  18.122 -0.41 -0.00    +0.019 A  ATOM     19  C   UNL     1      37.970  44.340  19.430 -0.36 -0.00    +0.001 A  ATOM     20  C   UNL     1      39.979  45.714  19.297 -0.41 +0.00    -0.018 A  ATOM     21  C   UNL     1      39.211  44.729  19.937 -0.37 -0.00    +0.009 A  BRANCH  20  22ATOM     22  C   UNL     1      41.280  46.137  19.841 -0.40 -0.00    -0.018 A  ATOM     23  C   UNL     1      41.703  45.717  21.115 -0.32 +0.00    +0.012 A  ATOM     24  C   UNL     1      42.138  46.973  19.105 -0.52 +0.00    +0.012 A  ATOM     25  C   UNL     1      42.938  46.113  21.636 -0.27 +0.01    +0.047 A  ATOM     26  C   UNL     1      43.373  47.372  19.622 -0.37 +0.01    +0.047 A  ATOM     27  C   UNL     1      43.763  46.939  20.882 -0.25 +0.06    +0.115 A  BRANCH  27  28ATOM     28  O   UNL     1      44.975  47.351  21.350 -0.66 -0.51    -0.508 OA ATOM     29  H   UNL     1      44.987  48.322  21.359 -0.38 +0.07    +0.293 HD ENDBRANCH  27  28ENDBRANCH  20  22ENDBRANCH   2  16TORSDOF 7TERENDMDL