MODEL        8USER    Run = 8USERUSER    Estimated Free Energy of Binding    = -10.47 kcal/mol  [=(1)+(2)+(3)-(4)]USERUSER    (1) Final Intermolecular Energy     = -13.45 kcal/molUSER        vdW + Hbond + desolv Energy     = -13.29 kcal/molUSER        Electrostatic Energy            =  -0.16 kcal/molUSER        Moving Ligand-Fixed Receptor    = -13.45 kcal/molUSER        Moving Ligand-Moving Receptor   =  +0.00 kcal/molUSER    (2) Final Total Internal Energy     =  -3.24 kcal/molUSER    (3) Torsional Free Energy           =  +2.98 kcal/molUSER    (4) Unbound System's Energy         =  -3.24 kcal/molUSERUSERREMARK SMILES CCNC(=O)C1CCN(Cc2ccc(Cl)cc2NC(=O)c2ccc(CN3C[C@H](NC)[C@@H](O)C3)cc2)CC1REMARK SMILES IDX 11 1 12 2 13 3 14 4 15 5 16 6 17 7 10 8 9 9 6 10 7 11 37 12REMARK SMILES IDX 8 13 36 14 4 15 3 16 5 18 2 19 1 20 18 21 19 22 20 24 21 25REMARK SMILES IDX 22 26 35 27 23 28 34 29 24 30 25 31 26 32 33 33 27 34 31 35REMARK SMILES IDX 28 36 32 37 29 39 30 40REMARK H PARENT 3 17 18 23 32 38 29 41USER                              x       y       z     vdW  Elec       q    TypeUSER                           _______ _______ _______ _____ _____    ______ ____ROOTATOM      1  C   UNL     1      36.949  47.056  15.490 -0.41 +0.01    -0.010 A  ATOM      2  C   UNL     1      37.196  47.769  14.296 -0.52 -0.01    +0.009 A  ATOM      3  C   UNL     1      38.452  48.305  14.010 -0.47 -0.01    +0.021 A  ATOM      4  C   UNL     1      39.489  48.130  14.914 -0.51 -0.01    +0.043 A  ATOM      5  Cl  UNL     1      41.050  48.764  14.559 -0.76 +0.01    -0.084 Cl ATOM      6  C   UNL     1      39.272  47.453  16.112 -0.45 -0.02    +0.047 A  ATOM      7  C   UNL     1      37.998  46.956  16.430 -0.36 -0.02    +0.047 A  ENDROOTBRANCH   1   8ATOM      8  C   UNL     1      35.603  46.355  15.623 -0.29 -0.12    +0.122 C  BRANCH   8   9ATOM      9  N   UNL     1      35.542  45.264  16.605 -0.12 +0.17    -0.299 NA ATOM     10  C   UNL     1      34.690  42.745  17.902 -0.38 -0.02    +0.081 C  ATOM     11  C   UNL     1      33.693  43.831  17.475 -0.35 -0.01    +0.029 C  ATOM     12  C   UNL     1      36.083  42.974  17.289 -0.22 -0.01    +0.029 C  ATOM     13  C   UNL     1      34.347  45.213  17.442 -0.35 -0.05    +0.085 C  ATOM     14  C   UNL     1      36.059  43.985  16.144 -0.38 -0.03    +0.085 C  BRANCH  10  15ATOM     15  C   UNL     1      34.784  42.638  19.425 -0.33 -0.02    +0.223 C  ATOM     16  N   UNL     1      35.766  41.766  19.857 -0.16 +0.02    -0.356 N  ATOM     17  H   UNL     1      36.133  41.105  19.186 +0.07 -0.01    +0.163 HD ATOM     18  O   UNL     1      34.048  43.247  20.195 -0.77 -0.02    -0.275 OA BRANCH  16  19ATOM     19  C   UNL     1      35.912  41.455  21.264 -0.39 +0.00    +0.112 C  ATOM     20  C   UNL     1      37.219  40.735  21.538 -0.43 +0.00    +0.027 C  ENDBRANCH  16  19ENDBRANCH  10  15ENDBRANCH   8   9ENDBRANCH   1   8BRANCH   7  21ATOM     21  N   UNL     1      37.884  46.330  17.694 -0.13 +0.11    -0.322 N  ATOM     22  C   UNL     1      38.903  45.594  18.277 -0.30 -0.04    +0.255 C  ATOM     23  H   UNL     1      36.958  46.004  17.944 +0.10 -0.06    +0.170 HD ATOM     24  O   UNL     1      39.977  45.323  17.750 -0.26 +0.02    -0.269 OA BRANCH  22  25ATOM     25  C   UNL     1      38.588  45.039  19.626 -0.34 -0.00    +0.040 A  ATOM     26  C   UNL     1      39.594  44.767  20.564 -0.35 +0.00    +0.014 A  ATOM     27  C   UNL     1      37.255  44.754  19.941 -0.20 -0.00    +0.014 A  ATOM     28  C   UNL     1      39.264  44.229  21.810 -0.29 +0.00    +0.006 A  ATOM     29  C   UNL     1      36.927  44.218  21.188 -0.38 +0.00    +0.006 A  ATOM     30  C   UNL     1      37.928  43.946  22.133 -0.34 -0.00    -0.034 A  BRANCH  30  31ATOM     31  C   UNL     1      37.571  43.350  23.481 -0.33 +0.01    +0.120 C  BRANCH  31  32ATOM     32  N   UNL     1      38.424  43.855  24.573 -0.08 -0.01    -0.295 NA ATOM     33  C   UNL     1      37.929  43.376  25.881 -0.24 -0.00    +0.118 C  ATOM     34  C   UNL     1      38.369  45.325  24.709 -0.25 +0.01    +0.106 C  ATOM     35  C   UNL     1      36.906  44.398  26.403 -0.31 -0.02    +0.146 C  ATOM     36  C   UNL     1      37.080  45.632  25.490 -0.30 +0.00    +0.097 C  BRANCH  35  37ATOM     37  O   UNL     1      35.576  43.883  26.286 -0.22 +0.05    -0.390 OA ATOM     38  H   UNL     1      35.004  44.630  26.036 -0.28 -0.07    +0.211 HD ENDBRANCH  35  37BRANCH  36  39ATOM     39  N   UNL     1      36.979  46.943  26.156 -0.38 +0.03    -0.313 NA ATOM     40  C   UNL     1      37.349  48.085  25.335 -0.40 +0.01    +0.101 C  ATOM     41  H   UNL     1      36.022  47.072  26.484 -0.43 -0.05    +0.122 HD ENDBRANCH  36  39ENDBRANCH  31  32ENDBRANCH  30  31ENDBRANCH  22  25ENDBRANCH   7  21TORSDOF 10TERENDMDL