MODEL        9USER    Run = 9USERUSER    Estimated Free Energy of Binding    = -10.70 kcal/mol  [=(1)+(2)+(3)-(4)]USERUSER    (1) Final Intermolecular Energy     = -12.49 kcal/molUSER        vdW + Hbond + desolv Energy     = -12.38 kcal/molUSER        Electrostatic Energy            =  -0.11 kcal/molUSER        Moving Ligand-Fixed Receptor    = -12.49 kcal/molUSER        Moving Ligand-Moving Receptor   =  +0.00 kcal/molUSER    (2) Final Total Internal Energy     =  -0.89 kcal/molUSER    (3) Torsional Free Energy           =  +1.79 kcal/molUSER    (4) Unbound System's Energy         =  -0.89 kcal/molUSERUSERREMARK SMILES Cc1nc(NCC2CCOCC2)ccc1-c1ccc(C=C2SC(=O)NC2=O)cc1REMARK SMILES IDX 1 1 2 2 3 3 4 4 13 5 14 6 15 7 16 8 17 9 29 10 18 11 28 12REMARK SMILES IDX 19 13 20 14 21 15 22 16 26 17 23 18 25 19 27 20 24 21 5 23REMARK SMILES IDX 6 25 7 26 8 27 12 28 9 29 11 30 10 31REMARK H PARENT 25 22 5 24USER                              x       y       z     vdW  Elec       q    TypeUSER                           _______ _______ _______ _____ _____    ______ ____ROOTATOM      1  C   UNL     1      39.983  44.680  20.005 -0.39 +0.00    +0.067 C  ATOM      2  C   UNL     1      38.739  44.889  19.188 -0.36 -0.00    +0.048 A  ATOM      3  N   UNL     1      38.920  45.519  17.996 -0.25 +0.04    -0.236 NA ATOM      4  C   UNL     1      37.847  45.740  17.216 -0.29 -0.04    +0.126 A  ATOM      5  C   UNL     1      36.573  45.330  17.578 -0.31 -0.02    +0.047 A  ATOM      6  C   UNL     1      36.392  44.687  18.800 -0.34 -0.00    +0.014 A  ATOM      7  C   UNL     1      37.485  44.455  19.642 -0.35 -0.00    +0.003 A  ENDROOTBRANCH   7   8ATOM      8  C   UNL     1      37.286  43.776  20.925 -0.39 -0.00    -0.017 A  ATOM      9  C   UNL     1      36.718  42.495  20.979 -0.45 +0.00    +0.009 A  ATOM     10  C   UNL     1      37.666  44.390  22.127 -0.37 +0.00    +0.009 A  ATOM     11  C   UNL     1      36.533  41.844  22.202 -0.54 +0.00    +0.009 A  ATOM     12  C   UNL     1      37.480  43.742  23.352 -0.34 +0.00    +0.009 A  ATOM     13  C   UNL     1      36.921  42.462  23.396 -0.42 -0.00    -0.024 A  BRANCH  13  14ATOM     14  C   UNL     1      36.702  41.766  24.667 -0.39 -0.00    +0.029 C  BRANCH  14  15ATOM     15  C   UNL     1      36.248  42.320  25.799 -0.43 -0.01    +0.083 C  ATOM     16  S   UNL     1      36.118  43.993  26.200 -0.54 +0.00    -0.022 SA ATOM     17  C   UNL     1      35.788  41.493  26.946 -0.43 -0.09    +0.265 C  ATOM     18  C   UNL     1      35.485  43.644  27.795 -0.37 -0.08    +0.290 C  ATOM     19  N   UNL     1      35.395  42.302  27.969 -0.28 +0.11    -0.282 N  ATOM     20  O   UNL     1      35.764  40.273  26.975 -0.37 +0.14    -0.268 OA ATOM     21  O   UNL     1      35.177  44.493  28.614 -0.46 +0.07    -0.261 OA ATOM     22  H   UNL     1      35.052  41.918  28.834 -0.36 -0.12    +0.174 HD ENDBRANCH  14  15ENDBRANCH  13  14ENDBRANCH   7   8BRANCH   4  23ATOM     23  N   UNL     1      38.111  46.373  16.001 -0.13 +0.14    -0.370 N  ATOM     24  H   UNL     1      37.387  47.091  15.950 +0.12 -0.10    +0.162 HD BRANCH  23  25ATOM     25  C   UNL     1      38.057  45.484  14.840 -0.35 -0.04    +0.118 C  BRANCH  25  26ATOM     26  C   UNL     1      36.673  45.597  14.166 -0.47 -0.01    +0.013 C  ATOM     27  C   UNL     1      36.096  47.015  14.258 -0.48 -0.03    +0.034 C  ATOM     28  C   UNL     1      36.751  45.182  12.684 -0.56 -0.01    +0.034 C  ATOM     29  C   UNL     1      36.924  48.018  13.456 -0.54 -0.08    +0.160 C  ATOM     30  C   UNL     1      36.893  46.377  11.741 -0.58 -0.06    +0.160 C  ATOM     31  O   UNL     1      37.635  47.416  12.369 -0.93 +0.05    -0.381 OA ENDBRANCH  25  26ENDBRANCH  23  25ENDBRANCH   4  23TORSDOF 6TERENDMDL