MODEL        8USER    Run = 8USERUSER    Estimated Free Energy of Binding    =  -8.33 kcal/mol  [=(1)+(2)+(3)-(4)]USERUSER    (1) Final Intermolecular Energy     = -10.72 kcal/molUSER        vdW + Hbond + desolv Energy     = -10.52 kcal/molUSER        Electrostatic Energy            =  -0.20 kcal/molUSER        Moving Ligand-Fixed Receptor    = -10.72 kcal/molUSER        Moving Ligand-Moving Receptor   =  +0.00 kcal/molUSER    (2) Final Total Internal Energy     =  -1.83 kcal/molUSER    (3) Torsional Free Energy           =  +2.39 kcal/molUSER    (4) Unbound System's Energy         =  -1.83 kcal/molUSERUSERREMARK SMILES O=C(O)C=CC1=C(c2n[nH]c3cc(NCC4CC4)ncc23)C=C(F)C1REMARK SMILES IDX 6 1 7 2 22 3 23 4 24 5 25 6 5 7 4 8 2 9 1 10 3 11 8 13 9 14REMARK SMILES IDX 21 15 10 16 20 17 11 18 19 19 12 20 13 21 14 23 15 25 16 26REMARK SMILES IDX 17 27 18 28REMARK H PARENT 3 12 10 22 14 24USER                              x       y       z     vdW  Elec       q    TypeUSER                           _______ _______ _______ _____ _____    ______ ____ROOTATOM      1  C   UNL     1      35.708  45.811  15.075 -0.41 +0.02    -0.031 C  ATOM      2  C   UNL     1      36.271  46.528  16.075 -0.43 -0.01    +0.009 C  ATOM      3  C   UNL     1      35.377  46.493  17.228 -0.37 -0.04    +0.045 C  ATOM      4  C   UNL     1      34.286  45.782  16.920 -0.30 -0.10    +0.105 C  ATOM      5  F   UNL     1      33.250  45.585  17.764 -0.08 +0.13    -0.211 F  ATOM      6  C   UNL     1      34.365  45.269  15.518 -0.31 -0.08    +0.103 C  ENDROOTBRANCH   1   7ATOM      7  C   UNL     1      36.213  45.569  13.749 -0.50 -0.01    +0.012 C  BRANCH   7   8ATOM      8  C   UNL     1      35.952  46.285  12.646 -0.59 -0.05    +0.093 C  BRANCH   8   9ATOM      9  C   UNL     1      36.821  47.332  12.087 -0.43 -0.12    +0.328 C  ATOM     10  O   UNL     1      37.638  47.240  11.192 -0.89 +0.04    -0.247 OA BRANCH   9  11ATOM     11  O   UNL     1      36.582  48.500  12.713 -0.74 +0.17    -0.478 OA ATOM     12  H   UNL     1      36.978  48.365  13.601 +0.23 -0.15    +0.297 HD ENDBRANCH   9  11ENDBRANCH   8   9ENDBRANCH   7   8ENDBRANCH   1   7BRANCH   2  13ATOM     13  C   UNL     1      37.499  47.267  16.033 -0.31 -0.07    +0.102 A  ATOM     14  N   UNL     1      37.647  48.409  15.342 -0.38 +0.13    -0.174 NA ATOM     15  C   UNL     1      38.708  46.905  16.703 -0.39 -0.02    +0.046 A  ATOM     16  N   UNL     1      38.913  48.770  15.581 -0.30 +0.16    -0.277 N  ATOM     17  C   UNL     1      39.152  45.862  17.518 -0.34 -0.02    +0.126 A  ATOM     18  C   UNL     1      39.603  47.911  16.390 -0.43 -0.02    +0.071 A  ATOM     19  N   UNL     1      40.418  45.871  18.024 -0.29 +0.02    -0.239 NA ATOM     20  C   UNL     1      40.906  47.932  16.881 -0.47 -0.01    +0.075 A  ATOM     21  C   UNL     1      41.258  46.873  17.715 -0.35 -0.01    +0.128 A  ATOM     22  H   UNL     1      39.249  49.623  15.161 -0.26 -0.14    +0.190 HD BRANCH  21  23ATOM     23  N   UNL     1      42.501  46.830  18.345 -0.19 -0.01    -0.370 N  ATOM     24  H   UNL     1      43.135  47.322  17.712 -0.50 -0.04    +0.162 HD BRANCH  23  25ATOM     25  C   UNL     1      42.555  47.397  19.682 -0.40 +0.01    +0.118 C  BRANCH  25  26ATOM     26  C   UNL     1      42.365  46.281  20.661 -0.41 +0.00    +0.008 C  ATOM     27  C   UNL     1      40.982  45.852  21.091 -0.36 +0.00    +0.006 C  ATOM     28  C   UNL     1      41.876  46.562  22.067 -0.31 +0.00    +0.006 C  ENDBRANCH  25  26ENDBRANCH  23  25ENDBRANCH  21  23ENDBRANCH   2  13TORSDOF 8TERENDMDL