REMARK SMILES CO[C@H]1CC=C(c2nc(NCc3cccnc3)c3ncn(C)c3n2)N=N1
REMARK SMILES IDX 7 1 8 2 9 3 18 4 19 5 20 6 21 7 22 8 23 9 24 10 6 11 3 12
REMARK SMILES IDX 4 13 26 14 5 15 25 16 2 17 1 18 10 19 11 21 12 22 13 23
REMARK SMILES IDX 17 24 14 25 16 26 15 27
REMARK H PARENT 10 20
ROOT
ATOM      1  C   UNL     1       0.950  -0.814  -0.450  1.00  0.00     0.183 A 
ATOM      2  N   UNL     1      -0.141  -0.092  -0.075  1.00  0.00    -0.207 NA
ATOM      3  C   UNL     1      -1.307  -0.729   0.211  1.00  0.00     0.158 A 
ATOM      4  C   UNL     1      -1.333  -2.129   0.091  1.00  0.00     0.150 A 
ATOM      5  N   UNL     1      -2.336  -3.060   0.279  1.00  0.00    -0.231 NA
ATOM      6  C   UNL     1      -1.770  -4.220   0.014  1.00  0.00     0.201 A 
ATOM      7  N   UNL     1      -0.457  -4.075  -0.342  1.00  0.00    -0.318 N 
ATOM      8  C   UNL     1       0.457  -5.128  -0.698  1.00  0.00     0.153 C 
ATOM      9  C   UNL     1      -0.159  -2.743  -0.303  1.00  0.00     0.165 A 
ATOM     10  N   UNL     1       1.012  -2.158  -0.586  1.00  0.00    -0.206 NA
ENDROOT
BRANCH   1  11
ATOM     11  C   UNL     1       2.208  -0.054  -0.736  1.00  0.00     0.126 C 
ATOM     12  C   UNL     1       4.716   1.062  -0.679  1.00  0.00     0.260 C 
ATOM     13  C   UNL     1       3.526   2.004  -0.890  1.00  0.00     0.088 C 
ATOM     14  N   UNL     1       4.441  -0.252  -1.306  1.00  0.00    -0.156 NA
ATOM     15  C   UNL     1       2.247   1.288  -0.616  1.00  0.00     0.012 C 
ATOM     16  N   UNL     1       3.303  -0.768  -1.187  1.00  0.00    -0.150 NA
BRANCH  12  17
ATOM     17  O   UNL     1       5.883   1.760  -1.145  1.00  0.00    -0.358 OA
ATOM     18  C   UNL     1       7.068   1.003  -0.939  1.00  0.00     0.198 C 
ENDBRANCH  12  17
ENDBRANCH   1  11
BRANCH   3  19
ATOM     19  N   UNL     1      -2.435  -0.010   0.620  1.00  0.00    -0.364 N 
ATOM     20  H   UNL     1      -3.265  -0.596   0.533  1.00  0.00     0.162 HD
BRANCH  19  21
ATOM     21  C   UNL     1      -2.557   1.313   0.035  1.00  0.00     0.152 C 
BRANCH  21  22
ATOM     22  C   UNL     1      -3.847   1.951   0.474  1.00  0.00    -0.010 A 
ATOM     23  C   UNL     1      -4.176   2.091   1.827  1.00  0.00     0.009 A 
ATOM     24  C   UNL     1      -4.748   2.461  -0.455  1.00  0.00     0.116 A 
ATOM     25  C   UNL     1      -5.370   2.707   2.190  1.00  0.00     0.020 A 
ATOM     26  N   UNL     1      -5.915   3.066  -0.133  1.00  0.00    -0.264 NA
ATOM     27  C   UNL     1      -6.198   3.173   1.183  1.00  0.00     0.111 A 
ENDBRANCH  21  22
ENDBRANCH  19  21
ENDBRANCH   3  19
TORSDOF 5
