REMARK SMILES c1ccc(CNc2ncc3ccc4ocnc4c3n2)cc1
REMARK SMILES IDX 5 1 4 2 1 3 2 4 21 5 3 6 20 7 6 8 7 10 8 11 19 12 9 13 18 14
REMARK SMILES IDX 10 15 17 16 11 17 16 18 13 19 12 20 15 21 14 22
REMARK H PARENT 6 9
ROOT
ATOM      1  C   UNL     1      -1.515   0.224   0.540  1.00  0.00     0.151 C 
ENDROOT
BRANCH   1   2
ATOM      2  C   UNL     1      -3.015   0.415   0.585  1.00  0.00    -0.029 A 
ATOM      3  C   UNL     1      -5.797   0.776   0.635  1.00  0.00     0.000 A 
ATOM      4  C   UNL     1      -5.251  -0.476   0.913  1.00  0.00     0.000 A 
ATOM      5  C   UNL     1      -4.961   1.848   0.327  1.00  0.00     0.000 A 
ATOM      6  C   UNL     1      -3.867  -0.658   0.885  1.00  0.00     0.005 A 
ATOM      7  C   UNL     1      -3.577   1.668   0.299  1.00  0.00     0.005 A 
ENDBRANCH   1   2
BRANCH   1   8
ATOM      8  N   UNL     1      -1.080   0.234  -0.840  1.00  0.00    -0.350 N 
ATOM      9  H   UNL     1      -1.632  -0.334  -1.471  1.00  0.00     0.164 HD
BRANCH   8  10
ATOM     10  C   UNL     1       0.245  -0.125  -1.022  1.00  0.00     0.223 A 
ATOM     11  N   UNL     1       0.520  -0.760  -2.171  1.00  0.00    -0.221 NA
ATOM     12  N   UNL     1       1.157   0.158  -0.086  1.00  0.00    -0.211 NA
ATOM     13  C   UNL     1       1.803  -1.109  -2.396  1.00  0.00     0.125 A 
ATOM     14  C   UNL     1       2.430  -0.210  -0.344  1.00  0.00     0.105 A 
ATOM     15  C   UNL     1       2.838  -0.863  -1.512  1.00  0.00     0.021 A 
ATOM     16  C   UNL     1       3.410   0.081   0.630  1.00  0.00     0.135 A 
ATOM     17  C   UNL     1       4.187  -1.221  -1.727  1.00  0.00     0.016 A 
ATOM     18  N   UNL     1       3.345   0.694   1.868  1.00  0.00    -0.214 NA
ATOM     19  C   UNL     1       4.724  -0.289   0.376  1.00  0.00     0.156 A 
ATOM     20  C   UNL     1       5.168  -0.935  -0.772  1.00  0.00     0.050 A 
ATOM     21  C   UNL     1       4.589   0.671   2.290  1.00  0.00     0.309 A 
ATOM     22  O   UNL     1       5.485   0.090   1.444  1.00  0.00    -0.443 OA
ENDBRANCH   8  10
ENDBRANCH   1   8
TORSDOF 3
