MODEL        6USER    Run = 6USERUSER    Estimated Free Energy of Binding    =  -7.33 kcal/mol  [=(1)+(2)+(3)-(4)]USERUSER    (1) Final Intermolecular Energy     =  -8.52 kcal/molUSER        vdW + Hbond + desolv Energy     =  -8.51 kcal/molUSER        Electrostatic Energy            =  -0.01 kcal/molUSER        Moving Ligand-Fixed Receptor    =  -8.52 kcal/molUSER        Moving Ligand-Moving Receptor   =  +0.00 kcal/molUSER    (2) Final Total Internal Energy     =  -0.55 kcal/molUSER    (3) Torsional Free Energy           =  +1.19 kcal/molUSER    (4) Unbound System's Energy         =  -0.55 kcal/molUSERUSERREMARK SMILES Cc1cc(C(F)(F)F)cc(N2CCN(Cc3ccncc3)CC2)n1REMARK SMILES IDX 1 1 2 2 3 3 4 4 9 5 10 6 24 7 5 8 6 9 7 10 8 11 11 12 12 13REMARK SMILES IDX 23 14 13 15 22 16 14 17 15 18 16 19 17 20 21 21 18 22 20 23REMARK SMILES IDX 19 24REMARK H PARENTUSER                              x       y       z     vdW  Elec       q    TypeUSER                           _______ _______ _______ _____ _____    ______ ____ROOTATOM      1  C   UNL     1      40.906  49.608  15.338 -0.68 -0.02    +0.067 C  ATOM      2  C   UNL     1      39.887  48.512  15.248 -0.54 -0.01    +0.040 A  ATOM      3  C   UNL     1      38.968  48.497  14.211 -0.45 -0.01    +0.036 A  ATOM      4  C   UNL     1      38.043  47.456  14.158 -0.45 -0.02    +0.061 A  ATOM      5  C   UNL     1      38.088  46.470  15.151 -0.36 -0.02    +0.060 A  ATOM      6  C   UNL     1      39.023  46.546  16.180 -0.34 -0.04    +0.129 A  ATOM      7  N   UNL     1      39.918  47.558  16.208 -0.32 +0.06    -0.236 NA ENDROOTBRANCH   4   8ATOM      8  C   UNL     1      37.047  47.362  13.037 -0.32 -0.16    +0.416 C  ATOM      9  F   UNL     1      37.622  47.076  11.836 -0.24 +0.03    -0.166 F  ATOM     10  F   UNL     1      36.108  46.396  13.237 -0.17 +0.09    -0.166 F  ATOM     11  F   UNL     1      36.358  48.521  12.855 -0.26 +0.07    -0.166 F  ENDBRANCH   4   8BRANCH   6  12ATOM     12  N   UNL     1      39.087  45.565  17.161 -0.15 +0.07    -0.354 N  ATOM     13  C   UNL     1      39.728  45.959  18.425 -0.41 -0.01    +0.133 C  ATOM     14  C   UNL     1      37.990  44.587  17.274 -0.30 -0.03    +0.133 C  ATOM     15  C   UNL     1      39.780  44.757  19.394 -0.39 -0.00    +0.106 C  ATOM     16  C   UNL     1      37.446  44.512  18.720 -0.34 -0.02    +0.106 C  ATOM     17  N   UNL     1      38.464  44.168  19.742 -0.15 +0.01    -0.296 NA BRANCH  17  18ATOM     18  C   UNL     1      38.036  44.581  21.087 -0.34 +0.00    +0.120 C  BRANCH  18  19ATOM     19  C   UNL     1      37.425  43.456  21.891 -0.37 -0.00    -0.031 A  ATOM     20  C   UNL     1      37.501  43.453  23.288 -0.34 +0.00    +0.025 A  ATOM     21  C   UNL     1      36.761  42.399  21.261 -0.46 +0.00    +0.025 A  ATOM     22  C   UNL     1      36.923  42.404  23.985 -0.35 +0.01    +0.111 A  ATOM     23  C   UNL     1      36.214  41.396  22.046 -0.47 +0.00    +0.111 A  ATOM     24  N   UNL     1      36.279  41.375  23.395 -0.31 +0.00    -0.265 NA ENDBRANCH  18  19ENDBRANCH  17  18ENDBRANCH   6  12TORSDOF 4TERENDMDL