REMARK SMILES COc1c2ccsc2c2c3c(cccc13)N[C@@H]2CCCCN
REMARK SMILES IDX 19 1 18 2 17 3 3 4 4 5 15 6 5 7 8 8 14 9 10 10 6 11 7 12
REMARK SMILES IDX 9 13 13 14 11 15 12 16 16 17 2 19 1 20 20 21 21 22 22 23
REMARK H PARENT 16 18 22 24 22 25
ROOT
ATOM      1  C   UNL     1       3.093  -1.156  -0.444  1.00  0.00     0.004 C 
ENDROOT
BRANCH   1   2
ATOM      2  C   UNL     1       1.611  -0.844  -0.695  1.00  0.00     0.030 C 
BRANCH   2   3
ATOM      3  C   UNL     1       0.824  -0.453   0.565  1.00  0.00     0.111 C 
ATOM      4  C   UNL     1      -3.436  -0.061   0.108  1.00  0.00     0.135 A 
ATOM      5  C   UNL     1      -2.936  -1.399   0.007  1.00  0.00     0.036 A 
ATOM      6  C   UNL     1      -2.573   1.020   0.408  1.00  0.00     0.027 A 
ATOM      7  C   UNL     1      -3.630  -2.642  -0.206  1.00  0.00     0.024 A 
ATOM      8  C   UNL     1      -1.551  -1.617   0.140  1.00  0.00     0.044 A 
ATOM      9  C   UNL     1      -2.893   2.379   0.630  1.00  0.00     0.013 A 
ATOM     10  C   UNL     1      -1.226   0.699   0.507  1.00  0.00     0.015 A 
ATOM     11  C   UNL     1      -2.793  -3.731  -0.232  1.00  0.00     0.066 A 
ATOM     12  S   UNL     1      -1.166  -3.292   0.007  1.00  0.00    -0.143 S 
ATOM     13  C   UNL     1      -0.678  -0.544   0.365  1.00  0.00     0.002 A 
ATOM     14  C   UNL     1      -1.881   3.309   0.937  1.00  0.00     0.003 A 
ATOM     15  C   UNL     1      -0.226   1.579   0.805  1.00  0.00     0.043 A 
ATOM     16  C   UNL     1      -0.538   2.907   1.029  1.00  0.00     0.026 A 
ATOM     17  N   UNL     1       1.068   0.993   0.875  1.00  0.00    -0.378 N 
ATOM     18  H   UNL     1       1.428   1.122   1.818  1.00  0.00     0.161 HD
BRANCH   4  19
ATOM     19  O   UNL     1      -4.794   0.185   0.003  1.00  0.00    -0.495 OA
ATOM     20  C   UNL     1      -5.133   0.398  -1.368  1.00  0.00     0.278 C 
ENDBRANCH   4  19
ENDBRANCH   2   3
ENDBRANCH   1   2
BRANCH   1  21
ATOM     21  C   UNL     1       3.932   0.053  -0.026  1.00  0.00     0.015 C 
BRANCH  21  22
ATOM     22  C   UNL     1       5.421  -0.295   0.008  1.00  0.00     0.077 C 
BRANCH  22  23
ATOM     23  N   UNL     1       6.221   0.858   0.409  1.00  0.00    -0.330 NA
ATOM     24  H   UNL     1       5.901   1.194   1.316  1.00  0.00     0.118 HD
ATOM     25  H   UNL     1       6.055   1.625  -0.242  1.00  0.00     0.118 HD
ENDBRANCH  22  23
ENDBRANCH  21  22
ENDBRANCH   1  21
TORSDOF 6
