MODEL        1USER    Run = 1USERUSER    Estimated Free Energy of Binding    =  -7.19 kcal/mol  [=(1)+(2)+(3)-(4)]USERUSER    (1) Final Intermolecular Energy     =  -9.28 kcal/molUSER        vdW + Hbond + desolv Energy     =  -8.97 kcal/molUSER        Electrostatic Energy            =  -0.31 kcal/molUSER        Moving Ligand-Fixed Receptor    =  -9.28 kcal/molUSER        Moving Ligand-Moving Receptor   =  +0.00 kcal/molUSER    (2) Final Total Internal Energy     =  -0.63 kcal/molUSER    (3) Torsional Free Energy           =  +2.09 kcal/molUSER    (4) Unbound System's Energy         =  -0.63 kcal/molUSERUSERREMARK SMILES N=CC=CC=Cn1c(C=O)cc2ccccc21REMARK SMILES IDX 4 1 3 2 2 3 1 4 5 6 6 7 7 8 8 9 17 10 11 11 16 12 12 13REMARK SMILES IDX 15 14 13 15 14 16 9 17 10 18REMARK H PARENT 1 5USER                              x       y       z     vdW  Elec       q    TypeUSER                           _______ _______ _______ _____ _____    ______ ____ROOTATOM      1  C   UNL     1      36.246  45.633  17.237 -0.40 -0.00    +0.003 C  ENDROOTBRANCH   1   2ATOM      2  C   UNL     1      35.339  45.465  18.210 -0.42 -0.01    +0.019 C  BRANCH   2   3ATOM      3  C   UNL     1      34.042  46.167  18.312 -0.51 -0.07    +0.101 C  BRANCH   3   4ATOM      4  N   UNL     1      33.920  47.438  18.487 -0.89 +0.30    -0.309 NA ATOM      5  H   UNL     1      33.635  47.912  17.624 -0.43 -0.49    +0.187 HD ENDBRANCH   3   4ENDBRANCH   2   3ENDBRANCH   1   2BRANCH   1   6ATOM      6  C   UNL     1      36.517  44.762  16.111 -0.39 -0.01    +0.018 C  BRANCH   6   7ATOM      7  C   UNL     1      37.197  45.183  15.031 -0.37 -0.04    +0.092 C  BRANCH   7   8ATOM      8  N   UNL     1      37.889  46.397  14.842 -0.16 +0.12    -0.314 N  ATOM      9  C   UNL     1      37.663  47.402  13.903 -0.45 -0.04    +0.086 A  ATOM     10  C   UNL     1      38.974  46.801  15.640 -0.41 -0.02    +0.053 A  ATOM     11  C   UNL     1      38.438  48.494  14.250 -0.47 -0.02    +0.040 A  ATOM     12  C   UNL     1      39.670  46.129  16.666 -0.40 -0.00    +0.027 A  ATOM     13  C   UNL     1      39.287  48.121  15.311 -0.54 -0.00    +0.001 A  ATOM     14  C   UNL     1      40.691  46.808  17.342 -0.51 -0.00    +0.002 A  ATOM     15  C   UNL     1      40.315  48.787  16.007 -0.57 -0.00    +0.010 A  ATOM     16  C   UNL     1      41.009  48.121  17.019 -0.54 -0.00    +0.001 A  BRANCH   9  17ATOM     17  C   UNL     1      36.820  47.332  12.732 -0.48 -0.11    +0.278 C  ATOM     18  O   UNL     1      37.232  47.379  11.576 -1.03 +0.07    -0.296 OA ENDBRANCH   9  17ENDBRANCH   7   8ENDBRANCH   6   7ENDBRANCH   1   6TORSDOF 7TERENDMDL