REMARK SMILES CCCc1cc(O)c2cc(O)c(O)cc2c1C
REMARK SMILES IDX 4 1 5 2 6 3 8 4 9 5 10 6 12 7 14 8 15 9 16 10 17 11 3 12
REMARK SMILES IDX 2 13 1 14 7 15 13 17 11 19
REMARK H PARENT 7 16 13 18 11 20
ROOT
ATOM      1  C   UNL     1       1.126  -0.474  -0.332  1.00  0.00    -0.041 A 
ATOM      2  C   UNL     1       0.768  -1.764   0.077  1.00  0.00     0.050 A 
ATOM      3  C   UNL     1      -0.545  -2.070   0.416  1.00  0.00     0.123 A 
ATOM      4  C   UNL     1      -1.561  -1.097   0.393  1.00  0.00     0.028 A 
ATOM      5  C   UNL     1      -2.891  -1.380   0.789  1.00  0.00     0.062 A 
ATOM      6  C   UNL     1      -3.870  -0.400   0.744  1.00  0.00     0.158 A 
ATOM      7  C   UNL     1      -3.564   0.866   0.283  1.00  0.00     0.158 A 
ATOM      8  C   UNL     1      -2.262   1.184  -0.077  1.00  0.00     0.059 A 
ATOM      9  C   UNL     1      -1.223   0.223  -0.025  1.00  0.00    -0.008 A 
ATOM     10  C   UNL     1       0.133   0.533  -0.377  1.00  0.00    -0.040 A 
ATOM     11  C   UNL     1       0.479   1.944  -0.802  1.00  0.00     0.045 C 
ENDROOT
BRANCH   1  12
ATOM     12  C   UNL     1       2.580  -0.238  -0.685  1.00  0.00     0.035 C 
BRANCH  12  13
ATOM     13  C   UNL     1       3.374   0.315   0.500  1.00  0.00     0.001 C 
ATOM     14  C   UNL     1       4.828   0.560   0.127  1.00  0.00     0.004 C 
ENDBRANCH  12  13
ENDBRANCH   1  12
BRANCH   3  15
ATOM     15  O   UNL     1      -0.765  -3.380   0.754  1.00  0.00    -0.507 OA
ATOM     16  H   UNL     1      -1.689  -3.597   0.553  1.00  0.00     0.293 HD
ENDBRANCH   3  15
BRANCH   7  17
ATOM     17  O   UNL     1      -4.538   1.814   0.155  1.00  0.00    -0.504 OA
ATOM     18  H   UNL     1      -5.338   1.342  -0.141  1.00  0.00     0.293 HD
ENDBRANCH   7  17
BRANCH   6  19
ATOM     19  O   UNL     1      -5.124  -0.696   1.191  1.00  0.00    -0.504 OA
ATOM     20  H   UNL     1      -5.440   0.103   1.654  1.00  0.00     0.293 HD
ENDBRANCH   6  19
TORSDOF 5
