MODEL        8USER    Run = 8USERUSER    Estimated Free Energy of Binding    =  -8.18 kcal/mol  [=(1)+(2)+(3)-(4)]USERUSER    (1) Final Intermolecular Energy     = -10.86 kcal/molUSER        vdW + Hbond + desolv Energy     = -10.73 kcal/molUSER        Electrostatic Energy            =  -0.13 kcal/molUSER        Moving Ligand-Fixed Receptor    = -10.86 kcal/molUSER        Moving Ligand-Moving Receptor   =  +0.00 kcal/molUSER    (2) Final Total Internal Energy     =  -1.20 kcal/molUSER    (3) Torsional Free Energy           =  +2.68 kcal/molUSER    (4) Unbound System's Energy         =  -1.20 kcal/molUSERUSERREMARK SMILES CN=CC=CN=C(C=Cc1cc(=O)c(=O)cco1)c1ccccc1REMARK SMILES IDX 6 1 5 2 4 3 3 4 2 5 1 6 7 7 8 8 9 9 10 10 11 11 18 12 12 13REMARK SMILES IDX 17 14 14 15 16 16 13 17 15 18 19 19 20 20 24 21 21 22 23 23REMARK SMILES IDX 22 24REMARK H PARENTUSER                              x       y       z     vdW  Elec       q    TypeUSER                           _______ _______ _______ _____ _____    ______ ____ROOTATOM      1  N   UNL     1      39.506  48.167  15.730 -0.30 +0.09    -0.256 NA ENDROOTBRANCH   1   2ATOM      2  C   UNL     1      38.910  48.374  14.517 -0.49 -0.05    +0.113 C  BRANCH   2   3ATOM      3  C   UNL     1      37.655  48.828  14.422 -0.52 -0.03    +0.040 C  BRANCH   3   4ATOM      4  C   UNL     1      36.722  48.176  13.478 -0.56 -0.05    +0.106 C  BRANCH   4   5ATOM      5  N   UNL     1      36.941  47.758  12.283 -1.00 +0.08    -0.296 NA ATOM      6  C   UNL     1      36.542  46.402  11.934 -0.60 -0.07    +0.171 C  ENDBRANCH   4   5ENDBRANCH   3   4ENDBRANCH   2   3ENDBRANCH   1   2BRANCH   1   7ATOM      7  C   UNL     1      39.474  46.988  16.278 -0.48 -0.02    +0.070 C  BRANCH   7   8ATOM      8  C   UNL     1      38.621  45.833  15.859 -0.40 -0.01    +0.033 C  BRANCH   8   9ATOM      9  C   UNL     1      37.285  45.955  15.885 -0.39 -0.02    +0.049 C  BRANCH   9  10ATOM     10  C   UNL     1      36.446  45.783  17.058 -0.27 -0.07    +0.130 A  ATOM     11  C   UNL     1      35.233  46.345  17.144 -0.28 -0.10    +0.103 A  ATOM     12  O   UNL     1      37.143  45.170  18.078 -0.10 +0.12    -0.465 OA ATOM     13  C   UNL     1      34.397  46.289  18.349 -0.32 -0.16    +0.229 A  ATOM     14  C   UNL     1      36.603  44.327  19.006 -0.22 -0.03    +0.200 A  ATOM     15  C   UNL     1      34.182  44.941  18.991 -0.24 -0.08    +0.228 A  ATOM     16  C   UNL     1      35.346  44.159  19.425 -0.33 -0.02    +0.095 A  ATOM     17  O   UNL     1      33.822  47.282  18.768 -1.06 +0.21    -0.285 OA ATOM     18  O   UNL     1      33.046  44.518  19.157 -0.31 +0.06    -0.285 OA ENDBRANCH   9  10ENDBRANCH   8   9ENDBRANCH   7   8BRANCH   7  19ATOM     19  C   UNL     1      40.339  46.734  17.480 -0.50 -0.00    +0.000 A  ATOM     20  C   UNL     1      41.416  47.597  17.731 -0.50 -0.00    +0.010 A  ATOM     21  C   UNL     1      40.114  45.657  18.349 -0.45 -0.00    +0.010 A  ATOM     22  C   UNL     1      42.243  47.396  18.839 -0.54 +0.00    +0.001 A  ATOM     23  C   UNL     1      40.943  45.459  19.457 -0.43 +0.00    +0.001 A  ATOM     24  C   UNL     1      42.004  46.329  19.702 -0.43 +0.00    +0.000 A  ENDBRANCH   7  19ENDBRANCH   1   7TORSDOF 9TERENDMDL