MODEL        8USER    Run = 8USERUSER    Estimated Free Energy of Binding    =  -9.54 kcal/mol  [=(1)+(2)+(3)-(4)]USERUSER    (1) Final Intermolecular Energy     = -11.03 kcal/molUSER        vdW + Hbond + desolv Energy     = -10.76 kcal/molUSER        Electrostatic Energy            =  -0.27 kcal/molUSER        Moving Ligand-Fixed Receptor    = -11.03 kcal/molUSER        Moving Ligand-Moving Receptor   =  +0.00 kcal/molUSER    (2) Final Total Internal Energy     =  -1.07 kcal/molUSER    (3) Torsional Free Energy           =  +1.49 kcal/molUSER    (4) Unbound System's Energy         =  -1.07 kcal/molUSERUSERREMARK SMILES O=S(=O)(Nc1cccc(-c2nc3ccccc3[nH]2)c1)c1cccnc1OREMARK SMILES IDX 1 1 2 2 3 3 4 4 5 6 6 7 19 8 7 9 9 10 8 11 10 12 11 13 18 14REMARK SMILES IDX 12 15 17 16 13 17 16 18 14 19 15 20 20 22 21 23 25 24 22 25REMARK SMILES IDX 24 26 23 27 26 28REMARK H PARENT 4 5 18 21 26 29USER                              x       y       z     vdW  Elec       q    TypeUSER                           _______ _______ _______ _____ _____    ______ ____ROOTATOM      1  O   UNL     1      41.428  49.178  15.976 -1.08 +0.00    -0.201 OA ATOM      2  S   UNL     1      40.517  48.081  15.730 -0.56 -0.05    +0.267 S  ATOM      3  O   UNL     1      40.715  47.209  14.589 -0.36 +0.01    -0.201 OA ENDROOTBRANCH   2   4ATOM      4  N   UNL     1      38.953  48.733  15.633 -0.30 +0.15    -0.279 N  ATOM      5  H   UNL     1      38.717  49.189  16.518 +0.15 -0.14    +0.180 HD BRANCH   4   6ATOM      6  C   UNL     1      37.927  47.951  15.021 -0.47 -0.03    +0.050 A  ATOM      7  C   UNL     1      37.658  48.126  13.665 -0.50 -0.01    +0.027 A  ATOM      8  C   UNL     1      37.190  47.032  15.773 -0.38 -0.03    +0.038 A  ATOM      9  C   UNL     1      36.636  47.393  13.064 -0.63 -0.00    +0.003 A  ATOM     10  C   UNL     1      36.150  46.298  15.188 -0.37 -0.01    +0.019 A  ATOM     11  C   UNL     1      35.887  46.490  13.823 -0.48 -0.01    +0.012 A  BRANCH  10  12ATOM     12  C   UNL     1      35.329  45.349  15.950 -0.24 -0.09    +0.138 A  ATOM     13  N   UNL     1      35.490  44.036  15.971 -0.21 +0.10    -0.229 NA ATOM     14  N   UNL     1      34.256  45.700  16.741 -0.11 +0.32    -0.338 N  ATOM     15  C   UNL     1      34.505  43.540  16.788 -0.29 -0.04    +0.089 A  ATOM     16  C   UNL     1      33.714  44.566  17.286 -0.27 -0.03    +0.066 A  ATOM     17  C   UNL     1      34.219  42.217  17.151 -0.39 -0.01    +0.030 A  ATOM     18  C   UNL     1      32.631  44.356  18.142 -0.31 -0.01    +0.028 A  ATOM     19  C   UNL     1      33.138  41.974  18.008 -0.39 -0.00    +0.002 A  ATOM     20  C   UNL     1      32.360  43.029  18.494 -0.35 -0.00    +0.002 A  ATOM     21  H   UNL     1      33.913  46.638  16.886 -0.32 -0.32    +0.168 HD ENDBRANCH  10  12ENDBRANCH   4   6ENDBRANCH   2   4BRANCH   2  22ATOM     22  C   UNL     1      40.479  47.078  17.168 -0.40 -0.02    +0.149 A  ATOM     23  C   UNL     1      39.492  46.109  17.346 -0.42 -0.01    +0.029 A  ATOM     24  C   UNL     1      41.435  47.224  18.149 -0.35 -0.01    +0.231 A  ATOM     25  C   UNL     1      39.513  45.331  18.502 -0.42 -0.00    +0.022 A  ATOM     26  N   UNL     1      41.486  46.492  19.277 -0.32 -0.01    -0.221 NA ATOM     27  C   UNL     1      40.521  45.556  19.428 -0.36 +0.00    +0.115 A  BRANCH  24  28ATOM     28  O   UNL     1      42.413  48.160  18.105 -0.32 -0.01    -0.492 OA ATOM     29  H   UNL     1      42.753  48.001  17.203 -0.31 -0.01    +0.295 HD ENDBRANCH  24  28ENDBRANCH   2  22TORSDOF 5TERENDMDL