MODEL        6USER    Run = 6USERUSER    Estimated Free Energy of Binding    =  -8.52 kcal/mol  [=(1)+(2)+(3)-(4)]USERUSER    (1) Final Intermolecular Energy     = -10.61 kcal/molUSER        vdW + Hbond + desolv Energy     = -10.63 kcal/molUSER        Electrostatic Energy            =  -0.22 kcal/molUSER        Moving Ligand-Fixed Receptor    = -10.85 kcal/molUSER        Moving Ligand-Moving Receptor   =  +0.25 kcal/molUSER    (2) Final Total Internal Energy     =  -1.25 kcal/molUSER    (3) Torsional Free Energy           =  +2.09 kcal/molUSER    (4) Unbound System's Energy         =  -1.25 kcal/molUSERUSERREMARK SMILES NC1=NC=C(c2cc3cc(N)ccc3[nH]2)N=C(NC2CCCCC2)N1REMARK SMILES IDX 16 1 17 2 1 3 2 4 25 5 18 6 3 11 4 12 19 14 20 15 24 16REMARK SMILES IDX 21 17 23 18 22 19 5 20 6 22 7 23 15 24 8 25 14 26 9 27 13 28REMARK SMILES IDX 10 29 12 30 11 32REMARK H PARENT 1 7 1 8 25 9 18 10 15 31 11 33 11 34REMARK Flexibility Score:   32.900USER                              x       y       z     vdW  Elec       q    TypeUSER                           _______ _______ _______ _____ _____    ______ ____ROOTATOM      1  N   UNL     1      37.104  46.627  15.982 -0.24 +0.13    -0.211 NA ENDROOTBRANCH   1   2ATOM      2  C   UNL     1      35.991  46.562  15.335 -0.27 -0.18    +0.203 C  ATOM      3  N   UNL     1      35.782  47.741  11.956 -0.24 +0.23    -0.369 N  ATOM      4  C   UNL     1      36.471  47.567  13.121 -0.52 -0.10    +0.200 C  ATOM      5  N   UNL     1      35.713  46.977  14.071 -0.24 +0.24    -0.297 N  ATOM      6  N   UNL     1      34.857  45.999  15.888 -0.08 +0.37    -0.353 N  ATOM      7  H   UNL     1      35.429  46.869  11.579 -0.01 -0.11    +0.159 HD ATOM      8  H   UNL     1      36.419  48.146  11.274 -0.25 -0.10    +0.159 HD ATOM      9  H   UNL     1      34.778  46.774  13.765 +0.09 -0.16    +0.173 HD ATOM     10  H   UNL     1      34.025  46.551  15.715 -0.12 -0.34    +0.163 HD BRANCH   4  11ATOM     11  N   UNL     1      37.694  47.968  13.150 -0.82 +0.05    -0.221 NA BRANCH  11  12ATOM     12  C   UNL     1      38.473  47.766  14.260 -0.46 -0.05    +0.145 CG0ATOM     13  G   UNL     1      38.237  47.221  15.472 +0.00 +0.00    +0.000 G0 ENDBRANCH  11  12ENDBRANCH   4  11BRANCH   6  14ATOM     14  C   UNL     1      34.793  45.364  17.204 -0.35 -0.05    +0.082 C  ATOM     15  C   UNL     1      33.364  45.007  17.616 -0.39 -0.01    +0.025 C  ATOM     16  C   UNL     1      35.765  44.181  17.331 -0.35 -0.01    +0.025 C  ATOM     17  C   UNL     1      33.306  44.524  19.069 -0.50 -0.00    +0.002 C  ATOM     18  C   UNL     1      35.316  43.145  18.366 -0.41 -0.00    +0.002 C  ATOM     19  C   UNL     1      34.569  43.790  19.527 -0.47 -0.00    +0.000 C  ENDBRANCH   6  14ENDBRANCH   1   2BRANCH   1  20ATOM     20  C   UNL     1      38.238  47.218  15.470 -0.42 -0.05    +0.109 CG0ATOM     21  G   UNL     1      38.473  47.766  14.260 +0.00 +0.00    +0.000 G0 BRANCH  20  22ATOM     22  C   UNL     1      39.311  47.235  16.429 -0.42 -0.02    +0.067 A  ATOM     23  C   UNL     1      40.538  47.865  16.551 -0.52 -0.01    +0.038 A  ATOM     24  N   UNL     1      39.174  46.449  17.553 -0.20 +0.08    -0.353 N  ATOM     25  C   UNL     1      41.142  47.449  17.773 -0.52 -0.00    +0.002 A  ATOM     26  C   UNL     1      40.265  46.552  18.377 -0.43 -0.00    +0.046 A  ATOM     27  C   UNL     1      42.363  47.740  18.416 -0.47 -0.00    +0.035 A  ATOM     28  C   UNL     1      40.552  45.916  19.588 -0.39 +0.00    +0.029 A  ATOM     29  C   UNL     1      42.651  47.168  19.663 -0.46 +0.01    +0.032 A  ATOM     30  C   UNL     1      41.771  46.228  20.204 -0.39 +0.00    +0.027 A  ATOM     31  H   UNL     1      38.357  45.877  17.713 +0.10 -0.04    +0.167 HD BRANCH  29  32ATOM     32  N   UNL     1      43.910  47.370  20.251 -0.11 -0.19    -0.399 N  ATOM     33  H   UNL     1      44.550  47.895  19.661 -0.40 +0.06    +0.156 HD ATOM     34  H   UNL     1      43.862  47.738  21.195 -0.37 +0.04    +0.156 HD ENDBRANCH  29  32ENDBRANCH  20  22ENDBRANCH   1  20TORSDOF 3TERENDMDL