REMARK SMILES N=CC=CC=Cn1c(C=O)cc2ccccc21
REMARK SMILES IDX 4 1 3 2 2 3 1 4 5 6 6 7 7 8 8 9 17 10 11 11 16 12 12 13
REMARK SMILES IDX 15 14 13 15 14 16 9 17 10 18
REMARK H PARENT 1 5
ROOT
ATOM      1  C   UNL     1       2.867   0.341   1.115  1.00  0.00     0.003 C 
ENDROOT
BRANCH   1   2
ATOM      2  C   UNL     1       4.165   0.030   0.986  1.00  0.00     0.019 C 
BRANCH   2   3
ATOM      3  C   UNL     1       4.770  -0.696  -0.150  1.00  0.00     0.101 C 
BRANCH   3   4
ATOM      4  N   UNL     1       6.026  -0.970  -0.246  1.00  0.00    -0.309 NA
ATOM      5  H   UNL     1       6.551  -0.624   0.563  1.00  0.00     0.187 HD
ENDBRANCH   3   4
ENDBRANCH   2   3
ENDBRANCH   1   2
BRANCH   1   6
ATOM      6  C   UNL     1       1.784   0.047   0.198  1.00  0.00     0.018 C 
BRANCH   6   7
ATOM      7  C   UNL     1       0.514   0.404   0.456  1.00  0.00     0.092 C 
BRANCH   7   8
ATOM      8  N   UNL     1      -0.640   0.182  -0.322  1.00  0.00    -0.314 N 
ATOM      9  C   UNL     1      -0.741  -0.161  -1.670  1.00  0.00     0.086 A 
ATOM     10  C   UNL     1      -1.947   0.268   0.190  1.00  0.00     0.053 A 
ATOM     11  C   UNL     1      -2.057  -0.497  -1.929  1.00  0.00     0.040 A 
ATOM     12  C   UNL     1      -2.421   0.667   1.457  1.00  0.00     0.027 A 
ATOM     13  C   UNL     1      -2.828  -0.200  -0.787  1.00  0.00     0.001 A 
ATOM     14  C   UNL     1      -3.795   0.596   1.713  1.00  0.00     0.002 A 
ATOM     15  C   UNL     1      -4.207  -0.268  -0.506  1.00  0.00     0.010 A 
ATOM     16  C   UNL     1      -4.678   0.133   0.746  1.00  0.00     0.001 A 
BRANCH   9  17
ATOM     17  C   UNL     1       0.309  -0.129  -2.661  1.00  0.00     0.278 C 
ATOM     18  O   UNL     1       0.247  -0.679  -3.757  1.00  0.00    -0.296 OA
ENDBRANCH   9  17
ENDBRANCH   7   8
ENDBRANCH   6   7
ENDBRANCH   1   6
TORSDOF 7
