REMARK SMILES CCc1ccc(O)c(N2c3c(C=O)cc(O)cc3C[C@H]2C)c1N
REMARK SMILES IDX 9 1 10 2 11 3 14 4 15 5 17 6 18 7 19 8 20 9 21 10 8 11 3 12
REMARK SMILES IDX 4 13 22 14 5 15 6 16 2 17 1 18 23 19 7 22 12 24 13 25 16 26
REMARK H PARENT 23 20 23 21 7 23 16 27
ROOT
ATOM      1  N   UNL     1       0.688  -0.589   0.519  1.00  0.00    -0.333 N 
ATOM      2  C   UNL     1       1.751   0.370   0.614  1.00  0.00     0.056 A 
ATOM      3  C   UNL     1       1.674   1.763   0.675  1.00  0.00     0.042 A 
ATOM      4  C   UNL     1       2.860   2.517   0.740  1.00  0.00     0.059 A 
ATOM      5  C   UNL     1       4.099   1.874   0.778  1.00  0.00     0.116 A 
ATOM      6  C   UNL     1       4.190   0.489   0.757  1.00  0.00     0.052 A 
ATOM      7  C   UNL     1       3.012  -0.239   0.672  1.00  0.00    -0.018 A 
ATOM      8  C   UNL     1       2.867  -1.718   0.663  1.00  0.00     0.063 C 
ATOM      9  C   UNL     1       1.408  -1.865   0.189  1.00  0.00     0.089 C 
ATOM     10  C   UNL     1       0.742  -3.061   0.868  1.00  0.00     0.032 C 
ENDROOT
BRANCH   1  11
ATOM     11  C   UNL     1      -0.464  -0.405  -0.317  1.00  0.00     0.107 A 
ATOM     12  C   UNL     1      -2.911  -0.350  -0.491  1.00  0.00    -0.023 A 
ATOM     13  C   UNL     1      -2.781  -0.036  -1.855  1.00  0.00     0.010 A 
ATOM     14  C   UNL     1      -1.748  -0.561   0.277  1.00  0.00     0.063 A 
ATOM     15  C   UNL     1      -1.527   0.093  -2.451  1.00  0.00     0.049 A 
ATOM     16  C   UNL     1      -0.378  -0.083  -1.685  1.00  0.00     0.141 A 
BRANCH  12  17
ATOM     17  C   UNL     1      -4.299  -0.397   0.106  1.00  0.00     0.034 C 
ATOM     18  C   UNL     1      -4.691   0.926   0.748  1.00  0.00     0.009 C 
ENDBRANCH  12  17
BRANCH  14  19
ATOM     19  N   UNL     1      -1.824  -0.716   1.682  1.00  0.00    -0.397 N 
ATOM     20  H   UNL     1      -0.921  -1.013   2.051  1.00  0.00     0.156 HD
ATOM     21  H   UNL     1      -2.594  -1.292   1.997  1.00  0.00     0.156 HD
ENDBRANCH  14  19
BRANCH  16  22
ATOM     22  O   UNL     1       0.849   0.059  -2.278  1.00  0.00    -0.506 OA
ATOM     23  H   UNL     1       0.730   0.460  -3.154  1.00  0.00     0.293 HD
ENDBRANCH  16  22
ENDBRANCH   1  11
BRANCH   3  24
ATOM     24  C   UNL     1       0.392   2.492   0.730  1.00  0.00     0.262 C 
ATOM     25  O   UNL     1       0.344   3.713   0.605  1.00  0.00    -0.298 OA
ENDBRANCH   3  24
BRANCH   5  26
ATOM     26  O   UNL     1       5.261   2.584   0.852  1.00  0.00    -0.508 OA
ATOM     27  H   UNL     1       5.046   3.533   0.853  1.00  0.00     0.293 HD
ENDBRANCH   5  26
TORSDOF 6
