REMARK SMILES O=S(=O)(Nc1cccc(-c2nc3ccccc3[nH]2)c1)c1cccnc1O
REMARK SMILES IDX 1 1 2 2 3 3 4 4 5 6 6 7 19 8 7 9 9 10 8 11 10 12 11 13 18 14
REMARK SMILES IDX 12 15 17 16 13 17 16 18 14 19 15 20 20 22 21 23 25 24 22 25
REMARK SMILES IDX 24 26 23 27 26 28
REMARK H PARENT 4 5 18 21 26 29
ROOT
ATOM      1  O   UNL     1      -3.579   3.506   0.265  1.00  0.00    -0.201 OA
ATOM      2  S   UNL     1      -2.613   2.434   0.373  1.00  0.00     0.267 S 
ATOM      3  O   UNL     1      -1.522   2.527   1.324  1.00  0.00    -0.201 OA
ENDROOT
BRANCH   2   4
ATOM      4  N   UNL     1      -1.951   2.192  -1.171  1.00  0.00    -0.279 N 
ATOM      5  H   UNL     1      -2.666   2.370  -1.881  1.00  0.00     0.180 HD
BRANCH   4   6
ATOM      6  C   UNL     1      -1.109   1.058  -1.379  1.00  0.00     0.050 A 
ATOM      7  C   UNL     1      -1.521   0.058  -2.258  1.00  0.00     0.027 A 
ATOM      8  C   UNL     1       0.106   0.941  -0.699  1.00  0.00     0.038 A 
ATOM      9  C   UNL     1      -0.724  -1.070  -2.443  1.00  0.00     0.003 A 
ATOM     10  C   UNL     1       0.913  -0.193  -0.863  1.00  0.00     0.019 A 
ATOM     11  C   UNL     1       0.481  -1.194  -1.746  1.00  0.00     0.012 A 
BRANCH  10  12
ATOM     12  C   UNL     1       2.179  -0.371  -0.141  1.00  0.00     0.138 A 
ATOM     13  N   UNL     1       3.015  -1.385  -0.291  1.00  0.00    -0.229 NA
ATOM     14  N   UNL     1       2.664   0.495   0.816  1.00  0.00    -0.338 N 
ATOM     15  C   UNL     1       4.050  -1.164   0.582  1.00  0.00     0.089 A 
ATOM     16  C   UNL     1       3.855   0.012   1.292  1.00  0.00     0.066 A 
ATOM     17  C   UNL     1       5.197  -1.931   0.829  1.00  0.00     0.030 A 
ATOM     18  C   UNL     1       4.748   0.487   2.254  1.00  0.00     0.028 A 
ATOM     19  C   UNL     1       6.111  -1.481   1.790  1.00  0.00     0.002 A 
ATOM     20  C   UNL     1       5.887  -0.291   2.488  1.00  0.00     0.002 A 
ATOM     21  H   UNL     1       2.212   1.341   1.129  1.00  0.00     0.168 HD
ENDBRANCH  10  12
ENDBRANCH   4   6
ENDBRANCH   2   4
BRANCH   2  22
ATOM     22  C   UNL     1      -3.487   0.951   0.707  1.00  0.00     0.149 A 
ATOM     23  C   UNL     1      -3.203   0.185   1.837  1.00  0.00     0.029 A 
ATOM     24  C   UNL     1      -4.482   0.519  -0.142  1.00  0.00     0.231 A 
ATOM     25  C   UNL     1      -3.933  -0.980   2.062  1.00  0.00     0.022 A 
ATOM     26  N   UNL     1      -5.207  -0.600   0.043  1.00  0.00    -0.221 NA
ATOM     27  C   UNL     1      -4.917  -1.326   1.147  1.00  0.00     0.115 A 
BRANCH  24  28
ATOM     28  O   UNL     1      -4.813   1.156  -1.290  1.00  0.00    -0.492 OA
ATOM     29  H   UNL     1      -5.576   0.612  -1.566  1.00  0.00     0.295 HD
ENDBRANCH  24  28
ENDBRANCH   2  22
TORSDOF 5
