MODEL        1USER    Run = 1USERUSER    Estimated Free Energy of Binding    =  -9.53 kcal/mol  [=(1)+(2)+(3)-(4)]USERUSER    (1) Final Intermolecular Energy     = -10.72 kcal/molUSER        vdW + Hbond + desolv Energy     = -10.56 kcal/molUSER        Electrostatic Energy            =  -0.17 kcal/molUSER        Moving Ligand-Fixed Receptor    = -10.72 kcal/molUSER        Moving Ligand-Moving Receptor   =  +0.00 kcal/molUSER    (2) Final Total Internal Energy     =  -0.75 kcal/molUSER    (3) Torsional Free Energy           =  +1.19 kcal/molUSER    (4) Unbound System's Energy         =  -0.75 kcal/molUSERUSERREMARK SMILES NS(=O)(=O)c1c#cc(C(=O)c2c[nH]c3ncc(Cl)cc23)cc1REMARK SMILES IDX 5 1 6 2 7 3 8 4 21 5 22 6 2 7 3 8 4 9 1 10 9 13 10 14 11 15REMARK SMILES IDX 12 16 20 17 13 18 19 19 14 20 17 21 15 22 16 23 18 25REMARK H PARENT 1 11 1 12 13 24USER                              x       y       z     vdW  Elec       q    TypeUSER                           _______ _______ _______ _____ _____    ______ ____ROOTATOM      1  C   UNL     1      38.102  47.301  13.723 -0.39 -0.04    +0.132 A  ATOM      2  C   UNL     1      39.152  46.438  14.151 -0.30 +0.01    -0.048 A  ATOM      3  C   UNL     1      39.961  46.703  14.994 -0.41 +0.01    -0.057 A  ATOM      4  C   UNL     1      40.052  47.918  15.742 -0.49 -0.02    +0.073 A  ATOM      5  C   UNL     1      39.075  48.816  15.421 -0.48 -0.01    +0.023 A  ATOM      6  C   UNL     1      38.070  48.502  14.360 -0.51 -0.02    +0.032 A  ENDROOTBRANCH   1   7ATOM      7  S   UNL     1      36.969  46.911  12.484 -0.67 -0.09    +0.246 S  ATOM      8  O   UNL     1      36.206  45.741  12.864 -0.43 +0.09    -0.207 OA ATOM      9  O   UNL     1      37.590  46.993  11.178 -0.89 +0.04    -0.207 OA BRANCH   7  10ATOM     10  N   UNL     1      35.829  48.157  12.466 -0.50 +0.12    -0.224 NA ATOM     11  H   UNL     1      34.901  47.749  12.607 -0.13 -0.11    +0.137 HD ATOM     12  H   UNL     1      35.894  48.643  11.571 -0.40 -0.09    +0.137 HD ENDBRANCH   7  10ENDBRANCH   1   7BRANCH   4  13ATOM     13  C   UNL     1      41.020  48.223  16.832 -0.44 -0.02    +0.203 C  ATOM     14  O   UNL     1      41.672  49.266  16.818 -1.00 -0.04    -0.288 OA BRANCH  13  15ATOM     15  C   UNL     1      41.145  47.249  17.915 -0.49 -0.00    +0.050 A  ATOM     16  C   UNL     1      42.218  47.054  18.775 -0.47 +0.00    +0.097 A  ATOM     17  C   UNL     1      40.122  46.331  18.340 -0.44 -0.00    +0.031 A  ATOM     18  N   UNL     1      41.901  46.049  19.655 -0.20 -0.05    -0.345 N  ATOM     19  C   UNL     1      38.809  46.030  17.932 -0.38 -0.01    +0.035 A  ATOM     20  C   UNL     1      40.634  45.604  19.410 -0.34 +0.00    +0.138 A  ATOM     21  C   UNL     1      38.129  45.030  18.626 -0.34 -0.01    +0.060 A  ATOM     22  N   UNL     1      40.027  44.630  20.111 -0.22 -0.00    -0.237 NA ATOM     23  C   UNL     1      38.766  44.381  19.676 -0.26 -0.01    +0.134 A  ATOM     24  H   UNL     1      42.486  45.688  20.394 +0.09 +0.05    +0.167 HD ATOM     25  Cl  UNL     1      36.524  44.609  18.182 -0.47 +0.02    -0.083 Cl ENDBRANCH  13  15ENDBRANCH   4  13TORSDOF 4TERENDMDL