REMARK SMILES NS(=O)(=O)c1c#cc(C(=O)c2c[nH]c3ncc(Cl)cc23)cc1
REMARK SMILES IDX 5 1 6 2 7 3 8 4 21 5 22 6 2 7 3 8 4 9 1 10 9 13 10 14 11 15
REMARK SMILES IDX 12 16 20 17 13 18 19 19 14 20 17 21 15 22 16 23 18 25
REMARK H PARENT 1 11 1 12 13 24
ROOT
ATOM      1  C   UNL     1       3.294  -0.708  -1.332  1.00  0.00     0.132 A 
ATOM      2  C   UNL     1       2.033  -0.194  -1.752  1.00  0.00    -0.048 A 
ATOM      3  C   UNL     1       1.060  -0.104  -1.059  1.00  0.00    -0.057 A 
ATOM      4  C   UNL     1       0.949  -0.485   0.314  1.00  0.00     0.073 A 
ATOM      5  C   UNL     1       2.114  -0.979   0.826  1.00  0.00     0.023 A 
ATOM      6  C   UNL     1       3.330  -1.110  -0.033  1.00  0.00     0.032 A 
ENDROOT
BRANCH   1   7
ATOM      7  S   UNL     1       4.672  -0.859  -2.357  1.00  0.00     0.246 S 
ATOM      8  O   UNL     1       4.416  -1.845  -3.385  1.00  0.00    -0.207 OA
ATOM      9  O   UNL     1       5.889  -0.911  -1.574  1.00  0.00    -0.207 OA
BRANCH   7  10
ATOM     10  N   UNL     1       4.801   0.595  -3.206  1.00  0.00    -0.224 NA
ATOM     11  H   UNL     1       4.675   0.401  -4.202  1.00  0.00     0.137 HD
ATOM     12  H   UNL     1       5.718   1.002  -3.014  1.00  0.00     0.137 HD
ENDBRANCH   7  10
ENDBRANCH   1   7
BRANCH   4  13
ATOM     13  C   UNL     1      -0.243  -0.317   1.192  1.00  0.00     0.203 C 
ATOM     14  O   UNL     1      -0.121  -0.286   2.415  1.00  0.00    -0.288 OA
BRANCH  13  15
ATOM     15  C   UNL     1      -1.544  -0.173   0.541  1.00  0.00     0.050 A 
ATOM     16  C   UNL     1      -1.946  -0.669  -0.693  1.00  0.00     0.097 A 
ATOM     17  C   UNL     1      -2.698   0.473   1.105  1.00  0.00     0.031 A 
ATOM     18  N   UNL     1      -3.256  -0.318  -0.903  1.00  0.00    -0.345 N 
ATOM     19  C   UNL     1      -2.986   1.145   2.309  1.00  0.00     0.035 A 
ATOM     20  C   UNL     1      -3.729   0.369   0.177  1.00  0.00     0.138 A 
ATOM     21  C   UNL     1      -4.274   1.652   2.474  1.00  0.00     0.060 A 
ATOM     22  N   UNL     1      -4.985   0.840   0.282  1.00  0.00    -0.237 NA
ATOM     23  C   UNL     1      -5.207   1.477   1.459  1.00  0.00     0.134 A 
ATOM     24  H   UNL     1      -3.817  -0.539  -1.713  1.00  0.00     0.167 HD
ATOM     25  Cl  UNL     1      -4.697   2.484   3.916  1.00  0.00    -0.083 Cl
ENDBRANCH  13  15
ENDBRANCH   4  13
TORSDOF 4
