MODEL        9USER    Run = 9USERUSER    Estimated Free Energy of Binding    =  -9.39 kcal/mol  [=(1)+(2)+(3)-(4)]USERUSER    (1) Final Intermolecular Energy     = -11.18 kcal/molUSER        vdW + Hbond + desolv Energy     = -11.03 kcal/molUSER        Electrostatic Energy            =  -0.15 kcal/molUSER        Moving Ligand-Fixed Receptor    = -11.18 kcal/molUSER        Moving Ligand-Moving Receptor   =  +0.00 kcal/molUSER    (2) Final Total Internal Energy     =  -0.24 kcal/molUSER    (3) Torsional Free Energy           =  +1.79 kcal/molUSER    (4) Unbound System's Energy         =  -0.24 kcal/molUSERUSERREMARK SMILES COc1c2ccsc2c2c3c(cccc13)N[C@@H]2CCCCNREMARK SMILES IDX 19 1 18 2 17 3 3 4 4 5 15 6 5 7 8 8 14 9 10 10 6 11 7 12REMARK SMILES IDX 9 13 13 14 11 15 12 16 16 17 2 19 1 20 20 21 21 22 22 23REMARK H PARENT 16 18 22 24 22 25USER                              x       y       z     vdW  Elec       q    TypeUSER                           _______ _______ _______ _____ _____    ______ ____ROOTATOM      1  C   UNL     1      36.088  44.512  18.453 -0.40 -0.00    +0.004 C  ENDROOTBRANCH   1   2ATOM      2  C   UNL     1      37.579  44.837  18.621 -0.40 -0.00    +0.030 C  BRANCH   2   3ATOM      3  C   UNL     1      38.382  44.825  17.312 -0.31 -0.02    +0.111 C  ATOM      4  C   UNL     1      40.672  48.363  16.446 -0.45 -0.02    +0.135 A  ATOM      5  C   UNL     1      41.154  47.582  17.545 -0.49 -0.00    +0.036 A  ATOM      6  C   UNL     1      39.564  47.934  15.677 -0.51 -0.01    +0.027 A  ATOM      7  C   UNL     1      42.295  47.779  18.401 -0.47 -0.00    +0.024 A  ATOM      8  C   UNL     1      40.460  46.409  17.900 -0.46 -0.00    +0.044 A  ATOM      9  C   UNL     1      39.005  48.520  14.518 -0.49 -0.01    +0.013 A  ATOM     10  C   UNL     1      38.944  46.773  16.119 -0.42 -0.00    +0.015 A  ATOM     11  C   UNL     1      42.435  46.794  19.349 -0.45 +0.01    +0.066 A  ATOM     12  S   UNL     1      41.216  45.613  19.230 -0.52 -0.01    -0.143 S  ATOM     13  C   UNL     1      39.318  46.014  17.191 -0.43 -0.00    +0.002 A  ATOM     14  C   UNL     1      37.899  47.925  13.881 -0.53 -0.00    +0.003 A  ATOM     15  C   UNL     1      37.874  46.174  15.520 -0.35 -0.02    +0.043 A  ATOM     16  C   UNL     1      37.330  46.742  14.382 -0.42 -0.01    +0.026 A  ATOM     17  N   UNL     1      37.444  44.975  16.152 -0.09 +0.13    -0.378 N  ATOM     18  H   UNL     1      37.538  44.210  15.488 +0.10 -0.05    +0.161 HD BRANCH   4  19ATOM     19  O   UNL     1      41.344  49.509  16.058 -0.81 +0.03    -0.495 OA ATOM     20  C   UNL     1      41.793  49.363  14.710 -0.35 -0.02    +0.278 C  ENDBRANCH   4  19ENDBRANCH   2   3ENDBRANCH   1   2BRANCH   1  21ATOM     21  C   UNL     1      35.260  45.639  17.833 -0.43 -0.01    +0.015 C  BRANCH  21  22ATOM     22  C   UNL     1      34.028  45.950  18.685 -0.50 -0.04    +0.077 C  BRANCH  22  23ATOM     23  N   UNL     1      33.763  47.385  18.720 -0.84 +0.26    -0.330 NA ATOM     24  H   UNL     1      32.832  47.548  19.101 -0.51 -0.09    +0.118 HD ATOM     25  H   UNL     1      33.737  47.745  17.767 -0.50 -0.25    +0.118 HD ENDBRANCH  22  23ENDBRANCH  21  22ENDBRANCH   1  21TORSDOF 6TERENDMDL