REMARK SMILES C[CH][C@H]1[C@H](CC)CN(c2c(F)cccc2F)C(=O)CN1C(=O)/C=C/c1ccccc1
REMARK SMILES IDX 20 1 3 2 2 3 1 4 4 5 5 7 6 8 19 9 17 10 18 11 8 12 7 13 9 15
REMARK SMILES IDX 10 16 15 17 12 18 14 19 13 20 11 21 16 22 21 23 22 24 23 25
REMARK SMILES IDX 24 26 25 27 26 28 30 29 27 30 29 31 28 32
REMARK H PARENT
REMARK Flexibility Score:   79.900
ROOT
ATOM      1  N   UNL     1       0.658  -0.585  -0.203  1.00  0.00    -0.326 N 
ENDROOT
BRANCH   1   2
ATOM      2  C   UNL     1      -0.438  -1.494  -0.553  1.00  0.00     0.094 C 
BRANCH   2   3
ATOM      3  C   UNL     1       0.145  -2.753  -1.120  1.00  0.00     0.014 C 
ATOM      4  C   UNL     1       0.324  -2.907  -2.589  1.00  0.00     0.010 C 
ENDBRANCH   2   3
BRANCH   2   5
ATOM      5  C   UNL     1      -1.412  -1.693   0.630  1.00  0.00     0.032 CG0
ATOM      6  G   UNL     1      -1.578  -0.367   1.416  1.00  0.00     0.000 G0
BRANCH   5   7
ATOM      7  C   UNL     1      -2.796  -2.220   0.186  1.00  0.00     0.004 C 
ATOM      8  C   UNL     1      -2.815  -3.686  -0.223  1.00  0.00     0.004 C 
ENDBRANCH   5   7
ENDBRANCH   2   5
ENDBRANCH   1   2
BRANCH   1   9
ATOM      9  C   UNL     1       0.391   0.839  -0.459  1.00  0.00     0.220 C 
BRANCH   9  10
ATOM     10  C   UNL     1      -1.040   1.406  -0.300  1.00  0.00     0.246 C 
ATOM     11  O   UNL     1      -1.292   2.485  -0.854  1.00  0.00    -0.272 OA
BRANCH  10  12
ATOM     12  N   UNL     1      -1.944   0.771   0.556  1.00  0.00    -0.305 N 
BRANCH  12  13
ATOM     13  C   UNL     1      -1.578  -0.367   1.416  1.00  0.00     0.131 CG0
ATOM     14  G   UNL     1      -1.412  -1.693   0.630  1.00  0.00     0.000 G0
ENDBRANCH  12  13
BRANCH  12  15
ATOM     15  C   UNL     1      -3.309   1.219   0.583  1.00  0.00     0.116 A 
ATOM     16  C   UNL     1      -4.001   1.421   1.787  1.00  0.00     0.149 A 
ATOM     17  C   UNL     1      -4.013   1.452  -0.609  1.00  0.00     0.149 A 
ATOM     18  C   UNL     1      -5.330   1.847   1.802  1.00  0.00     0.042 A 
ATOM     19  C   UNL     1      -5.342   1.879  -0.604  1.00  0.00     0.042 A 
ATOM     20  C   UNL     1      -6.005   2.078   0.605  1.00  0.00     0.006 A 
ATOM     21  F   UNL     1      -3.386   1.262   2.973  1.00  0.00    -0.205 F 
ATOM     22  F   UNL     1      -3.451   1.169  -1.796  1.00  0.00    -0.205 F 
ENDBRANCH  12  15
ENDBRANCH  10  12
ENDBRANCH   9  10
ENDBRANCH   1   9
BRANCH   1  23
ATOM     23  C   UNL     1       1.634  -0.981   0.706  1.00  0.00     0.247 C 
ATOM     24  O   UNL     1       1.554  -1.983   1.409  1.00  0.00    -0.270 OA
BRANCH  23  25
ATOM     25  C   UNL     1       2.836  -0.125   0.869  1.00  0.00     0.072 C 
BRANCH  25  26
ATOM     26  C   UNL     1       3.492   0.425  -0.165  1.00  0.00     0.014 C 
BRANCH  26  27
ATOM     27  C   UNL     1       4.691   1.235   0.041  1.00  0.00    -0.025 A 
ATOM     28  C   UNL     1       5.885   0.652   0.483  1.00  0.00     0.008 A 
ATOM     29  C   UNL     1       4.648   2.612  -0.205  1.00  0.00     0.008 A 
ATOM     30  C   UNL     1       7.020   1.442   0.683  1.00  0.00     0.001 A 
ATOM     31  C   UNL     1       5.783   3.401   0.001  1.00  0.00     0.001 A 
ATOM     32  C   UNL     1       6.967   2.816   0.445  1.00  0.00     0.000 A 
ENDBRANCH  26  27
ENDBRANCH  25  26
ENDBRANCH  23  25
ENDBRANCH   1  23
TORSDOF 7
