MODEL        6USER    Run = 6USERUSER    Estimated Free Energy of Binding    =  -8.75 kcal/mol  [=(1)+(2)+(3)-(4)]USERUSER    (1) Final Intermolecular Energy     =  -9.94 kcal/molUSER        vdW + Hbond + desolv Energy     =  -9.71 kcal/molUSER        Electrostatic Energy            =  -0.23 kcal/molUSER        Moving Ligand-Fixed Receptor    =  -9.94 kcal/molUSER        Moving Ligand-Moving Receptor   =  +0.00 kcal/molUSER    (2) Final Total Internal Energy     =  -0.43 kcal/molUSER    (3) Torsional Free Energy           =  +1.19 kcal/molUSER    (4) Unbound System's Energy         =  -0.43 kcal/molUSERUSERREMARK SMILES Cc1cccc(-c2ccnc(NC(=O)C3CC3)c2)c1NREMARK SMILES IDX 1 1 2 2 3 3 4 4 5 5 6 6 19 7 20 8 7 11 8 12 18 13 9 14 11 15REMARK SMILES IDX 10 16 12 17 13 18 14 20 15 21 16 22 17 23REMARK H PARENT 20 9 20 10 12 19USER                              x       y       z     vdW  Elec       q    TypeUSER                           _______ _______ _______ _____ _____    ______ ____ROOTATOM      1  C   UNL     1      31.200  44.498  15.734 -0.39 -0.02    +0.046 C  ATOM      2  C   UNL     1      32.704  44.508  15.803 -0.32 +0.02    -0.027 A  ATOM      3  C   UNL     1      33.341  43.665  16.727 -0.32 -0.00    +0.005 A  ATOM      4  C   UNL     1      34.725  43.668  16.856 -0.34 -0.00    +0.001 A  ATOM      5  C   UNL     1      35.491  44.525  16.070 -0.33 -0.01    +0.011 A  ATOM      6  C   UNL     1      34.885  45.381  15.131 -0.33 -0.00    +0.005 A  ATOM      7  C   UNL     1      33.478  45.336  14.958 -0.15 -0.03    +0.042 A  ENDROOTBRANCH   7   8ATOM      8  N   UNL     1      32.834  46.252  14.098 -0.11 +0.39    -0.398 N  ATOM      9  H   UNL     1      32.763  47.191  14.479 -0.40 -0.28    +0.156 HD ATOM     10  H   UNL     1      33.183  46.249  13.147 -0.44 -0.13    +0.156 HD ENDBRANCH   7   8BRANCH   6  11ATOM     11  C   UNL     1      35.747  46.280  14.346 -0.42 +0.01    -0.011 A  ATOM     12  C   UNL     1      35.437  46.583  13.018 -0.51 -0.02    +0.029 A  ATOM     13  C   UNL     1      36.898  46.848  14.907 -0.37 -0.04    +0.056 A  ATOM     14  C   UNL     1      36.274  47.433  12.323 -0.59 -0.05    +0.114 A  ATOM     15  C   UNL     1      37.685  47.689  14.133 -0.42 -0.06    +0.133 A  ATOM     16  N   UNL     1      37.384  47.991  12.851 -0.90 +0.05    -0.239 NA BRANCH  15  17ATOM     17  N   UNL     1      38.852  48.306  14.578 -0.28 +0.13    -0.310 N  ATOM     18  C   UNL     1      40.010  47.724  15.014 -0.41 -0.05    +0.228 C  ATOM     19  H   UNL     1      38.794  49.314  14.547 -0.34 -0.12    +0.171 HD ATOM     20  O   UNL     1      40.258  46.533  15.123 -0.34 +0.03    -0.274 OA BRANCH  18  21ATOM     21  C   UNL     1      41.045  48.720  15.412 -0.60 -0.01    +0.079 C  ATOM     22  C   UNL     1      40.679  50.155  15.715 -0.64 -0.01    +0.014 C  ATOM     23  C   UNL     1      41.421  49.825  14.454 -0.75 -0.00    +0.014 C  ENDBRANCH  18  21ENDBRANCH  15  17ENDBRANCH   6  11TORSDOF 4TERENDMDL