REMARK SMILES CN=CC=CN=C(C=Cc1cc(=O)c(=O)cco1)c1ccccc1
REMARK SMILES IDX 6 1 5 2 4 3 3 4 2 5 1 6 7 7 8 8 9 9 10 10 11 11 18 12 12 13
REMARK SMILES IDX 17 14 14 15 16 16 13 17 15 18 19 19 20 20 24 21 21 22 23 23
REMARK SMILES IDX 22 24
REMARK H PARENT
ROOT
ATOM      1  N   UNL     1      -1.978  -0.201  -0.657  1.00  0.00    -0.256 NA
ENDROOT
BRANCH   1   2
ATOM      2  C   UNL     1      -1.764   1.149  -0.627  1.00  0.00     0.113 C 
BRANCH   2   3
ATOM      3  C   UNL     1      -2.519   1.961   0.122  1.00  0.00     0.040 C 
BRANCH   3   4
ATOM      4  C   UNL     1      -2.251   3.415   0.103  1.00  0.00     0.106 C 
BRANCH   4   5
ATOM      5  N   UNL     1      -2.828   4.353   0.766  1.00  0.00    -0.296 NA
ATOM      6  C   UNL     1      -3.910   4.000   1.674  1.00  0.00     0.171 C 
ENDBRANCH   4   5
ENDBRANCH   3   4
ENDBRANCH   2   3
ENDBRANCH   1   2
BRANCH   1   7
ATOM      7  C   UNL     1      -0.968  -1.019  -0.709  1.00  0.00     0.070 C 
BRANCH   7   8
ATOM      8  C   UNL     1       0.481  -0.651  -0.670  1.00  0.00     0.033 C 
BRANCH   8   9
ATOM      9  C   UNL     1       0.976  -0.035   0.415  1.00  0.00     0.049 C 
BRANCH   9  10
ATOM     10  C   UNL     1       2.353   0.393   0.586  1.00  0.00     0.130 A 
ATOM     11  C   UNL     1       3.382  -0.387   0.227  1.00  0.00     0.103 A 
ATOM     12  O   UNL     1       2.421   1.557   1.321  1.00  0.00    -0.465 OA
ATOM     13  C   UNL     1       4.786  -0.044   0.480  1.00  0.00     0.229 A 
ATOM     14  C   UNL     1       3.361   2.535   1.165  1.00  0.00     0.200 A 
ATOM     15  C   UNL     1       5.256   1.330   0.071  1.00  0.00     0.228 A 
ATOM     16  C   UNL     1       4.579   2.512   0.618  1.00  0.00     0.095 A 
ATOM     17  O   UNL     1       5.571  -0.869   0.923  1.00  0.00    -0.285 OA
ATOM     18  O   UNL     1       6.201   1.449  -0.698  1.00  0.00    -0.285 OA
ENDBRANCH   9  10
ENDBRANCH   8   9
ENDBRANCH   7   8
BRANCH   7  19
ATOM     19  C   UNL     1      -1.245  -2.488  -0.862  1.00  0.00     0.000 A 
ATOM     20  C   UNL     1      -2.503  -2.893  -1.333  1.00  0.00     0.010 A 
ATOM     21  C   UNL     1      -0.294  -3.466  -0.537  1.00  0.00     0.010 A 
ATOM     22  C   UNL     1      -2.799  -4.249  -1.491  1.00  0.00     0.001 A 
ATOM     23  C   UNL     1      -0.594  -4.822  -0.696  1.00  0.00     0.001 A 
ATOM     24  C   UNL     1      -1.843  -5.212  -1.175  1.00  0.00     0.000 A 
ENDBRANCH   7  19
ENDBRANCH   1   7
TORSDOF 9
