MODEL        9USER    Run = 9USERUSER    Estimated Free Energy of Binding    =  -6.04 kcal/mol  [=(1)+(2)+(3)-(4)]USERUSER    (1) Final Intermolecular Energy     =  -9.92 kcal/molUSER        vdW + Hbond + desolv Energy     = -10.60 kcal/molUSER        Electrostatic Energy            =  +0.11 kcal/molUSER        Moving Ligand-Fixed Receptor    = -10.49 kcal/molUSER        Moving Ligand-Moving Receptor   =  +0.56 kcal/molUSER    (2) Final Total Internal Energy     =  -2.47 kcal/molUSER    (3) Torsional Free Energy           =  +3.88 kcal/molUSER    (4) Unbound System's Energy         =  -2.47 kcal/molUSERUSERREMARK SMILES C[CH][C@H]1[C@H](CC)CN(c2c(F)cccc2F)C(=O)CN1C(=O)/C=C/c1ccccc1REMARK SMILES IDX 20 1 3 2 2 3 1 4 4 5 5 7 6 8 19 9 17 10 18 11 8 12 7 13 9 15REMARK SMILES IDX 10 16 15 17 12 18 14 19 13 20 11 21 16 22 21 23 22 24 23 25REMARK SMILES IDX 24 26 25 27 26 28 30 29 27 30 29 31 28 32REMARK H PARENTREMARK Flexibility Score:   79.900USER                              x       y       z     vdW  Elec       q    TypeUSER                           _______ _______ _______ _____ _____    ______ ____ROOTATOM      1  N   UNL     1      35.069  45.080  17.529 -0.11 +0.16    -0.326 N  ENDROOTBRANCH   1   2ATOM      2  C   UNL     1      34.997  45.024  16.066 -0.31 -0.06    +0.094 C  BRANCH   2   3ATOM      3  C   UNL     1      33.564  45.167  15.650 -0.38 -0.01    +0.014 C  ATOM      4  C   UNL     1      32.727  43.963  15.399 -0.28 -0.01    +0.010 C  ENDBRANCH   2   3BRANCH   2   5ATOM      5  C   UNL     1      35.977  46.022  15.409 -0.41 -0.02    +0.032 CG0ATOM      6  G   UNL     1      37.433  45.506  15.539 +0.00 +0.00    +0.000 G0 BRANCH   5   7ATOM      7  C   UNL     1      35.646  46.300  13.925 -0.53 -0.00    +0.004 C  ATOM      8  C   UNL     1      36.582  47.286  13.240 -0.67 -0.00    +0.004 C  ENDBRANCH   5   7ENDBRANCH   2   5ENDBRANCH   1   2BRANCH   1   9ATOM      9  C   UNL     1      36.293  44.510  18.114 -0.24 -0.06    +0.220 C  BRANCH   9  10ATOM     10  C   UNL     1      37.626  45.293  18.051 -0.25 -0.06    +0.246 C  ATOM     11  O   UNL     1      38.218  45.501  19.119 -0.26 +0.03    -0.272 OA BRANCH  10  12ATOM     12  N   UNL     1      38.044  45.849  16.839 -0.18 +0.10    -0.305 N  BRANCH  12  13ATOM     13  C   UNL     1      37.432  45.513  15.543 -0.33 -0.05    +0.131 CG0ATOM     14  G   UNL     1      35.974  46.023  15.410 +0.00 +0.00    +0.000 G0 ENDBRANCH  12  13BRANCH  12  15ATOM     15  C   UNL     1      39.147  46.771  16.840 -0.36 -0.03    +0.116 A  ATOM     16  C   UNL     1      40.327  46.516  17.556 -0.38 -0.02    +0.149 A  ATOM     17  C   UNL     1      39.073  47.981  16.134 -0.34 -0.07    +0.149 A  ATOM     18  C   UNL     1      41.388  47.422  17.558 -0.42 -0.00    +0.042 A  ATOM     19  C   UNL     1      40.130  48.893  16.129 -0.48 -0.01    +0.042 A  ATOM     20  C   UNL     1      41.293  48.615  16.843 -0.44 -0.00    +0.006 A  ATOM     21  F   UNL     1      40.495  45.360  18.223 -0.11 +0.01    -0.205 F  ATOM     22  F   UNL     1      37.932  48.342  15.522 -0.14 +0.15    -0.205 F  ENDBRANCH  12  15ENDBRANCH  10  12ENDBRANCH   9  10ENDBRANCH   1   9BRANCH   1  23ATOM     23  C   UNL     1      34.294  45.995  18.234 -0.37 -0.16    +0.247 C  ATOM     24  O   UNL     1      34.501  47.204  18.252 -0.87 +0.27    -0.270 OA BRANCH  23  25ATOM     25  C   UNL     1      33.163  45.483  19.049 -0.19 -0.03    +0.072 C  BRANCH  25  26ATOM     26  C   UNL     1      33.132  44.245  19.568 -0.49 -0.00    +0.014 C  BRANCH  26  27ATOM     27  C   UNL     1      32.538  43.130  18.834 -0.36 +0.00    -0.025 A  ATOM     28  C   UNL     1      31.264  43.242  18.264 -0.27 -0.00    +0.008 A  ATOM     29  C   UNL     1      33.249  41.932  18.699 -0.40 -0.00    +0.008 A  ATOM     30  C   UNL     1      30.707  42.163  17.573 -0.27 -0.00    +0.001 A  ATOM     31  C   UNL     1      32.687  40.852  18.012 -0.42 -0.00    +0.001 A  ATOM     32  C   UNL     1      31.417  40.968  17.451 -0.33 -0.00    +0.000 A  ENDBRANCH  26  27ENDBRANCH  25  26ENDBRANCH  23  25ENDBRANCH   1  23TORSDOF 7TERENDMDL