REMARK SMILES Cc1cccc(-c2ccnc(NC(=O)C3CC3)c2)c1N
REMARK SMILES IDX 1 1 2 2 3 3 4 4 5 5 6 6 19 7 20 8 7 11 8 12 18 13 9 14 11 15
REMARK SMILES IDX 10 16 12 17 13 18 14 20 15 21 16 22 17 23
REMARK H PARENT 20 9 20 10 12 19
ROOT
ATOM      1  C   UNL     1      -4.862  -0.819  -1.530  1.00  0.00     0.046 C 
ATOM      2  C   UNL     1      -4.013   0.044  -0.635  1.00  0.00    -0.027 A 
ATOM      3  C   UNL     1      -4.444   1.350  -0.353  1.00  0.00     0.005 A 
ATOM      4  C   UNL     1      -3.675   2.198   0.436  1.00  0.00     0.001 A 
ATOM      5  C   UNL     1      -2.457   1.755   0.943  1.00  0.00     0.011 A 
ATOM      6  C   UNL     1      -1.996   0.451   0.683  1.00  0.00     0.005 A 
ATOM      7  C   UNL     1      -2.807  -0.434  -0.073  1.00  0.00     0.042 A 
ENDROOT
BRANCH   7   8
ATOM      8  N   UNL     1      -2.327  -1.711  -0.434  1.00  0.00    -0.398 N 
ATOM      9  H   UNL     1      -1.623  -2.078   0.200  1.00  0.00     0.156 HD
ATOM     10  H   UNL     1      -3.052  -2.389  -0.636  1.00  0.00     0.156 HD
ENDBRANCH   7   8
BRANCH   6  11
ATOM     11  C   UNL     1      -0.689   0.049   1.228  1.00  0.00    -0.011 A 
ATOM     12  C   UNL     1      -0.550  -0.272   2.580  1.00  0.00     0.029 A 
ATOM     13  C   UNL     1       0.446  -0.016   0.408  1.00  0.00     0.056 A 
ATOM     14  C   UNL     1       0.696  -0.645   3.045  1.00  0.00     0.114 A 
ATOM     15  C   UNL     1       1.660  -0.397   0.961  1.00  0.00     0.133 A 
ATOM     16  N   UNL     1       1.797  -0.716   2.267  1.00  0.00    -0.239 NA
BRANCH  15  17
ATOM     17  N   UNL     1       2.854  -0.493   0.249  1.00  0.00    -0.310 N 
ATOM     18  C   UNL     1       3.080  -0.226  -1.073  1.00  0.00     0.228 C 
ATOM     19  H   UNL     1       3.627  -0.790   0.826  1.00  0.00     0.171 HD
ATOM     20  O   UNL     1       2.274   0.136  -1.916  1.00  0.00    -0.274 OA
BRANCH  18  21
ATOM     21  C   UNL     1       4.498  -0.448  -1.474  1.00  0.00     0.079 C 
ATOM     22  C   UNL     1       5.636   0.240  -0.754  1.00  0.00     0.014 C 
ATOM     23  C   UNL     1       5.266   0.668  -2.143  1.00  0.00     0.014 C 
ENDBRANCH  18  21
ENDBRANCH  15  17
ENDBRANCH   6  11
TORSDOF 4
