MODEL        2USER    Run = 2USERUSER    Estimated Free Energy of Binding    =  -7.16 kcal/mol  [=(1)+(2)+(3)-(4)]USERUSER    (1) Final Intermolecular Energy     =  -8.65 kcal/molUSER        vdW + Hbond + desolv Energy     =  -8.33 kcal/molUSER        Electrostatic Energy            =  -0.32 kcal/molUSER        Moving Ligand-Fixed Receptor    =  -8.65 kcal/molUSER        Moving Ligand-Moving Receptor   =  +0.00 kcal/molUSER    (2) Final Total Internal Energy     =  -0.98 kcal/molUSER    (3) Torsional Free Energy           =  +1.49 kcal/molUSER    (4) Unbound System's Energy         =  -0.98 kcal/molUSERUSERREMARK SMILES CCCc1cc(O)c2cc(O)c(O)cc2c1CREMARK SMILES IDX 4 1 5 2 6 3 8 4 9 5 10 6 12 7 14 8 15 9 16 10 17 11 3 12REMARK SMILES IDX 2 13 1 14 7 15 13 17 11 19REMARK H PARENT 7 16 13 18 11 20USER                              x       y       z     vdW  Elec       q    TypeUSER                           _______ _______ _______ _____ _____    ______ ____ROOTATOM      1  C   UNL     1      38.783  47.994  15.467 -0.47 +0.02    -0.041 A  ATOM      2  C   UNL     1      39.752  48.999  15.359 -0.48 -0.02    +0.050 A  ATOM      3  C   UNL     1      40.869  49.008  16.187 -0.46 -0.02    +0.123 A  ATOM      4  C   UNL     1      41.060  48.034  17.184 -0.51 -0.00    +0.028 A  ATOM      5  C   UNL     1      42.164  48.062  18.071 -0.31 -0.00    +0.062 A  ATOM      6  C   UNL     1      42.327  47.080  19.035 -0.42 +0.01    +0.158 A  ATOM      7  C   UNL     1      41.423  46.039  19.124 -0.36 +0.01    +0.158 A  ATOM      8  C   UNL     1      40.311  46.003  18.294 -0.43 -0.00    +0.059 A  ATOM      9  C   UNL     1      40.090  46.997  17.310 -0.49 +0.00    -0.008 A  ATOM     10  C   UNL     1      38.940  46.990  16.451 -0.41 +0.01    -0.040 A  ATOM     11  C   UNL     1      37.910  45.893  16.610 -0.40 -0.02    +0.045 C  ENDROOTBRANCH   1  12ATOM     12  C   UNL     1      37.604  48.066  14.519 -0.57 -0.02    +0.035 C  BRANCH  12  13ATOM     13  C   UNL     1      37.806  47.183  13.286 -0.58 -0.00    +0.001 C  ATOM     14  C   UNL     1      36.604  47.245  12.356 -0.76 -0.00    +0.004 C  ENDBRANCH  12  13ENDBRANCH   1  12BRANCH   3  15ATOM     15  O   UNL     1      41.761  50.021  15.944 -0.77 -0.01    -0.507 OA ATOM     16  H   UNL     1      41.493  50.795  16.463 -0.33 -0.08    +0.293 HD ENDBRANCH   3  15BRANCH   7  17ATOM     17  O   UNL     1      41.619  45.021  20.013 -0.09 -0.08    -0.504 OA ATOM     18  H   UNL     1      42.404  45.267  20.536 +0.17 +0.08    +0.293 HD ENDBRANCH   7  17BRANCH   6  19ATOM     19  O   UNL     1      43.369  47.176  19.909 -0.23 -0.17    -0.504 OA ATOM     20  H   UNL     1      43.599  48.124  19.949 -0.40 -0.03    +0.293 HD ENDBRANCH   6  19TORSDOF 5TERENDMDL