REMARK SMILES NC1=NC=C(c2cc3cc(N)ccc3[nH]2)N=C(NC2CCCCC2)N1
REMARK SMILES IDX 16 1 17 2 1 3 2 4 25 5 18 6 3 11 4 12 19 14 20 15 24 16
REMARK SMILES IDX 21 17 23 18 22 19 5 20 6 22 7 23 15 24 8 25 14 26 9 27 13 28
REMARK SMILES IDX 10 29 12 30 11 32
REMARK H PARENT 1 7 1 8 25 9 18 10 15 31 11 33 11 34
REMARK Flexibility Score:   32.900
ROOT
ATOM      1  N   UNL     1      -0.289  -0.786   1.241  1.00  0.00    -0.211 NA
ENDROOT
BRANCH   1   2
ATOM      2  C   UNL     1      -1.194  -1.124   2.095  1.00  0.00     0.203 C 
ATOM      3  N   UNL     1      -0.419  -3.383   4.768  1.00  0.00    -0.369 N 
ATOM      4  C   UNL     1      -0.075  -2.719   3.626  1.00  0.00     0.200 C 
ATOM      5  N   UNL     1      -1.098  -1.978   3.148  1.00  0.00    -0.297 N 
ATOM      6  N   UNL     1      -2.472  -0.602   2.048  1.00  0.00    -0.353 N 
ATOM      7  H   UNL     1      -0.724  -2.757   5.505  1.00  0.00     0.159 HD
ATOM      8  H   UNL     1       0.404  -3.883   5.098  1.00  0.00     0.159 HD
ATOM      9  H   UNL     1      -1.932  -2.044   3.704  1.00  0.00     0.173 HD
ATOM     10  H   UNL     1      -3.186  -1.308   2.186  1.00  0.00     0.163 HD
BRANCH   4  11
ATOM     11  N   UNL     1       1.123  -2.882   3.186  1.00  0.00    -0.221 NA
BRANCH  11  12
ATOM     12  C   UNL     1       1.554  -2.224   2.062  1.00  0.00     0.145 CG0
ATOM     13  G   UNL     1       0.977  -1.330   1.233  1.00  0.00     0.000 G0
ENDBRANCH  11  12
ENDBRANCH   4  11
BRANCH   6  14
ATOM     14  C   UNL     1      -2.927   0.418   1.103  1.00  0.00     0.082 C 
ATOM     15  C   UNL     1      -2.161   1.734   1.244  1.00  0.00     0.025 C 
ATOM     16  C   UNL     1      -2.967  -0.099  -0.343  1.00  0.00     0.025 C 
ATOM     17  C   UNL     1      -2.783   2.838   0.383  1.00  0.00     0.002 C 
ATOM     18  C   UNL     1      -2.814   1.016  -1.382  1.00  0.00     0.002 C 
ATOM     19  C   UNL     1      -3.432   2.324  -0.905  1.00  0.00     0.000 C 
ENDBRANCH   6  14
ENDBRANCH   1   2
BRANCH   1  20
ATOM     20  C   UNL     1       0.977  -1.330   1.233  1.00  0.00     0.109 CG0
ATOM     21  G   UNL     1       1.554  -2.224   2.062  1.00  0.00     0.000 G0
BRANCH  20  22
ATOM     22  C   UNL     1       1.763  -0.836   0.134  1.00  0.00     0.067 A 
ATOM     23  C   UNL     1       3.031  -1.063  -0.376  1.00  0.00     0.038 A 
ATOM     24  N   UNL     1       1.191   0.118  -0.681  1.00  0.00    -0.353 N 
ATOM     25  C   UNL     1       3.216  -0.231  -1.518  1.00  0.00     0.002 A 
ATOM     26  C   UNL     1       2.046   0.506  -1.680  1.00  0.00     0.046 A 
ATOM     27  C   UNL     1       4.278  -0.024  -2.423  1.00  0.00     0.035 A 
ATOM     28  C   UNL     1       1.887   1.455  -2.694  1.00  0.00     0.029 A 
ATOM     29  C   UNL     1       4.125   0.873  -3.489  1.00  0.00     0.032 A 
ATOM     30  C   UNL     1       2.958   1.636  -3.579  1.00  0.00     0.027 A 
ATOM     31  H   UNL     1       0.256   0.467  -0.526  1.00  0.00     0.167 HD
BRANCH  29  32
ATOM     32  N   UNL     1       5.217   1.161  -4.323  1.00  0.00    -0.399 N 
ATOM     33  H   UNL     1       5.871   0.388  -4.411  1.00  0.00     0.156 HD
ATOM     34  H   UNL     1       4.949   1.546  -5.223  1.00  0.00     0.156 HD
ENDBRANCH  29  32
ENDBRANCH  20  22
ENDBRANCH   1  20
TORSDOF 3
