MODEL        8USER    Run = 8USERUSER    Estimated Free Energy of Binding    =  -7.05 kcal/mol  [=(1)+(2)+(3)-(4)]USERUSER    (1) Final Intermolecular Energy     =  -8.84 kcal/molUSER        vdW + Hbond + desolv Energy     =  -8.04 kcal/molUSER        Electrostatic Energy            =  -0.80 kcal/molUSER        Moving Ligand-Fixed Receptor    =  -8.84 kcal/molUSER        Moving Ligand-Moving Receptor   =  +0.00 kcal/molUSER    (2) Final Total Internal Energy     =  -1.23 kcal/molUSER    (3) Torsional Free Energy           =  +1.79 kcal/molUSER    (4) Unbound System's Energy         =  -1.23 kcal/molUSERUSERREMARK SMILES CCc1ccc(O)c(N2c3c(C=O)cc(O)cc3C[C@H]2C)c1NREMARK SMILES IDX 9 1 10 2 11 3 14 4 15 5 17 6 18 7 19 8 20 9 21 10 8 11 3 12REMARK SMILES IDX 4 13 22 14 5 15 6 16 2 17 1 18 23 19 7 22 12 24 13 25 16 26REMARK H PARENT 23 20 23 21 7 23 16 27USER                              x       y       z     vdW  Elec       q    TypeUSER                           _______ _______ _______ _____ _____    ______ ____ROOTATOM      1  N   UNL     1      39.433  58.766   4.593 -0.10 +0.21    -0.333 N  ATOM      2  C   UNL     1      40.076  57.787   5.422 -0.19 -0.04    +0.056 A  ATOM      3  C   UNL     1      39.664  57.271   6.653 -0.31 -0.02    +0.042 A  ATOM      4  C   UNL     1      40.474  56.326   7.309 -0.05 -0.04    +0.059 A  ATOM      5  C   UNL     1      41.659  55.885   6.717 -0.18 -0.06    +0.116 A  ATOM      6  C   UNL     1      42.062  56.360   5.477 -0.16 -0.03    +0.052 A  ATOM      7  C   UNL     1      41.263  57.307   4.852 -0.15 +0.02    -0.018 A  ATOM      8  C   UNL     1      41.480  57.930   3.520 -0.25 -0.06    +0.063 C  ATOM      9  C   UNL     1      40.492  59.111   3.587 -0.32 -0.06    +0.089 C  ATOM     10  C   UNL     1      39.877  59.373   2.212 -0.35 -0.01    +0.032 C  ENDROOTBRANCH   1  11ATOM     11  C   UNL     1      38.801  59.945   5.115 -0.30 -0.07    +0.107 A  ATOM     12  C   UNL     1      39.019  61.998   6.441 -0.41 +0.02    -0.023 A  ATOM     13  C   UNL     1      37.673  62.291   6.160 -0.51 -0.01    +0.010 A  ATOM     14  C   UNL     1      39.580  60.807   5.938 -0.25 -0.06    +0.063 A  ATOM     15  C   UNL     1      36.895  61.438   5.377 -0.52 -0.03    +0.049 A  ATOM     16  C   UNL     1      37.459  60.278   4.853 -0.41 -0.09    +0.141 A  BRANCH  12  17ATOM     17  C   UNL     1      39.823  63.005   7.230 -0.39 -0.04    +0.034 C  ATOM     18  C   UNL     1      40.213  62.477   8.603 -0.39 -0.01    +0.009 C  ENDBRANCH  12  17BRANCH  14  19ATOM     19  N   UNL     1      40.967  60.552   6.054 +0.10 +0.57    -0.397 N  ATOM     20  H   UNL     1      41.395  61.225   6.690 -0.30 -0.28    +0.156 HD ATOM     21  H   UNL     1      41.453  60.473   5.170 -0.45 -0.27    +0.156 HD ENDBRANCH  14  19BRANCH  16  22ATOM     22  O   UNL     1      36.689  59.454   4.074 -0.15 +0.19    -0.506 OA ATOM     23  H   UNL     1      36.186  58.857   4.650 -0.35 -0.22    +0.293 HD ENDBRANCH  16  22ENDBRANCH   1  11BRANCH   3  24ATOM     24  C   UNL     1      38.379  57.632   7.282 -0.21 -0.11    +0.262 C  ATOM     25  O   UNL     1      38.269  58.634   7.984 -0.67 +0.11    -0.298 OA ENDBRANCH   3  24BRANCH   5  26ATOM     26  O   UNL     1      42.453  54.961   7.330 -0.53 +0.09    -0.508 OA ATOM     27  H   UNL     1      42.560  55.214   8.264 -0.22 -0.48    +0.293 HD ENDBRANCH   5  26TORSDOF 6TERENDMDL