MODEL        8USER    Run = 8USERUSER    Estimated Free Energy of Binding    =  -8.33 kcal/mol  [=(1)+(2)+(3)-(4)]USERUSER    (1) Final Intermolecular Energy     = -10.12 kcal/molUSER        vdW + Hbond + desolv Energy     =  -9.77 kcal/molUSER        Electrostatic Energy            =  -0.35 kcal/molUSER        Moving Ligand-Fixed Receptor    = -10.12 kcal/molUSER        Moving Ligand-Moving Receptor   =  +0.00 kcal/molUSER    (2) Final Total Internal Energy     =  -1.38 kcal/molUSER    (3) Torsional Free Energy           =  +1.79 kcal/molUSER    (4) Unbound System's Energy         =  -1.38 kcal/molUSERUSERREMARK SMILES COc1ccc(O)c(C(=O)c2ccc(C(=O)N[C@@H]3CCCNC3)nc2)c1FREMARK SMILES IDX 11 1 12 2 13 3 14 4 24 5 25 6 9 7 10 8 8 9 3 10 4 11 26 12REMARK SMILES IDX 5 13 6 14 27 15 2 16 1 17 7 18 15 20 17 21 16 22 18 24 19 25REMARK SMILES IDX 23 26 20 27 22 28 21 29REMARK H PARENT 7 19 17 23 22 30USER                              x       y       z     vdW  Elec       q    TypeUSER                           _______ _______ _______ _____ _____    ______ ____ROOTATOM      1  C   UNL     1      41.241  46.544  19.134 -0.43 +0.00    +0.041 A  ATOM      2  C   UNL     1      41.904  47.493  18.353 -0.52 -0.00    +0.016 A  ATOM      3  C   UNL     1      41.274  48.003  17.218 -0.47 -0.00    +0.035 A  ATOM      4  C   UNL     1      40.005  47.534  16.898 -0.39 -0.03    +0.128 A  ATOM      5  N   UNL     1      39.340  46.590  17.625 -0.28 +0.05    -0.250 NA ATOM      6  C   UNL     1      39.982  46.116  18.722 -0.35 -0.01    +0.124 A  ENDROOTBRANCH   1   7ATOM      7  C   UNL     1      41.841  45.923  20.332 -0.30 +0.03    +0.201 C  ATOM      8  O   UNL     1      42.157  44.734  20.284 -0.15 -0.07    -0.288 OA BRANCH   7   9ATOM      9  C   UNL     1      42.137  46.669  21.574 -0.25 +0.02    +0.104 A  ATOM     10  C   UNL     1      41.473  47.550  23.750 -0.19 +0.02    +0.155 A  ATOM     11  C   UNL     1      42.743  48.107  23.908 -0.30 +0.01    +0.053 A  ATOM     12  C   UNL     1      41.184  46.827  22.582 -0.07 +0.02    +0.179 A  ATOM     13  C   UNL     1      43.715  47.926  22.921 -0.30 +0.01    +0.051 A  ATOM     14  C   UNL     1      43.417  47.200  21.770 -0.28 +0.04    +0.130 A  ATOM     15  F   UNL     1      39.972  46.263  22.456 -0.08 -0.02    -0.202 F  BRANCH  10  16ATOM     16  O   UNL     1      40.447  47.643  24.651 -0.06 -0.05    -0.494 OA ATOM     17  C   UNL     1      40.261  46.551  25.544 -0.08 +0.02    +0.278 C  ENDBRANCH  10  16BRANCH  14  18ATOM     18  O   UNL     1      44.435  47.043  20.870 -0.48 -0.48    -0.507 OA ATOM     19  H   UNL     1      44.467  47.847  20.303 -0.35 +0.11    +0.293 HD ENDBRANCH  14  18ENDBRANCH   7   9ENDBRANCH   1   7BRANCH   4  20ATOM     20  C   UNL     1      39.300  48.052  15.683 -0.37 -0.11    +0.270 C  ATOM     21  N   UNL     1      37.989  47.637  15.568 -0.19 +0.20    -0.347 N  ATOM     22  O   UNL     1      39.867  48.770  14.868 -0.39 +0.10    -0.268 OA ATOM     23  H   UNL     1      37.697  46.930  16.241 +0.11 -0.09    +0.164 HD BRANCH  21  24ATOM     24  C   UNL     1      37.199  47.871  14.369 -0.52 -0.06    +0.096 C  ATOM     25  C   UNL     1      35.967  46.951  14.351 -0.46 -0.02    +0.027 C  ATOM     26  C   UNL     1      38.068  47.694  13.098 -0.31 -0.02    +0.105 C  ATOM     27  C   UNL     1      36.193  45.752  13.436 -0.53 -0.01    +0.017 C  ATOM     28  N   UNL     1      37.271  47.441  11.892 -0.94 +0.06    -0.315 NA ATOM     29  C   UNL     1      36.497  46.201  12.001 -0.67 -0.03    +0.081 C  ATOM     30  H   UNL     1      36.632  48.225  11.758 -0.20 -0.04    +0.122 HD ENDBRANCH  21  24ENDBRANCH   4  20TORSDOF 6TERENDMDL