REMARK SMILES CO[C@H]1CC=C(F)C=C1[C@H]1c2cc(-c3n[nH]c4ccccc34)[nH]c21
REMARK SMILES IDX 3 1 4 2 5 3 6 4 7 5 8 6 9 7 2 8 1 9 10 10 11 11 24 12 12 13
REMARK SMILES IDX 23 14 13 15 14 17 15 18 22 19 16 20 21 21 17 22 20 23 18 24
REMARK SMILES IDX 19 25
REMARK H PARENT 23 16 16 26
ROOT
ATOM      1  C   UNL     1      -3.914  -0.231   0.226  1.00  0.00     0.149 C 
ATOM      2  C   UNL     1      -5.241  -0.475  -0.542  1.00  0.00     0.067 C 
ATOM      3  C   UNL     1      -5.062  -1.037  -1.924  1.00  0.00     0.015 C 
ATOM      4  C   UNL     1      -3.919  -1.627  -2.287  1.00  0.00     0.119 C 
ATOM      5  F   UNL     1      -3.796  -2.157  -3.520  1.00  0.00    -0.207 F 
ATOM      6  C   UNL     1      -2.826  -1.798  -1.370  1.00  0.00     0.042 C 
ATOM      7  C   UNL     1      -2.771  -1.158  -0.183  1.00  0.00    -0.025 C 
ENDROOT
BRANCH   1   8
ATOM      8  O   UNL     1      -3.478   1.117  -0.015  1.00  0.00    -0.377 OA
ATOM      9  C   UNL     1      -3.924   2.028   0.978  1.00  0.00     0.195 C 
ENDBRANCH   1   8
BRANCH   7  10
ATOM     10  C   UNL     1      -1.703  -1.352   0.815  1.00  0.00     0.097 C 
ATOM     11  C   UNL     1      -0.321  -1.420   0.393  1.00  0.00    -0.012 A 
ATOM     12  C   UNL     1      -0.800  -0.245   1.093  1.00  0.00     0.031 A 
ATOM     13  C   UNL     1       1.014  -1.187   0.132  1.00  0.00     0.035 A 
ATOM     14  N   UNL     1       0.277   0.554   1.172  1.00  0.00    -0.356 N 
ATOM     15  C   UNL     1       1.391   0.028   0.615  1.00  0.00     0.067 A 
ATOM     16  H   UNL     1       0.279   1.472   1.595  1.00  0.00     0.166 HD
BRANCH  15  17
ATOM     17  C   UNL     1       2.756   0.762   0.591  1.00  0.00     0.116 A 
ATOM     18  N   UNL     1       2.847   1.974   1.159  1.00  0.00    -0.173 NA
ATOM     19  C   UNL     1       3.993   0.333   0.035  1.00  0.00     0.029 A 
ATOM     20  N   UNL     1       4.129   2.318   0.963  1.00  0.00    -0.277 N 
ATOM     21  C   UNL     1       4.485  -0.794  -0.653  1.00  0.00     0.013 A 
ATOM     22  C   UNL     1       4.872   1.380   0.300  1.00  0.00     0.066 A 
ATOM     23  C   UNL     1       5.830  -0.825  -1.044  1.00  0.00     0.001 A 
ATOM     24  C   UNL     1       6.218   1.371  -0.082  1.00  0.00     0.028 A 
ATOM     25  C   UNL     1       6.681   0.242  -0.762  1.00  0.00     0.002 A 
ATOM     26  H   UNL     1       4.443   3.217   1.310  1.00  0.00     0.190 HD
ENDBRANCH  15  17
ENDBRANCH   7  10
TORSDOF 3
