MODEL        8USER    Run = 8USERUSER    Estimated Free Energy of Binding    =  -6.07 kcal/mol  [=(1)+(2)+(3)-(4)]USERUSER    (1) Final Intermolecular Energy     =  -9.94 kcal/molUSER        vdW + Hbond + desolv Energy     =  -9.92 kcal/molUSER        Electrostatic Energy            =  -0.24 kcal/molUSER        Moving Ligand-Fixed Receptor    = -10.15 kcal/molUSER        Moving Ligand-Moving Receptor   =  +0.21 kcal/molUSER    (2) Final Total Internal Energy     =  -1.70 kcal/molUSER    (3) Torsional Free Energy           =  +3.88 kcal/molUSER    (4) Unbound System's Energy         =  -1.70 kcal/molUSERUSERREMARK SMILES COc1ccc(O)c(C(=O)c2ccc(C(=O)N[C@@H]3CCCNC[C@H]3N)cc2)c1FREMARK SMILES IDX 15 1 16 2 17 3 14 5 11 6 12 7 27 8 13 9 26 10 9 11 10 12REMARK SMILES IDX 8 13 3 14 4 15 28 16 5 17 6 18 29 19 2 20 1 21 7 22 18 24REMARK SMILES IDX 19 25 24 27 23 28 22 29 21 31 20 32 25 34REMARK H PARENT 17 4 7 23 22 30 25 35 25 36REMARK Flexibility Score:   49.900USER                              x       y       z     vdW  Elec       q    TypeUSER                           _______ _______ _______ _____ _____    ______ ____ROOTATOM      1  C   UNL     1      35.797  45.252  15.216 -0.24 -0.14    +0.251 C  ATOM      2  O   UNL     1      35.194  46.028  14.482 -0.29 +0.21    -0.269 OA ATOM      3  N   UNL     1      37.172  45.191  15.283 -0.12 +0.14    -0.348 N  ATOM      4  H   UNL     1      37.612  44.527  15.905 +0.10 -0.05    +0.164 HD ENDROOTBRANCH   1   5ATOM      5  C   UNL     1      35.042  44.303  16.078 -0.31 -0.02    +0.039 A  ATOM      6  C   UNL     1      33.561  42.594  17.735 -0.35 -0.01    +0.023 A  ATOM      7  C   UNL     1      33.255  43.958  17.688 -0.30 -0.00    +0.013 A  ATOM      8  C   UNL     1      34.634  42.094  16.987 -0.37 -0.01    +0.013 A  ATOM      9  C   UNL     1      33.994  44.808  16.858 -0.31 -0.01    +0.014 A  ATOM     10  C   UNL     1      35.373  42.944  16.158 -0.43 -0.01    +0.014 A  BRANCH   6  11ATOM     11  C   UNL     1      32.827  41.661  18.623 -0.32 -0.02    +0.199 C  ATOM     12  O   UNL     1      33.117  41.628  19.820 -0.35 -0.06    -0.288 OA BRANCH  11  13ATOM     13  C   UNL     1      31.720  40.799  18.154 -0.31 -0.01    +0.104 A  ATOM     14  C   UNL     1      30.338  38.798  18.344 -0.30 +0.03    +0.155 A  ATOM     15  C   UNL     1      29.618  39.193  17.213 -0.17 +0.02    +0.053 A  ATOM     16  C   UNL     1      31.381  39.614  18.808 -0.29 +0.01    +0.179 A  ATOM     17  C   UNL     1      29.927  40.394  16.570 -0.34 -0.00    +0.051 A  ATOM     18  C   UNL     1      30.960  41.197  17.047 -0.22 -0.04    +0.130 A  ATOM     19  F   UNL     1      32.040  39.245  19.919 -0.11 -0.06    -0.202 F  BRANCH  14  20ATOM     20  O   UNL     1      30.116  37.658  19.067 -0.34 -0.18    -0.494 OA ATOM     21  C   UNL     1      29.299  37.766  20.226 -0.21 +0.02    +0.278 C  ENDBRANCH  14  20BRANCH  18  22ATOM     22  O   UNL     1      31.175  42.373  16.379 -0.06 +0.22    -0.507 OA ATOM     23  H   UNL     1      31.757  42.180  15.608 -0.30 -0.21    +0.293 HD ENDBRANCH  18  22ENDBRANCH  11  13ENDBRANCH   6  11ENDBRANCH   1   5BRANCH   3  24ATOM     24  C   UNL     1      38.042  46.103  14.523 -0.40 -0.03    +0.100 C  BRANCH  24  25ATOM     25  C   UNL     1      39.478  45.986  15.059 -0.41 -0.01    +0.028 CG0ATOM     26  G   UNL     1      40.381  47.129  14.588 +0.00 +0.00    +0.000 G0 ENDBRANCH  24  25BRANCH  24  27ATOM     27  C   UNL     1      37.458  47.552  14.548 -0.49 -0.05    +0.087 C  BRANCH  27  28ATOM     28  C   UNL     1      37.974  48.455  15.691 -0.37 -0.07    +0.101 C  BRANCH  28  29ATOM     29  N   UNL     1      39.199  49.199  15.396 -0.21 +0.19    -0.315 NA ATOM     30  H   UNL     1      39.132  49.666  14.493 -0.30 -0.11    +0.122 HD BRANCH  29  31ATOM     31  C   UNL     1      40.391  48.369  15.481 -0.58 -0.02    +0.081 C  BRANCH  31  32ATOM     32  C   UNL     1      40.381  47.131  14.588 -0.36 -0.00    +0.017 CG0ATOM     33  G   UNL     1      39.479  45.988  15.060 +0.00 +0.00    +0.000 G0 ENDBRANCH  31  32ENDBRANCH  29  31ENDBRANCH  28  29ENDBRANCH  27  28BRANCH  27  34ATOM     34  N   UNL     1      37.645  48.231  13.246 -0.66 +0.08    -0.325 NA ATOM     35  H   UNL     1      38.122  49.119  13.391 -0.24 -0.04    +0.119 HD ATOM     36  H   UNL     1      38.310  47.682  12.685 +0.06 -0.00    +0.119 HD ENDBRANCH  27  34ENDBRANCH  24  27ENDBRANCH   3  24TORSDOF 7TERENDMDL