REMARK SMILES COc1ccc(O)c(C(=O)c2ccc(C(=O)N[C@@H]3CC[C@@H](O)NC[C@H]3N)cc2)c1F
REMARK SMILES IDX 15 1 16 2 17 3 14 5 11 6 12 7 28 8 13 9 27 10 9 11 10 12
REMARK SMILES IDX 8 13 3 14 4 15 29 16 5 17 6 18 30 19 2 20 1 21 7 22 18 24
REMARK SMILES IDX 19 25 20 26 21 27 22 28 23 30 24 32 25 34 26 36
REMARK H PARENT 17 4 7 23 22 29 23 31 26 37 26 38
REMARK Flexibility Score:   49.900
ROOT
ATOM      1  C   UNL     1      -1.411   0.812  -0.770  1.00  0.00     0.251 C 
ATOM      2  O   UNL     1      -1.486   1.967  -1.173  1.00  0.00    -0.269 OA
ATOM      3  N   UNL     1      -2.502  -0.019  -0.621  1.00  0.00    -0.348 N 
ATOM      4  H   UNL     1      -2.374  -0.963  -0.285  1.00  0.00     0.164 HD
ENDROOT
BRANCH   1   5
ATOM      5  C   UNL     1      -0.082   0.228  -0.443  1.00  0.00     0.039 A 
ATOM      6  C   UNL     1       2.469  -0.800   0.103  1.00  0.00     0.023 A 
ATOM      7  C   UNL     1       1.353  -1.278   0.801  1.00  0.00     0.013 A 
ATOM      8  C   UNL     1       2.309   0.184  -0.879  1.00  0.00     0.013 A 
ATOM      9  C   UNL     1       0.081  -0.758   0.538  1.00  0.00     0.014 A 
ATOM     10  C   UNL     1       1.038   0.703  -1.141  1.00  0.00     0.014 A 
BRANCH   6  11
ATOM     11  C   UNL     1       3.789  -1.410   0.386  1.00  0.00     0.199 C 
ATOM     12  O   UNL     1       3.849  -2.624   0.590  1.00  0.00    -0.288 OA
BRANCH  11  13
ATOM     13  C   UNL     1       5.054  -0.644   0.379  1.00  0.00     0.104 A 
ATOM     14  C   UNL     1       6.315   1.407   0.763  1.00  0.00     0.155 A 
ATOM     15  C   UNL     1       7.479   0.768   0.329  1.00  0.00     0.053 A 
ATOM     16  C   UNL     1       5.111   0.688   0.789  1.00  0.00     0.179 A 
ATOM     17  C   UNL     1       7.440  -0.575  -0.054  1.00  0.00     0.051 A 
ATOM     18  C   UNL     1       6.239  -1.278  -0.014  1.00  0.00     0.130 A 
ATOM     19  F   UNL     1       4.005   1.300   1.244  1.00  0.00    -0.202 F 
BRANCH  14  20
ATOM     20  O   UNL     1       6.233   2.708   1.180  1.00  0.00    -0.494 OA
ATOM     21  C   UNL     1       7.438   3.463   1.206  1.00  0.00     0.278 C 
ENDBRANCH  14  20
BRANCH  18  22
ATOM     22  O   UNL     1       6.293  -2.598  -0.375  1.00  0.00    -0.507 OA
ATOM     23  H   UNL     1       5.450  -3.022  -0.093  1.00  0.00     0.293 HD
ENDBRANCH  18  22
ENDBRANCH  11  13
ENDBRANCH   6  11
ENDBRANCH   1   5
BRANCH   3  24
ATOM     24  C   UNL     1      -3.881   0.458  -0.837  1.00  0.00     0.100 C 
BRANCH  24  25
ATOM     25  C   UNL     1      -4.390   1.158   0.437  1.00  0.00     0.030 C 
BRANCH  25  26
ATOM     26  C   UNL     1      -5.061   0.236   1.463  1.00  0.00     0.050 C 
BRANCH  26  27
ATOM     27  C   UNL     1      -6.395  -0.396   1.015  1.00  0.00     0.182 C 
BRANCH  27  28
ATOM     28  O   UNL     1      -7.367  -0.119   2.002  1.00  0.00    -0.379 OA
ATOM     29  H   UNL     1      -7.576   0.823   1.873  1.00  0.00     0.212 HD
ENDBRANCH  27  28
BRANCH  27  30
ATOM     30  N   UNL     1      -6.921   0.137  -0.216  1.00  0.00    -0.291 NA
ATOM     31  H   UNL     1      -7.912  -0.105  -0.264  1.00  0.00     0.125 HD
BRANCH  30  32
ATOM     32  C   UNL     1      -6.266  -0.389  -1.421  1.00  0.00     0.104 CG0
ATOM     33  G   UNL     1      -4.759  -0.724  -1.330  1.00  0.00     0.000 G0
ENDBRANCH  30  32
ENDBRANCH  27  30
ENDBRANCH  26  27
ENDBRANCH  25  26
ENDBRANCH  24  25
BRANCH  24  34
ATOM     34  C   UNL     1      -4.759  -0.724  -1.330  1.00  0.00     0.087 CG0
ATOM     35  G   UNL     1      -6.266  -0.389  -1.421  1.00  0.00     0.000 G0
BRANCH  34  36
ATOM     36  N   UNL     1      -4.273  -1.216  -2.634  1.00  0.00    -0.325 NA
ATOM     37  H   UNL     1      -3.253  -1.236  -2.628  1.00  0.00     0.119 HD
ATOM     38  H   UNL     1      -4.598  -2.167  -2.797  1.00  0.00     0.119 HD
ENDBRANCH  34  36
ENDBRANCH  24  34
ENDBRANCH   3  24
TORSDOF 8
