MODEL        10USER    Run = 10USERUSER    Estimated Free Energy of Binding    =  -9.02 kcal/mol  [=(1)+(2)+(3)-(4)]USERUSER    (1) Final Intermolecular Energy     = -10.81 kcal/molUSER        vdW + Hbond + desolv Energy     = -10.49 kcal/molUSER        Electrostatic Energy            =  -0.31 kcal/molUSER        Moving Ligand-Fixed Receptor    = -10.81 kcal/molUSER        Moving Ligand-Moving Receptor   =  +0.00 kcal/molUSER    (2) Final Total Internal Energy     =  -1.17 kcal/molUSER    (3) Torsional Free Energy           =  +1.79 kcal/molUSER    (4) Unbound System's Energy         =  -1.17 kcal/molUSERUSERREMARK SMILES COc1ccc(O)c(C(=O)c2ccc(C(=O)N[C@@H]3CCCNC3)cc2)c1FREMARK SMILES IDX 11 1 12 2 13 3 14 4 24 5 25 6 9 7 10 8 8 9 3 10 4 11 26 12REMARK SMILES IDX 5 13 6 14 27 15 2 16 1 17 7 18 15 20 17 21 16 22 18 24 19 25REMARK SMILES IDX 23 26 20 27 22 28 21 29REMARK H PARENT 7 19 17 23 22 30USER                              x       y       z     vdW  Elec       q    TypeUSER                           _______ _______ _______ _____ _____    ______ ____ROOTATOM      1  C   UNL     1      42.032  46.976  19.227 -0.49 +0.00    +0.023 A  ATOM      2  C   UNL     1      42.186  48.043  18.331 -0.41 -0.00    +0.013 A  ATOM      3  C   UNL     1      41.424  48.092  17.158 -0.47 -0.00    +0.014 A  ATOM      4  C   UNL     1      40.500  47.078  16.877 -0.48 -0.01    +0.039 A  ATOM      5  C   UNL     1      40.355  46.005  17.762 -0.47 -0.00    +0.014 A  ATOM      6  C   UNL     1      41.111  45.960  18.937 -0.47 +0.00    +0.013 A  ENDROOTBRANCH   1   7ATOM      7  C   UNL     1      42.805  46.884  20.497 -0.33 +0.05    +0.199 C  ATOM      8  O   UNL     1      44.032  46.915  20.491 -0.43 -0.22    -0.288 OA BRANCH   7   9ATOM      9  C   UNL     1      42.117  46.763  21.789 -0.22 +0.02    +0.104 A  ATOM     10  C   UNL     1      40.723  45.450  23.278 -0.12 +0.01    +0.155 A  ATOM     11  C   UNL     1      40.849  46.445  24.252 -0.15 +0.00    +0.053 A  ATOM     12  C   UNL     1      41.369  45.619  22.047 -0.16 +0.02    +0.179 A  ATOM     13  C   UNL     1      41.603  47.598  23.995 -0.24 +0.01    +0.051 A  ATOM     14  C   UNL     1      42.235  47.754  22.763 -0.20 +0.02    +0.130 A  ATOM     15  F   UNL     1      41.234  44.678  21.097 -0.07 -0.02    -0.202 F  BRANCH  10  16ATOM     16  O   UNL     1      39.995  44.300  23.411 +0.00 -0.02    -0.494 OA ATOM     17  C   UNL     1      38.727  44.246  22.771 -0.19 +0.02    +0.278 C  ENDBRANCH  10  16BRANCH  14  18ATOM     18  O   UNL     1      42.961  48.882  22.506 -0.65 -0.11    -0.507 OA ATOM     19  H   UNL     1      43.589  48.712  21.784 -0.43 -0.03    +0.293 HD ENDBRANCH  14  18ENDBRANCH   7   9ENDBRANCH   1   7BRANCH   4  20ATOM     20  C   UNL     1      39.671  47.098  15.642 -0.36 -0.06    +0.251 C  ATOM     21  N   UNL     1      38.308  46.982  15.827 -0.16 +0.15    -0.348 N  ATOM     22  O   UNL     1      40.202  47.178  14.542 -0.32 +0.03    -0.269 OA ATOM     23  H   UNL     1      37.980  46.633  16.718 +0.10 -0.07    +0.164 HD BRANCH  21  24ATOM     24  C   UNL     1      37.412  46.834  14.686 -0.42 -0.05    +0.096 C  ATOM     25  C   UNL     1      37.672  45.510  13.968 -0.47 -0.01    +0.027 C  ATOM     26  C   UNL     1      37.540  48.021  13.694 -0.53 -0.04    +0.105 C  ATOM     27  C   UNL     1      36.748  45.336  12.758 -0.59 -0.01    +0.017 C  ATOM     28  N   UNL     1      37.148  47.717  12.308 -0.96 +0.07    -0.315 NA ATOM     29  C   UNL     1      36.154  46.653  12.250 -0.68 -0.04    +0.081 C  ATOM     30  H   UNL     1      36.782  48.565  11.875 -0.15 -0.02    +0.122 HD ENDBRANCH  21  24ENDBRANCH   4  20TORSDOF 6TERENDMDL