REMARK SMILES CO[C@H]1CC=C(Cl)C=C1[C@@H]1c2cc(-c3n[nH]c4cc(F)ccc34)[nH]c21
REMARK SMILES IDX 3 1 4 2 5 3 6 4 7 5 8 6 9 7 2 8 1 9 10 10 11 11 25 12 12 13
REMARK SMILES IDX 24 14 13 15 14 17 15 18 23 19 16 20 22 21 17 22 21 23 18 24
REMARK SMILES IDX 19 25 20 27
REMARK H PARENT 24 16 16 26
ROOT
ATOM      1  C   UNL     1      -3.755  -0.427  -0.039  1.00  0.00     0.148 C 
ATOM      2  C   UNL     1      -4.651   0.071  -1.201  1.00  0.00     0.065 C 
ATOM      3  C   UNL     1      -4.837   1.562  -1.264  1.00  0.00    -0.004 C 
ATOM      4  C   UNL     1      -4.041   2.400  -0.589  1.00  0.00     0.037 C 
ATOM      5  Cl  UNL     1      -4.268   4.105  -0.705  1.00  0.00    -0.085 Cl
ATOM      6  C   UNL     1      -2.947   1.915   0.215  1.00  0.00     0.023 C 
ATOM      7  C   UNL     1      -2.768   0.605   0.491  1.00  0.00    -0.026 C 
ENDROOT
BRANCH   1   8
ATOM      8  O   UNL     1      -4.577  -0.810   1.077  1.00  0.00    -0.377 OA
ATOM      9  C   UNL     1      -4.944  -2.182   1.044  1.00  0.00     0.195 C 
ENDBRANCH   1   8
BRANCH   7  10
ATOM     10  C   UNL     1      -1.688   0.082   1.346  1.00  0.00     0.097 C 
ATOM     11  C   UNL     1      -0.333   0.547   1.150  1.00  0.00    -0.012 A 
ATOM     12  C   UNL     1      -0.692  -0.798   0.748  1.00  0.00     0.031 A 
ATOM     13  C   UNL     1       1.003   0.693   0.839  1.00  0.00     0.035 A 
ATOM     14  N   UNL     1       0.447  -1.307   0.248  1.00  0.00    -0.356 N 
ATOM     15  C   UNL     1       1.490  -0.448   0.279  1.00  0.00     0.067 A 
ATOM     16  H   UNL     1       0.543  -2.241  -0.124  1.00  0.00     0.166 HD
BRANCH  15  17
ATOM     17  C   UNL     1       2.903  -0.810  -0.246  1.00  0.00     0.116 A 
ATOM     18  N   UNL     1       3.107  -2.032  -0.756  1.00  0.00    -0.173 NA
ATOM     19  C   UNL     1       4.079  -0.011  -0.274  1.00  0.00     0.029 A 
ATOM     20  N   UNL     1       4.401  -2.018  -1.108  1.00  0.00    -0.277 N 
ATOM     21  C   UNL     1       4.456   1.294   0.106  1.00  0.00     0.016 A 
ATOM     22  C   UNL     1       5.043  -0.839  -0.848  1.00  0.00     0.069 A 
ATOM     23  C   UNL     1       5.777   1.714  -0.103  1.00  0.00     0.040 A 
ATOM     24  C   UNL     1       6.367  -0.441  -1.065  1.00  0.00     0.067 A 
ATOM     25  C   UNL     1       6.704   0.854  -0.677  1.00  0.00     0.125 A 
ATOM     26  H   UNL     1       4.794  -2.854  -1.526  1.00  0.00     0.190 HD
ATOM     27  F   UNL     1       7.960   1.281  -0.866  1.00  0.00    -0.207 F 
ENDBRANCH  15  17
ENDBRANCH   7  10
TORSDOF 3
