REMARK SMILES COc1ccc(O)c(C(=O)c2ccc(C(=O)N[C@@H]3CCCNC[C@H]3N)cc2)c1F
REMARK SMILES IDX 15 1 16 2 17 3 14 5 11 6 12 7 27 8 13 9 26 10 9 11 10 12
REMARK SMILES IDX 8 13 3 14 4 15 28 16 5 17 6 18 29 19 2 20 1 21 7 22 18 24
REMARK SMILES IDX 19 25 24 27 23 28 22 29 21 31 20 32 25 34
REMARK H PARENT 17 4 7 23 22 30 25 35 25 36
REMARK Flexibility Score:   49.900
ROOT
ATOM      1  C   UNL     1      -1.774  -0.003  -0.387  1.00  0.00     0.251 C 
ATOM      2  O   UNL     1      -2.272   0.198  -1.489  1.00  0.00    -0.269 OA
ATOM      3  N   UNL     1      -2.385   0.358   0.795  1.00  0.00    -0.348 N 
ATOM      4  H   UNL     1      -1.923   0.170   1.673  1.00  0.00     0.164 HD
ENDROOT
BRANCH   1   5
ATOM      5  C   UNL     1      -0.438  -0.650  -0.279  1.00  0.00     0.039 A 
ATOM      6  C   UNL     1       2.103  -1.828  -0.169  1.00  0.00     0.023 A 
ATOM      7  C   UNL     1       1.740  -1.054  -1.276  1.00  0.00     0.013 A 
ATOM      8  C   UNL     1       1.180  -2.048   0.861  1.00  0.00     0.013 A 
ATOM      9  C   UNL     1       0.473  -0.465  -1.327  1.00  0.00     0.014 A 
ATOM     10  C   UNL     1      -0.088  -1.459   0.809  1.00  0.00     0.014 A 
BRANCH   6  11
ATOM     11  C   UNL     1       3.423  -2.498  -0.085  1.00  0.00     0.199 C 
ATOM     12  O   UNL     1       3.483  -3.637   0.382  1.00  0.00    -0.288 OA
BRANCH  11  13
ATOM     13  C   UNL     1       4.674  -1.888  -0.585  1.00  0.00     0.104 A 
ATOM     14  C   UNL     1       6.081   0.056  -1.022  1.00  0.00     0.155 A 
ATOM     15  C   UNL     1       7.062  -0.780  -1.562  1.00  0.00     0.053 A 
ATOM     16  C   UNL     1       4.896  -0.511  -0.531  1.00  0.00     0.179 A 
ATOM     17  C   UNL     1       6.865  -2.163  -1.591  1.00  0.00     0.051 A 
ATOM     18  C   UNL     1       5.686  -2.712  -1.092  1.00  0.00     0.130 A 
ATOM     19  F   UNL     1       3.977   0.298   0.023  1.00  0.00    -0.202 F 
BRANCH  14  20
ATOM     20  O   UNL     1       6.168   1.418  -0.922  1.00  0.00    -0.494 OA
ATOM     21  C   UNL     1       7.365   2.032  -1.383  1.00  0.00     0.278 C 
ENDBRANCH  14  20
BRANCH  18  22
ATOM     22  O   UNL     1       5.588  -4.077  -1.128  1.00  0.00    -0.507 OA
ATOM     23  H   UNL     1       4.826  -4.340  -0.561  1.00  0.00     0.293 HD
ENDBRANCH  18  22
ENDBRANCH  11  13
ENDBRANCH   6  11
ENDBRANCH   1   5
BRANCH   3  24
ATOM     24  C   UNL     1      -3.727   0.961   0.839  1.00  0.00     0.100 C 
BRANCH  24  25
ATOM     25  C   UNL     1      -3.832   1.855   2.085  1.00  0.00     0.028 CG0
ATOM     26  G   UNL     1      -4.854   2.983   1.919  1.00  0.00     0.000 G0
ENDBRANCH  24  25
BRANCH  24  27
ATOM     27  C   UNL     1      -4.821  -0.150   0.744  1.00  0.00     0.087 C 
BRANCH  27  28
ATOM     28  C   UNL     1      -6.186   0.209   1.375  1.00  0.00     0.101 C 
BRANCH  28  29
ATOM     29  N   UNL     1      -6.707   1.532   1.028  1.00  0.00    -0.315 NA
ATOM     30  H   UNL     1      -6.441   1.790   0.079  1.00  0.00     0.122 HD
BRANCH  29  31
ATOM     31  C   UNL     1      -6.318   2.555   1.988  1.00  0.00     0.081 C 
BRANCH  31  32
ATOM     32  C   UNL     1      -4.854   2.983   1.919  1.00  0.00     0.017 CG0
ATOM     33  G   UNL     1      -3.832   1.855   2.085  1.00  0.00     0.000 G0
ENDBRANCH  31  32
ENDBRANCH  29  31
ENDBRANCH  28  29
ENDBRANCH  27  28
BRANCH  27  34
ATOM     34  N   UNL     1      -5.014  -0.599  -0.653  1.00  0.00    -0.325 NA
ATOM     35  H   UNL     1      -5.537   0.108  -1.168  1.00  0.00     0.119 HD
ATOM     36  H   UNL     1      -4.097  -0.616  -1.119  1.00  0.00     0.119 HD
ENDBRANCH  27  34
ENDBRANCH  24  27
ENDBRANCH   3  24
TORSDOF 7
