REMARK SMILES COc1ccc(O)c(C(=O)c2ccc(C(=O)N[C@@H]3CCCNC3)nc2)c1F
REMARK SMILES IDX 11 1 12 2 13 3 14 4 24 5 25 6 9 7 10 8 8 9 3 10 4 11 26 12
REMARK SMILES IDX 5 13 6 14 27 15 2 16 1 17 7 18 15 20 17 21 16 22 18 24 19 25
REMARK SMILES IDX 23 26 20 27 22 28 21 29
REMARK H PARENT 7 19 17 23 22 30
ROOT
ATOM      1  C   UNL     1       1.448   0.035   1.086  1.00  0.00     0.041 A 
ATOM      2  C   UNL     1       1.390  -1.025   0.178  1.00  0.00     0.016 A 
ATOM      3  C   UNL     1       0.218  -1.238  -0.548  1.00  0.00     0.035 A 
ATOM      4  C   UNL     1      -0.860  -0.388  -0.328  1.00  0.00     0.128 A 
ATOM      5  N   UNL     1      -0.845   0.640   0.569  1.00  0.00    -0.250 NA
ATOM      6  C   UNL     1       0.310   0.818   1.257  1.00  0.00     0.124 A 
ENDROOT
BRANCH   1   7
ATOM      7  C   UNL     1       2.632   0.317   1.922  1.00  0.00     0.201 C 
ATOM      8  O   UNL     1       2.458   0.707   3.077  1.00  0.00    -0.288 OA
BRANCH   7   9
ATOM      9  C   UNL     1       4.022   0.102   1.465  1.00  0.00     0.104 A 
ATOM     10  C   UNL     1       5.717   0.075  -0.289  1.00  0.00     0.155 A 
ATOM     11  C   UNL     1       6.671  -0.334   0.644  1.00  0.00     0.053 A 
ATOM     12  C   UNL     1       4.398   0.297   0.135  1.00  0.00     0.179 A 
ATOM     13  C   UNL     1       6.314  -0.499   1.985  1.00  0.00     0.051 A 
ATOM     14  C   UNL     1       5.002  -0.268   2.393  1.00  0.00     0.130 A 
ATOM     15  F   UNL     1       3.496   0.727  -0.762  1.00  0.00    -0.202 F 
BRANCH  10  16
ATOM     16  O   UNL     1       5.949   0.287  -1.621  1.00  0.00    -0.494 OA
ATOM     17  C   UNL     1       7.282   0.115  -2.087  1.00  0.00     0.278 C 
ENDBRANCH  10  16
BRANCH  14  18
ATOM     18  O   UNL     1       4.745  -0.421   3.728  1.00  0.00    -0.507 OA
ATOM     19  H   UNL     1       3.868  -0.016   3.918  1.00  0.00     0.293 HD
ENDBRANCH  14  18
ENDBRANCH   7   9
ENDBRANCH   1   7
BRANCH   4  20
ATOM     20  C   UNL     1      -2.138  -0.590  -1.083  1.00  0.00     0.270 C 
ATOM     21  N   UNL     1      -3.113   0.347  -0.808  1.00  0.00    -0.347 N 
ATOM     22  O   UNL     1      -2.284  -1.525  -1.861  1.00  0.00    -0.268 OA
ATOM     23  H   UNL     1      -2.902   0.979  -0.038  1.00  0.00     0.164 HD
BRANCH  21  24
ATOM     24  C   UNL     1      -4.480   0.214  -1.288  1.00  0.00     0.096 C 
ATOM     25  C   UNL     1      -5.187   1.579  -1.276  1.00  0.00     0.027 C 
ATOM     26  C   UNL     1      -5.252  -0.841  -0.456  1.00  0.00     0.105 C 
ATOM     27  C   UNL     1      -6.094   1.714  -0.058  1.00  0.00     0.017 C 
ATOM     28  N   UNL     1      -6.708  -0.690  -0.551  1.00  0.00    -0.315 NA
ATOM     29  C   UNL     1      -7.155   0.607  -0.033  1.00  0.00     0.081 C 
ATOM     30  H   UNL     1      -6.977  -0.770  -1.532  1.00  0.00     0.122 HD
ENDBRANCH  21  24
ENDBRANCH   4  20
TORSDOF 6
