REMARK SMILES CCOc1cc(-c2n[nH]c3cnc(-c4ccc(F)nc4)cc23)ccc1-n1ccnn1
REMARK SMILES IDX 4 1 5 2 6 3 23 4 24 5 25 6 3 7 2 8 1 9 26 10 27 11 30 12
REMARK SMILES IDX 28 13 29 14 7 15 8 16 22 17 9 18 21 19 10 20 13 21 11 22
REMARK SMILES IDX 12 23 14 25 15 26 20 27 16 28 19 29 17 30 18 31
REMARK H PARENT 9 24
ROOT
ATOM      1  C   UNL     1      -2.956   0.011   0.128  1.00  0.00     0.145 A 
ATOM      2  C   UNL     1      -1.925  -0.941   0.225  1.00  0.00     0.059 A 
ATOM      3  C   UNL     1      -0.691  -0.638   0.822  1.00  0.00     0.006 A 
ATOM      4  C   UNL     1      -0.491   0.637   1.346  1.00  0.00     0.013 A 
ATOM      5  C   UNL     1      -1.499   1.599   1.253  1.00  0.00     0.033 A 
ATOM      6  C   UNL     1      -2.737   1.304   0.641  1.00  0.00     0.108 A 
ENDROOT
BRANCH   1   7
ATOM      7  O   UNL     1      -4.158  -0.269  -0.460  1.00  0.00    -0.492 OA
BRANCH   7   8
ATOM      8  C   UNL     1      -4.445  -1.617  -0.830  1.00  0.00     0.226 C 
ATOM      9  C   UNL     1      -5.876  -1.666  -1.335  1.00  0.00     0.049 C 
ENDBRANCH   7   8
ENDBRANCH   1   7
BRANCH   6  10
ATOM     10  N   UNL     1      -3.706   2.353   0.587  1.00  0.00    -0.217 N 
ATOM     11  C   UNL     1      -4.987   2.384   0.079  1.00  0.00     0.137 A 
ATOM     12  N   UNL     1      -3.420   3.587   1.095  1.00  0.00    -0.062 NA
ATOM     13  C   UNL     1      -5.436   3.661   0.304  1.00  0.00     0.157 A 
ATOM     14  N   UNL     1      -4.467   4.380   0.924  1.00  0.00    -0.139 NA
ENDBRANCH   6  10
BRANCH   3  15
ATOM     15  C   UNL     1       0.355  -1.659   0.899  1.00  0.00     0.100 A 
ATOM     16  N   UNL     1       0.045  -2.936   1.183  1.00  0.00    -0.174 NA
ATOM     17  C   UNL     1       1.763  -1.509   0.690  1.00  0.00     0.031 A 
ATOM     18  N   UNL     1       1.227  -3.570   1.201  1.00  0.00    -0.276 N 
ATOM     19  C   UNL     1       2.642  -0.472   0.334  1.00  0.00     0.041 A 
ATOM     20  C   UNL     1       2.293  -2.773   0.902  1.00  0.00     0.084 A 
ATOM     21  C   UNL     1       4.002  -0.776   0.237  1.00  0.00     0.073 A 
ATOM     22  C   UNL     1       3.644  -3.041   0.794  1.00  0.00     0.140 A 
ATOM     23  N   UNL     1       4.480  -2.029   0.460  1.00  0.00    -0.254 NA
ATOM     24  H   UNL     1       1.234  -4.561   1.416  1.00  0.00     0.190 HD
BRANCH  21  25
ATOM     25  C   UNL     1       5.021   0.227  -0.125  1.00  0.00     0.019 A 
ATOM     26  C   UNL     1       4.875   1.601   0.123  1.00  0.00     0.016 A 
ATOM     27  C   UNL     1       6.220  -0.149  -0.742  1.00  0.00     0.124 A 
ATOM     28  C   UNL     1       5.877   2.499  -0.248  1.00  0.00     0.061 A 
ATOM     29  N   UNL     1       7.211   0.698  -1.121  1.00  0.00    -0.228 NA
ATOM     30  C   UNL     1       7.011   2.002  -0.862  1.00  0.00     0.212 A 
ATOM     31  F   UNL     1       7.974   2.864  -1.221  1.00  0.00    -0.185 F 
ENDBRANCH  21  25
ENDBRANCH   3  15
TORSDOF 5
