REMARK SMILES O=C(Cc1ccc2cc(Cl)ccc2c1)Nc1cc2ccccc2[nH]1
REMARK SMILES IDX 1 1 2 2 15 3 3 5 4 6 5 7 14 8 6 9 13 10 7 11 12 12 8 13
REMARK SMILES IDX 11 14 9 15 10 16 16 17 17 18 24 19 18 20 23 21 19 22 22 23
REMARK SMILES IDX 20 24 21 25
REMARK H PARENT 15 4 24 26
ROOT
ATOM      1  O   UNL     1       1.432   2.668  -1.207  1.00  0.00    -0.274 OA
ATOM      2  C   UNL     1       0.584   2.061  -0.551  1.00  0.00     0.229 C 
ATOM      3  N   UNL     1       0.830   0.905   0.174  1.00  0.00    -0.312 N 
ATOM      4  H   UNL     1       0.069   0.448   0.663  1.00  0.00     0.171 HD
ENDROOT
BRANCH   2   5
ATOM      5  C   UNL     1      -0.835   2.595  -0.420  1.00  0.00     0.135 C 
BRANCH   5   6
ATOM      6  C   UNL     1      -1.918   1.545  -0.519  1.00  0.00    -0.038 A 
ATOM      7  C   UNL     1      -2.089   0.815  -1.700  1.00  0.00     0.005 A 
ATOM      8  C   UNL     1      -2.763   1.286   0.571  1.00  0.00     0.013 A 
ATOM      9  C   UNL     1      -3.078  -0.167  -1.788  1.00  0.00     0.009 A 
ATOM     10  C   UNL     1      -3.763   0.302   0.497  1.00  0.00    -0.018 A 
ATOM     11  C   UNL     1      -3.921  -0.436  -0.699  1.00  0.00    -0.017 A 
ATOM     12  C   UNL     1      -4.609   0.036   1.586  1.00  0.00     0.010 A 
ATOM     13  C   UNL     1      -4.919  -1.421  -0.775  1.00  0.00     0.029 A 
ATOM     14  C   UNL     1      -5.597  -0.946   1.498  1.00  0.00     0.021 A 
ATOM     15  C   UNL     1      -5.747  -1.669   0.319  1.00  0.00     0.041 A 
ATOM     16  Cl  UNL     1      -6.965  -2.880   0.210  1.00  0.00    -0.084 Cl
ENDBRANCH   5   6
ENDBRANCH   2   5
BRANCH   3  17
ATOM     17  C   UNL     1       2.067   0.296   0.207  1.00  0.00     0.110 A 
ATOM     18  C   UNL     1       2.443  -0.862   0.850  1.00  0.00     0.055 A 
ATOM     19  N   UNL     1       3.174   0.789  -0.437  1.00  0.00    -0.341 N 
ATOM     20  C   UNL     1       3.826  -1.077   0.585  1.00  0.00     0.002 A 
ATOM     21  C   UNL     1       4.260  -0.027  -0.225  1.00  0.00     0.047 A 
ATOM     22  C   UNL     1       4.753  -2.070   0.959  1.00  0.00     0.010 A 
ATOM     23  C   UNL     1       5.577   0.083  -0.682  1.00  0.00     0.027 A 
ATOM     24  C   UNL     1       6.075  -1.976   0.511  1.00  0.00     0.001 A 
ATOM     25  C   UNL     1       6.479  -0.914  -0.297  1.00  0.00     0.002 A 
ATOM     26  H   UNL     1       3.167   1.638  -0.991  1.00  0.00     0.168 HD
ENDBRANCH   3  17
TORSDOF 3
