REMARK SMILES Cn1c(NC(=O)Cc2ccc3ccccc3c2)nc2ccccc21
REMARK SMILES IDX 4 1 5 2 6 3 3 5 2 6 24 7 18 8 23 9 19 10 22 11 20 12 21 13
REMARK SMILES IDX 1 14 7 15 8 16 9 17 17 18 10 19 16 20 11 21 15 22 12 23
REMARK SMILES IDX 14 24 13 25
REMARK H PARENT 4 4
ROOT
ATOM      1  N   UNL     1      -0.846   1.141  -0.017  1.00  0.00    -0.296 N 
ATOM      2  C   UNL     1      -0.239   1.796   1.031  1.00  0.00     0.231 C 
ATOM      3  O   UNL     1      -0.668   1.898   2.177  1.00  0.00    -0.274 OA
ATOM      4  H   UNL     1      -0.258   0.835  -0.785  1.00  0.00     0.173 HD
ENDROOT
BRANCH   1   5
ATOM      5  C   UNL     1      -2.027   0.442   0.042  1.00  0.00     0.210 A 
ATOM      6  N   UNL     1      -3.107   0.612   0.883  1.00  0.00    -0.313 N 
ATOM      7  C   UNL     1      -4.015  -0.395   0.610  1.00  0.00     0.069 A 
ATOM      8  N   UNL     1      -2.260  -0.519  -0.826  1.00  0.00    -0.213 NA
ATOM      9  C   UNL     1      -5.246  -0.757   1.173  1.00  0.00     0.028 A 
ATOM     10  C   UNL     1      -3.461  -1.071  -0.470  1.00  0.00     0.091 A 
ATOM     11  C   UNL     1      -5.914  -1.847   0.602  1.00  0.00     0.002 A 
ATOM     12  C   UNL     1      -4.146  -2.157  -1.034  1.00  0.00     0.031 A 
ATOM     13  C   UNL     1      -5.377  -2.536  -0.484  1.00  0.00     0.002 A 
ATOM     14  C   UNL     1      -3.377   1.705   1.786  1.00  0.00     0.153 C 
ENDBRANCH   1   5
BRANCH   2  15
ATOM     15  C   UNL     1       1.087   2.430   0.637  1.00  0.00     0.136 C 
BRANCH  15  16
ATOM     16  C   UNL     1       2.169   1.418   0.356  1.00  0.00    -0.038 A 
ATOM     17  C   UNL     1       2.609   0.554   1.366  1.00  0.00     0.005 A 
ATOM     18  C   UNL     1       2.751   1.327  -0.917  1.00  0.00     0.013 A 
ATOM     19  C   UNL     1       3.604  -0.390   1.106  1.00  0.00     0.009 A 
ATOM     20  C   UNL     1       3.755   0.383  -1.192  1.00  0.00    -0.018 A 
ATOM     21  C   UNL     1       4.185  -0.489  -0.167  1.00  0.00    -0.018 A 
ATOM     22  C   UNL     1       4.340   0.286  -2.466  1.00  0.00     0.009 A 
ATOM     23  C   UNL     1       5.186  -1.434  -0.443  1.00  0.00     0.009 A 
ATOM     24  C   UNL     1       5.336  -0.657  -2.724  1.00  0.00     0.001 A 
ATOM     25  C   UNL     1       5.759  -1.517  -1.714  1.00  0.00     0.001 A 
ENDBRANCH  15  16
ENDBRANCH   2  15
TORSDOF 3
