MODEL        9USER    Run = 9USERUSER    Estimated Free Energy of Binding    = -10.41 kcal/mol  [=(1)+(2)+(3)-(4)]USERUSER    (1) Final Intermolecular Energy     = -11.90 kcal/molUSER        vdW + Hbond + desolv Energy     = -11.74 kcal/molUSER        Electrostatic Energy            =  -0.16 kcal/molUSER        Moving Ligand-Fixed Receptor    = -11.90 kcal/molUSER        Moving Ligand-Moving Receptor   =  +0.00 kcal/molUSER    (2) Final Total Internal Energy     =  -1.99 kcal/molUSER    (3) Torsional Free Energy           =  +1.49 kcal/molUSER    (4) Unbound System's Energy         =  -1.99 kcal/molUSERUSERREMARK SMILES O=S(=O)(Nc1cc(F)ccc1-c1ccc(-c2ccncc2)cc1)c1ccccc1REMARK SMILES IDX 5 1 6 2 7 3 8 4 9 5 10 6 11 7 4 8 2 10 1 11 3 12 24 13 25 14REMARK SMILES IDX 29 15 26 16 28 17 27 18 12 19 13 20 23 21 14 22 22 23 15 24REMARK SMILES IDX 16 25 17 26 21 27 18 28 20 29 19 30REMARK H PARENT 4 9USER                              x       y       z     vdW  Elec       q    TypeUSER                           _______ _______ _______ _____ _____    ______ ____ROOTATOM      1  C   UNL     1      35.757  42.471  19.875 -0.41 -0.00    +0.060 A  ATOM      2  C   UNL     1      35.804  41.774  21.085 -0.42 +0.00    +0.066 A  ATOM      3  C   UNL     1      36.652  42.211  22.094 -0.42 +0.01    +0.125 A  ATOM      4  F   UNL     1      36.700  41.538  23.251 -0.17 -0.01    -0.207 F  ATOM      5  C   UNL     1      37.453  43.333  21.925 -0.37 +0.00    +0.040 A  ATOM      6  C   UNL     1      37.409  44.032  20.718 -0.38 -0.00    +0.014 A  ATOM      7  C   UNL     1      36.560  43.616  19.675 -0.38 -0.00    +0.006 A  ENDROOTBRANCH   1   8ATOM      8  N   UNL     1      34.845  42.035  18.860 -0.22 +0.04    -0.279 N  ATOM      9  H   UNL     1      35.038  42.359  17.911 +0.10 -0.05    +0.180 HD BRANCH   8  10ATOM     10  S   UNL     1      33.186  42.206  19.174 -0.37 -0.00    +0.261 S  ATOM     11  O   UNL     1      33.069  43.284  20.133 -0.95 -0.03    -0.201 OA ATOM     12  O   UNL     1      32.604  40.906  19.430 -0.64 -0.03    -0.201 OA BRANCH  10  13ATOM     13  C   UNL     1      32.564  42.818  17.629 -0.26 -0.02    +0.087 A  ATOM     14  C   UNL     1      31.412  42.244  17.083 -0.29 -0.01    +0.022 A  ATOM     15  C   UNL     1      33.238  43.845  16.961 -0.30 -0.01    +0.022 A  ATOM     16  C   UNL     1      30.920  42.718  15.866 -0.35 -0.00    +0.001 A  ATOM     17  C   UNL     1      32.739  44.314  15.747 -0.34 -0.00    +0.001 A  ATOM     18  C   UNL     1      31.582  43.753  15.202 -0.37 -0.00    +0.000 A  ENDBRANCH  10  13ENDBRANCH   8  10ENDBRANCH   1   8BRANCH   7  19ATOM     19  C   UNL     1      36.548  44.373  18.417 -0.33 +0.00    -0.016 A  ATOM     20  C   UNL     1      37.381  44.012  17.352 -0.24 -0.00    +0.009 A  ATOM     21  C   UNL     1      35.705  45.481  18.257 -0.32 -0.00    +0.009 A  ATOM     22  C   UNL     1      37.379  44.745  16.160 -0.34 -0.00    +0.009 A  ATOM     23  C   UNL     1      35.703  46.212  17.064 -0.36 -0.01    +0.009 A  ATOM     24  C   UNL     1      36.541  45.858  15.995 -0.35 +0.01    -0.018 A  BRANCH  24  25ATOM     25  C   UNL     1      36.537  46.627  14.741 -0.41 +0.01    -0.015 A  ATOM     26  C   UNL     1      36.967  47.959  14.708 -0.47 -0.02    +0.029 A  ATOM     27  C   UNL     1      36.106  46.053  13.540 -0.47 -0.02    +0.029 A  ATOM     28  C   UNL     1      36.950  48.641  13.502 -0.38 -0.05    +0.111 A  ATOM     29  C   UNL     1      36.122  46.817  12.384 -0.58 -0.06    +0.111 A  ATOM     30  N   UNL     1      36.538  48.100  12.338 -0.95 +0.10    -0.265 NA ENDBRANCH  24  25ENDBRANCH   7  19TORSDOF 5TERENDMDL