MODEL        9USER    Run = 9USERUSER    Estimated Free Energy of Binding    =  -9.04 kcal/mol  [=(1)+(2)+(3)-(4)]USERUSER    (1) Final Intermolecular Energy     =  -9.94 kcal/molUSER        vdW + Hbond + desolv Energy     =  -9.86 kcal/molUSER        Electrostatic Energy            =  -0.08 kcal/molUSER        Moving Ligand-Fixed Receptor    =  -9.94 kcal/molUSER        Moving Ligand-Moving Receptor   =  +0.00 kcal/molUSER    (2) Final Total Internal Energy     =  -0.75 kcal/molUSER    (3) Torsional Free Energy           =  +0.89 kcal/molUSER    (4) Unbound System's Energy         =  -0.75 kcal/molUSERUSERREMARK SMILES O=C(Cc1ccc2cc(Cl)ccc2c1)Nc1cc2ccccc2[nH]1REMARK SMILES IDX 1 1 2 2 15 3 3 5 4 6 5 7 14 8 6 9 13 10 7 11 12 12 8 13REMARK SMILES IDX 11 14 9 15 10 16 16 17 17 18 24 19 18 20 23 21 19 22 22 23REMARK SMILES IDX 20 24 21 25REMARK H PARENT 15 4 24 26USER                              x       y       z     vdW  Elec       q    TypeUSER                           _______ _______ _______ _____ _____    ______ ____ROOTATOM      1  O   UNL     1      41.623  49.783  16.140 -1.05 -0.01    -0.274 OA ATOM      2  C   UNL     1      40.895  49.370  15.236 -0.52 -0.06    +0.229 C  ATOM      3  N   UNL     1      41.090  49.631  13.889 -0.33 +0.09    -0.312 N  ATOM      4  H   UNL     1      40.426  49.279  13.208 +0.11 -0.04    +0.171 HD ENDROOTBRANCH   2   5ATOM      5  C   UNL     1      39.725  48.443  15.534 -0.51 -0.05    +0.135 C  BRANCH   5   6ATOM      6  C   UNL     1      39.974  47.445  16.642 -0.48 +0.01    -0.038 A  ATOM      7  C   UNL     1      39.233  46.260  16.706 -0.43 -0.00    +0.005 A  ATOM      8  C   UNL     1      40.951  47.692  17.618 -0.51 -0.00    +0.013 A  ATOM      9  C   UNL     1      39.473  45.330  17.719 -0.38 -0.00    +0.009 A  ATOM     10  C   UNL     1      41.203  46.765  18.644 -0.49 +0.00    -0.018 A  ATOM     11  C   UNL     1      40.454  45.567  18.693 -0.45 +0.00    -0.017 A  ATOM     12  C   UNL     1      42.183  47.005  19.621 -0.45 +0.00    +0.010 A  ATOM     13  C   UNL     1      40.705  44.639  19.717 -0.38 +0.00    +0.029 A  ATOM     14  C   UNL     1      42.423  46.074  20.634 -0.30 +0.01    +0.021 A  ATOM     15  C   UNL     1      41.683  44.897  20.676 -0.30 +0.01    +0.041 A  ATOM     16  Cl  UNL     1      41.979  43.749  21.924 -0.45 -0.01    -0.084 Cl ENDBRANCH   5   6ENDBRANCH   2   5BRANCH   3  17ATOM     17  C   UNL     1      42.122  50.419  13.425 -0.55 -0.03    +0.110 A  ATOM     18  C   UNL     1      42.569  50.586  12.133 -0.52 -0.02    +0.055 A  ATOM     19  N   UNL     1      42.904  51.202  14.237 -0.32 +0.08    -0.341 N  ATOM     20  C   UNL     1      43.660  51.501  12.165 -0.50 -0.00    +0.002 A  ATOM     21  C   UNL     1      43.849  51.872  13.497 +0.01 -0.02    +0.047 A  ATOM     22  C   UNL     1      44.507  52.051  11.183 -0.29 -0.01    +0.010 A  ATOM     23  C   UNL     1      44.845  52.768  13.899 -0.19 -0.01    +0.027 A  ATOM     24  C   UNL     1      45.509  52.949  11.567 -0.29 -0.00    +0.001 A  ATOM     25  C   UNL     1      45.674  53.300  12.906 -0.26 -0.00    +0.002 A  ATOM     26  H   UNL     1      42.781  51.264  15.241 -0.05 -0.01    +0.168 HD ENDBRANCH   3  17TORSDOF 3TERENDMDL