MODEL        2USER    Run = 2USERUSER    Estimated Free Energy of Binding    =  -9.59 kcal/mol  [=(1)+(2)+(3)-(4)]USERUSER    (1) Final Intermolecular Energy     = -11.09 kcal/molUSER        vdW + Hbond + desolv Energy     = -11.06 kcal/molUSER        Electrostatic Energy            =  -0.03 kcal/molUSER        Moving Ligand-Fixed Receptor    = -11.09 kcal/molUSER        Moving Ligand-Moving Receptor   =  +0.00 kcal/molUSER    (2) Final Total Internal Energy     =  -1.27 kcal/molUSER    (3) Torsional Free Energy           =  +1.49 kcal/molUSER    (4) Unbound System's Energy         =  -1.27 kcal/molUSERUSERREMARK SMILES O=C(c1ccc(C(F)(F)F)cc1)N1CCN(Cc2ncsc2-c2ccc(F)cc2)CC1REMARK SMILES IDX 1 1 2 2 13 3 14 4 15 5 16 6 30 7 31 8 3 9 4 10 12 11 5 12REMARK SMILES IDX 11 13 6 14 7 15 8 16 9 17 10 18 17 19 18 20 19 21 22 22REMARK SMILES IDX 20 23 21 24 23 25 24 26 29 27 25 28 28 29 26 30 27 31REMARK H PARENTUSER                              x       y       z     vdW  Elec       q    TypeUSER                           _______ _______ _______ _____ _____    ______ ____ROOTATOM      1  O   UNL     1      41.394  48.660  16.664 -0.93 +0.00    -0.269 OA ATOM      2  C   UNL     1      40.587  47.734  16.691 -0.40 -0.04    +0.253 C  ATOM      3  N   UNL     1      40.577  46.745  17.678 -0.26 +0.04    -0.336 N  ATOM      4  C   UNL     1      39.341  46.064  18.088 -0.39 -0.02    +0.135 C  ATOM      5  C   UNL     1      39.613  44.778  18.893 -0.40 -0.00    +0.106 C  ATOM      6  N   UNL     1      40.554  44.931  20.020 -0.20 -0.01    -0.294 NA ATOM      7  C   UNL     1      41.795  45.563  19.511 -0.34 +0.02    +0.106 C  ATOM      8  C   UNL     1      41.587  46.874  18.733 -0.48 +0.00    +0.135 C  ENDROOTBRANCH   2   9ATOM      9  C   UNL     1      39.593  47.663  15.597 -0.49 -0.01    +0.040 A  ATOM     10  C   UNL     1      39.486  46.484  14.856 -0.43 -0.00    +0.014 A  ATOM     11  C   UNL     1      38.726  48.733  15.356 -0.49 -0.01    +0.014 A  ATOM     12  C   UNL     1      38.531  46.388  13.841 -0.35 -0.00    +0.014 A  ATOM     13  C   UNL     1      37.772  48.634  14.340 -0.49 -0.01    +0.014 A  ATOM     14  C   UNL     1      37.662  47.461  13.575 -0.49 -0.02    +0.056 A  BRANCH  14  15ATOM     15  C   UNL     1      36.643  47.363  12.463 -0.38 -0.17    +0.416 C  ATOM     16  F   UNL     1      35.729  46.374  12.662 -0.22 +0.09    -0.166 F  ATOM     17  F   UNL     1      37.201  47.116  11.246 -0.28 +0.05    -0.166 F  ATOM     18  F   UNL     1      35.926  48.512  12.322 -0.27 +0.08    -0.166 F  ENDBRANCH  14  15ENDBRANCH   2   9BRANCH   6  19ATOM     19  C   UNL     1      39.935  45.696  21.121 -0.25 +0.01    +0.142 C  BRANCH  19  20ATOM     20  C   UNL     1      39.810  44.857  22.365 -0.22 +0.00    +0.073 A  ATOM     21  N   UNL     1      40.747  45.053  23.379 -0.06 -0.01    -0.248 NA ATOM     22  C   UNL     1      38.833  43.911  22.648 -0.25 +0.00    +0.059 A  ATOM     23  C   UNL     1      40.484  44.250  24.384 -0.08 +0.00    +0.176 A  ATOM     24  S   UNL     1      39.117  43.239  24.207 -0.29 -0.01    -0.122 S  BRANCH  22  25ATOM     25  C   UNL     1      37.701  43.443  21.849 -0.37 -0.00    -0.006 A  ATOM     26  C   UNL     1      37.047  44.320  20.972 -0.37 +0.00    +0.012 A  ATOM     27  C   UNL     1      37.247  42.119  21.953 -0.48 +0.00    +0.012 A  ATOM     28  C   UNL     1      35.958  43.884  20.212 -0.39 -0.00    +0.040 A  ATOM     29  C   UNL     1      36.158  41.683  21.193 -0.50 +0.00    +0.040 A  ATOM     30  C   UNL     1      35.525  42.569  20.331 -0.37 -0.00    +0.123 A  ATOM     31  F   UNL     1      34.482  42.151  19.603 -0.11 +0.00    -0.207 F  ENDBRANCH  22  25ENDBRANCH  19  20ENDBRANCH   6  19TORSDOF 5TERENDMDL