MODEL        9USER    Run = 9USERUSER    Estimated Free Energy of Binding    =  -8.97 kcal/mol  [=(1)+(2)+(3)-(4)]USERUSER    (1) Final Intermolecular Energy     = -10.16 kcal/molUSER        vdW + Hbond + desolv Energy     = -10.08 kcal/molUSER        Electrostatic Energy            =  -0.08 kcal/molUSER        Moving Ligand-Fixed Receptor    = -10.16 kcal/molUSER        Moving Ligand-Moving Receptor   =  +0.00 kcal/molUSER    (2) Final Total Internal Energy     =  -1.25 kcal/molUSER    (3) Torsional Free Energy           =  +1.19 kcal/molUSER    (4) Unbound System's Energy         =  -1.25 kcal/molUSERUSERREMARK SMILES O=C(c1ccncc1)N1CCN(Cc2ncsc2-c2cc(F)ccc2F)CC1REMARK SMILES IDX 14 1 15 2 16 3 17 4 18 5 13 6 12 7 2 8 9 9 10 10 28 11 11 12REMARK SMILES IDX 27 13 1 14 3 15 4 16 8 17 5 18 7 19 6 20 19 21 20 22 25 23REMARK SMILES IDX 21 24 24 25 23 26 26 27 22 28REMARK H PARENTUSER                              x       y       z     vdW  Elec       q    TypeUSER                           _______ _______ _______ _____ _____    ______ ____ROOTATOM      1  C   UNL     1      40.159  44.884  21.627 -0.25 +0.00    +0.073 A  ATOM      2  N   UNL     1      40.884  45.764  22.429 -0.12 -0.02    -0.248 NA ATOM      3  C   UNL     1      40.109  46.246  23.373 -0.17 +0.01    +0.176 A  ATOM      4  S   UNL     1      38.498  45.672  23.397 -0.38 -0.01    -0.122 S  ATOM      5  C   UNL     1      38.844  44.693  22.029 -0.29 +0.00    +0.062 A  ENDROOTBRANCH   1   6ATOM      6  C   UNL     1      40.857  44.228  20.465 -0.28 +0.01    +0.142 C  BRANCH   6   7ATOM      7  N   UNL     1      40.946  45.128  19.306 -0.22 -0.02    -0.294 NA ATOM      8  C   UNL     1      40.520  48.074  16.318 -0.41 -0.05    +0.254 C  ATOM      9  N   UNL     1      40.491  47.259  17.441 -0.27 +0.05    -0.336 N  ATOM     10  C   UNL     1      41.641  47.318  18.345 -0.50 -0.01    +0.135 C  ATOM     11  C   UNL     1      39.311  46.575  17.968 -0.35 -0.03    +0.135 C  ATOM     12  C   UNL     1      41.480  46.461  19.617 -0.40 +0.01    +0.106 C  ATOM     13  C   UNL     1      39.653  45.205  18.595 -0.42 -0.01    +0.106 C  ATOM     14  O   UNL     1      41.421  48.875  16.079 -0.97 +0.00    -0.269 OA BRANCH   8  15ATOM     15  C   UNL     1      39.425  47.975  15.336 -0.50 -0.01    +0.043 A  ATOM     16  C   UNL     1      39.444  46.979  14.362 -0.38 -0.01    +0.034 A  ATOM     17  C   UNL     1      38.416  48.934  15.348 -0.41 -0.02    +0.034 A  ATOM     18  C   UNL     1      38.405  46.959  13.452 -0.28 -0.03    +0.112 A  ATOM     19  C   UNL     1      37.423  48.824  14.395 -0.41 -0.08    +0.112 A  ATOM     20  N   UNL     1      37.388  47.850  13.457 -0.60 +0.10    -0.265 NA ENDBRANCH   8  15ENDBRANCH   6   7ENDBRANCH   1   6BRANCH   5  21ATOM     21  C   UNL     1      37.808  43.822  21.485 -0.35 +0.00    +0.032 A  ATOM     22  C   UNL     1      37.026  44.256  20.407 -0.34 -0.00    +0.052 A  ATOM     23  C   UNL     1      37.555  42.559  22.036 -0.32 +0.01    +0.132 A  ATOM     24  C   UNL     1      36.024  43.430  19.904 -0.33 -0.01    +0.124 A  ATOM     25  C   UNL     1      36.552  41.735  21.526 -0.53 +0.00    +0.043 A  ATOM     26  C   UNL     1      35.782  42.174  20.450 -0.45 -0.00    +0.042 A  ATOM     27  F   UNL     1      38.263  42.125  23.088 -0.08 -0.02    -0.206 F  ATOM     28  F   UNL     1      35.270  43.862  18.884 -0.05 +0.04    -0.207 F  ENDBRANCH   5  21TORSDOF 4TERENDMDL