REMARK SMILES COc1ccc(C(=O)N2CCN(Cc3ncsc3-c3ccc(Cl)cc3)CC2)cc1
REMARK SMILES IDX 7 1 8 2 9 3 10 4 11 5 12 6 26 7 27 8 6 9 3 10 4 11 29 12
REMARK SMILES IDX 5 13 28 14 2 15 1 16 13 17 14 18 15 19 18 20 16 21 17 22
REMARK SMILES IDX 19 23 20 24 25 25 21 26 24 27 22 28 23 29
REMARK H PARENT
ROOT
ATOM      1  C   UNL     1      -2.369  -2.036   0.229  1.00  0.00     0.253 C 
ATOM      2  O   UNL     1      -2.465  -3.255   0.356  1.00  0.00    -0.269 OA
ATOM      3  N   UNL     1      -1.250  -1.301   0.629  1.00  0.00    -0.336 N 
ATOM      4  C   UNL     1      -0.840  -0.072  -0.059  1.00  0.00     0.135 C 
ATOM      5  C   UNL     1       0.139   0.767   0.782  1.00  0.00     0.106 C 
ATOM      6  N   UNL     1       1.308  -0.017   1.230  1.00  0.00    -0.294 NA
ATOM      7  C   UNL     1       0.836  -1.191   2.001  1.00  0.00     0.106 C 
ATOM      8  C   UNL     1      -0.138  -2.067   1.192  1.00  0.00     0.135 C 
ENDROOT
BRANCH   1   9
ATOM      9  C   UNL     1      -3.520  -1.315  -0.357  1.00  0.00     0.040 A 
ATOM     10  C   UNL     1      -5.739  -0.011  -1.455  1.00  0.00     0.118 A 
ATOM     11  C   UNL     1      -5.233   0.392  -0.217  1.00  0.00     0.047 A 
ATOM     12  C   UNL     1      -5.137  -1.079  -2.130  1.00  0.00     0.047 A 
ATOM     13  C   UNL     1      -4.129  -0.264   0.337  1.00  0.00     0.017 A 
ATOM     14  C   UNL     1      -4.036  -1.739  -1.582  1.00  0.00     0.017 A 
BRANCH  10  15
ATOM     15  O   UNL     1      -6.806   0.544  -2.106  1.00  0.00    -0.497 OA
ATOM     16  C   UNL     1      -7.487   1.602  -1.443  1.00  0.00     0.278 C 
ENDBRANCH  10  15
ENDBRANCH   1   9
BRANCH   6  17
ATOM     17  C   UNL     1       2.200   0.835   2.041  1.00  0.00     0.142 C 
BRANCH  17  18
ATOM     18  C   UNL     1       3.519   0.156   2.290  1.00  0.00     0.073 A 
ATOM     19  N   UNL     1       3.721  -0.451   3.529  1.00  0.00    -0.248 NA
ATOM     20  C   UNL     1       4.603   0.083   1.423  1.00  0.00     0.059 A 
ATOM     21  C   UNL     1       4.921  -0.983   3.570  1.00  0.00     0.176 A 
ATOM     22  S   UNL     1       5.886  -0.784   2.172  1.00  0.00    -0.122 S 
BRANCH  20  23
ATOM     23  C   UNL     1       4.766   0.592   0.062  1.00  0.00    -0.006 A 
ATOM     24  C   UNL     1       3.951   0.113  -0.973  1.00  0.00     0.011 A 
ATOM     25  C   UNL     1       5.728   1.571  -0.228  1.00  0.00     0.011 A 
ATOM     26  C   UNL     1       4.092   0.603  -2.274  1.00  0.00     0.021 A 
ATOM     27  C   UNL     1       5.870   2.062  -1.529  1.00  0.00     0.021 A 
ATOM     28  C   UNL     1       5.052   1.575  -2.546  1.00  0.00     0.041 A 
ATOM     29  Cl  UNL     1       5.225   2.182  -4.146  1.00  0.00    -0.084 Cl
ENDBRANCH  20  23
ENDBRANCH  17  18
ENDBRANCH   6  17
TORSDOF 5
