REMARK SMILES Cc1cc(C(=O)N2CCN(Cc3ncsc3-c3ccc(F)cc3)CC2)ccn1
REMARK SMILES IDX 11 1 10 2 5 3 7 4 8 5 25 6 9 7 24 8 6 9 4 10 2 11 3 12 28 13
REMARK SMILES IDX 27 14 26 15 1 16 12 17 13 18 16 19 14 20 15 21 17 22 18 23
REMARK SMILES IDX 23 24 19 25 22 26 20 27 21 28
REMARK H PARENT
ROOT
ATOM      1  C   UNL     1      -1.945   0.736  -0.994  1.00  0.00     0.142 C 
ENDROOT
BRANCH   1   2
ATOM      2  N   UNL     1      -1.065  -0.247  -0.334  1.00  0.00    -0.294 NA
ATOM      3  C   UNL     1       3.230  -1.055  -0.490  1.00  0.00     0.254 C 
ATOM      4  N   UNL     1       1.888  -0.700  -0.546  1.00  0.00    -0.336 N 
ATOM      5  C   UNL     1       1.336   0.581  -0.087  1.00  0.00     0.135 C 
ATOM      6  C   UNL     1       0.909  -1.746  -0.844  1.00  0.00     0.135 C 
ATOM      7  C   UNL     1      -0.068   0.418   0.529  1.00  0.00     0.106 C 
ATOM      8  C   UNL     1      -0.427  -1.152  -1.322  1.00  0.00     0.106 C 
ATOM      9  O   UNL     1       3.628  -2.212  -0.599  1.00  0.00    -0.269 OA
BRANCH   3  10
ATOM     10  C   UNL     1       4.242   0.003  -0.290  1.00  0.00     0.043 A 
ATOM     11  C   UNL     1       6.141   0.836   0.889  1.00  0.00     0.038 A 
ATOM     12  C   UNL     1       5.186  -0.156   0.723  1.00  0.00     0.037 A 
ATOM     13  N   UNL     1       6.191   1.937   0.100  1.00  0.00    -0.262 NA
ATOM     14  C   UNL     1       5.283   2.043  -0.896  1.00  0.00     0.112 A 
ATOM     15  C   UNL     1       4.296   1.108  -1.135  1.00  0.00     0.034 A 
ATOM     16  C   UNL     1       7.175   0.714   1.967  1.00  0.00     0.067 C 
ENDBRANCH   3  10
ENDBRANCH   1   2
BRANCH   1  17
ATOM     17  C   UNL     1      -3.099   0.056  -1.683  1.00  0.00     0.073 A 
ATOM     18  N   UNL     1      -2.986  -0.201  -3.049  1.00  0.00    -0.248 NA
ATOM     19  C   UNL     1      -4.306  -0.335  -1.114  1.00  0.00     0.059 A 
ATOM     20  C   UNL     1      -4.078  -0.788  -3.480  1.00  0.00     0.176 A 
ATOM     21  S   UNL     1      -5.302  -1.056  -2.317  1.00  0.00    -0.122 S 
BRANCH  19  22
ATOM     22  C   UNL     1      -4.783  -0.236   0.265  1.00  0.00    -0.006 A 
ATOM     23  C   UNL     1      -4.083  -0.874   1.300  1.00  0.00     0.012 A 
ATOM     24  C   UNL     1      -5.934   0.505   0.576  1.00  0.00     0.012 A 
ATOM     25  C   UNL     1      -4.526  -0.775   2.621  1.00  0.00     0.040 A 
ATOM     26  C   UNL     1      -6.376   0.603   1.898  1.00  0.00     0.040 A 
ATOM     27  C   UNL     1      -5.668  -0.038   2.907  1.00  0.00     0.123 A 
ATOM     28  F   UNL     1      -6.091   0.059   4.174  1.00  0.00    -0.207 F 
ENDBRANCH  19  22
ENDBRANCH   1  17
TORSDOF 4
