MODEL        8USER    Run = 8USERUSER    Estimated Free Energy of Binding    = -10.02 kcal/mol  [=(1)+(2)+(3)-(4)]USERUSER    (1) Final Intermolecular Energy     = -11.51 kcal/molUSER        vdW + Hbond + desolv Energy     = -11.38 kcal/molUSER        Electrostatic Energy            =  -0.13 kcal/molUSER        Moving Ligand-Fixed Receptor    = -11.51 kcal/molUSER        Moving Ligand-Moving Receptor   =  +0.00 kcal/molUSER    (2) Final Total Internal Energy     =  -1.23 kcal/molUSER    (3) Torsional Free Energy           =  +1.49 kcal/molUSER    (4) Unbound System's Energy         =  -1.23 kcal/molUSERUSERREMARK SMILES COc1ccc(C(=O)N2CCN(Cc3ncsc3-c3ccc(Cl)cc3)CC2)cc1REMARK SMILES IDX 7 1 8 2 9 3 10 4 11 5 12 6 26 7 27 8 6 9 3 10 4 11 29 12REMARK SMILES IDX 5 13 28 14 2 15 1 16 13 17 14 18 15 19 18 20 16 21 17 22REMARK SMILES IDX 19 23 20 24 25 25 21 26 24 27 22 28 23 29REMARK H PARENTUSER                              x       y       z     vdW  Elec       q    TypeUSER                           _______ _______ _______ _____ _____    ______ ____ROOTATOM      1  C   UNL     1      40.595  48.018  16.587 -0.40 -0.05    +0.253 C  ATOM      2  O   UNL     1      41.435  48.915  16.548 -1.01 -0.00    -0.269 OA ATOM      3  N   UNL     1      40.549  47.044  17.588 -0.27 +0.04    -0.336 N  ATOM      4  C   UNL     1      39.287  46.432  18.019 -0.36 -0.02    +0.135 C  ATOM      5  C   UNL     1      39.512  45.130  18.810 -0.41 -0.01    +0.106 C  ATOM      6  N   UNL     1      40.438  45.317  19.945 -0.21 -0.01    -0.294 NA ATOM      7  C   UNL     1      41.726  45.844  19.437 -0.40 +0.01    +0.106 C  ATOM      8  C   UNL     1      41.550  47.155  18.649 -0.46 -0.00    +0.135 C  ENDROOTBRANCH   1   9ATOM      9  C   UNL     1      39.601  47.961  15.494 -0.50 -0.01    +0.040 A  ATOM     10  C   UNL     1      37.688  47.796  13.458 -0.44 -0.04    +0.118 A  ATOM     11  C   UNL     1      37.665  48.867  14.354 -0.42 -0.03    +0.047 A  ATOM     12  C   UNL     1      38.664  46.803  13.598 -0.19 -0.01    +0.047 A  ATOM     13  C   UNL     1      38.615  48.947  15.377 -0.40 -0.01    +0.017 A  ATOM     14  C   UNL     1      39.614  46.876  14.617 -0.44 -0.00    +0.017 A  BRANCH  10  15ATOM     15  O   UNL     1      36.823  47.601  12.417 -0.75 +0.17    -0.497 OA ATOM     16  C   UNL     1      35.809  46.619  12.596 -0.45 -0.16    +0.278 C  ENDBRANCH  10  15ENDBRANCH   1   9BRANCH   6  17ATOM     17  C   UNL     1      40.625  44.035  20.654 -0.22 +0.01    +0.142 C  BRANCH  17  18ATOM     18  C   UNL     1      40.030  44.088  22.035 -0.23 +0.00    +0.073 A  ATOM     19  N   UNL     1      40.867  44.428  23.097 -0.08 -0.01    -0.248 NA ATOM     20  C   UNL     1      38.718  43.802  22.396 -0.27 +0.00    +0.059 A  ATOM     21  C   UNL     1      40.183  44.417  24.218 -0.08 +0.01    +0.176 A  ATOM     22  S   UNL     1      38.532  43.988  24.096 -0.30 -0.01    -0.122 S  BRANCH  20  23ATOM     23  C   UNL     1      37.571  43.416  21.576 -0.38 -0.00    -0.006 A  ATOM     24  C   UNL     1      37.002  44.332  20.680 -0.36 -0.00    +0.011 A  ATOM     25  C   UNL     1      37.029  42.125  21.664 -0.49 +0.00    +0.011 A  ATOM     26  C   UNL     1      35.913  43.966  19.885 -0.40 -0.00    +0.021 A  ATOM     27  C   UNL     1      35.939  41.758  20.868 -0.46 +0.00    +0.021 A  ATOM     28  C   UNL     1      35.386  42.681  19.983 -0.42 -0.00    +0.041 A  ATOM     29  Cl  UNL     1      34.048  42.228  19.002 -0.57 +0.01    -0.084 Cl ENDBRANCH  20  23ENDBRANCH  17  18ENDBRANCH   6  17TORSDOF 5TERENDMDL