MODEL        6USER    Run = 6USERUSER    Estimated Free Energy of Binding    =  -7.79 kcal/mol  [=(1)+(2)+(3)-(4)]USERUSER    (1) Final Intermolecular Energy     =  -8.68 kcal/molUSER        vdW + Hbond + desolv Energy     =  -8.57 kcal/molUSER        Electrostatic Energy            =  -0.11 kcal/molUSER        Moving Ligand-Fixed Receptor    =  -8.68 kcal/molUSER        Moving Ligand-Moving Receptor   =  +0.00 kcal/molUSER    (2) Final Total Internal Energy     =  -0.86 kcal/molUSER    (3) Torsional Free Energy           =  +0.89 kcal/molUSER    (4) Unbound System's Energy         =  -0.86 kcal/molUSERUSERREMARK SMILES CN1CCN(Cc2ncsc2-c2ccc(F)cc2)CC1REMARK SMILES IDX 7 1 8 2 9 3 10 4 11 5 6 6 5 7 2 8 3 9 20 10 4 11 19 12 1 13REMARK SMILES IDX 12 14 13 15 18 16 14 17 17 18 15 19 16 20REMARK H PARENTUSER                              x       y       z     vdW  Elec       q    TypeUSER                           _______ _______ _______ _____ _____    ______ ____ROOTATOM      1  C   UNL     1      36.979  47.442  13.843 -0.47 -0.04    +0.073 A  ATOM      2  N   UNL     1      37.224  47.788  12.515 -0.99 +0.05    -0.248 NA ATOM      3  C   UNL     1      37.044  46.743  11.741 -0.48 -0.06    +0.176 A  ATOM      4  S   UNL     1      36.611  45.288  12.527 -0.64 +0.04    -0.122 S  ATOM      5  C   UNL     1      36.656  46.104  14.040 -0.40 -0.03    +0.059 A  ENDROOTBRANCH   1   6ATOM      6  C   UNL     1      37.112  48.511  14.897 -0.44 -0.12    +0.142 C  BRANCH   6   7ATOM      7  N   UNL     1      38.505  48.658  15.343 -0.28 +0.18    -0.295 NA ATOM      8  N   UNL     1      41.301  48.496  15.957 -0.58 +0.02    -0.304 NA ATOM      9  C   UNL     1      40.886  48.113  14.598 -0.43 -0.01    +0.099 C  ATOM     10  C   UNL     1      40.328  47.969  16.938 -0.45 -0.02    +0.099 C  ATOM     11  C   UNL     1      39.434  48.499  14.207 -0.43 -0.03    +0.100 C  ATOM     12  C   UNL     1      38.876  47.746  16.432 -0.40 -0.04    +0.100 C  ATOM     13  C   UNL     1      41.419  49.952  16.072 -0.50 -0.01    +0.105 C  ENDBRANCH   6   7ENDBRANCH   1   6BRANCH   5  14ATOM     14  C   UNL     1      36.380  45.364  15.269 -0.36 +0.00    -0.006 A  ATOM     15  C   UNL     1      35.947  46.044  16.417 -0.35 -0.01    +0.012 A  ATOM     16  C   UNL     1      36.530  43.970  15.314 -0.38 -0.00    +0.012 A  ATOM     17  C   UNL     1      35.668  45.341  17.590 -0.32 -0.02    +0.040 A  ATOM     18  C   UNL     1      36.250  43.268  16.488 -0.36 -0.01    +0.040 A  ATOM     19  C   UNL     1      35.821  43.959  17.615 -0.23 -0.04    +0.123 A  ATOM     20  F   UNL     1      35.552  43.286  18.740 -0.05 +0.04    -0.207 F  ENDBRANCH   5  14TORSDOF 3TERENDMDL