MODEL        8USER    Run = 8USERUSER    Estimated Free Energy of Binding    =  -7.74 kcal/mol  [=(1)+(2)+(3)-(4)]USERUSER    (1) Final Intermolecular Energy     =  -8.93 kcal/molUSER        vdW + Hbond + desolv Energy     =  -8.83 kcal/molUSER        Electrostatic Energy            =  -0.10 kcal/molUSER        Moving Ligand-Fixed Receptor    =  -8.93 kcal/molUSER        Moving Ligand-Moving Receptor   =  +0.00 kcal/molUSER    (2) Final Total Internal Energy     =  -0.81 kcal/molUSER    (3) Torsional Free Energy           =  +1.19 kcal/molUSER    (4) Unbound System's Energy         =  -0.81 kcal/molUSERUSERREMARK SMILES CCN1CCN(Cc2ncsc2-c2ccc(F)cc2)CC1REMARK SMILES IDX 7 1 6 2 3 3 4 4 21 5 5 6 20 7 2 8 1 9 8 10 9 11 12 12 10 13REMARK SMILES IDX 11 14 13 15 14 16 19 17 15 18 18 19 16 20 17 21REMARK H PARENTUSER                              x       y       z     vdW  Elec       q    TypeUSER                           _______ _______ _______ _____ _____    ______ ____ROOTATOM      1  C   UNL     1      38.946  46.061  14.470 -0.35 -0.03    +0.142 C  ENDROOTBRANCH   1   2ATOM      2  N   UNL     1      39.726  47.207  14.944 -0.24 +0.06    -0.295 NA ATOM      3  N   UNL     1      41.123  49.493  15.940 -0.72 +0.04    -0.301 NA ATOM      4  C   UNL     1      41.396  48.168  16.551 -0.34 -0.01    +0.100 C  ATOM      5  C   UNL     1      39.669  49.620  15.712 -0.32 -0.06    +0.100 C  ATOM      6  C   UNL     1      40.378  47.034  16.241 -0.48 -0.02    +0.100 C  ATOM      7  C   UNL     1      39.023  48.496  14.858 -0.52 -0.05    +0.100 C  BRANCH   3   8ATOM      8  C   UNL     1      41.863  49.679  14.680 -0.62 -0.01    +0.081 C  ATOM      9  C   UNL     1      42.517  51.057  14.618 -0.52 -0.00    +0.021 C  ENDBRANCH   3   8ENDBRANCH   1   2BRANCH   1  10ATOM     10  C   UNL     1      37.625  46.414  13.836 -0.40 -0.03    +0.073 A  ATOM     11  N   UNL     1      37.640  47.196  12.679 -0.78 +0.05    -0.248 NA ATOM     12  C   UNL     1      36.354  46.026  14.250 -0.38 -0.03    +0.059 A  ATOM     13  C   UNL     1      36.412  47.409  12.267 -0.52 -0.08    +0.176 A  ATOM     14  S   UNL     1      35.169  46.693  13.195 -0.55 +0.09    -0.122 S  BRANCH  12  15ATOM     15  C   UNL     1      35.930  45.182  15.365 -0.35 +0.00    -0.006 A  ATOM     16  C   UNL     1      36.173  43.799  15.350 -0.38 -0.00    +0.012 A  ATOM     17  C   UNL     1      35.267  45.747  16.465 -0.33 -0.01    +0.012 A  ATOM     18  C   UNL     1      35.755  42.997  16.414 -0.42 -0.01    +0.040 A  ATOM     19  C   UNL     1      34.851  44.943  17.528 -0.30 -0.02    +0.040 A  ATOM     20  C   UNL     1      35.098  43.577  17.493 -0.24 -0.04    +0.123 A  ATOM     21  F   UNL     1      34.698  42.806  18.513 -0.06 +0.04    -0.207 F  ENDBRANCH  12  15ENDBRANCH   1  10TORSDOF 4TERENDMDL