MODEL        7USER    Run = 7USERUSER    Estimated Free Energy of Binding    =  -9.74 kcal/mol  [=(1)+(2)+(3)-(4)]USERUSER    (1) Final Intermolecular Energy     = -10.93 kcal/molUSER        vdW + Hbond + desolv Energy     = -10.78 kcal/molUSER        Electrostatic Energy            =  -0.15 kcal/molUSER        Moving Ligand-Fixed Receptor    = -10.93 kcal/molUSER        Moving Ligand-Moving Receptor   =  +0.00 kcal/molUSER    (2) Final Total Internal Energy     =  -1.38 kcal/molUSER    (3) Torsional Free Energy           =  +1.19 kcal/molUSER    (4) Unbound System's Energy         =  -1.38 kcal/molUSERUSERREMARK SMILES Cc1cc(C(=O)N2CCN(Cc3ncsc3-c3ccc(F)cc3)CC2)ccn1REMARK SMILES IDX 11 1 10 2 5 3 7 4 8 5 25 6 9 7 24 8 6 9 4 10 2 11 3 12 28 13REMARK SMILES IDX 27 14 26 15 1 16 12 17 13 18 16 19 14 20 15 21 17 22 18 23REMARK SMILES IDX 23 24 19 25 22 26 20 27 21 28REMARK H PARENTUSER                              x       y       z     vdW  Elec       q    TypeUSER                           _______ _______ _______ _____ _____    ______ ____ROOTATOM      1  C   UNL     1      37.957  48.423  14.633 -0.49 -0.08    +0.142 C  ENDROOTBRANCH   1   2ATOM      2  N   UNL     1      39.351  48.071  14.965 -0.27 +0.10    -0.294 NA ATOM      3  C   UNL     1      41.407  47.001  18.673 -0.38 -0.00    +0.254 C  ATOM      4  N   UNL     1      40.635  47.366  17.577 -0.28 +0.05    -0.336 N  ATOM      5  C   UNL     1      39.533  46.571  17.021 -0.42 -0.03    +0.135 C  ATOM      6  C   UNL     1      41.092  48.486  16.754 -0.49 -0.01    +0.135 C  ATOM      7  C   UNL     1      39.449  46.693  15.486 -0.44 -0.02    +0.106 C  ATOM      8  C   UNL     1      39.952  49.059  15.894 -0.51 -0.04    +0.106 C  ATOM      9  O   UNL     1      42.489  47.517  18.940 -0.47 -0.01    -0.269 OA BRANCH   3  10ATOM     10  C   UNL     1      40.912  45.938  19.573 -0.40 +0.00    +0.043 A  ATOM     11  C   UNL     1      39.087  44.810  20.616 -0.34 +0.00    +0.038 A  ATOM     12  C   UNL     1      39.539  45.822  19.782 -0.32 -0.00    +0.037 A  ATOM     13  N   UNL     1      39.928  43.935  21.219 -0.11 -0.01    -0.262 NA ATOM     14  C   UNL     1      41.251  44.053  20.967 -0.27 +0.01    +0.112 A  ATOM     15  C   UNL     1      41.791  45.028  20.154 -0.27 +0.01    +0.034 A  ATOM     16  C   UNL     1      37.620  44.647  20.876 -0.31 +0.00    +0.067 C  ENDBRANCH   3  10ENDBRANCH   1   2BRANCH   1  17ATOM     17  C   UNL     1      37.369  47.445  13.650 -0.49 -0.03    +0.073 A  ATOM     18  N   UNL     1      37.481  47.737  12.291 -0.95 +0.02    -0.248 NA ATOM     19  C   UNL     1      36.688  46.268  13.939 -0.41 -0.03    +0.059 A  ATOM     20  C   UNL     1      36.913  46.786  11.586 -0.49 -0.06    +0.176 A  ATOM     21  S   UNL     1      36.202  45.509  12.473 -0.59 +0.05    -0.122 S  BRANCH  19  22ATOM     22  C   UNL     1      36.379  45.639  15.223 -0.37 +0.00    -0.006 A  ATOM     23  C   UNL     1      36.522  44.252  15.381 -0.38 -0.00    +0.012 A  ATOM     24  C   UNL     1      35.951  46.409  16.315 -0.36 -0.01    +0.012 A  ATOM     25  C   UNL     1      36.240  43.646  16.607 -0.35 -0.01    +0.040 A  ATOM     26  C   UNL     1      35.668  45.802  17.542 -0.34 -0.02    +0.040 A  ATOM     27  C   UNL     1      35.815  44.427  17.675 -0.23 -0.04    +0.123 A  ATOM     28  F   UNL     1      35.547  43.846  18.852 -0.05 +0.04    -0.207 F  ENDBRANCH  19  22ENDBRANCH   1  17TORSDOF 4TERENDMDL