REMARK SMILES O=C(c1ccncc1)N1CCN(Cc2ncsc2-c2cc(F)ccc2F)CC1
REMARK SMILES IDX 14 1 15 2 16 3 17 4 18 5 13 6 12 7 2 8 9 9 10 10 28 11 11 12
REMARK SMILES IDX 27 13 1 14 3 15 4 16 8 17 5 18 7 19 6 20 19 21 20 22 25 23
REMARK SMILES IDX 21 24 24 25 23 26 26 27 22 28
REMARK H PARENT
ROOT
ATOM      1  C   UNL     1      -2.103  -0.839   2.271  1.00  0.00     0.073 A 
ATOM      2  N   UNL     1      -1.804  -0.553   3.601  1.00  0.00    -0.248 NA
ATOM      3  C   UNL     1      -2.853  -0.022   4.188  1.00  0.00     0.176 A 
ATOM      4  S   UNL     1      -4.257   0.140   3.226  1.00  0.00    -0.122 S 
ATOM      5  C   UNL     1      -3.410  -0.550   1.901  1.00  0.00     0.062 A 
ENDROOT
BRANCH   1   6
ATOM      6  C   UNL     1      -1.027  -1.440   1.405  1.00  0.00     0.142 C 
BRANCH   6   7
ATOM      7  N   UNL     1       0.006  -0.453   1.058  1.00  0.00    -0.294 NA
ATOM      8  C   UNL     1       2.969   1.991  -0.685  1.00  0.00     0.254 C 
ATOM      9  N   UNL     1       1.945   1.110  -0.363  1.00  0.00    -0.336 N 
ATOM     10  C   UNL     1       0.635   1.685  -0.054  1.00  0.00     0.135 C 
ATOM     11  C   UNL     1       1.961  -0.334  -0.591  1.00  0.00     0.135 C 
ATOM     12  C   UNL     1      -0.467   0.633   0.188  1.00  0.00     0.106 C 
ATOM     13  C   UNL     1       1.208  -1.114   0.510  1.00  0.00     0.106 C 
ATOM     14  O   UNL     1       2.818   3.207  -0.780  1.00  0.00    -0.269 OA
BRANCH   8  15
ATOM     15  C   UNL     1       4.324   1.458  -0.911  1.00  0.00     0.043 A 
ATOM     16  C   UNL     1       4.992   0.783   0.109  1.00  0.00     0.034 A 
ATOM     17  C   UNL     1       4.954   1.705  -2.127  1.00  0.00     0.034 A 
ATOM     18  C   UNL     1       6.272   0.336  -0.156  1.00  0.00     0.112 A 
ATOM     19  C   UNL     1       6.234   1.214  -2.291  1.00  0.00     0.112 A 
ATOM     20  N   UNL     1       6.901   0.523  -1.338  1.00  0.00    -0.265 NA
ENDBRANCH   8  15
ENDBRANCH   6   7
ENDBRANCH   1   6
BRANCH   5  21
ATOM     21  C   UNL     1      -4.100  -0.759   0.633  1.00  0.00     0.032 A 
ATOM     22  C   UNL     1      -4.501  -2.049   0.261  1.00  0.00     0.052 A 
ATOM     23  C   UNL     1      -4.350   0.304  -0.244  1.00  0.00     0.132 A 
ATOM     24  C   UNL     1      -5.140  -2.248  -0.960  1.00  0.00     0.124 A 
ATOM     25  C   UNL     1      -4.994   0.098  -1.465  1.00  0.00     0.043 A 
ATOM     26  C   UNL     1      -5.394  -1.188  -1.824  1.00  0.00     0.042 A 
ATOM     27  F   UNL     1      -3.952   1.546   0.065  1.00  0.00    -0.206 F 
ATOM     28  F   UNL     1      -5.505  -3.488  -1.313  1.00  0.00    -0.207 F 
ENDBRANCH   5  21
TORSDOF 4
