MODEL        1USER    Run = 1USERUSER    Estimated Free Energy of Binding    =  -8.83 kcal/mol  [=(1)+(2)+(3)-(4)]USERUSER    (1) Final Intermolecular Energy     =  -9.72 kcal/molUSER        vdW + Hbond + desolv Energy     =  -9.69 kcal/molUSER        Electrostatic Energy            =  -0.03 kcal/molUSER        Moving Ligand-Fixed Receptor    =  -9.72 kcal/molUSER        Moving Ligand-Moving Receptor   =  +0.00 kcal/molUSER    (2) Final Total Internal Energy     =  -0.55 kcal/molUSER    (3) Torsional Free Energy           =  +0.89 kcal/molUSER    (4) Unbound System's Energy         =  -0.55 kcal/molUSERUSERREMARK SMILES Cn1c(NC(=O)Cc2ccc3ccccc3c2)nc2ccccc21REMARK SMILES IDX 4 1 5 2 6 3 3 5 2 6 24 7 18 8 23 9 19 10 22 11 20 12 21 13REMARK SMILES IDX 1 14 7 15 8 16 9 17 17 18 10 19 16 20 11 21 15 22 12 23REMARK SMILES IDX 14 24 13 25REMARK H PARENT 4 4USER                              x       y       z     vdW  Elec       q    TypeUSER                           _______ _______ _______ _____ _____    ______ ____ROOTATOM      1  N   UNL     1      38.947  46.017  18.419 -0.22 +0.05    -0.296 N  ATOM      2  C   UNL     1      40.244  45.949  17.963 -0.37 -0.02    +0.231 C  ATOM      3  O   UNL     1      41.083  45.105  18.267 -0.31 -0.01    -0.274 OA ATOM      4  H   UNL     1      38.275  46.525  17.854 +0.09 -0.05    +0.173 HD ENDROOTBRANCH   1   5ATOM      5  C   UNL     1      38.340  45.123  19.267 -0.23 -0.02    +0.210 A  ATOM      6  N   UNL     1      38.642  44.811  20.576 -0.18 -0.00    -0.313 N  ATOM      7  C   UNL     1      37.800  43.786  20.969 -0.32 +0.00    +0.069 A  ATOM      8  N   UNL     1      37.280  44.457  18.863 -0.22 +0.03    -0.213 NA ATOM      9  C   UNL     1      37.682  43.037  22.148 -0.37 +0.00    +0.028 A  ATOM     10  C   UNL     1      36.955  43.602  19.881 -0.31 -0.01    +0.091 A  ATOM     11  C   UNL     1      36.666  42.075  22.195 -0.52 +0.00    +0.002 A  ATOM     12  C   UNL     1      35.939  42.638  19.947 -0.42 -0.00    +0.031 A  ATOM     13  C   UNL     1      35.806  41.878  21.116 -0.48 +0.00    +0.002 A  ATOM     14  C   UNL     1      39.541  45.492  21.477 -0.29 +0.01    +0.153 C  ENDBRANCH   1   5BRANCH   2  15ATOM     15  C   UNL     1      40.585  47.074  16.996 -0.47 -0.02    +0.136 C  BRANCH  15  16ATOM     16  C   UNL     1      39.523  47.299  15.949 -0.47 +0.01    -0.038 A  ATOM     17  C   UNL     1      39.024  48.586  15.715 -0.50 -0.00    +0.005 A  ATOM     18  C   UNL     1      39.020  46.228  15.197 -0.41 -0.00    +0.013 A  ATOM     19  C   UNL     1      38.048  48.799  14.740 -0.45 -0.01    +0.009 A  ATOM     20  C   UNL     1      38.036  46.427  14.215 -0.43 +0.01    -0.018 A  ATOM     21  C   UNL     1      37.545  47.732  13.981 -0.52 +0.01    -0.018 A  ATOM     22  C   UNL     1      37.530  45.358  13.457 -0.42 -0.00    +0.009 A  ATOM     23  C   UNL     1      36.564  47.931  12.997 -0.63 -0.00    +0.009 A  ATOM     24  C   UNL     1      36.552  45.572  12.484 -0.58 -0.00    +0.001 A  ATOM     25  C   UNL     1      36.070  46.858  12.253 -0.67 -0.00    +0.001 A  ENDBRANCH  15  16ENDBRANCH   2  15TORSDOF 3TERENDMDL