MODEL        10USER    Run = 10USERUSER    Estimated Free Energy of Binding    =  -9.05 kcal/mol  [=(1)+(2)+(3)-(4)]USERUSER    (1) Final Intermolecular Energy     = -10.24 kcal/molUSER        vdW + Hbond + desolv Energy     = -10.11 kcal/molUSER        Electrostatic Energy            =  -0.13 kcal/molUSER        Moving Ligand-Fixed Receptor    = -10.24 kcal/molUSER        Moving Ligand-Moving Receptor   =  +0.00 kcal/molUSER    (2) Final Total Internal Energy     =  -0.63 kcal/molUSER    (3) Torsional Free Energy           =  +1.19 kcal/molUSER    (4) Unbound System's Energy         =  -0.63 kcal/molUSERUSERREMARK SMILES O=C(Cc1ccc(-c2ccccc2)cc1)Nc1cc2ccccc2[nH]1REMARK SMILES IDX 1 1 2 2 16 3 3 5 4 6 5 7 15 8 6 9 14 10 7 11 8 12 9 13 13 14REMARK SMILES IDX 10 15 12 16 11 17 17 18 18 19 25 20 19 21 24 22 20 23 23 24REMARK SMILES IDX 21 25 22 26REMARK H PARENT 16 4 25 27USER                              x       y       z     vdW  Elec       q    TypeUSER                           _______ _______ _______ _____ _____    ______ ____ROOTATOM      1  O   UNL     1      27.695  37.816  21.476 -0.17 +0.07    -0.274 OA ATOM      2  C   UNL     1      26.930  37.341  20.636 -0.21 -0.12    +0.229 C  ATOM      3  N   UNL     1      25.667  37.836  20.337 -0.09 +0.31    -0.312 N  ATOM      4  H   UNL     1      25.137  37.422  19.579 -0.42 -0.28    +0.171 HD ENDROOTBRANCH   2   5ATOM      5  C   UNL     1      27.298  36.110  19.826 -0.21 -0.05    +0.135 C  BRANCH   5   6ATOM      6  C   UNL     1      27.461  34.871  20.673 -0.26 +0.03    -0.039 A  ATOM      7  C   UNL     1      28.099  34.933  21.917 -0.38 -0.00    +0.005 A  ATOM      8  C   UNL     1      26.980  33.636  20.223 -0.39 -0.00    +0.005 A  ATOM      9  C   UNL     1      28.240  33.782  22.699 -0.42 +0.00    +0.009 A  ATOM     10  C   UNL     1      27.125  32.487  21.007 -0.34 -0.01    +0.009 A  ATOM     11  C   UNL     1      27.755  32.539  22.259 -0.42 +0.00    -0.018 A  BRANCH  11  12ATOM     12  C   UNL     1      27.902  31.330  23.086 -0.43 -0.00    -0.018 A  ATOM     13  C   UNL     1      27.330  30.111  22.690 -0.44 -0.00    +0.009 A  ATOM     14  C   UNL     1      28.621  31.361  24.294 -0.45 +0.01    +0.009 A  ATOM     15  C   UNL     1      27.470  28.961  23.472 -0.62 -0.00    +0.001 A  ATOM     16  C   UNL     1      28.761  30.211  25.078 -0.53 +0.00    +0.001 A  ATOM     17  C   UNL     1      28.186  29.012  24.666 -0.58 +0.00    +0.000 A  ENDBRANCH  11  12ENDBRANCH   5   6ENDBRANCH   2   5BRANCH   3  18ATOM     18  C   UNL     1      25.124  38.928  20.981 -0.26 -0.07    +0.110 A  ATOM     19  C   UNL     1      24.140  38.965  21.946 -0.31 -0.04    +0.055 A  ATOM     20  N   UNL     1      25.514  40.221  20.739 -0.13 +0.08    -0.341 N  ATOM     21  C   UNL     1      23.924  40.329  22.294 -0.44 -0.00    +0.002 A  ATOM     22  C   UNL     1      24.800  41.095  21.523 -0.47 -0.01    +0.047 A  ATOM     23  C   UNL     1      23.061  40.984  23.194 -0.39 -0.00    +0.010 A  ATOM     24  C   UNL     1      24.857  42.492  21.605 -0.57 -0.01    +0.027 A  ATOM     25  C   UNL     1      23.104  42.381  23.288 -0.56 -0.00    +0.001 A  ATOM     26  C   UNL     1      23.990  43.121  22.505 -0.70 -0.00    +0.002 A  ATOM     27  H   UNL     1      26.225  40.473  20.063 +0.10 -0.03    +0.168 HD ENDBRANCH   3  18TORSDOF 4TERENDMDL