REMARK SMILES O=C(c1ccc(C(F)(F)F)cc1)N1CCN(Cc2ncsc2-c2ccc(F)cc2)CC1
REMARK SMILES IDX 1 1 2 2 13 3 14 4 15 5 16 6 30 7 31 8 3 9 4 10 12 11 5 12
REMARK SMILES IDX 11 13 6 14 7 15 8 16 9 17 10 18 17 19 18 20 19 21 22 22
REMARK SMILES IDX 20 23 21 24 23 25 24 26 29 27 25 28 28 29 26 30 27 31
REMARK H PARENT
ROOT
ATOM      1  O   UNL     1      -3.050  -2.946   0.193  1.00  0.00    -0.269 OA
ATOM      2  C   UNL     1      -2.788  -1.755   0.343  1.00  0.00     0.253 C 
ATOM      3  N   UNL     1      -1.488  -1.257   0.461  1.00  0.00    -0.336 N 
ATOM      4  C   UNL     1      -1.127   0.095   0.015  1.00  0.00     0.135 C 
ATOM      5  C   UNL     1       0.231   0.561   0.577  1.00  0.00     0.106 C 
ATOM      6  N   UNL     1       1.345  -0.392   0.396  1.00  0.00    -0.294 NA
ATOM      7  C   UNL     1       0.924  -1.710   0.929  1.00  0.00     0.106 C 
ATOM      8  C   UNL     1      -0.407  -2.244   0.371  1.00  0.00     0.135 C 
ENDROOT
BRANCH   2   9
ATOM      9  C   UNL     1      -3.925  -0.812   0.424  1.00  0.00     0.040 A 
ATOM     10  C   UNL     1      -4.888  -0.824  -0.588  1.00  0.00     0.014 A 
ATOM     11  C   UNL     1      -4.073   0.029   1.532  1.00  0.00     0.014 A 
ATOM     12  C   UNL     1      -5.985   0.037  -0.511  1.00  0.00     0.014 A 
ATOM     13  C   UNL     1      -5.171   0.889   1.606  1.00  0.00     0.014 A 
ATOM     14  C   UNL     1      -6.140   0.900   0.588  1.00  0.00     0.056 A 
BRANCH  14  15
ATOM     15  C   UNL     1      -7.317   1.845   0.659  1.00  0.00     0.416 C 
ATOM     16  F   UNL     1      -7.690   2.139   1.935  1.00  0.00    -0.166 F 
ATOM     17  F   UNL     1      -8.432   1.359   0.047  1.00  0.00    -0.166 F 
ATOM     18  F   UNL     1      -7.051   3.040   0.062  1.00  0.00    -0.166 F 
ENDBRANCH  14  15
ENDBRANCH   2   9
BRANCH   6  19
ATOM     19  C   UNL     1       1.756  -0.455  -1.021  1.00  0.00     0.142 C 
BRANCH  19  20
ATOM     20  C   UNL     1       3.029  -1.242  -1.184  1.00  0.00     0.073 A 
ATOM     21  N   UNL     1       2.925  -2.573  -1.589  1.00  0.00    -0.248 NA
ATOM     22  C   UNL     1       4.330  -0.786  -1.008  1.00  0.00     0.059 A 
ATOM     23  C   UNL     1       4.124  -3.099  -1.687  1.00  0.00     0.176 A 
ATOM     24  S   UNL     1       5.437  -2.064  -1.332  1.00  0.00    -0.122 S 
BRANCH  22  25
ATOM     25  C   UNL     1       4.831   0.526  -0.600  1.00  0.00    -0.006 A 
ATOM     26  C   UNL     1       4.483   1.056   0.651  1.00  0.00     0.012 A 
ATOM     27  C   UNL     1       5.654   1.278  -1.453  1.00  0.00     0.012 A 
ATOM     28  C   UNL     1       4.949   2.313   1.044  1.00  0.00     0.040 A 
ATOM     29  C   UNL     1       6.120   2.535  -1.060  1.00  0.00     0.040 A 
ATOM     30  C   UNL     1       5.763   3.040   0.184  1.00  0.00     0.123 A 
ATOM     31  F   UNL     1       6.209   4.245   0.560  1.00  0.00    -0.207 F 
ENDBRANCH  22  25
ENDBRANCH  19  20
ENDBRANCH   6  19
TORSDOF 5
