REMARK SMILES CCN1CCN(Cc2ncsc2-c2ccc(F)cc2)CC1
REMARK SMILES IDX 7 1 6 2 3 3 4 4 21 5 5 6 20 7 2 8 1 9 8 10 9 11 12 12 10 13
REMARK SMILES IDX 11 14 13 15 14 16 19 17 15 18 18 19 16 20 17 21
REMARK H PARENT
ROOT
ATOM      1  C   UNL     1      -0.121   0.405   1.852  1.00  0.00     0.142 C 
ENDROOT
BRANCH   1   2
ATOM      2  N   UNL     1       0.926   0.188   0.850  1.00  0.00    -0.295 NA
ATOM      3  N   UNL     1       2.956  -0.384  -1.079  1.00  0.00    -0.301 NA
ATOM      4  C   UNL     1       1.609   0.015  -1.558  1.00  0.00     0.100 C 
ATOM      5  C   UNL     1       2.799  -1.320   0.053  1.00  0.00     0.100 C 
ATOM      6  C   UNL     1       0.455  -0.034  -0.516  1.00  0.00     0.100 C 
ATOM      7  C   UNL     1       1.944  -0.799   1.240  1.00  0.00     0.100 C 
BRANCH   3   8
ATOM      8  C   UNL     1       3.764   0.781  -0.680  1.00  0.00     0.081 C 
ATOM      9  C   UNL     1       4.358   1.487  -1.896  1.00  0.00     0.021 C 
ENDBRANCH   3   8
ENDBRANCH   1   2
BRANCH   1  10
ATOM     10  C   UNL     1      -1.061  -0.758   2.045  1.00  0.00     0.073 A 
ATOM     11  N   UNL     1      -0.701  -1.748   2.961  1.00  0.00    -0.248 NA
ATOM     12  C   UNL     1      -2.293  -0.964   1.432  1.00  0.00     0.059 A 
ATOM     13  C   UNL     1      -1.625  -2.679   3.000  1.00  0.00     0.176 A 
ATOM     14  S   UNL     1      -2.978  -2.443   1.984  1.00  0.00    -0.122 S 
BRANCH  12  15
ATOM     15  C   UNL     1      -3.028  -0.147   0.469  1.00  0.00    -0.006 A 
ATOM     16  C   UNL     1      -3.284  -0.623  -0.827  1.00  0.00     0.012 A 
ATOM     17  C   UNL     1      -3.482   1.131   0.829  1.00  0.00     0.012 A 
ATOM     18  C   UNL     1      -3.978   0.168  -1.746  1.00  0.00     0.040 A 
ATOM     19  C   UNL     1      -4.176   1.920  -0.091  1.00  0.00     0.040 A 
ATOM     20  C   UNL     1      -4.417   1.431  -1.369  1.00  0.00     0.123 A 
ATOM     21  F   UNL     1      -5.082   2.189  -2.251  1.00  0.00    -0.207 F 
ENDBRANCH  12  15
ENDBRANCH   1  10
TORSDOF 4
