REMARK SMILES O=C(Cc1ccc(-c2ccccc2)cc1)Nc1cc2ccccc2[nH]1
REMARK SMILES IDX 1 1 2 2 16 3 3 5 4 6 5 7 15 8 6 9 14 10 7 11 8 12 9 13 13 14
REMARK SMILES IDX 10 15 12 16 11 17 17 18 18 19 25 20 19 21 24 22 20 23 23 24
REMARK SMILES IDX 21 25 22 26
REMARK H PARENT 16 4 25 27
ROOT
ATOM      1  O   UNL     1       1.939   2.364  -1.795  1.00  0.00    -0.274 OA
ATOM      2  C   UNL     1       1.538   1.201  -1.863  1.00  0.00     0.229 C 
ATOM      3  N   UNL     1       2.036   0.141  -1.117  1.00  0.00    -0.312 N 
ATOM      4  H   UNL     1       1.595  -0.768  -1.188  1.00  0.00     0.171 HD
ENDROOT
BRANCH   2   5
ATOM      5  C   UNL     1       0.431   0.793  -2.820  1.00  0.00     0.135 C 
BRANCH   5   6
ATOM      6  C   UNL     1      -0.844   0.396  -2.116  1.00  0.00    -0.039 A 
ATOM      7  C   UNL     1      -1.370  -0.892  -2.261  1.00  0.00     0.005 A 
ATOM      8  C   UNL     1      -1.525   1.316  -1.310  1.00  0.00     0.005 A 
ATOM      9  C   UNL     1      -2.549  -1.254  -1.600  1.00  0.00     0.009 A 
ATOM     10  C   UNL     1      -2.704   0.951  -0.653  1.00  0.00     0.009 A 
ATOM     11  C   UNL     1      -3.236  -0.341  -0.784  1.00  0.00    -0.018 A 
BRANCH  11  12
ATOM     12  C   UNL     1      -4.474  -0.726  -0.087  1.00  0.00    -0.018 A 
ATOM     13  C   UNL     1      -4.512  -1.855   0.747  1.00  0.00     0.009 A 
ATOM     14  C   UNL     1      -5.652   0.027  -0.233  1.00  0.00     0.009 A 
ATOM     15  C   UNL     1      -5.686  -2.221   1.411  1.00  0.00     0.001 A 
ATOM     16  C   UNL     1      -6.828  -0.339   0.431  1.00  0.00     0.001 A 
ATOM     17  C   UNL     1      -6.843  -1.462   1.253  1.00  0.00     0.000 A 
ENDBRANCH  11  12
ENDBRANCH   5   6
ENDBRANCH   2   5
BRANCH   3  18
ATOM     18  C   UNL     1       3.067   0.287  -0.213  1.00  0.00     0.110 A 
ATOM     19  C   UNL     1       3.638  -0.659   0.611  1.00  0.00     0.055 A 
ATOM     20  N   UNL     1       3.717   1.475   0.009  1.00  0.00    -0.341 N 
ATOM     21  C   UNL     1       4.666  -0.019   1.361  1.00  0.00     0.002 A 
ATOM     22  C   UNL     1       4.695   1.319   0.963  1.00  0.00     0.047 A 
ATOM     23  C   UNL     1       5.574  -0.454   2.346  1.00  0.00     0.010 A 
ATOM     24  C   UNL     1       5.590   2.250   1.503  1.00  0.00     0.027 A 
ATOM     25  C   UNL     1       6.476   0.465   2.898  1.00  0.00     0.001 A 
ATOM     26  C   UNL     1       6.482   1.796   2.480  1.00  0.00     0.002 A 
ATOM     27  H   UNL     1       3.485   2.337  -0.468  1.00  0.00     0.168 HD
ENDBRANCH   3  18
TORSDOF 4
