REMARK SMILES CN1CCN(Cc2ncsc2-c2ccc(F)cc2)CC1
REMARK SMILES IDX 7 1 8 2 9 3 10 4 11 5 6 6 5 7 2 8 3 9 20 10 4 11 19 12 1 13
REMARK SMILES IDX 12 14 13 15 18 16 14 17 17 18 15 19 16 20
REMARK H PARENT
ROOT
ATOM      1  C   UNL     1       0.673   0.941   1.695  1.00  0.00     0.073 A 
ATOM      2  N   UNL     1       0.111   1.842   2.599  1.00  0.00    -0.248 NA
ATOM      3  C   UNL     1       0.773   2.975   2.570  1.00  0.00     0.176 A 
ATOM      4  S   UNL     1       2.111   3.040   1.508  1.00  0.00    -0.122 S 
ATOM      5  C   UNL     1       1.795   1.420   1.027  1.00  0.00     0.059 A 
ENDROOT
BRANCH   1   6
ATOM      6  C   UNL     1       0.045  -0.422   1.559  1.00  0.00     0.142 C 
BRANCH   6   7
ATOM      7  N   UNL     1      -1.198  -0.367   0.777  1.00  0.00    -0.295 NA
ATOM      8  N   UNL     1      -3.482  -0.734  -0.918  1.00  0.00    -0.304 NA
ATOM      9  C   UNL     1      -3.019  -1.900  -0.148  1.00  0.00     0.099 C 
ATOM     10  C   UNL     1      -2.314   0.002  -1.450  1.00  0.00     0.099 C 
ATOM     11  C   UNL     1      -1.991  -1.597   0.975  1.00  0.00     0.100 C 
ATOM     12  C   UNL     1      -0.985  -0.127  -0.655  1.00  0.00     0.100 C 
ATOM     13  C   UNL     1      -4.312   0.141  -0.086  1.00  0.00     0.105 C 
ENDBRANCH   6   7
ENDBRANCH   1   6
BRANCH   5  14
ATOM     14  C   UNL     1       2.670   0.771   0.054  1.00  0.00    -0.006 A 
ATOM     15  C   UNL     1       3.484  -0.302   0.446  1.00  0.00     0.012 A 
ATOM     16  C   UNL     1       2.698   1.201  -1.281  1.00  0.00     0.012 A 
ATOM     17  C   UNL     1       4.312  -0.935  -0.483  1.00  0.00     0.040 A 
ATOM     18  C   UNL     1       3.526   0.566  -2.209  1.00  0.00     0.040 A 
ATOM     19  C   UNL     1       4.325  -0.496  -1.802  1.00  0.00     0.123 A 
ATOM     20  F   UNL     1       5.118  -1.105  -2.692  1.00  0.00    -0.207 F 
ENDBRANCH   5  14
TORSDOF 3
