
     RDKit          3D

 49 51  0  0  0  0  0  0  0  0999 V2000
    8.1959    2.2610   -0.5892 C   0  0  0  0  0  0  0  0  0  0  0  0
    6.8731    2.2081   -1.1072 O   0  0  0  0  0  0  0  0  0  0  0  0
    6.1699    1.0479   -0.9266 C   0  0  0  0  0  0  0  0  0  0  0  0
    6.6188   -0.0692   -0.2146 C   0  0  0  0  0  0  0  0  0  0  0  0
    5.8050   -1.2024   -0.0843 C   0  0  0  0  0  0  0  0  0  0  0  0
    4.5387   -1.2195   -0.6652 C   0  0  0  0  0  0  0  0  0  0  0  0
    3.7400   -2.3189   -0.5356 O   0  0  0  0  0  0  0  0  0  0  0  0
    4.0826   -0.1073   -1.3739 C   0  0  0  0  0  0  0  0  0  0  0  0
    2.7677   -0.1047   -2.0264 C   0  0  0  0  0  0  0  0  0  0  0  0
    2.7204   -0.1604   -3.2548 O   0  0  0  0  0  0  0  0  0  0  0  0
    1.5033   -0.0455   -1.2410 C   0  0  0  0  0  0  0  0  0  0  0  0
    1.5033    0.1989    0.1382 C   0  0  0  0  0  0  0  0  0  0  0  0
    0.2955    0.2453    0.8447 C   0  0  0  0  0  0  0  0  0  0  0  0
   -0.9270    0.0487    0.1869 C   0  0  0  0  0  0  0  0  0  0  0  0
   -2.1762    0.1099    0.9966 C   0  0  0  0  0  0  0  0  0  0  0  0
   -2.1822    0.7104    2.0661 O   0  0  0  0  0  0  0  0  0  0  0  0
   -3.2803   -0.5486    0.4985 N   0  0  0  0  0  0  0  0  0  0  0  0
   -4.5697   -0.4869    1.1751 C   0  0  2  0  0  0  0  0  0  0  0  0
   -5.4946   -1.6019    0.6858 C   0  0  0  0  0  0  0  0  0  0  0  0
   -6.8550   -1.5512    1.3895 C   0  0  0  0  0  0  0  0  0  0  0  0
   -7.1727   -0.1847    2.0022 C   0  0  0  0  0  0  0  0  0  0  0  0
   -6.7173    0.8882    1.1287 N   0  0  0  0  0  0  0  0  0  0  0  0
   -5.2516    0.8944    0.9904 C   0  0  0  0  0  0  0  0  0  0  0  0
   -0.9340   -0.1670   -1.1937 C   0  0  0  0  0  0  0  0  0  0  0  0
    0.2719   -0.2143   -1.8953 C   0  0  0  0  0  0  0  0  0  0  0  0
    0.1656   -0.4285   -3.2456 O   0  0  0  0  0  0  0  0  0  0  0  0
    4.8962    1.0153   -1.5069 C   0  0  0  0  0  0  0  0  0  0  0  0
    4.4462    2.0915   -2.1725 F   0  0  0  0  0  0  0  0  0  0  0  0
    8.8273    1.4854   -1.0349 H   0  0  0  0  0  0  0  0  0  0  0  0
    8.6222    3.2322   -0.8579 H   0  0  0  0  0  0  0  0  0  0  0  0
    8.1923    2.1886    0.5031 H   0  0  0  0  0  0  0  0  0  0  0  0
    7.5978   -0.0891    0.2548 H   0  0  0  0  0  0  0  0  0  0  0  0
    6.1770   -2.0558    0.4765 H   0  0  0  0  0  0  0  0  0  0  0  0
    4.2459   -3.0484   -0.1380 H   0  0  0  0  0  0  0  0  0  0  0  0
    2.4248    0.3608    0.6897 H   0  0  0  0  0  0  0  0  0  0  0  0
    0.3102    0.4357    1.9172 H   0  0  0  0  0  0  0  0  0  0  0  0
   -3.2331   -1.0352   -0.3856 H   0  0  0  0  0  0  0  0  0  0  0  0
   -4.3814   -0.6400    2.2465 H   0  0  0  0  0  0  0  0  0  0  0  0
   -5.0341   -2.5860    0.8350 H   0  0  0  0  0  0  0  0  0  0  0  0
   -5.6470   -1.5014   -0.3973 H   0  0  0  0  0  0  0  0  0  0  0  0
   -6.8851   -2.3059    2.1846 H   0  0  0  0  0  0  0  0  0  0  0  0
   -7.6335   -1.8296    0.6684 H   0  0  0  0  0  0  0  0  0  0  0  0
   -6.7139   -0.0893    2.9942 H   0  0  0  0  0  0  0  0  0  0  0  0
   -8.2553   -0.1030    2.1501 H   0  0  0  0  0  0  0  0  0  0  0  0
   -7.0205    1.7927    1.4896 H   0  0  0  0  0  0  0  0  0  0  0  0
   -4.8240    1.5962    1.7174 H   0  0  0  0  0  0  0  0  0  0  0  0
   -5.0177    1.3008   -0.0010 H   0  0  0  0  0  0  0  0  0  0  0  0
   -1.8576   -0.2716   -1.7533 H   0  0  0  0  0  0  0  0  0  0  0  0
    1.0720   -0.3714   -3.6290 H   0  0  0  0  0  0  0  0  0  0  0  0
  1  2  1  0
  2  3  1  0
  3  4  2  0
  4  5  1  0
  5  6  2  0
  6  7  1  0
  6  8  1  0
  8  9  1  0
  9 10  2  0
  9 11  1  0
 11 12  2  0
 12 13  1  0
 13 14  2  0
 14 15  1  0
 15 16  2  0
 15 17  1  0
 17 18  1  0
 18 19  1  0
 19 20  1  0
 20 21  1  0
 21 22  1  0
 22 23  1  0
 14 24  1  0
 24 25  2  0
 25 26  1  0
  8 27  2  0
 27 28  1  0
 27  3  1  0
 25 11  1  0
 23 18  1  0
  1 29  1  0
  1 30  1  0
  1 31  1  0
  4 32  1  0
  5 33  1  0
  7 34  1  0
 12 35  1  0
 13 36  1  0
 17 37  1  0
 18 38  1  1
 19 39  1  0
 19 40  1  0
 20 41  1  0
 20 42  1  0
 21 43  1  0
 21 44  1  0
 22 45  1  0
 23 46  1  0
 23 47  1  0
 24 48  1  0
 26 49  1  0
M  END
$$$$
