
     RDKit          3D

 51 53  0  0  0  0  0  0  0  0999 V2000
    6.4991    1.4110   -3.3646 C   0  0  0  0  0  0  0  0  0  0  0  0
    5.4186    1.0111   -2.5333 O   0  0  0  0  0  0  0  0  0  0  0  0
    5.7316    0.3072   -1.4031 C   0  0  0  0  0  0  0  0  0  0  0  0
    7.0038   -0.1298   -1.0354 C   0  0  0  0  0  0  0  0  0  0  0  0
    7.1831   -0.8370    0.1561 C   0  0  0  0  0  0  0  0  0  0  0  0
    6.0920   -1.1153    0.9746 C   0  0  0  0  0  0  0  0  0  0  0  0
    6.3621   -1.7935    2.1336 O   0  0  0  0  0  0  0  0  0  0  0  0
    4.8027   -0.7073    0.6080 C   0  0  0  0  0  0  0  0  0  0  0  0
    3.6516   -1.0183    1.4998 C   0  0  0  0  0  0  0  0  0  0  0  0
    3.8667   -1.3446    2.6679 O   0  0  0  0  0  0  0  0  0  0  0  0
    2.2483   -0.9448    1.0394 C   0  0  0  0  0  0  0  0  0  0  0  0
    1.8375   -1.5565   -0.1487 C   0  0  0  0  0  0  0  0  0  0  0  0
    0.5042   -1.4502   -0.5545 C   0  0  0  0  0  0  0  0  0  0  0  0
   -0.4270   -0.7556    0.2321 C   0  0  0  0  0  0  0  0  0  0  0  0
   -1.8260   -0.6440   -0.2712 C   0  0  0  0  0  0  0  0  0  0  0  0
   -2.0493   -0.7183   -1.4747 O   0  0  0  0  0  0  0  0  0  0  0  0
   -2.8154   -0.4655    0.6710 N   0  0  0  0  0  0  0  0  0  0  0  0
   -4.1948   -0.1824    0.2809 C   0  0  1  0  0  0  0  0  0  0  0  0
   -5.1592   -0.5040    1.4357 C   0  0  0  0  0  0  0  0  0  0  0  0
   -6.3967    0.4003    1.4437 C   0  0  0  0  0  0  0  0  0  0  0  0
   -6.7817    0.8198    0.0242 C   0  0  0  0  0  0  0  0  0  0  0  0
   -5.7336    1.6345   -0.6152 N   0  0  0  0  0  0  0  0  0  0  0  0
   -5.8686    1.5871   -2.0740 C   0  0  0  0  0  0  0  0  0  0  0  0
   -4.3673    1.2803   -0.1894 C   0  0  0  0  0  0  0  0  0  0  0  0
   -0.0106   -0.1603    1.4313 C   0  0  0  0  0  0  0  0  0  0  0  0
    1.3225   -0.2664    1.8391 C   0  0  0  0  0  0  0  0  0  0  0  0
    4.6382    0.0234   -0.5771 C   0  0  0  0  0  0  0  0  0  0  0  0
    6.0813    1.9794   -4.2013 H   0  0  0  0  0  0  0  0  0  0  0  0
    7.1895    2.0664   -2.8240 H   0  0  0  0  0  0  0  0  0  0  0  0
    7.0216    0.5449   -3.7787 H   0  0  0  0  0  0  0  0  0  0  0  0
    7.8775    0.0666   -1.6472 H   0  0  0  0  0  0  0  0  0  0  0  0
    8.1759   -1.1670    0.4515 H   0  0  0  0  0  0  0  0  0  0  0  0
    5.5327   -1.8241    2.6657 H   0  0  0  0  0  0  0  0  0  0  0  0
    2.5375   -2.1162   -0.7643 H   0  0  0  0  0  0  0  0  0  0  0  0
    0.1886   -1.9114   -1.4895 H   0  0  0  0  0  0  0  0  0  0  0  0
   -2.5786   -0.4189    1.6517 H   0  0  0  0  0  0  0  0  0  0  0  0
   -4.4326   -0.8416   -0.5654 H   0  0  0  0  0  0  0  0  0  0  0  0
   -5.4721   -1.5541    1.3400 H   0  0  0  0  0  0  0  0  0  0  0  0
   -4.6653   -0.4307    2.4115 H   0  0  0  0  0  0  0  0  0  0  0  0
   -6.1955    1.2936    2.0538 H   0  0  0  0  0  0  0  0  0  0  0  0
   -7.2336   -0.1226    1.9251 H   0  0  0  0  0  0  0  0  0  0  0  0
   -7.7129    1.4041    0.0618 H   0  0  0  0  0  0  0  0  0  0  0  0
   -6.9939   -0.0886   -0.5621 H   0  0  0  0  0  0  0  0  0  0  0  0
   -5.1811    2.2969   -2.5512 H   0  0  0  0  0  0  0  0  0  0  0  0
   -5.6642    0.5839   -2.4733 H   0  0  0  0  0  0  0  0  0  0  0  0
   -6.8808    1.8799   -2.3763 H   0  0  0  0  0  0  0  0  0  0  0  0
   -3.6354    1.5234   -0.9720 H   0  0  0  0  0  0  0  0  0  0  0  0
   -4.1039    1.9427    0.6472 H   0  0  0  0  0  0  0  0  0  0  0  0
   -0.6937    0.4161    2.0474 H   0  0  0  0  0  0  0  0  0  0  0  0
    1.6416    0.1940    2.7728 H   0  0  0  0  0  0  0  0  0  0  0  0
    3.6654    0.4023   -0.8776 H   0  0  0  0  0  0  0  0  0  0  0  0
  1  2  1  0
  2  3  1  0
  3  4  2  0
  4  5  1  0
  5  6  2  0
  6  7  1  0
  6  8  1  0
  8  9  1  0
  9 10  2  0
  9 11  1  0
 11 12  2  0
 12 13  1  0
 13 14  2  0
 14 15  1  0
 15 16  2  0
 15 17  1  0
 17 18  1  0
 18 19  1  0
 19 20  1  0
 20 21  1  0
 21 22  1  0
 22 23  1  0
 22 24  1  0
 14 25  1  0
 25 26  2  0
  8 27  2  0
 27  3  1  0
 26 11  1  0
 24 18  1  0
  1 28  1  0
  1 29  1  0
  1 30  1  0
  4 31  1  0
  5 32  1  0
  7 33  1  0
 12 34  1  0
 13 35  1  0
 17 36  1  0
 18 37  1  6
 19 38  1  0
 19 39  1  0
 20 40  1  0
 20 41  1  0
 21 42  1  0
 21 43  1  0
 23 44  1  0
 23 45  1  0
 23 46  1  0
 24 47  1  0
 24 48  1  0
 25 49  1  0
 26 50  1  0
 27 51  1  0
M  END
$$$$
