
     RDKit          3D

 36 39  0  0  0  0  0  0  0  0999 V2000
   -4.1797   -1.3500   -1.0056 C   0  0  0  0  0  0  0  0  0  0  0  0
   -3.2665   -0.3752   -0.3110 C   0  0  0  0  0  0  0  0  0  0  0  0
   -1.8731   -0.5719   -0.4222 C   0  0  0  0  0  0  0  0  0  0  0  0
   -0.9618    0.2877    0.2032 C   0  0  0  0  0  0  0  0  0  0  0  0
    0.5192    0.1128    0.0930 C   0  0  0  0  0  0  0  0  0  0  0  0
    1.2845    1.1685    0.1954 N   0  0  0  0  0  0  0  0  0  0  0  0
    2.6869    1.0330    0.0882 C   0  0  0  0  0  0  0  0  0  0  0  0
    3.4734    2.1788    0.1901 C   0  0  0  0  0  0  0  0  0  0  0  0
    4.8578    2.0807    0.0884 C   0  0  0  0  0  0  0  0  0  0  0  0
    5.6048    3.1881    0.1879 F   0  0  0  0  0  0  0  0  0  0  0  0
    5.4847    0.8534   -0.1147 C   0  0  0  0  0  0  0  0  0  0  0  0
    4.7190   -0.3072   -0.2200 C   0  0  0  0  0  0  0  0  0  0  0  0
    3.3286   -0.2040   -0.1180 C   0  0  0  0  0  0  0  0  0  0  0  0
    2.4817   -1.3176   -0.2082 N   0  0  0  0  0  0  0  0  0  0  0  0
    2.7597   -2.6461   -0.3863 C   0  0  0  0  0  0  0  0  0  0  0  0
    1.5339   -3.2722   -0.3663 C   0  0  0  0  0  0  0  0  0  0  0  0
    0.5209   -2.3650   -0.1878 N   0  0  0  0  0  0  0  0  0  0  0  0
    1.1171   -1.1909   -0.1077 C   0  0  0  0  0  0  0  0  0  0  0  0
   -1.4524    1.3765    0.9317 C   0  0  0  0  0  0  0  0  0  0  0  0
   -2.8292    1.5884    1.0495 C   0  0  0  0  0  0  0  0  0  0  0  0
   -3.7486    0.7203    0.4362 C   0  0  0  0  0  0  0  0  0  0  0  0
   -5.2133    0.9836    0.5770 C   0  0  0  0  0  0  0  0  0  0  0  0
   -6.1249    0.4209    0.0015 O   0  0  0  0  0  0  0  0  0  0  0  0
   -5.4784    1.9629    1.4634 O   0  0  0  0  0  0  0  0  0  0  0  0
   -4.7502   -0.8454   -1.7914 H   0  0  0  0  0  0  0  0  0  0  0  0
   -4.8593   -1.8184   -0.2867 H   0  0  0  0  0  0  0  0  0  0  0  0
   -3.6158   -2.1587   -1.4835 H   0  0  0  0  0  0  0  0  0  0  0  0
   -1.5103   -1.4066   -1.0189 H   0  0  0  0  0  0  0  0  0  0  0  0
    3.0127    3.1485    0.3476 H   0  0  0  0  0  0  0  0  0  0  0  0
    6.5676    0.8136   -0.1890 H   0  0  0  0  0  0  0  0  0  0  0  0
    5.2197   -1.2571   -0.3778 H   0  0  0  0  0  0  0  0  0  0  0  0
    3.7599   -3.0355   -0.5015 H   0  0  0  0  0  0  0  0  0  0  0  0
    1.3286   -4.3306   -0.4689 H   0  0  0  0  0  0  0  0  0  0  0  0
   -0.7677    2.0694    1.4172 H   0  0  0  0  0  0  0  0  0  0  0  0
   -3.1723    2.4460    1.6248 H   0  0  0  0  0  0  0  0  0  0  0  0
   -6.4571    2.0192    1.4575 H   0  0  0  0  0  0  0  0  0  0  0  0
  1  2  1  0
  2  3  2  0
  3  4  1  0
  4  5  1  0
  5  6  2  0
  6  7  1  0
  7  8  2  0
  8  9  1  0
  9 10  1  0
  9 11  2  0
 11 12  1  0
 12 13  2  0
 13 14  1  0
 14 15  1  0
 15 16  2  0
 16 17  1  0
 17 18  2  0
  4 19  2  0
 19 20  1  0
 20 21  2  0
 21 22  1  0
 22 23  2  0
 22 24  1  0
 21  2  1  0
 18  5  1  0
 13  7  1  0
 18 14  1  0
  1 25  1  0
  1 26  1  0
  1 27  1  0
  3 28  1  0
  8 29  1  0
 11 30  1  0
 12 31  1  0
 15 32  1  0
 16 33  1  0
 19 34  1  0
 20 35  1  0
 24 36  1  0
M  END
$$$$
