
     RDKit          3D

 55 57  0  0  0  0  0  0  0  0999 V2000
   -8.5792   -0.3111    1.9559 C   0  0  0  0  0  0  0  0  0  0  0  0
   -7.9777   -0.6117    0.5912 C   0  0  0  0  0  0  0  0  0  0  0  0
   -6.4779   -0.3081    0.5641 C   0  0  0  0  0  0  0  0  0  0  0  0
   -5.8042   -0.6981   -0.7638 C   0  0  0  0  0  0  0  0  0  0  0  0
   -6.3056    0.1108   -1.9600 C   0  0  0  0  0  0  0  0  0  0  0  0
   -4.3460   -0.6489   -0.6578 N   0  0  0  0  0  0  0  0  0  0  0  0
   -3.6342    0.5025   -0.4065 C   0  0  0  0  0  0  0  0  0  0  0  0
   -4.1206    1.6205   -0.3001 O   0  0  0  0  0  0  0  0  0  0  0  0
   -2.1627    0.3535   -0.3113 C   0  0  0  0  0  0  0  0  0  0  0  0
   -1.3851    1.2367   -1.0709 C   0  0  0  0  0  0  0  0  0  0  0  0
    0.0096    1.1651   -1.0257 C   0  0  0  0  0  0  0  0  0  0  0  0
    0.6578    0.2225   -0.2132 C   0  0  0  0  0  0  0  0  0  0  0  0
    2.1257    0.1494   -0.1655 C   0  0  0  0  0  0  0  0  0  0  0  0
    2.8782   -0.0340   -1.3276 C   0  0  0  0  0  0  0  0  0  0  0  0
    4.2788   -0.1044   -1.2789 C   0  0  0  0  0  0  0  0  0  0  0  0
    5.0051    0.0079   -0.0796 C   0  0  0  0  0  0  0  0  0  0  0  0
    6.3825   -0.0625   -0.0911 N   0  0  0  0  0  0  0  0  0  0  0  0
    7.1798   -0.4445   -1.2541 C   0  0  0  0  0  0  0  0  0  0  0  0
    8.5814   -0.6551   -0.6891 C   0  0  0  0  0  0  0  0  0  0  0  0
    8.6393    0.3462    0.4495 C   0  0  0  0  0  0  0  0  0  0  0  0
    7.2361    0.2662    1.0495 C   0  0  0  0  0  0  0  0  0  0  0  0
    4.2250    0.1909    1.0830 C   0  0  0  0  0  0  0  0  0  0  0  0
    4.8263    0.2903    2.3159 O   0  0  0  0  0  0  0  0  0  0  0  0
    2.8212    0.2606    1.0437 C   0  0  0  0  0  0  0  0  0  0  0  0
   -0.1355   -0.6437    0.5600 C   0  0  0  0  0  0  0  0  0  0  0  0
   -1.5392   -0.5810    0.5230 C   0  0  0  0  0  0  0  0  0  0  0  0
   -2.2839   -1.4679    1.3666 C   0  0  0  0  0  0  0  0  0  0  0  0
   -2.8718   -2.2172    2.0295 N   0  0  0  0  0  0  0  0  0  0  0  0
   -8.4450    0.7426    2.2204 H   0  0  0  0  0  0  0  0  0  0  0  0
   -9.6523   -0.5268    1.9527 H   0  0  0  0  0  0  0  0  0  0  0  0
   -8.1123   -0.9235    2.7339 H   0  0  0  0  0  0  0  0  0  0  0  0
   -8.1497   -1.6666    0.3481 H   0  0  0  0  0  0  0  0  0  0  0  0
   -8.5011   -0.0123   -0.1612 H   0  0  0  0  0  0  0  0  0  0  0  0
   -6.3228    0.7573    0.7724 H   0  0  0  0  0  0  0  0  0  0  0  0
   -5.9904   -0.8556    1.3817 H   0  0  0  0  0  0  0  0  0  0  0  0
   -6.0296   -1.7538   -0.9617 H   0  0  0  0  0  0  0  0  0  0  0  0
   -7.3603   -0.0971   -2.1643 H   0  0  0  0  0  0  0  0  0  0  0  0
   -5.7393   -0.1427   -2.8631 H   0  0  0  0  0  0  0  0  0  0  0  0
   -6.2020    1.1879   -1.7955 H   0  0  0  0  0  0  0  0  0  0  0  0
   -3.8566   -1.5209   -0.8112 H   0  0  0  0  0  0  0  0  0  0  0  0
   -1.8662    1.9870   -1.6971 H   0  0  0  0  0  0  0  0  0  0  0  0
    0.5917    1.8676   -1.6214 H   0  0  0  0  0  0  0  0  0  0  0  0
    2.3866   -0.1330   -2.2933 H   0  0  0  0  0  0  0  0  0  0  0  0
    4.7981   -0.2399   -2.2237 H   0  0  0  0  0  0  0  0  0  0  0  0
    7.1841    0.3668   -1.9913 H   0  0  0  0  0  0  0  0  0  0  0  0
    6.8221   -1.3651   -1.7278 H   0  0  0  0  0  0  0  0  0  0  0  0
    9.3631   -0.4970   -1.4372 H   0  0  0  0  0  0  0  0  0  0  0  0
    8.6808   -1.6744   -0.2966 H   0  0  0  0  0  0  0  0  0  0  0  0
    9.4204    0.1180    1.1800 H   0  0  0  0  0  0  0  0  0  0  0  0
    8.8226    1.3524    0.0534 H   0  0  0  0  0  0  0  0  0  0  0  0
    6.9810    1.2267    1.5093 H   0  0  0  0  0  0  0  0  0  0  0  0
    7.1959   -0.5330    1.7984 H   0  0  0  0  0  0  0  0  0  0  0  0
    4.1454    0.4063    2.9959 H   0  0  0  0  0  0  0  0  0  0  0  0
    2.2622    0.4138    1.9631 H   0  0  0  0  0  0  0  0  0  0  0  0
    0.3503   -1.3819    1.1997 H   0  0  0  0  0  0  0  0  0  0  0  0
  1  2  1  0
  2  3  1  0
  3  4  1  0
  4  5  1  0
  4  6  1  0
  6  7  1  0
  7  8  2  0
  7  9  1  0
  9 10  2  0
 10 11  1  0
 11 12  2  0
 12 13  1  0
 13 14  2  0
 14 15  1  0
 15 16  2  0
 16 17  1  0
 17 18  1  0
 18 19  1  0
 19 20  1  0
 20 21  1  0
 16 22  1  0
 22 23  1  0
 22 24  2  0
 12 25  1  0
 25 26  2  0
 26 27  1  0
 27 28  3  0
 26  9  1  0
 24 13  1  0
 21 17  1  0
  1 29  1  0
  1 30  1  0
  1 31  1  0
  2 32  1  0
  2 33  1  0
  3 34  1  0
  3 35  1  0
  4 36  1  0
  5 37  1  0
  5 38  1  0
  5 39  1  0
  6 40  1  0
 10 41  1  0
 11 42  1  0
 14 43  1  0
 15 44  1  0
 18 45  1  0
 18 46  1  0
 19 47  1  0
 19 48  1  0
 20 49  1  0
 20 50  1  0
 21 51  1  0
 21 52  1  0
 23 53  1  0
 24 54  1  0
 25 55  1  0
M  END
$$$$
