
     RDKit          3D

 54 56  0  0  0  0  0  0  0  0999 V2000
    8.7881    0.6046   -0.7510 C   0  0  0  0  0  0  0  0  0  0  0  0
    7.5761    0.6751   -1.6631 C   0  0  0  0  0  0  0  0  0  0  0  0
    6.3429   -0.0757   -1.1472 C   0  0  0  0  0  0  0  0  0  0  0  0
    5.7516    0.4824    0.1627 C   0  0  0  0  0  0  0  0  0  0  0  0
    6.2686   -0.2412    1.4078 C   0  0  0  0  0  0  0  0  0  0  0  0
    4.2876    0.4775    0.1384 N   0  0  0  0  0  0  0  0  0  0  0  0
    3.5325   -0.6619   -0.0313 C   0  0  0  0  0  0  0  0  0  0  0  0
    3.9858   -1.7922   -0.1538 O   0  0  0  0  0  0  0  0  0  0  0  0
    2.0628   -0.4768   -0.0166 C   0  0  0  0  0  0  0  0  0  0  0  0
    1.3247   -1.3123    0.8300 C   0  0  0  0  0  0  0  0  0  0  0  0
   -0.0668   -1.1991    0.8923 C   0  0  0  0  0  0  0  0  0  0  0  0
   -0.7541   -0.2631    0.1036 C   0  0  0  0  0  0  0  0  0  0  0  0
   -2.2203   -0.1464    0.1666 C   0  0  0  0  0  0  0  0  0  0  0  0
   -3.0034   -0.2022   -0.9917 C   0  0  0  0  0  0  0  0  0  0  0  0
   -4.4020   -0.0885   -0.9271 C   0  0  0  0  0  0  0  0  0  0  0  0
   -5.0859    0.0862    0.2856 C   0  0  0  0  0  0  0  0  0  0  0  0
   -6.4539    0.1989    0.3390 N   0  0  0  0  0  0  0  0  0  0  0  0
   -7.2079    0.5104    1.5525 C   0  0  0  0  0  0  0  0  0  0  0  0
   -8.6133    0.8193    1.0431 C   0  0  0  0  0  0  0  0  0  0  0  0
   -8.7348   -0.0664   -0.1839 C   0  0  0  0  0  0  0  0  0  0  0  0
   -7.3433    0.0145   -0.8066 C   0  0  0  0  0  0  0  0  0  0  0  0
   -4.2918    0.1392    1.4372 C   0  0  0  0  0  0  0  0  0  0  0  0
   -2.8992    0.0244    1.3771 C   0  0  0  0  0  0  0  0  0  0  0  0
   -2.2131    0.0943    2.5296 F   0  0  0  0  0  0  0  0  0  0  0  0
    0.0011    0.5533   -0.7585 C   0  0  0  0  0  0  0  0  0  0  0  0
    1.4013    0.4502   -0.8291 C   0  0  0  0  0  0  0  0  0  0  0  0
    2.1015    1.2904   -1.7550 C   0  0  0  0  0  0  0  0  0  0  0  0
    2.6527    2.0038   -2.4856 N   0  0  0  0  0  0  0  0  0  0  0  0
    8.6295    1.1794    0.1656 H   0  0  0  0  0  0  0  0  0  0  0  0
    9.0235   -0.4301   -0.4840 H   0  0  0  0  0  0  0  0  0  0  0  0
    9.6616    1.0308   -1.2552 H   0  0  0  0  0  0  0  0  0  0  0  0
    7.8513    0.2495   -2.6359 H   0  0  0  0  0  0  0  0  0  0  0  0
    7.3198    1.7258   -1.8442 H   0  0  0  0  0  0  0  0  0  0  0  0
    5.5888   -0.0133   -1.9431 H   0  0  0  0  0  0  0  0  0  0  0  0
    6.5802   -1.1411   -1.0377 H   0  0  0  0  0  0  0  0  0  0  0  0
    6.0183    1.5428    0.2508 H   0  0  0  0  0  0  0  0  0  0  0  0
    5.8072    0.1730    2.3113 H   0  0  0  0  0  0  0  0  0  0  0  0
    7.3513   -0.1418    1.5146 H   0  0  0  0  0  0  0  0  0  0  0  0
    6.0359   -1.3107    1.3837 H   0  0  0  0  0  0  0  0  0  0  0  0
    3.8309    1.3581    0.3381 H   0  0  0  0  0  0  0  0  0  0  0  0
    1.8328   -2.0543    1.4443 H   0  0  0  0  0  0  0  0  0  0  0  0
   -0.6163   -1.8590    1.5633 H   0  0  0  0  0  0  0  0  0  0  0  0
   -2.5398   -0.3476   -1.9655 H   0  0  0  0  0  0  0  0  0  0  0  0
   -4.9498   -0.1352   -1.8650 H   0  0  0  0  0  0  0  0  0  0  0  0
   -7.2232   -0.3595    2.2191 H   0  0  0  0  0  0  0  0  0  0  0  0
   -6.8039    1.3743    2.0910 H   0  0  0  0  0  0  0  0  0  0  0  0
   -9.3839    0.6187    1.7926 H   0  0  0  0  0  0  0  0  0  0  0  0
   -8.6842    1.8741    0.7509 H   0  0  0  0  0  0  0  0  0  0  0  0
   -9.5203    0.2607   -0.8706 H   0  0  0  0  0  0  0  0  0  0  0  0
   -8.9515   -1.0978    0.1199 H   0  0  0  0  0  0  0  0  0  0  0  0
   -7.2729    0.8766   -1.4796 H   0  0  0  0  0  0  0  0  0  0  0  0
   -7.1274   -0.9021   -1.3660 H   0  0  0  0  0  0  0  0  0  0  0  0
   -4.7346    0.2649    2.4195 H   0  0  0  0  0  0  0  0  0  0  0  0
   -0.5106    1.2868   -1.3831 H   0  0  0  0  0  0  0  0  0  0  0  0
  1  2  1  0
  2  3  1  0
  3  4  1  0
  4  5  1  0
  4  6  1  0
  6  7  1  0
  7  8  2  0
  7  9  1  0
  9 10  2  0
 10 11  1  0
 11 12  2  0
 12 13  1  0
 13 14  2  0
 14 15  1  0
 15 16  2  0
 16 17  1  0
 17 18  1  0
 18 19  1  0
 19 20  1  0
 20 21  1  0
 16 22  1  0
 22 23  2  0
 23 24  1  0
 12 25  1  0
 25 26  2  0
 26 27  1  0
 27 28  3  0
 26  9  1  0
 23 13  1  0
 21 17  1  0
  1 29  1  0
  1 30  1  0
  1 31  1  0
  2 32  1  0
  2 33  1  0
  3 34  1  0
  3 35  1  0
  4 36  1  0
  5 37  1  0
  5 38  1  0
  5 39  1  0
  6 40  1  0
 10 41  1  0
 11 42  1  0
 14 43  1  0
 15 44  1  0
 18 45  1  0
 18 46  1  0
 19 47  1  0
 19 48  1  0
 20 49  1  0
 20 50  1  0
 21 51  1  0
 21 52  1  0
 22 53  1  0
 25 54  1  0
M  END
$$$$
