
     RDKit          3D

 45 47  0  0  0  0  0  0  0  0999 V2000
    7.9307   -0.5836   -0.3072 C   0  0  0  0  0  0  0  0  0  0  0  0
    7.2730    0.7349   -0.6728 C   0  0  0  0  0  0  0  0  0  0  0  0
    5.8283    0.6253   -0.6806 N   0  0  0  0  0  0  0  0  0  0  0  0
    5.0920    0.7506    0.4765 C   0  0  0  0  0  0  0  0  0  0  0  0
    5.5644    1.0556    1.5646 O   0  0  0  0  0  0  0  0  0  0  0  0
    3.6286    0.5457    0.3571 C   0  0  0  0  0  0  0  0  0  0  0  0
    2.8046    1.5166    0.9408 C   0  0  0  0  0  0  0  0  0  0  0  0
    1.4140    1.3921    0.8784 C   0  0  0  0  0  0  0  0  0  0  0  0
    0.8148    0.2922    0.2460 C   0  0  0  0  0  0  0  0  0  0  0  0
   -0.6490    0.1617    0.1794 C   0  0  0  0  0  0  0  0  0  0  0  0
   -1.4474    1.1884   -0.3347 C   0  0  0  0  0  0  0  0  0  0  0  0
   -2.8436    1.0581   -0.4001 C   0  0  0  0  0  0  0  0  0  0  0  0
   -3.5084   -0.0933    0.0436 C   0  0  0  0  0  0  0  0  0  0  0  0
   -4.8753   -0.2158   -0.0221 N   0  0  0  0  0  0  0  0  0  0  0  0
   -5.6309   -1.3262    0.5537 C   0  0  0  0  0  0  0  0  0  0  0  0
   -7.0812   -0.8529    0.4975 C   0  0  0  0  0  0  0  0  0  0  0  0
   -7.1045    0.0351   -0.7338 C   0  0  0  0  0  0  0  0  0  0  0  0
   -5.7594    0.7536   -0.6651 C   0  0  0  0  0  0  0  0  0  0  0  0
   -2.6953   -1.1127    0.5580 C   0  0  0  0  0  0  0  0  0  0  0  0
   -1.2983   -0.9937    0.6259 C   0  0  0  0  0  0  0  0  0  0  0  0
    1.6548   -0.6861   -0.3153 C   0  0  0  0  0  0  0  0  0  0  0  0
    3.0547   -0.5721   -0.2587 C   0  0  0  0  0  0  0  0  0  0  0  0
    3.8466   -1.6259   -0.8192 C   0  0  0  0  0  0  0  0  0  0  0  0
    4.4791   -2.4647   -1.3118 N   0  0  0  0  0  0  0  0  0  0  0  0
    7.6342   -0.9094    0.6952 H   0  0  0  0  0  0  0  0  0  0  0  0
    7.6438   -1.3714   -1.0116 H   0  0  0  0  0  0  0  0  0  0  0  0
    9.0202   -0.4849   -0.3273 H   0  0  0  0  0  0  0  0  0  0  0  0
    7.5810    1.0453   -1.6762 H   0  0  0  0  0  0  0  0  0  0  0  0
    7.5736    1.5142    0.0354 H   0  0  0  0  0  0  0  0  0  0  0  0
    5.3868    0.3822   -1.5575 H   0  0  0  0  0  0  0  0  0  0  0  0
    3.2459    2.3723    1.4502 H   0  0  0  0  0  0  0  0  0  0  0  0
    0.7965    2.1578    1.3467 H   0  0  0  0  0  0  0  0  0  0  0  0
   -0.9943    2.1064   -0.7030 H   0  0  0  0  0  0  0  0  0  0  0  0
   -3.4044    1.8953   -0.8059 H   0  0  0  0  0  0  0  0  0  0  0  0
   -5.3451   -1.5407    1.5890 H   0  0  0  0  0  0  0  0  0  0  0  0
   -5.4971   -2.2278   -0.0550 H   0  0  0  0  0  0  0  0  0  0  0  0
   -7.3184   -0.2604    1.3895 H   0  0  0  0  0  0  0  0  0  0  0  0
   -7.7906   -1.6830    0.4389 H   0  0  0  0  0  0  0  0  0  0  0  0
   -7.1554   -0.5827   -1.6387 H   0  0  0  0  0  0  0  0  0  0  0  0
   -7.9498    0.7287   -0.7442 H   0  0  0  0  0  0  0  0  0  0  0  0
   -5.8378    1.6574   -0.0500 H   0  0  0  0  0  0  0  0  0  0  0  0
   -5.4264    1.0267   -1.6721 H   0  0  0  0  0  0  0  0  0  0  0  0
   -3.1352   -2.0388    0.9173 H   0  0  0  0  0  0  0  0  0  0  0  0
   -0.7280   -1.8192    1.0468 H   0  0  0  0  0  0  0  0  0  0  0  0
    1.2082   -1.5509   -0.8080 H   0  0  0  0  0  0  0  0  0  0  0  0
  1  2  1  0
  2  3  1  0
  3  4  1  0
  4  5  2  0
  4  6  1  0
  6  7  2  0
  7  8  1  0
  8  9  2  0
  9 10  1  0
 10 11  2  0
 11 12  1  0
 12 13  2  0
 13 14  1  0
 14 15  1  0
 15 16  1  0
 16 17  1  0
 17 18  1  0
 13 19  1  0
 19 20  2  0
  9 21  1  0
 21 22  2  0
 22 23  1  0
 23 24  3  0
 22  6  1  0
 20 10  1  0
 18 14  1  0
  1 25  1  0
  1 26  1  0
  1 27  1  0
  2 28  1  0
  2 29  1  0
  3 30  1  0
  7 31  1  0
  8 32  1  0
 11 33  1  0
 12 34  1  0
 15 35  1  0
 15 36  1  0
 16 37  1  0
 16 38  1  0
 17 39  1  0
 17 40  1  0
 18 41  1  0
 18 42  1  0
 19 43  1  0
 20 44  1  0
 21 45  1  0
M  END
$$$$
