
     RDKit          3D

 30 31  0  0  0  0  0  0  0  0999 V2000
    5.5349    0.0253   -0.4903 C   0  0  0  0  0  0  0  0  0  0  0  0
    4.1050   -0.1618   -0.4693 N   0  0  0  0  0  0  0  0  0  0  0  0
    3.2958    0.6656    0.2761 C   0  0  0  0  0  0  0  0  0  0  0  0
    3.7084    1.5946    0.9597 O   0  0  0  0  0  0  0  0  0  0  0  0
    1.8336    0.4322    0.1785 C   0  0  0  0  0  0  0  0  0  0  0  0
    1.0240    1.5641    0.0128 C   0  0  0  0  0  0  0  0  0  0  0  0
   -0.3646    1.4344   -0.0789 C   0  0  0  0  0  0  0  0  0  0  0  0
   -0.9790    0.1761    0.0036 C   0  0  0  0  0  0  0  0  0  0  0  0
   -2.4418    0.0385   -0.0895 C   0  0  0  0  0  0  0  0  0  0  0  0
   -3.2922    0.7787    0.7526 C   0  0  0  0  0  0  0  0  0  0  0  0
   -4.6808    0.6480    0.6662 C   0  0  0  0  0  0  0  0  0  0  0  0
   -5.2297   -0.2238   -0.2642 C   0  0  0  0  0  0  0  0  0  0  0  0
   -6.5603   -0.3491   -0.3480 F   0  0  0  0  0  0  0  0  0  0  0  0
   -4.4172   -0.9676   -1.1092 C   0  0  0  0  0  0  0  0  0  0  0  0
   -3.0286   -0.8371   -1.0217 C   0  0  0  0  0  0  0  0  0  0  0  0
   -0.1568   -0.9493    0.1902 C   0  0  0  0  0  0  0  0  0  0  0  0
    1.2415   -0.8314    0.2860 C   0  0  0  0  0  0  0  0  0  0  0  0
    2.0062   -2.0204    0.5194 C   0  0  0  0  0  0  0  0  0  0  0  0
    2.6092   -3.0006    0.6675 N   0  0  0  0  0  0  0  0  0  0  0  0
    5.9005    0.2895    0.5056 H   0  0  0  0  0  0  0  0  0  0  0  0
    6.0020   -0.9039   -0.8246 H   0  0  0  0  0  0  0  0  0  0  0  0
    5.7702    0.8306   -1.1911 H   0  0  0  0  0  0  0  0  0  0  0  0
    3.7088   -0.7999   -1.1468 H   0  0  0  0  0  0  0  0  0  0  0  0
    1.4757    2.5538   -0.0463 H   0  0  0  0  0  0  0  0  0  0  0  0
   -0.9660    2.3314   -0.2221 H   0  0  0  0  0  0  0  0  0  0  0  0
   -2.8757    1.4578    1.4945 H   0  0  0  0  0  0  0  0  0  0  0  0
   -5.3335    1.2180    1.3196 H   0  0  0  0  0  0  0  0  0  0  0  0
   -4.8672   -1.6413   -1.8314 H   0  0  0  0  0  0  0  0  0  0  0  0
   -2.4056   -1.4183   -1.6988 H   0  0  0  0  0  0  0  0  0  0  0  0
   -0.6166   -1.9342    0.2857 H   0  0  0  0  0  0  0  0  0  0  0  0
  1  2  1  0
  2  3  1  0
  3  4  2  0
  3  5  1  0
  5  6  2  0
  6  7  1  0
  7  8  2  0
  8  9  1  0
  9 10  2  0
 10 11  1  0
 11 12  2  0
 12 13  1  0
 12 14  1  0
 14 15  2  0
  8 16  1  0
 16 17  2  0
 17 18  1  0
 18 19  3  0
 17  5  1  0
 15  9  1  0
  1 20  1  0
  1 21  1  0
  1 22  1  0
  2 23  1  0
  6 24  1  0
  7 25  1  0
 10 26  1  0
 11 27  1  0
 14 28  1  0
 15 29  1  0
 16 30  1  0
M  END
$$$$
