
     RDKit          3D

 57 59  0  0  0  0  0  0  0  0999 V2000
    8.4204    0.2606   -2.2634 C   0  0  0  0  0  0  0  0  0  0  0  0
    6.9506    0.6453   -2.3147 C   0  0  0  0  0  0  0  0  0  0  0  0
    6.2620    0.6189   -0.9462 C   0  0  0  0  0  0  0  0  0  0  0  0
    6.2066   -0.7829   -0.3256 C   0  0  0  0  0  0  0  0  0  0  0  0
    5.3714   -0.8895    0.9646 C   0  0  0  0  0  0  0  0  0  0  0  0
    5.8128    0.1022    2.0420 C   0  0  0  0  0  0  0  0  0  0  0  0
    3.9468   -0.7474    0.6838 N   0  0  0  0  0  0  0  0  0  0  0  0
    2.9909   -1.2608    1.5336 C   0  0  0  0  0  0  0  0  0  0  0  0
    3.2363   -1.9811    2.4937 O   0  0  0  0  0  0  0  0  0  0  0  0
    1.5783   -0.9435    1.2142 C   0  0  0  0  0  0  0  0  0  0  0  0
    0.6735   -2.0127    1.2167 C   0  0  0  0  0  0  0  0  0  0  0  0
   -0.6801   -1.7937    0.9441 C   0  0  0  0  0  0  0  0  0  0  0  0
   -1.1668   -0.5055    0.6702 C   0  0  0  0  0  0  0  0  0  0  0  0
   -2.5946   -0.2737    0.3828 C   0  0  0  0  0  0  0  0  0  0  0  0
   -3.3012   -1.0876   -0.5094 C   0  0  0  0  0  0  0  0  0  0  0  0
   -4.6605   -0.8638   -0.7813 C   0  0  0  0  0  0  0  0  0  0  0  0
   -5.3796    0.1801   -0.1846 C   0  0  0  0  0  0  0  0  0  0  0  0
   -6.7078    0.3989   -0.4581 N   0  0  0  0  0  0  0  0  0  0  0  0
   -7.4604    1.5661   -0.0039 C   0  0  0  0  0  0  0  0  0  0  0  0
   -8.7670    1.4886   -0.7901 C   0  0  0  0  0  0  0  0  0  0  0  0
   -8.9698   -0.0057   -0.9694 C   0  0  0  0  0  0  0  0  0  0  0  0
   -7.5535   -0.5186   -1.2189 C   0  0  0  0  0  0  0  0  0  0  0  0
   -4.6620    0.9894    0.7065 C   0  0  0  0  0  0  0  0  0  0  0  0
   -3.3042    0.7697    0.9892 C   0  0  0  0  0  0  0  0  0  0  0  0
   -0.2466    0.5587    0.6874 C   0  0  0  0  0  0  0  0  0  0  0  0
    1.1161    0.3530    0.9672 C   0  0  0  0  0  0  0  0  0  0  0  0
    1.9799    1.4945    1.0184 C   0  0  0  0  0  0  0  0  0  0  0  0
    2.6784    2.4210    1.0283 N   0  0  0  0  0  0  0  0  0  0  0  0
    8.9652    0.8838   -1.5470 H   0  0  0  0  0  0  0  0  0  0  0  0
    8.8795    0.3987   -3.2482 H   0  0  0  0  0  0  0  0  0  0  0  0
    8.5508   -0.7885   -1.9795 H   0  0  0  0  0  0  0  0  0  0  0  0
    6.4226   -0.0169   -3.0116 H   0  0  0  0  0  0  0  0  0  0  0  0
    6.8715    1.6604   -2.7217 H   0  0  0  0  0  0  0  0  0  0  0  0
    5.2471    1.0109   -1.0730 H   0  0  0  0  0  0  0  0  0  0  0  0
    6.7857    1.3073   -0.2720 H   0  0  0  0  0  0  0  0  0  0  0  0
    7.2281   -1.1087   -0.0940 H   0  0  0  0  0  0  0  0  0  0  0  0
    5.8083   -1.4888   -1.0656 H   0  0  0  0  0  0  0  0  0  0  0  0
    5.5195   -1.9011    1.3653 H   0  0  0  0  0  0  0  0  0  0  0  0
    5.2969   -0.0964    2.9879 H   0  0  0  0  0  0  0  0  0  0  0  0
    5.5807    1.1346    1.7621 H   0  0  0  0  0  0  0  0  0  0  0  0
    6.8889    0.0256    2.2268 H   0  0  0  0  0  0  0  0  0  0  0  0
    3.6781   -0.1490   -0.0865 H   0  0  0  0  0  0  0  0  0  0  0  0
    1.0204   -3.0208    1.4372 H   0  0  0  0  0  0  0  0  0  0  0  0
   -1.3601   -2.6454    0.9656 H   0  0  0  0  0  0  0  0  0  0  0  0
   -2.8017   -1.9064   -1.0235 H   0  0  0  0  0  0  0  0  0  0  0  0
   -5.1424   -1.5259   -1.4970 H   0  0  0  0  0  0  0  0  0  0  0  0
   -6.9459    2.5091   -0.2188 H   0  0  0  0  0  0  0  0  0  0  0  0
   -7.6546    1.4957    1.0721 H   0  0  0  0  0  0  0  0  0  0  0  0
   -8.6477    1.9688   -1.7689 H   0  0  0  0  0  0  0  0  0  0  0  0
   -9.5976    1.9726   -0.2696 H   0  0  0  0  0  0  0  0  0  0  0  0
   -9.6526   -0.2477   -1.7881 H   0  0  0  0  0  0  0  0  0  0  0  0
   -9.3707   -0.4417   -0.0465 H   0  0  0  0  0  0  0  0  0  0  0  0
   -7.3075   -0.4614   -2.2865 H   0  0  0  0  0  0  0  0  0  0  0  0
   -7.4627   -1.5569   -0.8792 H   0  0  0  0  0  0  0  0  0  0  0  0
   -5.1530    1.8126    1.2187 H   0  0  0  0  0  0  0  0  0  0  0  0
   -2.8182    1.4248    1.7094 H   0  0  0  0  0  0  0  0  0  0  0  0
   -0.5980    1.5699    0.4801 H   0  0  0  0  0  0  0  0  0  0  0  0
  1  2  1  0
  2  3  1  0
  3  4  1  0
  4  5  1  0
  5  6  1  0
  5  7  1  0
  7  8  1  0
  8  9  2  0
  8 10  1  0
 10 11  2  0
 11 12  1  0
 12 13  2  0
 13 14  1  0
 14 15  2  0
 15 16  1  0
 16 17  2  0
 17 18  1  0
 18 19  1  0
 19 20  1  0
 20 21  1  0
 21 22  1  0
 17 23  1  0
 23 24  2  0
 13 25  1  0
 25 26  2  0
 26 27  1  0
 27 28  3  0
 26 10  1  0
 24 14  1  0
 22 18  1  0
  1 29  1  0
  1 30  1  0
  1 31  1  0
  2 32  1  0
  2 33  1  0
  3 34  1  0
  3 35  1  0
  4 36  1  0
  4 37  1  0
  5 38  1  0
  6 39  1  0
  6 40  1  0
  6 41  1  0
  7 42  1  0
 11 43  1  0
 12 44  1  0
 15 45  1  0
 16 46  1  0
 19 47  1  0
 19 48  1  0
 20 49  1  0
 20 50  1  0
 21 51  1  0
 21 52  1  0
 22 53  1  0
 22 54  1  0
 23 55  1  0
 24 56  1  0
 25 57  1  0
M  END
$$$$
