
     RDKit          3D

 38 40  0  0  0  0  0  0  0  0999 V2000
   -1.2252   -1.8087    2.3856 N   0  0  0  0  0  0  0  0  0  0  0  0
   -0.6549   -1.0553    1.7123 C   0  0  0  0  0  0  0  0  0  0  0  0
    0.0631   -0.1635    0.8502 C   0  0  0  0  0  0  0  0  0  0  0  0
    1.3727   -0.5131    0.4750 C   0  0  0  0  0  0  0  0  0  0  0  0
    2.1547    0.3296   -0.3344 C   0  0  0  0  0  0  0  0  0  0  0  0
    3.5245   -0.0467   -0.7185 C   0  0  0  0  0  0  0  0  0  0  0  0
    3.9001   -0.1077   -2.0737 C   0  0  0  0  0  0  0  0  0  0  0  0
    5.1986   -0.4673   -2.4438 C   0  0  0  0  0  0  0  0  0  0  0  0
    6.1344   -0.7671   -1.4622 C   0  0  0  0  0  0  0  0  0  0  0  0
    7.3767   -1.1102   -1.8312 F   0  0  0  0  0  0  0  0  0  0  0  0
    5.7867   -0.7102   -0.1158 C   0  0  0  0  0  0  0  0  0  0  0  0
    6.7312   -1.0061    0.8256 O   0  0  0  0  0  0  0  0  0  0  0  0
    4.4906   -0.3537    0.2588 C   0  0  0  0  0  0  0  0  0  0  0  0
    1.5950    1.5439   -0.7584 C   0  0  0  0  0  0  0  0  0  0  0  0
    0.2947    1.9022   -0.3922 C   0  0  0  0  0  0  0  0  0  0  0  0
   -0.4818    1.0440    0.3979 C   0  0  0  0  0  0  0  0  0  0  0  0
   -1.8472    1.5070    0.7466 C   0  0  0  0  0  0  0  0  0  0  0  0
   -2.0163    2.6701    1.0910 O   0  0  0  0  0  0  0  0  0  0  0  0
   -2.8609    0.5892    0.6051 N   0  0  0  0  0  0  0  0  0  0  0  0
   -4.2344    0.9680    0.8392 C   0  0  0  0  0  0  0  0  0  0  0  0
   -5.0711   -0.2650    0.9383 C   0  0  0  0  0  0  0  0  0  0  0  0
   -6.5175   -0.2428    0.5161 C   0  0  0  0  0  0  0  0  0  0  0  0
   -5.5095   -1.0022   -0.3024 C   0  0  0  0  0  0  0  0  0  0  0  0
    1.7902   -1.4610    0.8179 H   0  0  0  0  0  0  0  0  0  0  0  0
    3.1761    0.1159   -2.8555 H   0  0  0  0  0  0  0  0  0  0  0  0
    5.4854   -0.5171   -3.4894 H   0  0  0  0  0  0  0  0  0  0  0  0
    6.3520   -0.8955    1.7121 H   0  0  0  0  0  0  0  0  0  0  0  0
    4.2249   -0.2998    1.3114 H   0  0  0  0  0  0  0  0  0  0  0  0
    2.1771    2.2341   -1.3682 H   0  0  0  0  0  0  0  0  0  0  0  0
   -0.1124    2.8574   -0.7222 H   0  0  0  0  0  0  0  0  0  0  0  0
   -2.6997   -0.2852    0.1237 H   0  0  0  0  0  0  0  0  0  0  0  0
   -4.2974    1.5497    1.7652 H   0  0  0  0  0  0  0  0  0  0  0  0
   -4.5481    1.6133    0.0109 H   0  0  0  0  0  0  0  0  0  0  0  0
   -4.8186   -0.8523    1.8157 H   0  0  0  0  0  0  0  0  0  0  0  0
   -7.2257   -0.8130    1.1072 H   0  0  0  0  0  0  0  0  0  0  0  0
   -6.9262    0.6708    0.0990 H   0  0  0  0  0  0  0  0  0  0  0  0
   -5.5386   -2.0855   -0.2637 H   0  0  0  0  0  0  0  0  0  0  0  0
   -5.2429   -0.5992   -1.2729 H   0  0  0  0  0  0  0  0  0  0  0  0
  1  2  3  0
  2  3  1  0
  3  4  2  0
  4  5  1  0
  5  6  1  0
  6  7  2  0
  7  8  1  0
  8  9  2  0
  9 10  1  0
  9 11  1  0
 11 12  1  0
 11 13  2  0
  5 14  2  0
 14 15  1  0
 15 16  2  0
 16 17  1  0
 17 18  2  0
 17 19  1  0
 19 20  1  0
 20 21  1  0
 21 22  1  0
 22 23  1  0
 16  3  1  0
 23 21  1  0
 13  6  1  0
  4 24  1  0
  7 25  1  0
  8 26  1  0
 12 27  1  0
 13 28  1  0
 14 29  1  0
 15 30  1  0
 19 31  1  0
 20 32  1  0
 20 33  1  0
 21 34  1  0
 22 35  1  0
 22 36  1  0
 23 37  1  0
 23 38  1  0
M  END
$$$$
