MODEL        9USER    Run = 9USERUSER    Estimated Free Energy of Binding    =  -8.73 kcal/mol  [=(1)+(2)+(3)-(4)]USERUSER    (1) Final Intermolecular Energy     =  -9.62 kcal/molUSER        vdW + Hbond + desolv Energy     =  -9.58 kcal/molUSER        Electrostatic Energy            =  -0.04 kcal/molUSER        Moving Ligand-Fixed Receptor    =  -9.62 kcal/molUSER        Moving Ligand-Moving Receptor   =  +0.00 kcal/molUSER    (2) Final Total Internal Energy     =  -0.67 kcal/molUSER    (3) Torsional Free Energy           =  +0.89 kcal/molUSER    (4) Unbound System's Energy         =  -0.67 kcal/molUSERUSERREMARK SMILES Cn1c(-c2cccc(NC(N)=O)c2)nc2c(F)c(-c3c(F)cccc3F)ccc21REMARK SMILES IDX 1 1 2 2 3 3 14 4 15 5 16 6 17 7 18 8 27 9 28 10 29 11 4 12REMARK SMILES IDX 5 13 13 14 6 15 8 16 7 17 9 18 10 19 11 20 12 22 19 25 20 26REMARK SMILES IDX 25 27 22 28 24 29 23 30 21 31 26 32REMARK H PARENT 9 21 11 23 11 24USER                              x       y       z     vdW  Elec       q    TypeUSER                           _______ _______ _______ _____ _____    ______ ____ROOTATOM      1  C   UNL     1      18.286 -17.096  -7.124 -0.36 +0.02    +0.152 C  ATOM      2  N   UNL     1      17.328 -16.430  -7.976 -0.19 -0.01    -0.327 N  ATOM      3  C   UNL     1      16.953 -15.101  -7.910 -0.25 -0.01    +0.141 A  ATOM      4  N   UNL     1      16.176 -14.803  -8.936 -0.21 +0.05    -0.225 NA ATOM      5  C   UNL     1      15.979 -15.972  -9.633 -0.24 -0.02    +0.125 A  ATOM      6  C   UNL     1      15.213 -16.228 -10.784 -0.22 -0.03    +0.159 A  ATOM      7  F   UNL     1      14.515 -15.233 -11.357 -0.02 +0.06    -0.204 F  ATOM      8  C   UNL     1      15.155 -17.526 -11.328 -0.37 -0.00    +0.026 A  ATOM      9  C   UNL     1      15.877 -18.551 -10.691 -0.41 -0.00    +0.014 A  ATOM     10  C   UNL     1      16.653 -18.321  -9.546 -0.38 +0.00    +0.029 A  ATOM     11  C   UNL     1      16.682 -17.015  -9.043 -0.22 +0.00    +0.071 A  ENDROOTBRANCH   3  12ATOM     12  C   UNL     1      17.384 -14.129  -6.901 -0.38 -0.00    +0.019 A  ATOM     13  C   UNL     1      18.454 -14.378  -6.035 -0.45 +0.00    +0.012 A  ATOM     14  C   UNL     1      16.673 -12.925  -6.769 -0.38 -0.01    +0.038 A  ATOM     15  C   UNL     1      18.832 -13.422  -5.091 -0.52 +0.00    +0.003 A  ATOM     16  C   UNL     1      17.040 -11.963  -5.820 -0.44 -0.00    +0.043 A  ATOM     17  C   UNL     1      18.134 -12.216  -4.991 -0.46 +0.00    +0.026 A  BRANCH  16  18ATOM     18  N   UNL     1      16.274 -10.783  -5.769 -0.28 +0.07    -0.308 N  ATOM     19  C   UNL     1      15.768 -10.066  -6.819 -0.42 -0.09    +0.316 C  ATOM     20  N   UNL     1      15.031  -8.998  -6.392 -0.03 +0.18    -0.351 N  ATOM     21  H   UNL     1      16.190 -10.336  -4.867 -0.24 -0.07    +0.171 HD ATOM     22  O   UNL     1      15.901 -10.268  -8.017 -0.41 +0.07    -0.249 OA ATOM     23  H   UNL     1      14.425  -9.156  -5.602 -0.44 -0.17    +0.161 HD ATOM     24  H   UNL     1      14.577  -8.522  -7.164 -0.35 -0.09    +0.161 HD ENDBRANCH  16  18ENDBRANCH   3  12BRANCH   8  25ATOM     25  C   UNL     1      14.356 -17.805 -12.530 -0.33 -0.01    +0.056 A  ATOM     26  C   UNL     1      12.956 -17.810 -12.497 -0.31 -0.02    +0.134 A  ATOM     27  C   UNL     1      14.961 -18.078 -13.765 -0.24 -0.04    +0.134 A  ATOM     28  C   UNL     1      12.190 -18.066 -13.636 -0.28 -0.00    +0.040 A  ATOM     29  C   UNL     1      14.210 -18.337 -14.914 -0.29 -0.01    +0.040 A  ATOM     30  C   UNL     1      12.818 -18.329 -14.851 -0.32 -0.00    +0.006 A  ATOM     31  F   UNL     1      12.309 -17.561 -11.347 -0.14 +0.05    -0.206 F  ATOM     32  F   UNL     1      16.299 -18.123 -13.866 -0.00 +0.05    -0.206 F  ENDBRANCH   8  25TORSDOF 3TERENDMDL