REMARK SMILES CCN1CCC(NC2=N[C@@H](c3ccc(NS(=O)(=O)c4ccccc4)cc3C)N3CC3=N2)CC1
REMARK SMILES IDX 7 1 8 2 9 3 10 4 28 5 29 6 30 7 31 8 6 10 3 11 4 12 33 13
REMARK SMILES IDX 5 14 32 15 2 16 1 17 11 18 12 19 26 20 13 21 25 22 14 23
REMARK SMILES IDX 27 24 15 25 16 27 17 28 18 29 19 30 20 31 24 32 21 33 23 34
REMARK SMILES IDX 22 35
REMARK H PARENT 7 9 15 26
ROOT
ATOM      1  N   UNL     1      -3.444   0.068  -2.092  1.00  0.00    -0.352 N 
ATOM      2  C   UNL     1      -2.178   0.309  -2.532  1.00  0.00     0.222 C 
ATOM      3  N   UNL     1      -1.283   0.896  -1.823  1.00  0.00    -0.221 NA
ATOM      4  C   UNL     1       0.039   1.123  -2.425  1.00  0.00     0.237 C 
ATOM      5  N   UNL     1       0.104   1.080  -3.880  1.00  0.00    -0.325 N 
ATOM      6  C   UNL     1      -0.796   1.871  -4.643  1.00  0.00     0.195 C 
ATOM      7  C   UNL     1      -0.961   0.419  -4.409  1.00  0.00     0.130 C 
ATOM      8  N   UNL     1      -1.945  -0.133  -3.803  1.00  0.00    -0.198 NA
ATOM      9  H   UNL     1      -3.946  -0.567  -2.703  1.00  0.00     0.163 HD
ENDROOT
BRANCH   1  10
ATOM     10  C   UNL     1      -3.970   0.194  -0.745  1.00  0.00     0.084 C 
ATOM     11  N   UNL     1      -3.852   0.730   2.093  1.00  0.00    -0.303 NA
ATOM     12  C   UNL     1      -3.955  -0.650   1.614  1.00  0.00     0.086 C 
ATOM     13  C   UNL     1      -4.508   1.685   1.194  1.00  0.00     0.086 C 
ATOM     14  C   UNL     1      -3.324  -0.792   0.226  1.00  0.00     0.040 C 
ATOM     15  C   UNL     1      -3.902   1.622  -0.210  1.00  0.00     0.040 C 
BRANCH  11  16
ATOM     16  C   UNL     1      -4.261   0.884   3.494  1.00  0.00     0.081 C 
ATOM     17  C   UNL     1      -5.736   0.653   3.805  1.00  0.00     0.021 C 
ENDBRANCH  11  16
ENDBRANCH   1  10
BRANCH   4  18
ATOM     18  C   UNL     1       1.140   0.204  -1.871  1.00  0.00    -0.000 A 
ATOM     19  C   UNL     1       0.799  -0.995  -1.219  1.00  0.00     0.010 A 
ATOM     20  C   UNL     1       2.516   0.494  -2.054  1.00  0.00    -0.042 A 
ATOM     21  C   UNL     1       1.780  -1.879  -0.761  1.00  0.00     0.027 A 
ATOM     22  C   UNL     1       3.489  -0.430  -1.619  1.00  0.00     0.030 A 
ATOM     23  C   UNL     1       3.132  -1.595  -0.946  1.00  0.00     0.049 A 
ATOM     24  C   UNL     1       2.991   1.732  -2.769  1.00  0.00     0.045 C 
BRANCH  23  25
ATOM     25  N   UNL     1       4.073  -2.578  -0.528  1.00  0.00    -0.280 N 
ATOM     26  H   UNL     1       3.723  -3.461  -0.162  1.00  0.00     0.180 HD
BRANCH  25  27
ATOM     27  S   UNL     1       5.606  -2.213   0.052  1.00  0.00     0.261 S 
ATOM     28  O   UNL     1       6.369  -1.536  -0.973  1.00  0.00    -0.201 OA
ATOM     29  O   UNL     1       6.098  -3.433   0.660  1.00  0.00    -0.201 OA
BRANCH  27  30
ATOM     30  C   UNL     1       5.284  -1.064   1.369  1.00  0.00     0.087 A 
ATOM     31  C   UNL     1       5.547   0.298   1.184  1.00  0.00     0.022 A 
ATOM     32  C   UNL     1       4.806  -1.542   2.596  1.00  0.00     0.022 A 
ATOM     33  C   UNL     1       5.294   1.190   2.226  1.00  0.00     0.001 A 
ATOM     34  C   UNL     1       4.557  -0.643   3.632  1.00  0.00     0.001 A 
ATOM     35  C   UNL     1       4.794   0.721   3.443  1.00  0.00     0.000 A 
ENDBRANCH  27  30
ENDBRANCH  25  27
ENDBRANCH  23  25
ENDBRANCH   4  18
TORSDOF 6
