REMARK SMILES O=S(=O)(Nc1ccc([C@@H]2N=C(NC3CCNCC3)N=C3CN32)cc1)c1ccccc1
REMARK SMILES IDX 5 1 6 2 7 3 8 4 23 5 24 6 4 7 2 9 1 10 3 11 25 12 26 13
REMARK SMILES IDX 30 14 27 15 29 16 28 17 9 18 10 19 22 20 11 21 21 22 20 23
REMARK SMILES IDX 12 24 19 25 13 27 14 28 18 29 15 30 17 31 16 32
REMARK H PARENT 4 8 12 26 16 33
ROOT
ATOM      1  C   UNL     1       2.828  -1.036  -0.871  1.00  0.00     0.049 A 
ATOM      2  C   UNL     1       2.848  -0.844   0.508  1.00  0.00     0.027 A 
ATOM      3  C   UNL     1       1.700  -0.398   1.166  1.00  0.00     0.010 A 
ATOM      4  C   UNL     1       0.517  -0.137   0.451  1.00  0.00    -0.003 A 
ATOM      5  C   UNL     1       0.519  -0.329  -0.941  1.00  0.00     0.010 A 
ATOM      6  C   UNL     1       1.669  -0.772  -1.599  1.00  0.00     0.027 A 
ENDROOT
BRANCH   1   7
ATOM      7  N   UNL     1       4.011  -1.433  -1.552  1.00  0.00    -0.280 N 
ATOM      8  H   UNL     1       3.909  -2.110  -2.307  1.00  0.00     0.180 HD
BRANCH   7   9
ATOM      9  S   UNL     1       5.112  -0.225  -1.990  1.00  0.00     0.261 S 
ATOM     10  O   UNL     1       4.398   1.001  -2.278  1.00  0.00    -0.201 OA
ATOM     11  O   UNL     1       5.991  -0.824  -2.972  1.00  0.00    -0.201 OA
BRANCH   9  12
ATOM     12  C   UNL     1       6.059  -0.004  -0.505  1.00  0.00     0.087 A 
ATOM     13  C   UNL     1       6.976  -0.989  -0.127  1.00  0.00     0.022 A 
ATOM     14  C   UNL     1       5.905   1.160   0.254  1.00  0.00     0.022 A 
ATOM     15  C   UNL     1       7.729  -0.815   1.034  1.00  0.00     0.001 A 
ATOM     16  C   UNL     1       6.662   1.326   1.414  1.00  0.00     0.001 A 
ATOM     17  C   UNL     1       7.570   0.339   1.803  1.00  0.00     0.000 A 
ENDBRANCH   9  12
ENDBRANCH   7   9
ENDBRANCH   1   7
BRANCH   4  18
ATOM     18  C   UNL     1      -0.715   0.393   1.185  1.00  0.00     0.237 C 
ATOM     19  N   UNL     1      -1.966  -0.098   0.637  1.00  0.00    -0.221 NA
ATOM     20  N   UNL     1      -0.721   1.818   1.398  1.00  0.00    -0.325 N 
ATOM     21  C   UNL     1      -2.654   0.807   0.033  1.00  0.00     0.222 C 
ATOM     22  C   UNL     1       0.155   2.757   0.920  1.00  0.00     0.195 C 
ATOM     23  C   UNL     1      -1.130   2.577   0.269  1.00  0.00     0.130 C 
ATOM     24  N   UNL     1      -3.885   0.532  -0.488  1.00  0.00    -0.352 N 
ATOM     25  N   UNL     1      -2.226   2.080  -0.192  1.00  0.00    -0.198 NA
ATOM     26  H   UNL     1      -4.376   1.378  -0.751  1.00  0.00     0.163 HD
BRANCH  24  27
ATOM     27  C   UNL     1      -4.713  -0.581  -0.048  1.00  0.00     0.084 C 
ATOM     28  C   UNL     1      -5.361  -0.279   1.311  1.00  0.00     0.040 C 
ATOM     29  C   UNL     1      -5.757  -0.875  -1.134  1.00  0.00     0.040 C 
ATOM     30  C   UNL     1      -6.813   0.154   1.155  1.00  0.00     0.083 C 
ATOM     31  C   UNL     1      -6.952  -1.614  -0.547  1.00  0.00     0.083 C 
ATOM     32  N   UNL     1      -7.634  -0.872   0.512  1.00  0.00    -0.317 NA
ATOM     33  H   UNL     1      -8.489  -0.447   0.155  1.00  0.00     0.122 HD
ENDBRANCH  24  27
ENDBRANCH   4  18
TORSDOF 5
