REMARK SMILES C=Cc1cccc(C=Cc2nnc(NC(=O)CCN3CCNCC3)o2)c1
REMARK SMILES IDX 10 1 11 2 12 3 13 4 25 5 9 6 8 7 7 8 3 9 4 10 26 11 5 12
REMARK SMILES IDX 6 13 2 14 1 15 14 16 15 17 16 19 17 20 18 21 19 22 20 23
REMARK SMILES IDX 24 24 21 25 23 26 22 27
REMARK H PARENT 14 18 22 28
ROOT
ATOM      1  C   UNL     1      -1.303  -0.824   0.718  1.00  0.00     0.242 A 
ATOM      2  N   UNL     1      -0.516  -1.655   1.389  1.00  0.00    -0.107 NA
ATOM      3  N   UNL     1       0.757  -1.538   0.872  1.00  0.00    -0.090 NA
ATOM      4  C   UNL     1       0.681  -0.651  -0.091  1.00  0.00     0.322 A 
ATOM      5  O   UNL     1      -0.575  -0.156  -0.250  1.00  0.00    -0.404 OA
ENDROOT
BRANCH   1   6
ATOM      6  C   UNL     1      -2.691  -0.623   0.950  1.00  0.00     0.071 C 
BRANCH   6   7
ATOM      7  C   UNL     1      -3.376   0.328   0.297  1.00  0.00     0.014 C 
BRANCH   7   8
ATOM      8  C   UNL     1      -4.807   0.627   0.479  1.00  0.00    -0.025 A 
ATOM      9  C   UNL     1      -6.873   0.645   1.790  1.00  0.00    -0.026 A 
ATOM     10  C   UNL     1      -7.513   1.342   0.758  1.00  0.00     0.008 A 
ATOM     11  C   UNL     1      -5.516   0.307   1.648  1.00  0.00     0.016 A 
ATOM     12  C   UNL     1      -6.820   1.674  -0.405  1.00  0.00     0.001 A 
ATOM     13  C   UNL     1      -5.476   1.319  -0.541  1.00  0.00     0.008 A 
BRANCH   9  14
ATOM     14  C   UNL     1      -7.625   0.343   3.014  1.00  0.00     0.000 C 
ATOM     15  C   UNL     1      -7.543  -0.818   3.675  1.00  0.00     0.009 C 
ENDBRANCH   9  14
ENDBRANCH   7   8
ENDBRANCH   6   7
ENDBRANCH   1   6
BRANCH   4  16
ATOM     16  N   UNL     1       1.704  -0.219  -0.878  1.00  0.00    -0.278 N 
ATOM     17  C   UNL     1       1.561   0.721  -1.867  1.00  0.00     0.229 C 
ATOM     18  H   UNL     1       2.629  -0.585  -0.663  1.00  0.00     0.174 HD
ATOM     19  O   UNL     1       0.513   1.259  -2.217  1.00  0.00    -0.275 OA
BRANCH  17  20
ATOM     20  C   UNL     1       2.855   1.012  -2.608  1.00  0.00     0.116 C 
BRANCH  20  21
ATOM     21  C   UNL     1       4.042   1.273  -1.676  1.00  0.00     0.094 C 
BRANCH  21  22
ATOM     22  N   UNL     1       4.526   0.048  -0.996  1.00  0.00    -0.300 NA
ATOM     23  C   UNL     1       5.287  -0.827  -1.920  1.00  0.00     0.100 C 
ATOM     24  C   UNL     1       5.395   0.420   0.146  1.00  0.00     0.100 C 
ATOM     25  C   UNL     1       5.921  -2.042  -1.206  1.00  0.00     0.096 C 
ATOM     26  C   UNL     1       6.026  -0.808   0.838  1.00  0.00     0.096 C 
ATOM     27  N   UNL     1       6.793  -1.656  -0.087  1.00  0.00    -0.314 NA
ATOM     28  H   UNL     1       7.567  -1.105  -0.458  1.00  0.00     0.122 HD
ENDBRANCH  21  22
ENDBRANCH  20  21
ENDBRANCH  17  20
ENDBRANCH   4  16
TORSDOF 8
