MODEL        2USER    Run = 2USERUSER    Estimated Free Energy of Binding    = -10.26 kcal/mol  [=(1)+(2)+(3)-(4)]USERUSER    (1) Final Intermolecular Energy     = -13.24 kcal/molUSER        vdW + Hbond + desolv Energy     = -13.01 kcal/molUSER        Electrostatic Energy            =  -0.22 kcal/molUSER        Moving Ligand-Fixed Receptor    = -13.24 kcal/molUSER        Moving Ligand-Moving Receptor   =  +0.00 kcal/molUSER    (2) Final Total Internal Energy     =  -1.46 kcal/molUSER    (3) Torsional Free Energy           =  +2.98 kcal/molUSER    (4) Unbound System's Energy         =  -1.46 kcal/molUSERUSERREMARK SMILES C=Cc1ccc(OC)c(C=C2C=C(C=Cc3nnc(NC(=O)C[C@H]4CCCN4)o3)O2)c1REMARK SMILES IDX 14 1 13 2 11 3 12 4 30 5 10 6 9 7 3 8 4 9 31 10 5 11 6 12REMARK SMILES IDX 2 13 1 14 7 15 8 16 15 17 16 18 17 19 29 20 18 21 19 22REMARK SMILES IDX 20 23 21 24 22 26 23 27 24 28 25 29 28 30 26 31 27 32REMARK H PARENT 20 25 28 33USER                              x       y       z     vdW  Elec       q    TypeUSER                           _______ _______ _______ _____ _____    ______ ____ROOTATOM      1  C   UNL     1      11.452 -11.831 -11.974 -0.49 -0.03    +0.053 C  ENDROOTBRANCH   1   2ATOM      2  C   UNL     1      12.468 -12.744 -11.233 -0.31 -0.09    +0.131 C  ATOM      3  C   UNL     1      13.763 -13.715 -10.338 -0.30 -0.09    +0.131 C  ATOM      4  C   UNL     1      12.517 -14.046 -10.928 -0.29 -0.06    +0.094 C  ATOM      5  O   UNL     1      13.600 -12.485 -10.683 -0.11 +0.29    -0.457 OA BRANCH   3   6ATOM      6  C   UNL     1      14.718 -14.383  -9.680 -0.37 -0.03    +0.059 C  BRANCH   6   7ATOM      7  C   UNL     1      15.646 -13.840  -8.675 -0.34 -0.01    +0.021 A  ATOM      8  C   UNL     1      16.214 -11.947  -7.237 -0.42 +0.01    -0.025 A  ATOM      9  C   UNL     1      17.311 -12.668  -6.760 -0.41 -0.00    +0.012 A  ATOM     10  C   UNL     1      15.381 -12.548  -8.188 -0.39 -0.01    +0.020 A  ATOM     11  C   UNL     1      17.595 -13.951  -7.245 -0.37 -0.00    +0.047 A  ATOM     12  C   UNL     1      16.774 -14.544  -8.208 -0.28 -0.02    +0.126 A  BRANCH   8  13ATOM     13  C   UNL     1      15.945 -10.613  -6.682 -0.64 -0.00    +0.000 C  ATOM     14  C   UNL     1      15.352  -9.616  -7.351 -0.78 -0.00    +0.009 C  ENDBRANCH   8  13BRANCH  12  15ATOM     15  O   UNL     1      16.995 -15.782  -8.755 -0.11 +0.03    -0.496 OA ATOM     16  C   UNL     1      18.099 -16.533  -8.269 -0.28 +0.01    +0.278 C  ENDBRANCH  12  15ENDBRANCH   6   7ENDBRANCH   3   6ENDBRANCH   1   2BRANCH   1  17ATOM     17  C   UNL     1      11.409 -10.501 -11.818 -0.37 -0.03    +0.074 C  BRANCH  17  18ATOM     18  C   UNL     1      10.193  -9.777 -11.921 -0.42 -0.07    +0.242 A  ATOM     19  N   UNL     1       9.145 -10.118 -12.657 -0.38 +0.04    -0.107 NA ATOM     20  O   UNL     1       9.939  -8.593 -11.251 -1.45 -0.04    -0.404 OA ATOM     21  N   UNL     1       8.174  -9.155 -12.481 -0.38 +0.02    -0.090 NA ATOM     22  C   UNL     1       8.679  -8.277 -11.648 -0.24 -0.04    +0.322 A  BRANCH  22  23ATOM     23  N   UNL     1       8.059  -7.151 -11.194 -0.33 +0.07    -0.278 N  ATOM     24  C   UNL     1       6.690  -7.011 -11.142 -0.23 -0.03    +0.229 C  ATOM     25  H   UNL     1       8.677  -6.411 -10.897 -0.33 -0.10    +0.174 HD ATOM     26  O   UNL     1       5.866  -7.847 -11.491 -0.25 -0.01    -0.275 OA BRANCH  24  27ATOM     27  C   UNL     1       6.292  -5.649 -10.593 -0.33 -0.04    +0.119 C  BRANCH  27  28ATOM     28  C   UNL     1       7.049  -4.496 -11.267 -0.44 -0.05    +0.063 C  ATOM     29  C   UNL     1       6.407  -3.130 -11.045 -0.40 -0.03    +0.021 C  ATOM     30  N   UNL     1       8.384  -4.295 -10.678 -0.27 +0.30    -0.313 NA ATOM     31  C   UNL     1       6.974  -2.641  -9.719 -0.32 -0.03    +0.017 C  ATOM     32  C   UNL     1       8.215  -3.487  -9.475 -0.46 -0.07    +0.081 C  ATOM     33  H   UNL     1       8.858  -5.172 -10.478 -0.51 -0.13    +0.122 HD ENDBRANCH  27  28ENDBRANCH  24  27ENDBRANCH  22  23ENDBRANCH  17  18ENDBRANCH   1  17TORSDOF 10TERENDMDL