REMARK SMILES CN1CCC(NC2=N[C@@H](c3ccc(C=Cc4nnc(NC(=O)C[C@@H]5CCCN5)o4)cc3)N3CC3=N2)CC1
REMARK SMILES IDX 15 1 14 2 13 3 10 4 11 5 31 6 12 7 30 8 9 9 6 10 7 11 8 12
REMARK SMILES IDX 35 13 34 14 32 15 33 16 5 18 2 19 3 20 37 21 4 22 36 23 1 24
REMARK SMILES IDX 16 25 17 26 29 27 18 28 19 29 20 30 21 31 22 33 23 34 24 35
REMARK SMILES IDX 25 36 28 37 26 38 27 39
REMARK H PARENT 6 17 20 32 28 40
ROOT
ATOM      1  C   UNL     1      -2.431   1.983   0.683  1.00  0.00     0.071 C 
ENDROOT
BRANCH   1   2
ATOM      2  C   UNL     1      -1.676   1.022   0.129  1.00  0.00     0.014 C 
BRANCH   2   3
ATOM      3  C   UNL     1      -0.252   1.220  -0.150  1.00  0.00    -0.025 A 
ATOM      4  C   UNL     1       2.506   1.553  -0.656  1.00  0.00    -0.003 A 
ATOM      5  C   UNL     1       2.049   0.535   0.197  1.00  0.00     0.008 A 
ATOM      6  C   UNL     1       1.556   2.393  -1.262  1.00  0.00     0.008 A 
ATOM      7  C   UNL     1       0.684   0.362   0.438  1.00  0.00     0.008 A 
ATOM      8  C   UNL     1       0.191   2.230  -1.010  1.00  0.00     0.008 A 
BRANCH   4   9
ATOM      9  C   UNL     1       3.999   1.778  -0.907  1.00  0.00     0.237 C 
ATOM     10  N   UNL     1       6.464  -0.474   0.409  1.00  0.00    -0.352 N 
ATOM     11  C   UNL     1       5.640   0.588   0.178  1.00  0.00     0.222 C 
ATOM     12  N   UNL     1       4.778   0.564  -0.774  1.00  0.00    -0.221 NA
ATOM     13  N   UNL     1       5.806   1.621   1.043  1.00  0.00    -0.198 NA
ATOM     14  C   UNL     1       5.077   2.684   1.084  1.00  0.00     0.130 C 
ATOM     15  N   UNL     1       4.548   2.920  -0.217  1.00  0.00    -0.325 N 
ATOM     16  C   UNL     1       3.971   3.600   0.821  1.00  0.00     0.195 C 
ATOM     17  H   UNL     1       7.229  -0.231   1.034  1.00  0.00     0.163 HD
BRANCH  10  18
ATOM     18  C   UNL     1       6.836  -1.441  -0.615  1.00  0.00     0.084 C 
ATOM     19  N   UNL     1       9.490  -1.304   0.204  1.00  0.00    -0.306 NA
ATOM     20  C   UNL     1       8.993  -2.667   0.039  1.00  0.00     0.086 C 
ATOM     21  C   UNL     1       9.158  -0.461  -0.956  1.00  0.00     0.086 C 
ATOM     22  C   UNL     1       7.459  -2.679   0.054  1.00  0.00     0.040 C 
ATOM     23  C   UNL     1       7.817  -0.821  -1.611  1.00  0.00     0.040 C 
ATOM     24  C   UNL     1      10.926  -1.276   0.475  1.00  0.00     0.105 C 
ENDBRANCH  10  18
ENDBRANCH   4   9
ENDBRANCH   2   3
ENDBRANCH   1   2
BRANCH   1  25
ATOM     25  C   UNL     1      -3.802   1.773   0.988  1.00  0.00     0.242 A 
ATOM     26  N   UNL     1      -4.581   2.603   1.665  1.00  0.00    -0.107 NA
ATOM     27  O   UNL     1      -4.516   0.647   0.611  1.00  0.00    -0.404 OA
ATOM     28  N   UNL     1      -5.828   2.026   1.763  1.00  0.00    -0.090 NA
ATOM     29  C   UNL     1      -5.756   0.882   1.129  1.00  0.00     0.322 A 
BRANCH  29  30
ATOM     30  N   UNL     1      -6.674  -0.096   0.891  1.00  0.00    -0.278 N 
ATOM     31  C   UNL     1      -7.955  -0.027   1.387  1.00  0.00     0.229 C 
ATOM     32  H   UNL     1      -6.364  -0.873   0.330  1.00  0.00     0.174 HD
ATOM     33  O   UNL     1      -8.387   0.836   2.144  1.00  0.00    -0.275 OA
BRANCH  31  34
ATOM     34  C   UNL     1      -8.796  -1.225   0.972  1.00  0.00     0.119 C 
BRANCH  34  35
ATOM     35  C   UNL     1     -10.259  -0.851   0.744  1.00  0.00     0.063 C 
ATOM     36  C   UNL     1     -11.191  -2.054   0.823  1.00  0.00     0.021 C 
ATOM     37  N   UNL     1     -10.517  -0.360  -0.627  1.00  0.00    -0.313 NA
ATOM     38  C   UNL     1     -12.429  -1.610   0.054  1.00  0.00     0.017 C 
ATOM     39  C   UNL     1     -11.980  -0.399  -0.754  1.00  0.00     0.081 C 
ATOM     40  H   UNL     1     -10.126  -1.016  -1.304  1.00  0.00     0.122 HD
ENDBRANCH  34  35
ENDBRANCH  31  34
ENDBRANCH  29  30
ENDBRANCH   1  25
TORSDOF 8
