REMARK SMILES COc1ccc(S(=O)(=O)Nc2ccc([C@@H]3N=C(NC4CCN(C)CC4)N=C4CN43)cc2)cc1
REMARK SMILES IDX 10 1 7 3 8 4 9 5 6 6 3 7 4 8 33 9 5 10 32 11 2 12 1 13 11 14
REMARK SMILES IDX 12 15 31 16 13 17 30 18 14 19 15 20 16 21 29 22 17 23 28 24
REMARK SMILES IDX 27 25 18 26 26 27 19 29 20 30 25 31 21 32 24 33 22 34 23 35
REMARK H PARENT 10 2 18 28
ROOT
ATOM      1  N   UNL     1       3.590  -1.928   2.025  1.00  0.00    -0.280 N 
ATOM      2  H   UNL     1       3.638  -2.887   1.693  1.00  0.00     0.180 HD
ENDROOT
BRANCH   1   3
ATOM      3  S   UNL     1       4.965  -1.439   2.841  1.00  0.00     0.261 S 
ATOM      4  O   UNL     1       5.764  -2.635   3.020  1.00  0.00    -0.201 OA
ATOM      5  O   UNL     1       4.591  -0.618   3.975  1.00  0.00    -0.201 OA
BRANCH   3   6
ATOM      6  C   UNL     1       5.818  -0.415   1.663  1.00  0.00     0.088 A 
ATOM      7  C   UNL     1       7.212   1.173  -0.170  1.00  0.00     0.118 A 
ATOM      8  C   UNL     1       6.597   1.751   0.946  1.00  0.00     0.048 A 
ATOM      9  C   UNL     1       7.136  -0.209  -0.357  1.00  0.00     0.048 A 
ATOM     10  C   UNL     1       5.912   0.961   1.872  1.00  0.00     0.026 A 
ATOM     11  C   UNL     1       6.441  -1.006   0.560  1.00  0.00     0.026 A 
BRANCH   7  12
ATOM     12  O   UNL     1       7.852   2.058  -0.992  1.00  0.00    -0.497 OA
ATOM     13  C   UNL     1       8.569   1.515  -2.085  1.00  0.00     0.278 C 
ENDBRANCH   7  12
ENDBRANCH   3   6
ENDBRANCH   1   3
BRANCH   1  14
ATOM     14  C   UNL     1       2.549  -1.083   1.551  1.00  0.00     0.049 A 
ATOM     15  C   UNL     1       1.610  -1.668   0.699  1.00  0.00     0.027 A 
ATOM     16  C   UNL     1       2.363   0.244   1.946  1.00  0.00     0.027 A 
ATOM     17  C   UNL     1       0.521  -0.933   0.218  1.00  0.00     0.010 A 
ATOM     18  C   UNL     1       1.287   0.990   1.450  1.00  0.00     0.010 A 
ATOM     19  C   UNL     1       0.346   0.411   0.585  1.00  0.00    -0.003 A 
BRANCH  19  20
ATOM     20  C   UNL     1      -0.806   1.245   0.025  1.00  0.00     0.237 C 
ATOM     21  N   UNL     1      -2.010   0.435  -0.177  1.00  0.00    -0.221 NA
ATOM     22  N   UNL     1      -0.331   2.046  -1.094  1.00  0.00    -0.325 N 
ATOM     23  C   UNL     1      -2.715   0.637  -1.236  1.00  0.00     0.222 C 
ATOM     24  C   UNL     1       0.048   1.429  -2.340  1.00  0.00     0.195 C 
ATOM     25  C   UNL     1      -1.240   2.067  -2.096  1.00  0.00     0.130 C 
ATOM     26  N   UNL     1      -3.876  -0.046  -1.469  1.00  0.00    -0.352 N 
ATOM     27  N   UNL     1      -2.395   1.541  -2.207  1.00  0.00    -0.198 NA
ATOM     28  H   UNL     1      -4.406   0.404  -2.204  1.00  0.00     0.163 HD
BRANCH  26  29
ATOM     29  C   UNL     1      -4.684  -0.590  -0.389  1.00  0.00     0.084 C 
ATOM     30  C   UNL     1      -5.392   0.543   0.355  1.00  0.00     0.040 C 
ATOM     31  C   UNL     1      -5.674  -1.609  -0.961  1.00  0.00     0.040 C 
ATOM     32  C   UNL     1      -6.722   0.074   0.918  1.00  0.00     0.086 C 
ATOM     33  C   UNL     1      -7.017  -0.963  -1.288  1.00  0.00     0.086 C 
ATOM     34  N   UNL     1      -7.650  -0.290  -0.150  1.00  0.00    -0.306 NA
ATOM     35  C   UNL     1      -8.785  -1.028   0.378  1.00  0.00     0.105 C 
ENDBRANCH  26  29
ENDBRANCH  19  20
ENDBRANCH   1  14
TORSDOF 6
