MODEL        6USER    Run = 6USERUSER    Estimated Free Energy of Binding    =  -9.99 kcal/mol  [=(1)+(2)+(3)-(4)]USERUSER    (1) Final Intermolecular Energy     = -11.78 kcal/molUSER        vdW + Hbond + desolv Energy     = -11.66 kcal/molUSER        Electrostatic Energy            =  -0.12 kcal/molUSER        Moving Ligand-Fixed Receptor    = -11.78 kcal/molUSER        Moving Ligand-Moving Receptor   =  +0.00 kcal/molUSER    (2) Final Total Internal Energy     =  -1.75 kcal/molUSER    (3) Torsional Free Energy           =  +1.79 kcal/molUSER    (4) Unbound System's Energy         =  -1.75 kcal/molUSERUSERREMARK SMILES CCN1CCC(NC2=N[C@@H](c3ccc(NS(=O)(=O)c4ccccc4)cc3C)N3CC3=N2)CC1REMARK SMILES IDX 7 1 8 2 9 3 10 4 28 5 29 6 30 7 31 8 6 10 3 11 4 12 33 13REMARK SMILES IDX 5 14 32 15 2 16 1 17 11 18 12 19 26 20 13 21 25 22 14 23REMARK SMILES IDX 27 24 15 25 16 27 17 28 18 29 19 30 20 31 24 32 21 33 23 34REMARK SMILES IDX 22 35REMARK H PARENT 7 9 15 26USER                              x       y       z     vdW  Elec       q    TypeUSER                           _______ _______ _______ _____ _____    ______ ____ROOTATOM      1  N   UNL     1      11.576 -13.962 -13.218 -0.05 +0.12    -0.352 N  ATOM      2  C   UNL     1      12.826 -14.454 -12.993 -0.18 -0.08    +0.222 C  ATOM      3  N   UNL     1      13.862 -13.710 -12.848 -0.23 +0.10    -0.221 NA ATOM      4  C   UNL     1      15.162 -14.366 -12.638 -0.28 -0.09    +0.237 C  ATOM      5  N   UNL     1      15.256 -15.761 -13.046 -0.18 +0.11    -0.325 N  ATOM      6  C   UNL     1      14.855 -16.135 -14.357 -0.30 -0.07    +0.195 C  ATOM      7  C   UNL     1      14.027 -16.337 -13.147 -0.26 -0.03    +0.130 C  ATOM      8  N   UNL     1      12.877 -15.817 -12.933 -0.12 +0.05    -0.198 NA ATOM      9  H   UNL     1      10.861 -14.674 -13.114 +0.11 -0.02    +0.163 HD ENDROOTBRANCH   1  10ATOM     10  C   UNL     1      11.116 -12.589 -13.122 -0.33 -0.04    +0.084 C  ATOM     11  N   UNL     1       9.721 -10.351 -11.936 -0.38 +0.06    -0.303 NA ATOM     12  C   UNL     1       9.171 -11.009 -13.123 -0.23 -0.05    +0.086 C  ATOM     13  C   UNL     1      11.186 -10.407 -11.894 -0.46 -0.04    +0.086 C  ATOM     14  C   UNL     1       9.594 -12.480 -13.175 -0.35 -0.02    +0.040 C  ATOM     15  C   UNL     1      11.681 -11.855 -11.908 -0.49 -0.02    +0.040 C  BRANCH  11  16ATOM     16  C   UNL     1       9.190  -8.999 -11.731 -0.52 -0.01    +0.081 C  ATOM     17  C   UNL     1       7.958  -8.617 -12.545 -0.45 -0.00    +0.021 C  ENDBRANCH  11  16ENDBRANCH   1  10BRANCH   4  18ATOM     18  C   UNL     1      15.689 -14.253 -11.199 -0.37 +0.00    -0.000 A  ATOM     19  C   UNL     1      14.815 -14.425 -10.110 -0.33 -0.00    +0.010 A  ATOM     20  C   UNL     1      17.064 -14.042 -10.922 -0.42 +0.01    -0.042 A  ATOM     21  C   UNL     1      15.279 -14.390  -8.792 -0.23 -0.01    +0.027 A  ATOM     22  C   UNL     1      17.517 -14.049  -9.586 -0.27 -0.00    +0.030 A  ATOM     23  C   UNL     1      16.632 -14.187  -8.522 -0.34 -0.01    +0.049 A  ATOM     24  C   UNL     1      18.090 -13.880 -12.013 -0.48 -0.01    +0.045 C  BRANCH  23  25ATOM     25  N   UNL     1      17.046 -14.245  -7.161 -0.21 +0.04    -0.280 N  ATOM     26  H   UNL     1      16.609 -14.931  -6.549 +0.09 -0.03    +0.180 HD BRANCH  25  27ATOM     27  S   UNL     1      17.641 -12.924  -6.311 -0.41 -0.01    +0.261 S  ATOM     28  O   UNL     1      19.050 -12.758  -6.590 -0.28 -0.01    -0.201 OA ATOM     29  O   UNL     1      17.167 -13.084  -4.951 -0.41 -0.01    -0.201 OA BRANCH  27  30ATOM     30  C   UNL     1      16.760 -11.551  -7.016 -0.37 -0.02    +0.087 A  ATOM     31  C   UNL     1      17.034 -11.147  -8.327 -0.43 -0.00    +0.022 A  ATOM     32  C   UNL     1      15.824 -10.862  -6.233 -0.55 -0.01    +0.022 A  ATOM     33  C   UNL     1      16.339 -10.066  -8.868 -0.59 -0.00    +0.001 A  ATOM     34  C   UNL     1      15.135  -9.782  -6.782 -0.66 -0.00    +0.001 A  ATOM     35  C   UNL     1      15.387  -9.390  -8.100 -0.72 -0.00    +0.000 A  ENDBRANCH  27  30ENDBRANCH  25  27ENDBRANCH  23  25ENDBRANCH   4  18TORSDOF 6TERENDMDL