REMARK SMILES Cn1c(-c2cccc(NC(N)=O)c2)nc2c(F)c(-c3c(F)cccc3F)ccc21
REMARK SMILES IDX 1 1 2 2 3 3 14 4 15 5 16 6 17 7 18 8 27 9 28 10 29 11 4 12
REMARK SMILES IDX 5 13 13 14 6 15 8 16 7 17 9 18 10 19 11 20 12 22 19 25 20 26
REMARK SMILES IDX 25 27 22 28 24 29 23 30 21 31 26 32
REMARK H PARENT 9 21 11 23 11 24
ROOT
ATOM      1  C   UNL     1       0.866  -2.914   1.006  1.00  0.00     0.152 C 
ATOM      2  N   UNL     1       0.303  -1.634   0.644  1.00  0.00    -0.327 N 
ATOM      3  C   UNL     1       0.987  -0.438   0.525  1.00  0.00     0.141 A 
ATOM      4  N   UNL     1       0.187   0.489   0.030  1.00  0.00    -0.225 NA
ATOM      5  C   UNL     1      -1.054  -0.090  -0.100  1.00  0.00     0.125 A 
ATOM      6  C   UNL     1      -2.271   0.454  -0.547  1.00  0.00     0.159 A 
ATOM      7  F   UNL     1      -2.330   1.745  -0.915  1.00  0.00    -0.204 F 
ATOM      8  C   UNL     1      -3.433  -0.340  -0.592  1.00  0.00     0.026 A 
ATOM      9  C   UNL     1      -3.344  -1.681  -0.177  1.00  0.00     0.014 A 
ATOM     10  C   UNL     1      -2.142  -2.249   0.267  1.00  0.00     0.029 A 
ATOM     11  C   UNL     1      -1.012  -1.423   0.292  1.00  0.00     0.071 A 
ENDROOT
BRANCH   3  12
ATOM     12  C   UNL     1       2.402  -0.216   0.837  1.00  0.00     0.019 A 
ATOM     13  C   UNL     1       2.984  -0.670   2.025  1.00  0.00     0.012 A 
ATOM     14  C   UNL     1       3.191   0.513  -0.067  1.00  0.00     0.038 A 
ATOM     15  C   UNL     1       4.336  -0.439   2.279  1.00  0.00     0.003 A 
ATOM     16  C   UNL     1       4.548   0.756   0.182  1.00  0.00     0.043 A 
ATOM     17  C   UNL     1       5.117   0.263   1.357  1.00  0.00     0.026 A 
BRANCH  16  18
ATOM     18  N   UNL     1       5.260   1.488  -0.787  1.00  0.00    -0.308 N 
ATOM     19  C   UNL     1       6.559   1.915  -0.728  1.00  0.00     0.316 C 
ATOM     20  N   UNL     1       6.931   2.559  -1.873  1.00  0.00    -0.351 N 
ATOM     21  H   UNL     1       4.725   1.855  -1.561  1.00  0.00     0.171 HD
ATOM     22  O   UNL     1       7.364   1.789   0.183  1.00  0.00    -0.249 OA
ATOM     23  H   UNL     1       6.613   2.155  -2.741  1.00  0.00     0.161 HD
ATOM     24  H   UNL     1       7.918   2.791  -1.871  1.00  0.00     0.161 HD
ENDBRANCH  16  18
ENDBRANCH   3  12
BRANCH   8  25
ATOM     25  C   UNL     1      -4.711   0.219  -1.057  1.00  0.00     0.056 A 
ATOM     26  C   UNL     1      -5.842   0.252  -0.231  1.00  0.00     0.134 A 
ATOM     27  C   UNL     1      -4.855   0.745  -2.348  1.00  0.00     0.134 A 
ATOM     28  C   UNL     1      -7.057   0.788  -0.662  1.00  0.00     0.040 A 
ATOM     29  C   UNL     1      -6.063   1.285  -2.795  1.00  0.00     0.040 A 
ATOM     30  C   UNL     1      -7.169   1.309  -1.949  1.00  0.00     0.006 A 
ATOM     31  F   UNL     1      -5.779  -0.239   1.017  1.00  0.00    -0.206 F 
ATOM     32  F   UNL     1      -3.823   0.718  -3.206  1.00  0.00    -0.206 F 
ENDBRANCH   8  25
TORSDOF 3
