MODEL        3USER    Run = 3USERUSER    Estimated Free Energy of Binding    =  -9.05 kcal/mol  [=(1)+(2)+(3)-(4)]USERUSER    (1) Final Intermolecular Energy     = -10.55 kcal/molUSER        vdW + Hbond + desolv Energy     = -10.50 kcal/molUSER        Electrostatic Energy            =  -0.05 kcal/molUSER        Moving Ligand-Fixed Receptor    = -10.55 kcal/molUSER        Moving Ligand-Moving Receptor   =  +0.00 kcal/molUSER    (2) Final Total Internal Energy     =  -1.36 kcal/molUSER    (3) Torsional Free Energy           =  +1.49 kcal/molUSER    (4) Unbound System's Energy         =  -1.36 kcal/molUSERUSERREMARK SMILES O=S(=O)(Nc1ccc([C@H]2N=C(NC3CCOCC3)N=C3CN32)cc1)c1ccccc1REMARK SMILES IDX 5 1 6 2 7 3 8 4 23 5 24 6 4 7 2 9 1 10 3 11 25 12 26 13REMARK SMILES IDX 30 14 27 15 29 16 28 17 9 18 10 19 22 20 11 21 21 22 20 23REMARK SMILES IDX 12 24 19 25 13 27 14 28 18 29 15 30 17 31 16 32REMARK H PARENT 4 8 12 26USER                              x       y       z     vdW  Elec       q    TypeUSER                           _______ _______ _______ _____ _____    ______ ____ROOTATOM      1  C   UNL     1      14.987 -17.332 -11.929 -0.33 -0.01    +0.049 A  ATOM      2  C   UNL     1      15.553 -16.169 -12.455 -0.33 -0.01    +0.027 A  ATOM      3  C   UNL     1      16.435 -15.405 -11.683 -0.33 -0.00    +0.010 A  ATOM      4  C   UNL     1      16.803 -15.808 -10.387 -0.31 +0.00    -0.003 A  ATOM      5  C   UNL     1      16.254 -16.996  -9.885 -0.35 -0.00    +0.010 A  ATOM      6  C   UNL     1      15.361 -17.753 -10.650 -0.38 -0.00    +0.027 A  ENDROOTBRANCH   1   7ATOM      7  N   UNL     1      14.123 -18.177 -12.678 -0.19 +0.06    -0.280 N  ATOM      8  H   UNL     1      14.309 -19.178 -12.682 -0.47 -0.08    +0.180 HD BRANCH   7   9ATOM      9  S   UNL     1      12.490 -17.833 -12.906 -0.39 -0.04    +0.261 S  ATOM     10  O   UNL     1      11.769 -18.709 -12.005 -0.50 +0.02    -0.201 OA ATOM     11  O   UNL     1      12.190 -17.818 -14.321 -0.22 +0.02    -0.201 OA BRANCH   9  12ATOM     12  C   UNL     1      12.327 -16.177 -12.274 -0.24 -0.02    +0.087 A  ATOM     13  C   UNL     1      12.208 -15.112 -13.173 -0.22 -0.01    +0.022 A  ATOM     14  C   UNL     1      12.381 -15.946 -10.897 -0.39 -0.01    +0.022 A  ATOM     15  C   UNL     1      12.119 -13.807 -12.683 -0.28 -0.00    +0.001 A  ATOM     16  C   UNL     1      12.291 -14.639 -10.416 -0.28 -0.00    +0.001 A  ATOM     17  C   UNL     1      12.158 -13.571 -11.306 -0.32 -0.00    +0.000 A  ENDBRANCH   9  12ENDBRANCH   7   9ENDBRANCH   1   7BRANCH   4  18ATOM     18  C   UNL     1      17.789 -14.964  -9.583 -0.19 -0.02    +0.237 C  ATOM     19  N   UNL     1      17.180 -13.798  -8.890 -0.22 +0.04    -0.221 NA ATOM     20  N   UNL     1      18.664 -15.783  -8.747 -0.14 -0.01    -0.325 N  ATOM     21  C   UNL     1      16.990 -13.890  -7.611 -0.28 -0.04    +0.222 C  ATOM     22  C   UNL     1      18.304 -17.080  -7.862 -0.34 +0.02    +0.195 C  ATOM     23  C   UNL     1      18.025 -15.754  -7.589 -0.39 +0.01    +0.130 C  ATOM     24  N   UNL     1      16.467 -12.868  -6.875 -0.16 +0.09    -0.351 N  ATOM     25  N   UNL     1      17.248 -15.041  -6.913 -0.26 +0.01    -0.198 NA ATOM     26  H   UNL     1      16.597 -13.015  -5.880 +0.11 -0.03    +0.163 HD BRANCH  24  27ATOM     27  C   UNL     1      16.390 -11.493  -7.342 -0.46 -0.02    +0.086 C  ATOM     28  C   UNL     1      15.439 -11.392  -8.532 -0.49 -0.02    +0.053 C  ATOM     29  C   UNL     1      15.907 -10.581  -6.205 -0.59 -0.02    +0.053 C  ATOM     30  C   UNL     1      15.344  -9.948  -9.023 -0.54 -0.05    +0.162 C  ATOM     31  C   UNL     1      15.143  -9.368  -6.732 -0.52 -0.07    +0.162 C  ATOM     32  O   UNL     1      15.652  -8.989  -8.006 -0.50 +0.12    -0.381 OA ENDBRANCH  24  27ENDBRANCH   4  18TORSDOF 5TERENDMDL