MODEL        1USER    Run = 1USERUSER    Estimated Free Energy of Binding    = -10.07 kcal/mol  [=(1)+(2)+(3)-(4)]USERUSER    (1) Final Intermolecular Energy     = -12.46 kcal/molUSER        vdW + Hbond + desolv Energy     = -12.18 kcal/molUSER        Electrostatic Energy            =  -0.28 kcal/molUSER        Moving Ligand-Fixed Receptor    = -12.46 kcal/molUSER        Moving Ligand-Moving Receptor   =  +0.00 kcal/molUSER    (2) Final Total Internal Energy     =  -1.28 kcal/molUSER    (3) Torsional Free Energy           =  +2.39 kcal/molUSER    (4) Unbound System's Energy         =  -1.28 kcal/molUSERUSERREMARK SMILES CN1CCC(NC2=N[C@@H](c3ccc(C=Cc4nnc(NC(=O)C[C@@H]5CCCN5)o4)cc3)N3CC3=N2)CC1REMARK SMILES IDX 15 1 14 2 13 3 10 4 11 5 31 6 12 7 30 8 9 9 6 10 7 11 8 12REMARK SMILES IDX 35 13 34 14 32 15 33 16 5 18 2 19 3 20 37 21 4 22 36 23 1 24REMARK SMILES IDX 16 25 17 26 29 27 18 28 19 29 20 30 21 31 22 33 23 34 24 35REMARK SMILES IDX 25 36 28 37 26 38 27 39REMARK H PARENT 6 17 20 32 28 40USER                              x       y       z     vdW  Elec       q    TypeUSER                           _______ _______ _______ _____ _____    ______ ____ROOTATOM      1  C   UNL     1      10.107 -10.566 -13.122 -0.33 -0.06    +0.071 C  ENDROOTBRANCH   1   2ATOM      2  C   UNL     1       9.961 -11.852 -12.770 -0.43 -0.01    +0.014 C  BRANCH   2   3ATOM      3  C   UNL     1      11.084 -12.651 -12.274 -0.37 +0.01    -0.025 A  ATOM      4  C   UNL     1      13.286 -14.155 -11.344 -0.30 +0.00    -0.003 A  ATOM      5  C   UNL     1      13.474 -13.062 -12.206 -0.22 -0.00    +0.008 A  ATOM      6  C   UNL     1      11.976 -14.473 -10.944 -0.28 -0.00    +0.008 A  ATOM      7  C   UNL     1      12.386 -12.310 -12.657 -0.34 -0.00    +0.008 A  ATOM      8  C   UNL     1      10.886 -13.730 -11.406 -0.18 -0.00    +0.008 A  BRANCH   4   9ATOM      9  C   UNL     1      14.462 -15.009 -10.866 -0.20 -0.08    +0.237 C  ATOM     10  N   UNL     1      17.396 -13.505  -9.449 -0.10 +0.06    -0.352 N  ATOM     11  C   UNL     1      16.495 -14.114 -10.271 -0.29 -0.05    +0.222 C  ATOM     12  N   UNL     1      15.288 -14.329  -9.889 -0.19 +0.08    -0.221 NA ATOM     13  N   UNL     1      16.985 -14.434 -11.497 -0.35 +0.05    -0.198 NA ATOM     14  C   UNL     1      16.296 -14.922 -12.471 -0.41 -0.04    +0.130 C  ATOM     15  N   UNL     1      15.198 -15.649 -11.929 -0.11 +0.09    -0.325 N  ATOM     16  C   UNL     1      15.141 -15.340 -13.261 -0.31 -0.08    +0.195 C  ATOM     17  H   UNL     1      18.349 -13.603  -9.793 +0.15 -0.02    +0.163 HD BRANCH  10  18ATOM     18  C   UNL     1      17.299 -13.522  -7.996 -0.37 -0.01    +0.084 C  ATOM     19  N   UNL     1      16.130 -10.999  -8.034 -0.23 +0.08    -0.306 NA ATOM     20  C   UNL     1      15.423 -11.964  -7.197 -0.44 -0.04    +0.086 C  ATOM     21  C   UNL     1      17.577 -11.004  -7.765 -0.06 -0.01    +0.086 C  ATOM     22  C   UNL     1      15.822 -13.394  -7.582 -0.20 -0.02    +0.040 C  ATOM     23  C   UNL     1      18.125 -12.388  -7.387 -0.20 -0.00    +0.040 C  ATOM     24  C   UNL     1      15.580  -9.652  -7.897 -0.68 -0.03    +0.105 C  ENDBRANCH  10  18ENDBRANCH   4   9ENDBRANCH   2   3ENDBRANCH   1   2BRANCH   1  25ATOM     25  C   UNL     1       9.470  -9.518 -12.405 -0.37 -0.09    +0.242 A  ATOM     26  N   UNL     1       9.993  -8.843 -11.392 -1.06 +0.00    -0.107 NA ATOM     27  O   UNL     1       8.192  -9.059 -12.677 -0.24 +0.10    -0.404 OA ATOM     28  N   UNL     1       9.053  -7.932 -10.963 -0.96 -0.01    -0.090 NA ATOM     29  C   UNL     1       8.011  -8.082 -11.742 -0.19 -0.05    +0.322 A  BRANCH  29  30ATOM     30  N   UNL     1       6.804  -7.452 -11.794 -0.24 +0.04    -0.278 N  ATOM     31  C   UNL     1       5.667  -8.092 -12.228 -0.20 +0.02    +0.229 C  ATOM     32  H   UNL     1       6.789  -6.490 -11.496 +0.09 -0.05    +0.174 HD ATOM     33  O   UNL     1       5.613  -9.229 -12.686 -0.15 -0.09    -0.275 OA BRANCH  31  34ATOM     34  C   UNL     1       4.445  -7.188 -12.179 -0.17 +0.01    +0.119 C  BRANCH  34  35ATOM     35  C   UNL     1       3.454  -7.617 -11.099 -0.35 +0.01    +0.063 C  ATOM     36  C   UNL     1       3.944  -7.294  -9.692 -0.50 +0.00    +0.021 C  ATOM     37  N   UNL     1       3.283  -9.084 -11.029 -0.23 -0.11    -0.313 NA ATOM     38  C   UNL     1       3.154  -8.245  -8.802 -0.42 +0.00    +0.017 C  ATOM     39  C   UNL     1       2.604  -9.307  -9.745 -0.46 +0.02    +0.081 C  ATOM     40  H   UNL     1       4.199  -9.533 -10.981 -0.28 +0.02    +0.122 HD ENDBRANCH  34  35ENDBRANCH  31  34ENDBRANCH  29  30ENDBRANCH   1  25TORSDOF 8TERENDMDL