REMARK SMILES O=S(=O)(Nc1ccc([C@H]2N=C(NC3CCOCC3)N=C3CN32)cc1)c1ccccc1
REMARK SMILES IDX 5 1 6 2 7 3 8 4 23 5 24 6 4 7 2 9 1 10 3 11 25 12 26 13
REMARK SMILES IDX 30 14 27 15 29 16 28 17 9 18 10 19 22 20 11 21 21 22 20 23
REMARK SMILES IDX 12 24 19 25 13 27 14 28 18 29 15 30 17 31 16 32
REMARK H PARENT 4 8 12 26
ROOT
ATOM      1  C   UNL     1       2.747  -1.456  -1.083  1.00  0.00     0.049 A 
ATOM      2  C   UNL     1       2.729  -2.133   0.137  1.00  0.00     0.027 A 
ATOM      3  C   UNL     1       1.554  -2.184   0.896  1.00  0.00     0.010 A 
ATOM      4  C   UNL     1       0.364  -1.596   0.432  1.00  0.00    -0.003 A 
ATOM      5  C   UNL     1       0.388  -0.949  -0.812  1.00  0.00     0.010 A 
ATOM      6  C   UNL     1       1.565  -0.886  -1.564  1.00  0.00     0.027 A 
ENDROOT
BRANCH   1   7
ATOM      7  N   UNL     1       3.894  -1.409  -1.923  1.00  0.00    -0.280 N 
ATOM      8  H   UNL     1       3.781  -1.077  -2.879  1.00  0.00     0.180 HD
BRANCH   7   9
ATOM      9  S   UNL     1       5.443  -1.119  -1.329  1.00  0.00     0.261 S 
ATOM     10  O   UNL     1       6.264  -0.820  -2.485  1.00  0.00    -0.201 OA
ATOM     11  O   UNL     1       5.815  -2.173  -0.410  1.00  0.00    -0.201 OA
BRANCH   9  12
ATOM     12  C   UNL     1       5.254   0.394  -0.411  1.00  0.00     0.087 A 
ATOM     13  C   UNL     1       5.162   1.606  -1.104  1.00  0.00     0.022 A 
ATOM     14  C   UNL     1       5.261   0.370   0.986  1.00  0.00     0.022 A 
ATOM     15  C   UNL     1       5.052   2.800  -0.387  1.00  0.00     0.001 A 
ATOM     16  C   UNL     1       5.150   1.567   1.694  1.00  0.00     0.001 A 
ATOM     17  C   UNL     1       5.044   2.780   1.010  1.00  0.00     0.000 A 
ENDBRANCH   9  12
ENDBRANCH   7   9
ENDBRANCH   1   7
BRANCH   4  18
ATOM     18  C   UNL     1      -0.907  -1.694   1.273  1.00  0.00     0.237 C 
ATOM     19  N   UNL     1      -1.995  -0.771   0.854  1.00  0.00    -0.221 NA
ATOM     20  N   UNL     1      -1.327  -3.078   1.481  1.00  0.00    -0.325 N 
ATOM     21  C   UNL     1      -2.992  -1.274   0.197  1.00  0.00     0.222 C 
ATOM     22  C   UNL     1      -1.342  -4.305   0.438  1.00  0.00     0.195 C 
ATOM     23  C   UNL     1      -2.213  -3.234   0.511  1.00  0.00     0.130 C 
ATOM     24  N   UNL     1      -4.055  -0.522  -0.207  1.00  0.00    -0.351 N 
ATOM     25  N   UNL     1      -3.025  -2.588  -0.191  1.00  0.00    -0.198 NA
ATOM     26  H   UNL     1      -4.836  -1.099  -0.499  1.00  0.00     0.163 HD
BRANCH  24  27
ATOM     27  C   UNL     1      -4.361   0.796   0.326  1.00  0.00     0.086 C 
ATOM     28  C   UNL     1      -3.524   1.859  -0.380  1.00  0.00     0.053 C 
ATOM     29  C   UNL     1      -5.856   1.099   0.145  1.00  0.00     0.053 C 
ATOM     30  C   UNL     1      -3.847   3.249   0.167  1.00  0.00     0.162 C 
ATOM     31  C   UNL     1      -6.120   2.596  -0.006  1.00  0.00     0.162 C 
ATOM     32  O   UNL     1      -5.157   3.336   0.736  1.00  0.00    -0.381 OA
ENDBRANCH  24  27
ENDBRANCH   4  18
TORSDOF 5
