MODEL        1USER    Run = 1USERUSER    Estimated Free Energy of Binding    =  -8.07 kcal/mol  [=(1)+(2)+(3)-(4)]USERUSER    (1) Final Intermolecular Energy     = -10.46 kcal/molUSER        vdW + Hbond + desolv Energy     = -10.46 kcal/molUSER        Electrostatic Energy            =  -0.00 kcal/molUSER        Moving Ligand-Fixed Receptor    = -10.46 kcal/molUSER        Moving Ligand-Moving Receptor   =  +0.00 kcal/molUSER    (2) Final Total Internal Energy     =  -0.67 kcal/molUSER    (3) Torsional Free Energy           =  +2.39 kcal/molUSER    (4) Unbound System's Energy         =  -0.67 kcal/molUSERUSERREMARK SMILES C=Cc1cccc(C=Cc2nnc(NC(=O)CCN3CCNCC3)o2)c1REMARK SMILES IDX 10 1 11 2 12 3 13 4 25 5 9 6 8 7 7 8 3 9 4 10 26 11 5 12REMARK SMILES IDX 6 13 2 14 1 15 14 16 15 17 16 19 17 20 18 21 19 22 20 23REMARK SMILES IDX 24 24 21 25 23 26 22 27REMARK H PARENT 14 18 22 28USER                              x       y       z     vdW  Elec       q    TypeUSER                           _______ _______ _______ _____ _____    ______ ____ROOTATOM      1  C   UNL     1      15.872 -13.802 -11.128 -0.19 -0.07    +0.242 A  ATOM      2  N   UNL     1      14.578 -13.517 -11.203 -0.27 +0.04    -0.107 NA ATOM      3  N   UNL     1      14.065 -14.180 -12.298 -0.28 +0.03    -0.090 NA ATOM      4  C   UNL     1      15.069 -14.827 -12.839 -0.17 -0.12    +0.322 A  ATOM      5  O   UNL     1      16.236 -14.642 -12.165 -0.25 +0.12    -0.404 OA ENDROOTBRANCH   1   6ATOM      6  C   UNL     1      16.770 -13.334 -10.131 -0.40 -0.02    +0.071 C  BRANCH   6   7ATOM      7  C   UNL     1      16.897 -12.025  -9.866 -0.41 -0.00    +0.014 C  BRANCH   7   8ATOM      8  C   UNL     1      16.356 -11.338  -8.680 -0.45 +0.01    -0.025 A  ATOM      9  C   UNL     1      16.022 -11.106  -6.267 -0.52 +0.01    -0.026 A  ATOM     10  C   UNL     1      15.372  -9.885  -6.482 -0.63 -0.00    +0.008 A  ATOM     11  C   UNL     1      16.526 -11.816  -7.371 -0.43 -0.00    +0.016 A  ATOM     12  C   UNL     1      15.203  -9.393  -7.775 -0.70 -0.00    +0.001 A  ATOM     13  C   UNL     1      15.694 -10.115  -8.865 -0.61 -0.00    +0.008 A  BRANCH   9  14ATOM     14  C   UNL     1      16.211 -11.576  -4.889 -0.63 -0.00    +0.000 C  ATOM     15  C   UNL     1      17.236 -11.212  -4.109 -0.64 +0.00    +0.009 C  ENDBRANCH   9  14ENDBRANCH   7   8ENDBRANCH   6   7ENDBRANCH   1   6BRANCH   4  16ATOM     16  N   UNL     1      15.023 -15.619 -13.944 -0.22 +0.13    -0.278 N  ATOM     17  C   UNL     1      14.028 -16.533 -14.186 -0.24 -0.06    +0.229 C  ATOM     18  H   UNL     1      15.745 -15.466 -14.645 -0.49 -0.14    +0.174 HD ATOM     19  O   UNL     1      13.088 -16.804 -13.442 -0.13 +0.05    -0.275 OA BRANCH  17  20ATOM     20  C   UNL     1      14.222 -17.300 -15.483 -0.34 -0.01    +0.116 C  BRANCH  20  21ATOM     21  C   UNL     1      13.742 -16.533 -16.719 -0.41 +0.01    +0.094 C  BRANCH  21  22ATOM     22  N   UNL     1      12.346 -16.050 -16.596 -0.15 -0.01    -0.300 NA ATOM     23  C   UNL     1      12.170 -14.717 -17.222 -0.42 -0.01    +0.100 C  ATOM     24  C   UNL     1      11.424 -17.015 -17.242 -0.26 +0.02    +0.100 C  ATOM     25  C   UNL     1      10.697 -14.251 -17.231 -0.36 -0.05    +0.096 C  ATOM     26  C   UNL     1       9.959 -16.524 -17.249 -0.27 +0.01    +0.096 C  ATOM     27  N   UNL     1       9.798 -15.210 -17.889 -0.16 +0.02    -0.314 NA ATOM     28  H   UNL     1      10.078 -15.295 -18.866 -0.44 +0.04    +0.122 HD ENDBRANCH  21  22ENDBRANCH  20  21ENDBRANCH  17  20ENDBRANCH   4  16TORSDOF 8TERENDMDL