MODEL        1USER    Run = 1USERUSER    Estimated Free Energy of Binding    =  -8.45 kcal/mol  [=(1)+(2)+(3)-(4)]USERUSER    (1) Final Intermolecular Energy     = -10.24 kcal/molUSER        vdW + Hbond + desolv Energy     =  -9.79 kcal/molUSER        Electrostatic Energy            =  -0.46 kcal/molUSER        Moving Ligand-Fixed Receptor    = -10.24 kcal/molUSER        Moving Ligand-Moving Receptor   =  +0.00 kcal/molUSER    (2) Final Total Internal Energy     =  -1.25 kcal/molUSER    (3) Torsional Free Energy           =  +1.79 kcal/molUSER    (4) Unbound System's Energy         =  -1.25 kcal/molUSERUSERREMARK SMILES COc1ccc(S(=O)(=O)Nc2ccc([C@@H]3N=C(NC4CCN(C)CC4)N=C4CN43)cc2)cc1REMARK SMILES IDX 10 1 7 3 8 4 9 5 6 6 3 7 4 8 33 9 5 10 32 11 2 12 1 13 11 14REMARK SMILES IDX 12 15 31 16 13 17 30 18 14 19 15 20 16 21 29 22 17 23 28 24REMARK SMILES IDX 27 25 18 26 26 27 19 29 20 30 25 31 21 32 24 33 22 34 23 35REMARK H PARENT 10 2 18 28USER                              x       y       z     vdW  Elec       q    TypeUSER                           _______ _______ _______ _____ _____    ______ ____ROOTATOM      1  N   UNL     1      12.817 -14.817 -14.900 -0.13 +0.12    -0.280 N  ATOM      2  H   UNL     1      13.614 -14.255 -15.184 -0.41 -0.15    +0.180 HD ENDROOTBRANCH   1   3ATOM      3  S   UNL     1      12.735 -15.067 -13.249 -0.21 -0.08    +0.261 S  ATOM      4  O   UNL     1      14.103 -15.011 -12.773 -0.23 +0.07    -0.201 OA ATOM      5  O   UNL     1      11.898 -16.217 -12.973 -0.20 +0.02    -0.201 OA BRANCH   3   6ATOM      6  C   UNL     1      11.912 -13.613 -12.638 -0.24 -0.03    +0.088 A  ATOM      7  C   UNL     1      10.619 -11.350 -11.622 -0.44 -0.04    +0.118 A  ATOM      8  C   UNL     1       9.927 -12.261 -12.428 -0.36 -0.01    +0.048 A  ATOM      9  C   UNL     1      11.961 -11.585 -11.317 -0.39 -0.03    +0.048 A  ATOM     10  C   UNL     1      10.564 -13.400 -12.926 -0.29 -0.01    +0.026 A  ATOM     11  C   UNL     1      12.610 -12.718 -11.822 -0.32 -0.01    +0.026 A  BRANCH   7  12ATOM     12  O   UNL     1       9.876 -10.284 -11.199 -0.53 -0.01    -0.497 OA ATOM     13  C   UNL     1       9.859  -9.142 -12.035 -0.45 -0.08    +0.278 C  ENDBRANCH   7  12ENDBRANCH   3   6ENDBRANCH   1   3BRANCH   1  14ATOM     14  C   UNL     1      11.782 -15.075 -15.842 -0.26 -0.01    +0.049 A  ATOM     15  C   UNL     1      10.885 -14.033 -16.083 -0.25 -0.02    +0.027 A  ATOM     16  C   UNL     1      11.663 -16.250 -16.587 -0.27 +0.00    +0.027 A  ATOM     17  C   UNL     1       9.862 -14.171 -17.027 -0.27 -0.01    +0.010 A  ATOM     18  C   UNL     1      10.628 -16.401 -17.517 -0.22 +0.00    +0.010 A  ATOM     19  C   UNL     1       9.716 -15.362 -17.757 -0.29 +0.00    -0.003 A  BRANCH  19  20ATOM     20  C   UNL     1       8.571 -15.551 -18.751 -0.15 +0.01    +0.237 C  ATOM     21  N   UNL     1       7.391 -14.772 -18.369 -0.17 +0.00    -0.221 NA ATOM     22  N   UNL     1       8.389 -16.969 -19.024 -0.17 -0.06    -0.325 N  ATOM     23  C   UNL     1       6.229 -15.309 -18.511 -0.28 +0.05    +0.222 C  ATOM     24  C   UNL     1       7.879 -17.860 -18.012 -0.15 +0.02    +0.195 C  ATOM     25  C   UNL     1       7.076 -17.287 -19.085 -0.34 +0.03    +0.130 C  ATOM     26  N   UNL     1       5.080 -14.627 -18.221 -0.15 -0.11    -0.352 N  ATOM     27  N   UNL     1       6.023 -16.579 -18.968 -0.26 -0.07    -0.198 NA ATOM     28  H   UNL     1       4.279 -15.105 -18.614 +0.01 +0.07    +0.163 HD BRANCH  26  29ATOM     29  C   UNL     1       5.005 -13.176 -18.282 -0.32 +0.02    +0.084 C  ATOM     30  C   UNL     1       3.563 -12.718 -18.061 -0.41 +0.02    +0.040 C  ATOM     31  C   UNL     1       5.964 -12.575 -17.250 -0.26 +0.00    +0.040 C  ATOM     32  C   UNL     1       3.523 -11.356 -17.391 -0.26 +0.08    +0.086 C  ATOM     33  C   UNL     1       5.258 -12.293 -15.927 -0.28 +0.04    +0.086 C  ATOM     34  N   UNL     1       4.093 -11.411 -16.046 -0.68 -0.39    -0.306 NA ATOM     35  C   UNL     1       4.346 -10.075 -15.535 -0.16 +0.11    +0.105 C  ENDBRANCH  26  29ENDBRANCH  19  20ENDBRANCH   1  14TORSDOF 6TERENDMDL