MODEL        5USER    Run = 5USERUSER    Estimated Free Energy of Binding    =  -9.28 kcal/mol  [=(1)+(2)+(3)-(4)]USERUSER    (1) Final Intermolecular Energy     = -10.77 kcal/molUSER        vdW + Hbond + desolv Energy     = -10.65 kcal/molUSER        Electrostatic Energy            =  -0.12 kcal/molUSER        Moving Ligand-Fixed Receptor    = -10.77 kcal/molUSER        Moving Ligand-Moving Receptor   =  +0.00 kcal/molUSER    (2) Final Total Internal Energy     =  -1.84 kcal/molUSER    (3) Torsional Free Energy           =  +1.49 kcal/molUSER    (4) Unbound System's Energy         =  -1.84 kcal/molUSERUSERREMARK SMILES O=S(=O)(Nc1ccc([C@@H]2N=C(NC3CCNCC3)N=C3CN32)cc1)c1ccccc1REMARK SMILES IDX 5 1 6 2 7 3 8 4 23 5 24 6 4 7 2 9 1 10 3 11 25 12 26 13REMARK SMILES IDX 30 14 27 15 29 16 28 17 9 18 10 19 22 20 11 21 21 22 20 23REMARK SMILES IDX 12 24 19 25 13 27 14 28 18 29 15 30 17 31 16 32REMARK H PARENT 4 8 12 26 16 33USER                              x       y       z     vdW  Elec       q    TypeUSER                           _______ _______ _______ _____ _____    ______ ____ROOTATOM      1  C   UNL     1      13.861 -17.903 -14.094 -0.32 -0.01    +0.049 A  ATOM      2  C   UNL     1      14.354 -16.609 -13.953 -0.34 -0.01    +0.027 A  ATOM      3  C   UNL     1      13.911 -15.806 -12.900 -0.27 -0.00    +0.010 A  ATOM      4  C   UNL     1      12.968 -16.288 -11.975 -0.31 +0.00    -0.003 A  ATOM      5  C   UNL     1      12.476 -17.595 -12.139 -0.43 -0.00    +0.010 A  ATOM      6  C   UNL     1      12.917 -18.396 -13.195 -0.34 -0.01    +0.027 A  ENDROOTBRANCH   1   7ATOM      7  N   UNL     1      14.265 -18.702 -15.198 -0.17 +0.04    -0.280 N  ATOM      8  H   UNL     1      14.408 -19.696 -15.026 -0.46 -0.09    +0.180 HD BRANCH   7   9ATOM      9  S   UNL     1      13.468 -18.470 -16.673 -0.43 +0.04    +0.261 S  ATOM     10  O   UNL     1      12.567 -19.576 -16.917 -0.31 -0.01    -0.201 OA ATOM     11  O   UNL     1      14.497 -18.121 -17.631 -1.04 -0.12    -0.201 OA BRANCH   9  12ATOM     12  C   UNL     1      12.513 -17.004 -16.373 -0.26 +0.01    +0.087 A  ATOM     13  C   UNL     1      13.035 -15.761 -16.744 -0.33 +0.00    +0.022 A  ATOM     14  C   UNL     1      11.242 -17.105 -15.801 -0.22 +0.00    +0.022 A  ATOM     15  C   UNL     1      12.284 -14.608 -16.519 -0.43 -0.00    +0.001 A  ATOM     16  C   UNL     1      10.497 -15.946 -15.579 -0.21 -0.00    +0.001 A  ATOM     17  C   UNL     1      11.019 -14.701 -15.936 -0.27 -0.00    +0.000 A  ENDBRANCH   9  12ENDBRANCH   7   9ENDBRANCH   1   7BRANCH   4  18ATOM     18  C   UNL     1      12.463 -15.377 -10.855 -0.26 -0.10    +0.237 C  ATOM     19  N   UNL     1      11.778 -14.194 -11.342 -0.26 +0.10    -0.221 NA ATOM     20  N   UNL     1      13.440 -15.077  -9.839 -0.20 +0.19    -0.325 N  ATOM     21  C   UNL     1      12.432 -13.103 -11.146 -0.19 -0.16    +0.222 C  ATOM     22  C   UNL     1      14.774 -15.389  -9.817 -0.26 -0.06    +0.195 C  ATOM     23  C   UNL     1      14.356 -14.051 -10.193 -0.31 -0.07    +0.130 C  ATOM     24  N   UNL     1      11.906 -11.891 -11.487 -0.21 +0.20    -0.352 N  ATOM     25  N   UNL     1      13.696 -13.040 -10.644 -0.23 +0.13    -0.198 NA ATOM     26  H   UNL     1      12.446 -11.127 -11.097 -0.00 -0.09    +0.163 HD BRANCH  24  27ATOM     27  C   UNL     1      10.480 -11.651 -11.652 -0.52 -0.03    +0.084 C  ATOM     28  C   UNL     1      10.129 -10.191 -11.332 -0.49 -0.00    +0.040 C  ATOM     29  C   UNL     1      10.078 -12.044 -13.080 -0.37 -0.02    +0.040 C  ATOM     30  C   UNL     1       9.957  -9.366 -12.602 -0.53 -0.04    +0.083 C  ATOM     31  C   UNL     1       8.792 -11.340 -13.491 -0.03 -0.05    +0.083 C  ATOM     32  N   UNL     1       8.890  -9.881 -13.460 -0.14 +0.25    -0.317 NA ATOM     33  H   UNL     1       9.006  -9.512 -14.403 -0.50 -0.20    +0.122 HD ENDBRANCH  24  27ENDBRANCH   4  18TORSDOF 5TERENDMDL