REMARK SMILES C=Cc1ccc(OC)c(C=C2C=C(C=Cc3nnc(NC(=O)C[C@H]4CCCN4)o3)O2)c1
REMARK SMILES IDX 14 1 13 2 11 3 12 4 30 5 10 6 9 7 3 8 4 9 31 10 5 11 6 12
REMARK SMILES IDX 2 13 1 14 7 15 8 16 15 17 16 18 17 19 29 20 18 21 19 22
REMARK SMILES IDX 20 23 21 24 22 26 23 27 24 28 25 29 28 30 26 31 27 32
REMARK H PARENT 20 25 28 33
ROOT
ATOM      1  C   UNL     1       0.144  -0.371  -0.423  1.00  0.00     0.053 C 
ENDROOT
BRANCH   1   2
ATOM      2  C   UNL     1       1.583  -0.057   0.072  1.00  0.00     0.131 C 
ATOM      3  C   UNL     1       3.238   0.348   0.791  1.00  0.00     0.131 C 
ATOM      4  C   UNL     1       2.793  -0.040  -0.498  1.00  0.00     0.094 C 
ATOM      5  O   UNL     1       2.028   0.292   1.226  1.00  0.00    -0.457 OA
BRANCH   3   6
ATOM      6  C   UNL     1       4.420   0.642   1.348  1.00  0.00     0.059 C 
BRANCH   6   7
ATOM      7  C   UNL     1       5.734   0.643   0.686  1.00  0.00     0.021 A 
ATOM      8  C   UNL     1       8.002  -0.268   0.655  1.00  0.00    -0.025 A 
ATOM      9  C   UNL     1       8.281   0.526  -0.460  1.00  0.00     0.012 A 
ATOM     10  C   UNL     1       6.720  -0.209   1.214  1.00  0.00     0.020 A 
ATOM     11  C   UNL     1       7.313   1.389  -0.989  1.00  0.00     0.047 A 
ATOM     12  C   UNL     1       6.039   1.462  -0.419  1.00  0.00     0.126 A 
BRANCH   8  13
ATOM     13  C   UNL     1       9.043  -1.174   1.160  1.00  0.00     0.000 C 
ATOM     14  C   UNL     1       9.206  -1.503   2.448  1.00  0.00     0.009 C 
ENDBRANCH   8  13
BRANCH  12  15
ATOM     15  O   UNL     1       5.044   2.298  -0.857  1.00  0.00    -0.496 OA
ATOM     16  C   UNL     1       5.339   3.168  -1.941  1.00  0.00     0.278 C 
ENDBRANCH  12  15
ENDBRANCH   6   7
ENDBRANCH   3   6
ENDBRANCH   1   2
BRANCH   1  17
ATOM     17  C   UNL     1      -0.139  -0.724  -1.684  1.00  0.00     0.074 C 
BRANCH  17  18
ATOM     18  C   UNL     1      -1.467  -1.004  -2.100  1.00  0.00     0.242 A 
ATOM     19  N   UNL     1      -1.841  -1.357  -3.322  1.00  0.00    -0.107 NA
ATOM     20  O   UNL     1      -2.568  -0.942  -1.265  1.00  0.00    -0.404 OA
ATOM     21  N   UNL     1      -3.208  -1.536  -3.309  1.00  0.00    -0.090 NA
ATOM     22  C   UNL     1      -3.597  -1.283  -2.083  1.00  0.00     0.322 A 
BRANCH  22  23
ATOM     23  N   UNL     1      -4.878  -1.337  -1.619  1.00  0.00    -0.278 N 
ATOM     24  C   UNL     1      -5.221  -1.060  -0.315  1.00  0.00     0.229 C 
ATOM     25  H   UNL     1      -5.571  -1.601  -2.303  1.00  0.00     0.174 HD
ATOM     26  O   UNL     1      -4.450  -0.745   0.583  1.00  0.00    -0.275 OA
BRANCH  24  27
ATOM     27  C   UNL     1      -6.720  -1.203  -0.093  1.00  0.00     0.119 C 
BRANCH  27  28
ATOM     28  C   UNL     1      -7.145  -0.822   1.332  1.00  0.00     0.063 C 
ATOM     29  C   UNL     1      -7.122   0.680   1.596  1.00  0.00     0.021 C 
ATOM     30  N   UNL     1      -8.557  -1.147   1.591  1.00  0.00    -0.313 NA
ATOM     31  C   UNL     1      -8.480   1.182   1.127  1.00  0.00     0.017 C 
ATOM     32  C   UNL     1      -9.363  -0.055   1.054  1.00  0.00     0.081 C 
ATOM     33  H   UNL     1      -8.830  -2.044   1.197  1.00  0.00     0.122 HD
ENDBRANCH  27  28
ENDBRANCH  24  27
ENDBRANCH  22  23
ENDBRANCH  17  18
ENDBRANCH   1  17
TORSDOF 10
