REMARK SMILES Cn1c(-c2ccncc2)nc2cc(C(=O)c3ccc(F)cc3O)ccc21
REMARK SMILES IDX 16 1 17 2 18 3 19 4 20 5 21 6 22 7 14 8 15 9 13 10 2 11 3 12
REMARK SMILES IDX 26 13 10 14 25 15 11 16 24 17 12 18 1 19 4 20 5 21 9 22 6 23
REMARK SMILES IDX 8 24 7 25 23 26
REMARK H PARENT 23 27
ROOT
ATOM      1  C   UNL     1       3.982  -0.073  -0.562  1.00  0.00     0.064 A 
ATOM      2  C   UNL     1       3.692  -0.930   0.510  1.00  0.00     0.019 A 
ATOM      3  C   UNL     1       4.626  -1.107   1.536  1.00  0.00     0.040 A 
ATOM      4  C   UNL     1       5.847  -0.441   1.481  1.00  0.00     0.126 A 
ATOM      5  F   UNL     1       6.734  -0.617   2.468  1.00  0.00    -0.207 F 
ATOM      6  C   UNL     1       6.162   0.391   0.415  1.00  0.00     0.086 A 
ATOM      7  C   UNL     1       5.235   0.563  -0.609  1.00  0.00     0.129 A 
ENDROOT
BRANCH   1   8
ATOM      8  C   UNL     1       3.012   0.143  -1.669  1.00  0.00     0.196 C 
ATOM      9  O   UNL     1       3.445   0.480  -2.771  1.00  0.00    -0.288 OA
BRANCH   8  10
ATOM     10  C   UNL     1       1.550  -0.016  -1.494  1.00  0.00     0.025 A 
ATOM     11  N   UNL     1      -2.496  -0.292  -0.846  1.00  0.00    -0.327 N 
ATOM     12  C   UNL     1      -2.529   0.246   0.427  1.00  0.00     0.140 A 
ATOM     13  C   UNL     1      -1.187  -0.314  -1.276  1.00  0.00     0.068 A 
ATOM     14  N   UNL     1      -1.319   0.636   0.785  1.00  0.00    -0.228 NA
ATOM     15  C   UNL     1      -0.568  -0.766  -2.447  1.00  0.00     0.029 A 
ATOM     16  C   UNL     1      -0.481   0.284  -0.238  1.00  0.00     0.090 A 
ATOM     17  C   UNL     1       0.819  -0.600  -2.537  1.00  0.00     0.014 A 
ATOM     18  C   UNL     1       0.906   0.455  -0.341  1.00  0.00     0.042 A 
ATOM     19  C   UNL     1      -3.635  -0.701  -1.634  1.00  0.00     0.152 C 
BRANCH  12  20
ATOM     20  C   UNL     1      -3.723   0.412   1.258  1.00  0.00     0.020 A 
ATOM     21  C   UNL     1      -4.607  -0.641   1.499  1.00  0.00     0.032 A 
ATOM     22  C   UNL     1      -3.968   1.646   1.863  1.00  0.00     0.032 A 
ATOM     23  C   UNL     1      -5.710  -0.404   2.303  1.00  0.00     0.111 A 
ATOM     24  C   UNL     1      -5.099   1.784   2.649  1.00  0.00     0.111 A 
ATOM     25  N   UNL     1      -5.982   0.788   2.872  1.00  0.00    -0.265 NA
ENDBRANCH  12  20
ENDBRANCH   8  10
ENDBRANCH   1   8
BRANCH   7  26
ATOM     26  O   UNL     1       5.619   1.373  -1.646  1.00  0.00    -0.507 OA
ATOM     27  H   UNL     1       4.962   1.265  -2.371  1.00  0.00     0.293 HD
ENDBRANCH   7  26
TORSDOF 4
