MODEL        2USER    Run = 2USERUSER    Estimated Free Energy of Binding    = -10.32 kcal/mol  [=(1)+(2)+(3)-(4)]USERUSER    (1) Final Intermolecular Energy     = -12.71 kcal/molUSER        vdW + Hbond + desolv Energy     = -12.57 kcal/molUSER        Electrostatic Energy            =  -0.14 kcal/molUSER        Moving Ligand-Fixed Receptor    = -12.71 kcal/molUSER        Moving Ligand-Moving Receptor   =  +0.00 kcal/molUSER    (2) Final Total Internal Energy     =  -0.93 kcal/molUSER    (3) Torsional Free Energy           =  +2.39 kcal/molUSER    (4) Unbound System's Energy         =  -0.93 kcal/molUSERUSERREMARK SMILES O=C(O)CCC[C@@H]1Cc2cc(-c3cccc(-c4ccncc4)c3F)ccc2C[C@@H]1OREMARK SMILES IDX 5 1 4 2 2 3 1 4 3 5 6 7 7 8 8 9 29 10 9 11 28 12 10 13 27 14REMARK SMILES IDX 11 15 26 16 25 17 30 18 12 20 13 21 23 22 14 23 16 24 15 25REMARK SMILES IDX 24 26 17 27 18 28 22 29 19 30 21 31 20 32REMARK H PARENT 3 6 30 19USER                              x       y       z     vdW  Elec       q    TypeUSER                           _______ _______ _______ _____ _____    ______ ____ROOTATOM      1  C   UNL     1      37.323  43.606  23.279 -0.40 +0.00    +0.012 C  ENDROOTBRANCH   1   2ATOM      2  C   UNL     1      37.215  43.822  24.788 -0.31 +0.01    +0.122 C  BRANCH   2   3ATOM      3  C   UNL     1      37.806  45.133  25.233 -0.18 +0.01    +0.303 C  ATOM      4  O   UNL     1      38.946  45.341  25.611 -0.10 -0.00    -0.252 OA BRANCH   3   5ATOM      5  O   UNL     1      36.921  46.145  25.135 -0.72 -0.10    -0.481 OA ATOM      6  H   UNL     1      36.164  45.849  25.684 -0.42 -0.05    +0.296 HD ENDBRANCH   3   5ENDBRANCH   2   3ENDBRANCH   1   2BRANCH   1   7ATOM      7  C   UNL     1      38.676  43.068  22.791 -0.35 +0.00    +0.007 C  BRANCH   7   8ATOM      8  C   UNL     1      39.669  44.121  22.253 -0.30 +0.00    +0.022 C  ATOM      9  C   UNL     1      39.361  44.386  20.765 -0.35 +0.00    +0.042 C  ATOM     10  C   UNL     1      41.143  43.713  22.409 -0.26 +0.01    +0.122 C  ATOM     11  C   UNL     1      40.361  45.302  20.102 -0.37 -0.00    -0.044 A  ATOM     12  C   UNL     1      42.077  44.831  21.918 -0.27 +0.01    +0.067 C  ATOM     13  C   UNL     1      40.009  45.941  18.899 -0.43 -0.00    +0.012 A  ATOM     14  C   UNL     1      41.649  45.480  20.624 -0.32 -0.01    -0.042 A  ATOM     15  C   UNL     1      40.903  46.783  18.215 -0.50 +0.00    -0.015 A  ATOM     16  C   UNL     1      42.547  46.323  19.957 -0.33 +0.00    +0.005 A  ATOM     17  C   UNL     1      42.177  46.963  18.771 -0.54 +0.00    +0.009 A  BRANCH  10  18ATOM     18  O   UNL     1      41.379  42.490  21.710 -0.19 +0.00    -0.392 OA ATOM     19  H   UNL     1      42.251  42.149  21.972 -0.39 -0.03    +0.210 HD ENDBRANCH  10  18BRANCH  15  20ATOM     20  C   UNL     1      40.509  47.462  16.967 -0.51 -0.00    +0.018 A  ATOM     21  C   UNL     1      41.138  48.655  16.572 -0.50 -0.00    +0.012 A  ATOM     22  C   UNL     1      39.504  46.946  16.126 -0.37 -0.03    +0.138 A  ATOM     23  C   UNL     1      40.777  49.302  15.391 -0.65 -0.00    +0.001 A  ATOM     24  C   UNL     1      39.117  47.579  14.928 -0.49 -0.01    +0.018 A  ATOM     25  C   UNL     1      39.776  48.769  14.577 -0.47 -0.00    +0.012 A  ATOM     26  F   UNL     1      38.875  45.813  16.487 -0.08 +0.05    -0.206 F  BRANCH  24  27ATOM     27  C   UNL     1      38.063  47.021  14.061 -0.47 +0.00    -0.012 A  ATOM     28  C   UNL     1      37.958  45.643  13.837 -0.38 -0.01    +0.029 A  ATOM     29  C   UNL     1      37.129  47.851  13.427 -0.56 -0.01    +0.029 A  ATOM     30  C   UNL     1      36.955  45.166  13.008 -0.42 -0.04    +0.111 A  ATOM     31  C   UNL     1      36.160  47.281  12.615 -0.57 -0.06    +0.111 A  ATOM     32  N   UNL     1      36.055  45.956  12.388 -0.37 +0.12    -0.265 NA ENDBRANCH  24  27ENDBRANCH  15  20ENDBRANCH   7   8ENDBRANCH   1   7TORSDOF 8TERENDMDL