MODEL        6USER    Run = 6USERUSER    Estimated Free Energy of Binding    =  -8.64 kcal/mol  [=(1)+(2)+(3)-(4)]USERUSER    (1) Final Intermolecular Energy     =  -9.83 kcal/molUSER        vdW + Hbond + desolv Energy     =  -9.58 kcal/molUSER        Electrostatic Energy            =  -0.26 kcal/molUSER        Moving Ligand-Fixed Receptor    =  -9.83 kcal/molUSER        Moving Ligand-Moving Receptor   =  +0.00 kcal/molUSER    (2) Final Total Internal Energy     =  -1.03 kcal/molUSER    (3) Torsional Free Energy           =  +1.19 kcal/molUSER    (4) Unbound System's Energy         =  -1.03 kcal/molUSERUSERREMARK SMILES Cn1c(-c2ccncc2)nc2cc(C(=O)c3ccc(F)cc3O)ccc21REMARK SMILES IDX 16 1 17 2 18 3 19 4 20 5 21 6 22 7 14 8 15 9 13 10 2 11 3 12REMARK SMILES IDX 26 13 10 14 25 15 11 16 24 17 12 18 1 19 4 20 5 21 9 22 6 23REMARK SMILES IDX 8 24 7 25 23 26REMARK H PARENT 23 27USER                              x       y       z     vdW  Elec       q    TypeUSER                           _______ _______ _______ _____ _____    ______ ____ROOTATOM      1  C   UNL     1      43.109  46.504  22.082 -0.26 +0.02    +0.064 A  ATOM      2  C   UNL     1      43.076  45.175  22.528 -0.19 +0.00    +0.019 A  ATOM      3  C   UNL     1      43.047  44.898  23.899 -0.08 +0.00    +0.040 A  ATOM      4  C   UNL     1      43.065  45.945  24.816 -0.03 +0.01    +0.126 A  ATOM      5  F   UNL     1      43.038  45.669  26.125 +0.01 -0.01    -0.207 F  ATOM      6  C   UNL     1      43.124  47.266  24.393 -0.13 +0.01    +0.086 A  ATOM      7  C   UNL     1      43.158  47.542  23.029 -0.24 +0.03    +0.129 A  ENDROOTBRANCH   1   8ATOM      8  C   UNL     1      43.136  46.838  20.633 -0.31 +0.07    +0.196 C  ATOM      9  O   UNL     1      44.148  47.364  20.171 -0.41 -0.18    -0.288 OA BRANCH   8  10ATOM     10  C   UNL     1      41.991  46.576  19.730 -0.43 +0.00    +0.025 A  ATOM     11  N   UNL     1      38.927  45.971  17.063 -0.19 +0.08    -0.327 N  ATOM     12  C   UNL     1      39.179  47.043  16.227 -0.35 -0.04    +0.140 A  ATOM     13  C   UNL     1      39.858  45.983  18.079 -0.41 -0.01    +0.068 A  ATOM     14  N   UNL     1      40.268  47.678  16.621 -0.35 +0.05    -0.228 NA ATOM     15  C   UNL     1      40.066  45.172  19.201 -0.41 -0.00    +0.029 A  ATOM     16  C   UNL     1      40.687  47.054  17.765 -0.45 -0.01    +0.090 A  ATOM     17  C   UNL     1      41.156  45.489  20.020 -0.39 +0.00    +0.014 A  ATOM     18  C   UNL     1      41.781  47.358  18.585 -0.49 -0.00    +0.042 A  ATOM     19  C   UNL     1      37.911  44.961  16.880 -0.30 -0.04    +0.152 C  BRANCH  12  20ATOM     20  C   UNL     1      38.397  47.412  15.046 -0.46 -0.01    +0.020 A  ATOM     21  C   UNL     1      37.677  48.606  14.981 -0.51 -0.02    +0.032 A  ATOM     22  C   UNL     1      38.400  46.569  13.933 -0.41 -0.01    +0.032 A  ATOM     23  C   UNL     1      36.968  48.886  13.824 -0.37 -0.07    +0.111 A  ATOM     24  C   UNL     1      37.659  46.937  12.823 -0.43 -0.03    +0.111 A  ATOM     25  N   UNL     1      36.933  48.072  12.750 -0.94 +0.08    -0.265 NA ENDBRANCH  12  20ENDBRANCH   8  10ENDBRANCH   1   8BRANCH   7  26ATOM     26  O   UNL     1      43.245  48.865  22.679 -0.65 -0.13    -0.507 OA ATOM     27  H   UNL     1      43.633  48.911  21.776 -0.42 -0.05    +0.293 HD ENDBRANCH   7  26TORSDOF 4TERENDMDL