REMARK SMILES COc1ccc(O)c(C(=O)c2ccc(C(=O)N[C@@H]3CCCNC[C@@H]3NC(=O)c3ccncc3)cc2F)c1F
REMARK SMILES IDX 15 1 16 2 17 3 14 5 11 6 12 7 35 8 13 9 34 10 36 11 9 12
REMARK SMILES IDX 10 13 8 14 3 15 4 16 37 17 5 18 6 19 38 20 2 21 1 22 7 23
REMARK SMILES IDX 18 25 19 26 24 28 23 29 22 30 21 32 20 33 25 35 26 36 27 38
REMARK SMILES IDX 28 39 29 40 33 41 30 42 32 43 31 44
REMARK H PARENT 17 4 7 24 22 31 25 37
REMARK Flexibility Score:   88.900
ROOT
ATOM      1  C   UNL     1      -0.295   2.152   0.620  1.00  0.00     0.251 C 
ATOM      2  O   UNL     1      -0.152   3.366   0.708  1.00  0.00    -0.269 OA
ATOM      3  N   UNL     1      -1.402   1.561   0.049  1.00  0.00    -0.347 N 
ATOM      4  H   UNL     1      -1.355   0.590  -0.236  1.00  0.00     0.164 HD
ENDROOT
BRANCH   1   5
ATOM      5  C   UNL     1       0.773   1.241   1.121  1.00  0.00     0.042 A 
ATOM      6  C   UNL     1       2.843  -0.381   2.074  1.00  0.00     0.059 A 
ATOM      7  C   UNL     1       3.098   0.963   1.788  1.00  0.00     0.016 A 
ATOM      8  C   UNL     1       1.561  -0.901   1.908  1.00  0.00     0.135 A 
ATOM      9  C   UNL     1       2.061   1.769   1.310  1.00  0.00     0.015 A 
ATOM     10  C   UNL     1       0.524  -0.100   1.435  1.00  0.00     0.053 A 
ATOM     11  F   UNL     1       1.300  -2.187   2.183  1.00  0.00    -0.206 F 
BRANCH   6  12
ATOM     12  C   UNL     1       3.907  -1.244   2.603  1.00  0.00     0.202 C 
ATOM     13  O   UNL     1       3.784  -1.688   3.745  1.00  0.00    -0.288 OA
BRANCH  12  14
ATOM     14  C   UNL     1       5.144  -1.540   1.839  1.00  0.00     0.104 A 
ATOM     15  C   UNL     1       6.404  -1.636  -0.252  1.00  0.00     0.155 A 
ATOM     16  C   UNL     1       7.526  -2.087   0.446  1.00  0.00     0.053 A 
ATOM     17  C   UNL     1       5.220  -1.371   0.454  1.00  0.00     0.179 A 
ATOM     18  C   UNL     1       7.457  -2.281   1.828  1.00  0.00     0.051 A 
ATOM     19  C   UNL     1       6.274  -2.018   2.515  1.00  0.00     0.130 A 
ATOM     20  F   UNL     1       4.144  -0.964  -0.240  1.00  0.00    -0.202 F 
BRANCH  15  21
ATOM     21  O   UNL     1       6.347  -1.419  -1.603  1.00  0.00    -0.494 OA
ATOM     22  C   UNL     1       7.513  -1.713  -2.359  1.00  0.00     0.278 C 
ENDBRANCH  15  21
BRANCH  19  23
ATOM     23  O   UNL     1       6.299  -2.251   3.866  1.00  0.00    -0.507 OA
ATOM     24  H   UNL     1       5.380  -2.161   4.208  1.00  0.00     0.293 HD
ENDBRANCH  19  23
ENDBRANCH  12  14
ENDBRANCH   6  12
ENDBRANCH   1   5
BRANCH   3  25
ATOM     25  C   UNL     1      -2.467   2.354  -0.587  1.00  0.00     0.106 C 
BRANCH  25  26
ATOM     26  C   UNL     1      -3.334   3.054   0.474  1.00  0.00     0.028 CG0
ATOM     27  G   UNL     1      -4.300   4.132  -0.045  1.00  0.00     0.000 G0
ENDBRANCH  25  26
BRANCH  25  28
ATOM     28  C   UNL     1      -3.292   1.454  -1.546  1.00  0.00     0.118 C 
BRANCH  28  29
ATOM     29  C   UNL     1      -4.655   2.045  -1.973  1.00  0.00     0.108 C 
BRANCH  29  30
ATOM     30  N   UNL     1      -4.677   3.418  -2.455  1.00  0.00    -0.315 NA
ATOM     31  H   UNL     1      -4.206   3.501  -3.357  1.00  0.00     0.122 HD
BRANCH  30  32
ATOM     32  C   UNL     1      -4.221   4.456  -1.539  1.00  0.00     0.081 C 
BRANCH  32  33
ATOM     33  C   UNL     1      -4.300   4.132  -0.045  1.00  0.00     0.017 CG0
ATOM     34  G   UNL     1      -3.334   3.054   0.474  1.00  0.00     0.000 G0
ENDBRANCH  32  33
ENDBRANCH  30  32
ENDBRANCH  29  30
ENDBRANCH  28  29
BRANCH  28  35
ATOM     35  N   UNL     1      -3.496   0.118  -0.942  1.00  0.00    -0.346 N 
ATOM     36  C   UNL     1      -3.717  -0.991  -1.734  1.00  0.00     0.251 C 
ATOM     37  H   UNL     1      -3.871   0.112  -0.002  1.00  0.00     0.164 HD
ATOM     38  O   UNL     1      -3.613  -0.975  -2.954  1.00  0.00    -0.269 OA
BRANCH  36  39
ATOM     39  C   UNL     1      -4.136  -2.235  -1.035  1.00  0.00     0.042 A 
ATOM     40  C   UNL     1      -4.873  -3.176  -1.754  1.00  0.00     0.034 A 
ATOM     41  C   UNL     1      -3.799  -2.491   0.295  1.00  0.00     0.034 A 
ATOM     42  C   UNL     1      -5.265  -4.330  -1.103  1.00  0.00     0.112 A 
ATOM     43  C   UNL     1      -4.238  -3.678   0.854  1.00  0.00     0.112 A 
ATOM     44  N   UNL     1      -4.969  -4.596   0.187  1.00  0.00    -0.265 NA
ENDBRANCH  36  39
ENDBRANCH  28  35
ENDBRANCH  25  28
ENDBRANCH   3  25
TORSDOF 8
