REMARK SMILES Cc1ccc(-c2nc(-c3ccc(CNCC(=O)N[C@H](C)C(F)F)cc3F)cnc2O)cc1C
REMARK SMILES IDX 14 1 13 3 12 4 9 5 10 6 25 7 11 8 24 9 26 10 8 11 6 12 7 13
REMARK SMILES IDX 29 14 28 15 27 16 5 17 2 18 3 19 32 20 4 21 31 22 1 23 33 24
REMARK SMILES IDX 30 25 15 27 16 28 18 29 17 30 19 32 20 33 21 34 22 35 23 36
REMARK H PARENT 14 2 30 26 18 31
ROOT
ATOM      1  N   UNL     1       4.183   1.652   1.068  1.00  0.00    -0.304 NA
ATOM      2  H   UNL     1       3.914   0.855   1.653  1.00  0.00     0.123 HD
ENDROOT
BRANCH   1   3
ATOM      3  C   UNL     1       3.346   1.622  -0.132  1.00  0.00     0.117 C 
BRANCH   3   4
ATOM      4  C   UNL     1       1.887   1.695   0.247  1.00  0.00    -0.031 A 
ATOM      5  C   UNL     1      -0.853   1.829   1.025  1.00  0.00     0.038 A 
ATOM      6  C   UNL     1      -0.249   0.611   0.654  1.00  0.00     0.014 A 
ATOM      7  C   UNL     1      -0.039   2.971   0.986  1.00  0.00     0.132 A 
ATOM      8  C   UNL     1       1.098   0.541   0.278  1.00  0.00     0.006 A 
ATOM      9  C   UNL     1       1.305   2.913   0.611  1.00  0.00     0.045 A 
ATOM     10  F   UNL     1      -0.540   4.176   1.300  1.00  0.00    -0.206 F 
BRANCH   5  11
ATOM     11  C   UNL     1      -2.271   1.870   1.428  1.00  0.00     0.092 A 
ATOM     12  C   UNL     1      -4.381   0.873   1.264  1.00  0.00     0.133 A 
ATOM     13  N   UNL     1      -3.064   0.893   0.906  1.00  0.00    -0.240 NA
ATOM     14  C   UNL     1      -4.870   1.847   2.138  1.00  0.00     0.238 A 
ATOM     15  N   UNL     1      -4.117   2.824   2.679  1.00  0.00    -0.218 NA
ATOM     16  C   UNL     1      -2.812   2.807   2.307  1.00  0.00     0.144 A 
BRANCH  12  17
ATOM     17  C   UNL     1      -5.180  -0.216   0.664  1.00  0.00     0.006 A 
ATOM     18  C   UNL     1      -6.667  -2.332  -0.535  1.00  0.00    -0.048 A 
ATOM     19  C   UNL     1      -6.955  -1.892   0.763  1.00  0.00     0.004 A 
ATOM     20  C   UNL     1      -5.625  -1.714  -1.248  1.00  0.00    -0.048 A 
ATOM     21  C   UNL     1      -6.222  -0.855   1.351  1.00  0.00     0.011 A 
ATOM     22  C   UNL     1      -4.897  -0.674  -0.638  1.00  0.00     0.014 A 
ATOM     23  C   UNL     1      -7.478  -3.447  -1.134  1.00  0.00     0.044 C 
ATOM     24  C   UNL     1      -5.264  -2.143  -2.643  1.00  0.00     0.044 C 
ENDBRANCH  12  17
BRANCH  14  25
ATOM     25  O   UNL     1      -6.167   1.936   2.523  1.00  0.00    -0.492 OA
ATOM     26  H   UNL     1      -6.118   2.734   3.080  1.00  0.00     0.295 HD
ENDBRANCH  14  25
ENDBRANCH   5  11
ENDBRANCH   3   4
ENDBRANCH   1   3
BRANCH   1  27
ATOM     27  C   UNL     1       5.609   1.484   0.739  1.00  0.00     0.182 C 
BRANCH  27  28
ATOM     28  C   UNL     1       5.910   0.041   0.311  1.00  0.00     0.234 C 
ATOM     29  N   UNL     1       6.945  -0.078  -0.596  1.00  0.00    -0.347 N 
ATOM     30  O   UNL     1       5.289  -0.925   0.752  1.00  0.00    -0.274 OA
ATOM     31  H   UNL     1       7.222   0.759  -1.095  1.00  0.00     0.164 HD
BRANCH  29  32
ATOM     32  C   UNL     1       7.180  -1.355  -1.282  1.00  0.00     0.145 C 
ATOM     33  C   UNL     1       8.664  -1.485  -1.615  1.00  0.00     0.037 C 
BRANCH  32  34
ATOM     34  C   UNL     1       6.328  -1.489  -2.557  1.00  0.00     0.364 C 
ATOM     35  F   UNL     1       5.009  -1.339  -2.279  1.00  0.00    -0.208 F 
ATOM     36  F   UNL     1       6.650  -0.487  -3.422  1.00  0.00    -0.208 F 
ENDBRANCH  32  34
ENDBRANCH  29  32
ENDBRANCH  27  28
ENDBRANCH   1  27
TORSDOF 9
