MODEL        4USER    Run = 4USERUSER    Estimated Free Energy of Binding    =  -8.79 kcal/mol  [=(1)+(2)+(3)-(4)]USERUSER    (1) Final Intermolecular Energy     = -11.47 kcal/molUSER        vdW + Hbond + desolv Energy     = -11.07 kcal/molUSER        Electrostatic Energy            =  -0.40 kcal/molUSER        Moving Ligand-Fixed Receptor    = -11.47 kcal/molUSER        Moving Ligand-Moving Receptor   =  +0.00 kcal/molUSER    (2) Final Total Internal Energy     =  -2.03 kcal/molUSER    (3) Torsional Free Energy           =  +2.68 kcal/molUSER    (4) Unbound System's Energy         =  -2.03 kcal/molUSERUSERREMARK SMILES Cc1ccc(-c2nc(-c3ccc(CNCC(=O)N[C@H](C)C(F)F)cc3F)cnc2O)cc1CREMARK SMILES IDX 14 1 13 3 12 4 9 5 10 6 25 7 11 8 24 9 26 10 8 11 6 12 7 13REMARK SMILES IDX 29 14 28 15 27 16 5 17 2 18 3 19 32 20 4 21 31 22 1 23 33 24REMARK SMILES IDX 30 25 15 27 16 28 18 29 17 30 19 32 20 33 21 34 22 35 23 36REMARK H PARENT 14 2 30 26 18 31USER                              x       y       z     vdW  Elec       q    TypeUSER                           _______ _______ _______ _____ _____    ______ ____ROOTATOM      1  N   UNL     1      37.154  47.723  12.688 -0.92 +0.08    -0.304 NA ATOM      2  H   UNL     1      37.670  46.893  12.995 +0.09 -0.03    +0.123 HD ENDROOTBRANCH   1   3ATOM      3  C   UNL     1      37.454  48.804  13.627 -0.23 -0.05    +0.117 C  BRANCH   3   4ATOM      4  C   UNL     1      38.168  48.259  14.840 -0.51 +0.02    -0.031 A  ATOM      5  C   UNL     1      39.540  47.183  17.095 -0.42 -0.01    +0.038 A  ATOM      6  C   UNL     1      38.192  46.868  16.831 -0.35 -0.01    +0.014 A  ATOM      7  C   UNL     1      40.169  48.056  16.195 -0.44 -0.03    +0.132 A  ATOM      8  C   UNL     1      37.518  47.390  15.721 -0.43 -0.00    +0.006 A  ATOM      9  C   UNL     1      39.505  48.584  15.085 -0.50 -0.02    +0.045 A  ATOM     10  F   UNL     1      41.445  48.428  16.385 -0.17 +0.01    -0.206 F  BRANCH   5  11ATOM     11  C   UNL     1      40.229  46.608  18.266 -0.40 -0.01    +0.092 A  ATOM     12  C   UNL     1      40.068  45.223  20.144 -0.30 +0.00    +0.133 A  ATOM     13  N   UNL     1      39.473  45.797  19.058 -0.27 +0.02    -0.240 NA ATOM     14  C   UNL     1      41.414  45.487  20.410 -0.22 +0.03    +0.238 A  ATOM     15  N   UNL     1      42.194  46.277  19.648 -0.29 -0.04    -0.218 NA ATOM     16  C   UNL     1      41.571  46.823  18.573 -0.42 -0.00    +0.144 A  BRANCH  12  17ATOM     17  C   UNL     1      39.191  44.352  20.956 -0.32 +0.00    +0.006 A  ATOM     18  C   UNL     1      37.471  42.649  22.461 -0.39 -0.00    -0.048 A  ATOM     19  C   UNL     1      38.699  43.078  22.981 -0.30 +0.00    +0.004 A  ATOM     20  C   UNL     1      37.092  43.070  21.175 -0.38 -0.00    -0.048 A  ATOM     21  C   UNL     1      39.543  43.912  22.239 -0.26 +0.00    +0.011 A  ATOM     22  C   UNL     1      37.957  43.907  20.443 -0.32 -0.00    +0.014 A  ATOM     23  C   UNL     1      36.590  41.756  23.289 -0.52 +0.00    +0.044 C  ATOM     24  C   UNL     1      35.790  42.642  20.559 -0.50 +0.00    +0.044 C  ENDBRANCH  12  17BRANCH  14  25ATOM     25  O   UNL     1      42.084  44.997  21.482 -0.06 -0.09    -0.492 OA ATOM     26  H   UNL     1      41.934  44.043  21.347 +0.15 +0.04    +0.295 HD ENDBRANCH  14  25ENDBRANCH   5  11ENDBRANCH   3   4ENDBRANCH   1   3BRANCH   1  27ATOM     27  C   UNL     1      35.723  47.371  12.705 -0.48 -0.11    +0.182 C  BRANCH  27  28ATOM     28  C   UNL     1      35.458  46.188  13.647 -0.33 -0.15    +0.234 C  ATOM     29  N   UNL     1      34.230  46.231  14.279 -0.16 +0.35    -0.347 N  ATOM     30  O   UNL     1      36.266  45.276  13.810 -0.28 +0.12    -0.274 OA ATOM     31  H   UNL     1      33.747  47.121  14.294 -0.23 -0.26    +0.164 HD BRANCH  29  32ATOM     32  C   UNL     1      33.941  45.312  15.388 -0.27 -0.12    +0.145 C  ATOM     33  C   UNL     1      32.431  45.233  15.599 -0.40 -0.03    +0.037 C  BRANCH  32  34ATOM     34  C   UNL     1      34.645  45.740  16.688 -0.12 -0.33    +0.364 C  ATOM     35  F   UNL     1      33.845  45.538  17.764 -0.08 +0.13    -0.208 F  ATOM     36  F   UNL     1      35.745  44.960  16.882 -0.03 +0.10    -0.208 F  ENDBRANCH  32  34ENDBRANCH  29  32ENDBRANCH  27  28ENDBRANCH   1  27TORSDOF 9TERENDMDL