MODEL        9USER    Run = 9USERUSER    Estimated Free Energy of Binding    =  -7.90 kcal/mol  [=(1)+(2)+(3)-(4)]USERUSER    (1) Final Intermolecular Energy     = -12.07 kcal/molUSER        vdW + Hbond + desolv Energy     = -12.84 kcal/molUSER        Electrostatic Energy            =  -0.05 kcal/molUSER        Moving Ligand-Fixed Receptor    = -12.88 kcal/molUSER        Moving Ligand-Moving Receptor   =  +0.81 kcal/molUSER    (2) Final Total Internal Energy     =  -2.96 kcal/molUSER    (3) Torsional Free Energy           =  +4.18 kcal/molUSER    (4) Unbound System's Energy         =  -2.96 kcal/molUSERUSERREMARK SMILES COc1ccc(O)c(C(=O)c2ccc(C(=O)N[C@@H]3CCCNC[C@@H]3NC(=O)c3ccncc3)cc2F)c1FREMARK SMILES IDX 15 1 16 2 17 3 14 5 11 6 12 7 35 8 13 9 34 10 36 11 9 12REMARK SMILES IDX 10 13 8 14 3 15 4 16 37 17 5 18 6 19 38 20 2 21 1 22 7 23REMARK SMILES IDX 18 25 19 26 24 28 23 29 22 30 21 32 20 33 25 35 26 36 27 38REMARK SMILES IDX 28 39 29 40 33 41 30 42 32 43 31 44REMARK H PARENT 17 4 7 24 22 31 25 37REMARK Flexibility Score:   88.900USER                              x       y       z     vdW  Elec       q    TypeUSER                           _______ _______ _______ _____ _____    ______ ____ROOTATOM      1  C   UNL     1      35.499  44.656  16.710 -0.20 -0.12    +0.251 C  ATOM      2  O   UNL     1      34.332  45.022  16.621 -0.18 +0.17    -0.269 OA ATOM      3  N   UNL     1      36.386  44.700  15.656 -0.13 +0.15    -0.347 N  ATOM      4  H   UNL     1      37.381  44.642  15.842 +0.11 -0.05    +0.164 HD ENDROOTBRANCH   1   5ATOM      5  C   UNL     1      36.023  44.159  18.013 -0.29 -0.01    +0.042 A  ATOM      6  C   UNL     1      36.917  43.161  20.469 -0.36 -0.00    +0.059 A  ATOM      7  C   UNL     1      35.620  42.868  20.038 -0.44 -0.00    +0.016 A  ATOM      8  C   UNL     1      37.764  43.924  19.669 -0.22 -0.01    +0.135 A  ATOM      9  C   UNL     1      35.177  43.371  18.812 -0.36 -0.00    +0.015 A  ATOM     10  C   UNL     1      37.328  44.424  18.444 -0.31 -0.01    +0.053 A  ATOM     11  F   UNL     1      39.013  44.210  20.066 -0.07 +0.00    -0.206 F  BRANCH   6  12ATOM     12  C   UNL     1      37.418  42.624  21.741 -0.33 +0.01    +0.202 C  ATOM     13  O   UNL     1      37.898  41.490  21.746 -0.17 -0.02    -0.288 OA BRANCH  12  14ATOM     14  C   UNL     1      37.303  43.369  23.019 -0.31 +0.01    +0.104 A  ATOM     15  C   UNL     1      37.659  45.369  24.377 -0.15 +0.02    +0.155 A  ATOM     16  C   UNL     1      37.029  44.746  25.456 -0.31 +0.00    +0.053 A  ATOM     17  C   UNL     1      37.793  44.669  23.167 -0.22 +0.02    +0.179 A  ATOM     18  C   UNL     1      36.553  43.439  25.328 -0.34 +0.00    +0.051 A  ATOM     19  C   UNL     1      36.697  42.755  24.123 -0.28 +0.01    +0.130 A  ATOM     20  F   UNL     1      38.426  45.276  22.149 -0.11 -0.02    -0.202 F  BRANCH  15  21ATOM     21  O   UNL     1      38.173  46.638  24.385 -0.40 -0.09    -0.494 OA ATOM     22  C   UNL     1      37.743  47.508  25.423 -0.26 +0.02    +0.278 C  ENDBRANCH  15  21BRANCH  19  23ATOM     23  O   UNL     1      36.212  41.473  24.097 -0.18 +0.04    -0.507 OA ATOM     24  H   UNL     1      36.764  40.950  23.472 +0.18 -0.00    +0.293 HD ENDBRANCH  19  23ENDBRANCH  12  14ENDBRANCH   6  12ENDBRANCH   1   5BRANCH   3  25ATOM     25  C   UNL     1      36.021  45.281  14.353 -0.35 -0.05    +0.106 C  BRANCH  25  26ATOM     26  C   UNL     1      36.828  44.627  13.218 -0.39 -0.01    +0.028 CG0ATOM     27  G   UNL     1      36.549  45.152  11.800 +0.00 +0.00    +0.000 G0 ENDBRANCH  25  26BRANCH  25  28ATOM     28  C   UNL     1      36.183  46.824  14.401 -0.41 -0.09    +0.118 C  BRANCH  28  29ATOM     29  C   UNL     1      35.828  47.551  13.085 -0.50 -0.07    +0.108 C  BRANCH  29  30ATOM     30  N   UNL     1      36.866  47.660  12.070 -0.93 +0.10    -0.315 NA ATOM     31  H   UNL     1      36.647  48.394  11.395 -0.34 -0.05    +0.122 HD BRANCH  30  32ATOM     32  C   UNL     1      37.265  46.436  11.388 -0.46 -0.02    +0.081 C  BRANCH  32  33ATOM     33  C   UNL     1      36.540  45.154  11.804 -0.55 -0.01    +0.017 CG0ATOM     34  G   UNL     1      36.831  44.632  13.221 +0.00 +0.00    +0.000 G0 ENDBRANCH  32  33ENDBRANCH  30  32ENDBRANCH  29  30ENDBRANCH  28  29BRANCH  28  35ATOM     35  N   UNL     1      37.561  47.179  14.811 -0.16 +0.18    -0.346 N  ATOM     36  C   UNL     1      37.927  47.178  16.142 -0.28 -0.13    +0.251 C  ATOM     37  H   UNL     1      38.063  47.792  14.181 +0.12 -0.07    +0.164 HD ATOM     38  O   UNL     1      37.206  46.751  17.035 -0.22 +0.15    -0.269 OA BRANCH  36  39ATOM     39  C   UNL     1      39.253  47.766  16.468 -0.42 -0.02    +0.042 A  ATOM     40  C   UNL     1      39.668  48.888  15.751 -0.52 -0.01    +0.034 A  ATOM     41  C   UNL     1      40.073  47.245  17.470 -0.43 -0.01    +0.034 A  ATOM     42  C   UNL     1      40.902  49.432  16.052 -0.49 -0.02    +0.112 A  ATOM     43  C   UNL     1      41.289  47.864  17.696 -0.39 -0.01    +0.112 A  ATOM     44  N   UNL     1      41.723  48.939  17.004 -0.78 -0.03    -0.265 NA ENDBRANCH  36  39ENDBRANCH  28  35ENDBRANCH  25  28ENDBRANCH   3  25TORSDOF 8TERENDMDL