MODEL        6USER    Run = 6USERUSER    Estimated Free Energy of Binding    = -11.82 kcal/mol  [=(1)+(2)+(3)-(4)]USERUSER    (1) Final Intermolecular Energy     = -13.91 kcal/molUSER        vdW + Hbond + desolv Energy     = -13.77 kcal/molUSER        Electrostatic Energy            =  -0.14 kcal/molUSER        Moving Ligand-Fixed Receptor    = -13.91 kcal/molUSER        Moving Ligand-Moving Receptor   =  +0.00 kcal/molUSER    (2) Final Total Internal Energy     =  -1.62 kcal/molUSER    (3) Torsional Free Energy           =  +2.09 kcal/molUSER    (4) Unbound System's Energy         =  -1.62 kcal/molUSERUSERREMARK SMILES COc1cc(-c2nc3ccccc3nc2-c2ccncc2)ccc1CN1CCC(n2c(O)nc3ccccc32)CC1REMARK SMILES IDX 26 1 27 2 28 3 29 4 40 5 41 6 25 7 24 8 3 9 4 10 5 11 23 12REMARK SMILES IDX 22 13 2 14 1 15 6 16 7 17 15 18 8 19 14 20 9 21 13 22 10 23REMARK SMILES IDX 12 24 11 25 16 26 17 27 21 28 18 29 20 30 19 31 30 32 31 33REMARK SMILES IDX 39 34 33 35 38 36 34 37 37 38 35 39 36 40 32 41REMARK H PARENT 32 42USER                              x       y       z     vdW  Elec       q    TypeUSER                           _______ _______ _______ _____ _____    ______ ____ROOTATOM      1  N   UNL     1      39.641  44.030  19.774 -0.07 +0.00    -0.299 NA ATOM      2  C   UNL     1      40.417  44.029  18.535 -0.24 +0.00    +0.087 C  ATOM      3  C   UNL     1      40.920  45.412  18.128 -0.49 -0.00    +0.041 C  ATOM      4  C   UNL     1      39.796  46.465  18.162 -0.43 -0.01    +0.095 C  ATOM      5  C   UNL     1      38.434  45.862  18.529 -0.34 -0.01    +0.041 C  ATOM      6  C   UNL     1      38.570  45.036  19.810 -0.36 -0.00    +0.087 C  ENDROOTBRANCH   1   7ATOM      7  C   UNL     1      40.443  44.063  21.012 -0.25 +0.01    +0.124 C  BRANCH   7   8ATOM      8  C   UNL     1      39.690  44.550  22.235 -0.26 +0.00    +0.008 A  ATOM      9  C   UNL     1      38.680  43.778  22.832 -0.22 +0.01    +0.124 A  ATOM     10  C   UNL     1      38.007  44.262  23.962 -0.27 +0.00    +0.057 A  ATOM     11  C   UNL     1      38.330  45.507  24.534 -0.27 +0.00    +0.006 A  ATOM     12  C   UNL     1      40.022  45.790  22.805 -0.26 +0.00    +0.009 A  ATOM     13  C   UNL     1      39.362  46.253  23.944 -0.26 +0.00    +0.011 A  BRANCH   9  14ATOM     14  O   UNL     1      38.365  42.590  22.221 -0.07 -0.03    -0.496 OA ATOM     15  C   UNL     1      37.093  42.047  22.555 -0.36 +0.02    +0.278 C  ENDBRANCH   9  14BRANCH  11  16ATOM     16  C   UNL     1      37.607  45.982  25.728 -0.27 +0.00    +0.097 A  ATOM     17  N   UNL     1      37.345  47.319  25.710 -0.53 -0.01    -0.244 NA ATOM     18  C   UNL     1      37.186  45.176  26.797 -0.29 -0.01    +0.097 A  ATOM     19  C   UNL     1      36.639  47.831  26.732 -0.31 -0.01    +0.089 A  ATOM     20  N   UNL     1      36.457  45.698  27.824 -0.25 +0.06    -0.244 NA ATOM     21  C   UNL     1      36.344  49.187  26.749 -0.37 -0.00    +0.030 A  ATOM     22  C   UNL     1      36.186  47.015  27.792 -0.14 -0.03    +0.089 A  ATOM     23  C   UNL     1      35.609  49.759  27.791 -0.23 +0.00    +0.002 A  ATOM     24  C   UNL     1      35.454  47.593  28.823 -0.38 -0.01    +0.030 A  ATOM     25  C   UNL     1      35.162  48.957  28.832 -0.31 -0.00    +0.002 A  BRANCH  18  26ATOM     26  C   UNL     1      37.484  43.740  26.955 -0.32 -0.00    +0.005 A  ATOM     27  C   UNL     1      38.788  43.311  27.238 -0.24 -0.00    +0.030 A  ATOM     28  C   UNL     1      36.500  42.753  26.802 -0.40 -0.01    +0.030 A  ATOM     29  C   UNL     1      39.040  41.956  27.385 -0.28 -0.01    +0.111 A  ATOM     30  C   UNL     1      36.847  41.422  26.972 -0.41 -0.03    +0.111 A  ATOM     31  N   UNL     1      38.094  41.002  27.270 -0.28 +0.03    -0.265 NA ENDBRANCH  18  26ENDBRANCH  11  16ENDBRANCH   7   8ENDBRANCH   1   7BRANCH   4  32ATOM     32  N   UNL     1      39.734  47.288  16.959 -0.28 +0.07    -0.291 N  ATOM     33  C   UNL     1      40.708  48.163  16.532 -0.30 -0.05    +0.295 A  ATOM     34  C   UNL     1      38.739  47.292  16.002 -0.39 -0.03    +0.072 A  ATOM     35  N   UNL     1      40.445  48.663  15.354 -0.43 +0.05    -0.195 NA ATOM     36  C   UNL     1      37.501  46.644  15.883 -0.37 -0.02    +0.029 A  ATOM     37  C   UNL     1      39.224  48.146  15.010 -0.46 -0.04    +0.092 A  ATOM     38  C   UNL     1      36.753  46.885  14.723 -0.42 -0.00    +0.002 A  ATOM     39  C   UNL     1      38.464  48.370  13.852 -0.42 -0.01    +0.031 A  ATOM     40  C   UNL     1      37.226  47.733  13.720 -0.56 -0.00    +0.002 A  BRANCH  33  41ATOM     41  O   UNL     1      41.807  48.482  17.199 -0.62 -0.03    -0.480 OA ATOM     42  H   UNL     1      42.414  47.731  17.145 -0.35 -0.05    +0.296 HD ENDBRANCH  33  41ENDBRANCH   4  32TORSDOF 7TERENDMDL