REMARK SMILES COc1cc(-c2nc3ccccc3nc2-c2ccncc2)ccc1CN1CCC(n2c(O)nc3ccccc32)CC1
REMARK SMILES IDX 26 1 27 2 28 3 29 4 40 5 41 6 25 7 24 8 3 9 4 10 5 11 23 12
REMARK SMILES IDX 22 13 2 14 1 15 6 16 7 17 15 18 8 19 14 20 9 21 13 22 10 23
REMARK SMILES IDX 12 24 11 25 16 26 17 27 21 28 18 29 20 30 19 31 30 32 31 33
REMARK SMILES IDX 39 34 33 35 38 36 34 37 37 38 35 39 36 40 32 41
REMARK H PARENT 32 42
ROOT
ATOM      1  N   UNL     1      -2.115   1.126  -1.187  1.00  0.00    -0.299 NA
ATOM      2  C   UNL     1      -2.411   0.403   0.049  1.00  0.00     0.087 C 
ATOM      3  C   UNL     1      -3.343  -0.790  -0.150  1.00  0.00     0.041 C 
ATOM      4  C   UNL     1      -4.592  -0.413  -0.969  1.00  0.00     0.095 C 
ATOM      5  C   UNL     1      -4.633   1.077  -1.330  1.00  0.00     0.041 C 
ATOM      6  C   UNL     1      -3.304   1.484  -1.972  1.00  0.00     0.087 C 
ENDROOT
BRANCH   1   7
ATOM      7  C   UNL     1      -1.082   0.507  -2.039  1.00  0.00     0.124 C 
BRANCH   7   8
ATOM      8  C   UNL     1       0.294   0.435  -1.405  1.00  0.00     0.008 A 
ATOM      9  C   UNL     1       1.135   1.558  -1.345  1.00  0.00     0.124 A 
ATOM     10  C   UNL     1       2.399   1.452  -0.750  1.00  0.00     0.057 A 
ATOM     11  C   UNL     1       2.849   0.243  -0.188  1.00  0.00     0.006 A 
ATOM     12  C   UNL     1       0.734  -0.773  -0.840  1.00  0.00     0.009 A 
ATOM     13  C   UNL     1       1.986  -0.862  -0.229  1.00  0.00     0.011 A 
BRANCH   9  14
ATOM     14  O   UNL     1       0.678   2.707  -1.940  1.00  0.00    -0.496 OA
ATOM     15  C   UNL     1       1.132   3.923  -1.356  1.00  0.00     0.278 C 
ENDBRANCH   9  14
BRANCH  11  16
ATOM     16  C   UNL     1       4.183   0.169   0.437  1.00  0.00     0.097 A 
ATOM     17  N   UNL     1       4.407   1.145   1.361  1.00  0.00    -0.244 NA
ATOM     18  C   UNL     1       5.157  -0.804   0.160  1.00  0.00     0.097 A 
ATOM     19  C   UNL     1       5.576   1.122   2.023  1.00  0.00     0.089 A 
ATOM     20  N   UNL     1       6.335  -0.831   0.846  1.00  0.00    -0.244 NA
ATOM     21  C   UNL     1       5.841   2.094   2.978  1.00  0.00     0.030 A 
ATOM     22  C   UNL     1       6.543   0.125   1.769  1.00  0.00     0.089 A 
ATOM     23  C   UNL     1       7.042   2.104   3.691  1.00  0.00     0.002 A 
ATOM     24  C   UNL     1       7.734   0.142   2.486  1.00  0.00     0.030 A 
ATOM     25  C   UNL     1       7.992   1.123   3.444  1.00  0.00     0.002 A 
BRANCH  18  26
ATOM     26  C   UNL     1       5.050  -1.852  -0.872  1.00  0.00     0.005 A 
ATOM     27  C   UNL     1       5.345  -3.187  -0.563  1.00  0.00     0.030 A 
ATOM     28  C   UNL     1       4.684  -1.562  -2.194  1.00  0.00     0.030 A 
ATOM     29  C   UNL     1       5.232  -4.153  -1.551  1.00  0.00     0.111 A 
ATOM     30  C   UNL     1       4.595  -2.597  -3.112  1.00  0.00     0.111 A 
ATOM     31  N   UNL     1       4.851  -3.888  -2.817  1.00  0.00    -0.265 NA
ENDBRANCH  18  26
ENDBRANCH  11  16
ENDBRANCH   7   8
ENDBRANCH   1   7
BRANCH   4  32
ATOM     32  N   UNL     1      -5.840  -0.876  -0.373  1.00  0.00    -0.291 N 
ATOM     33  C   UNL     1      -6.714  -1.780  -0.935  1.00  0.00     0.295 A 
ATOM     34  C   UNL     1      -6.335  -0.558   0.877  1.00  0.00     0.072 A 
ATOM     35  N   UNL     1      -7.679  -2.112  -0.119  1.00  0.00    -0.195 NA
ATOM     36  C   UNL     1      -5.917   0.309   1.897  1.00  0.00     0.029 A 
ATOM     37  C   UNL     1      -7.471  -1.359   1.006  1.00  0.00     0.092 A 
ATOM     38  C   UNL     1      -6.687   0.349   3.067  1.00  0.00     0.002 A 
ATOM     39  C   UNL     1      -8.226  -1.310   2.188  1.00  0.00     0.031 A 
ATOM     40  C   UNL     1      -7.823  -0.448   3.214  1.00  0.00     0.002 A 
BRANCH  33  41
ATOM     41  O   UNL     1      -6.621  -2.289  -2.154  1.00  0.00    -0.480 OA
ATOM     42  H   UNL     1      -6.311  -1.589  -2.744  1.00  0.00     0.296 HD
ENDBRANCH  33  41
ENDBRANCH   4  32
TORSDOF 7
