REMARK SMILES Cn1cncc1-c1cccc(-c2ccnc(NC(=O)c3cc(C(C)(C)C)nn3C)c2)n1
REMARK SMILES IDX 12 1 13 2 14 3 15 4 16 5 30 6 11 7 7 8 8 9 31 10 9 11 10 12
REMARK SMILES IDX 6 13 2 14 3 15 4 16 5 17 1 18 17 19 18 20 19 22 20 23 21 24
REMARK SMILES IDX 28 25 22 26 27 27 29 28 23 29 24 30 25 31 26 32
REMARK H PARENT 17 21
ROOT
ATOM      1  C   UNL     1       2.606   2.037   1.775  1.00  0.00     0.005 A 
ATOM      2  C   UNL     1       2.508   3.394   2.096  1.00  0.00     0.030 A 
ATOM      3  C   UNL     1       1.338   4.073   1.796  1.00  0.00     0.114 A 
ATOM      4  N   UNL     1       0.270   3.505   1.200  1.00  0.00    -0.239 NA
ATOM      5  C   UNL     1       0.362   2.199   0.880  1.00  0.00     0.133 A 
ATOM      6  C   UNL     1       1.494   1.446   1.150  1.00  0.00     0.057 A 
ENDROOT
BRANCH   1   7
ATOM      7  C   UNL     1       3.819   1.239   2.052  1.00  0.00     0.071 A 
ATOM      8  C   UNL     1       5.130  -0.573   1.385  1.00  0.00     0.089 A 
ATOM      9  C   UNL     1       6.030  -0.359   2.420  1.00  0.00     0.031 A 
ATOM     10  N   UNL     1       4.043   0.207   1.197  1.00  0.00    -0.246 NA
ATOM     11  C   UNL     1       5.797   0.691   3.299  1.00  0.00     0.005 A 
ATOM     12  C   UNL     1       4.679   1.500   3.116  1.00  0.00     0.029 A 
BRANCH   8  13
ATOM     13  C   UNL     1       5.309  -1.652   0.415  1.00  0.00     0.086 A 
ATOM     14  N   UNL     1       4.329  -2.232  -0.367  1.00  0.00    -0.332 N 
ATOM     15  C   UNL     1       4.914  -3.201  -1.135  1.00  0.00     0.199 A 
ATOM     16  N   UNL     1       6.202  -3.295  -0.903  1.00  0.00    -0.244 NA
ATOM     17  C   UNL     1       6.455  -2.343   0.048  1.00  0.00     0.141 A 
ATOM     18  C   UNL     1       2.916  -1.934  -0.386  1.00  0.00     0.151 C 
ENDBRANCH   8  13
ENDBRANCH   1   7
BRANCH   5  19
ATOM     19  N   UNL     1      -0.778   1.711   0.242  1.00  0.00    -0.305 N 
ATOM     20  C   UNL     1      -1.031   0.439  -0.212  1.00  0.00     0.275 C 
ATOM     21  H   UNL     1      -1.504   2.411   0.187  1.00  0.00     0.171 HD
ATOM     22  O   UNL     1      -0.295  -0.527  -0.051  1.00  0.00    -0.267 OA
BRANCH  20  23
ATOM     23  C   UNL     1      -2.306   0.311  -0.881  1.00  0.00     0.126 A 
ATOM     24  C   UNL     1      -3.225  -0.715  -0.758  1.00  0.00     0.060 A 
ATOM     25  N   UNL     1      -2.839   1.140  -1.833  1.00  0.00    -0.263 N 
ATOM     26  C   UNL     1      -4.314  -0.372  -1.594  1.00  0.00     0.069 A 
ATOM     27  N   UNL     1      -4.076   0.786  -2.225  1.00  0.00    -0.177 NA
ATOM     28  C   UNL     1      -2.215   2.275  -2.476  1.00  0.00     0.174 C 
BRANCH  26  29
ATOM     29  C   UNL     1      -5.620  -1.115  -1.829  1.00  0.00     0.006 C 
ATOM     30  C   UNL     1      -6.813  -0.240  -1.393  1.00  0.00     0.017 C 
ATOM     31  C   UNL     1      -5.772  -1.461  -3.324  1.00  0.00     0.017 C 
ATOM     32  C   UNL     1      -5.682  -2.433  -1.029  1.00  0.00     0.017 C 
ENDBRANCH  26  29
ENDBRANCH  20  23
ENDBRANCH   5  19
TORSDOF 5
