MODEL        6USER    Run = 6USERUSER    Estimated Free Energy of Binding    =  -3.44 kcal/mol  [=(1)+(2)+(3)-(4)]USERUSER    (1) Final Intermolecular Energy     =  -8.21 kcal/molUSER        vdW + Hbond + desolv Energy     =  -8.97 kcal/molUSER        Electrostatic Energy            =  +0.11 kcal/molUSER        Moving Ligand-Fixed Receptor    =  -8.86 kcal/molUSER        Moving Ligand-Moving Receptor   =  +0.65 kcal/molUSER    (2) Final Total Internal Energy     =  -3.67 kcal/molUSER    (3) Torsional Free Energy           =  +4.77 kcal/molUSER    (4) Unbound System's Energy         =  -3.67 kcal/molUSERUSERREMARK SMILES Cc1cc(-c2ccc(C(=O)NCCN)cc2)ccc1NC(=O)[C@@]1(F)C=CC=CC(=O)NCCCN1REMARK SMILES IDX 20 1 21 2 22 3 19 5 2 6 3 7 4 8 18 9 17 10 1 11 5 12 6 13REMARK SMILES IDX 16 14 7 15 15 16 8 17 9 18 11 19 10 20 12 22 13 23 14 24REMARK SMILES IDX 23 27 24 28 25 29 26 30 27 31 28 32 35 34 34 36 33 37 32 38REMARK SMILES IDX 31 39 29 40 30 42REMARK H PARENT 20 4 11 21 14 25 14 26 35 35 31 41REMARK Flexibility Score:   71.900USER                              x       y       z     vdW  Elec       q    TypeUSER                           _______ _______ _______ _____ _____    ______ ____ROOTATOM      1  N   UNL     1      38.634  45.106  18.516 -0.19 +0.04    -0.322 N  ATOM      2  C   UNL     1      38.950  46.292  17.865 -0.26 -0.06    +0.281 C  ATOM      3  O   UNL     1      39.827  47.092  18.195 -0.30 +0.04    -0.269 OA ATOM      4  H   UNL     1      38.156  44.432  17.922 +0.10 -0.03    +0.170 HD ENDROOTBRANCH   1   5ATOM      5  C   UNL     1      39.239  44.606  19.688 -0.34 -0.00    +0.044 A  ATOM      6  C   UNL     1      38.553  44.223  20.852 -0.32 -0.00    -0.027 A  ATOM      7  C   UNL     1      39.302  43.822  21.980 -0.26 +0.00    +0.014 A  ATOM      8  C   UNL     1      40.700  43.734  21.951 -0.28 -0.00    -0.018 A  ATOM      9  C   UNL     1      40.634  44.458  19.637 -0.37 +0.00    +0.027 A  ATOM     10  C   UNL     1      41.357  44.038  20.757 -0.33 +0.00    +0.011 A  ATOM     11  C   UNL     1      37.056  44.148  20.976 -0.42 +0.00    +0.046 C  BRANCH   8  12ATOM     12  C   UNL     1      41.447  43.323  23.141 -0.25 -0.00    -0.018 A  ATOM     13  C   UNL     1      42.783  42.907  23.038 -0.29 -0.00    +0.009 A  ATOM     14  C   UNL     1      40.842  43.336  24.407 -0.18 +0.00    +0.009 A  ATOM     15  C   UNL     1      43.504  42.526  24.173 -0.19 -0.00    +0.014 A  ATOM     16  C   UNL     1      41.558  42.954  25.544 -0.14 -0.00    +0.014 A  ATOM     17  C   UNL     1      42.897  42.563  25.432 -0.13 -0.00    +0.039 A  BRANCH  17  18ATOM     18  C   UNL     1      43.631  42.180  26.669 -0.06 -0.02    +0.251 C  ATOM     19  N   UNL     1      43.298  40.954  27.213 -0.05 +0.07    -0.351 N  ATOM     20  O   UNL     1      44.506  42.909  27.121 -0.01 +0.01    -0.269 OA ATOM     21  H   UNL     1      42.819  40.294  26.619 -0.42 -0.08    +0.163 HD BRANCH  19  22ATOM     22  C   UNL     1      44.081  40.410  28.317 -0.05 -0.02    +0.131 C  BRANCH  22  23ATOM     23  C   UNL     1      44.211  38.883  28.231 -0.08 -0.02    +0.099 C  BRANCH  23  24ATOM     24  N   UNL     1      43.665  38.355  26.981 -0.04 +0.10    -0.329 NA ATOM     25  H   UNL     1      43.513  37.351  27.072 +0.03 -0.03    +0.118 HD ATOM     26  H   UNL     1      42.769  38.791  26.776 -0.54 -0.08    +0.118 HD ENDBRANCH  23  24ENDBRANCH  22  23ENDBRANCH  19  22ENDBRANCH  17  18ENDBRANCH   8  12ENDBRANCH   1   5BRANCH   2  27ATOM     27  C   UNL     1      38.106  46.491  16.560 -0.27 -0.10    +0.259 C  ATOM     28  F   UNL     1      37.566  47.738  16.540 +0.00 +0.16    -0.211 F  BRANCH  27  29ATOM     29  C   UNL     1      38.966  46.229  15.355 -0.45 -0.01    +0.040 C  BRANCH  29  30ATOM     30  C   UNL     1      38.707  46.283  14.039 -0.42 -0.00    +0.001 C  BRANCH  30  31ATOM     31  C   UNL     1      37.548  45.884  13.279 -0.49 -0.00    +0.006 C  BRANCH  31  32ATOM     32  C   UNL     1      36.291  46.344  13.191 -0.57 -0.04    +0.071 CG0ATOM     33  G   UNL     1      35.056  46.188  14.001 +0.00 +0.00    +0.000 G0 ENDBRANCH  31  32ENDBRANCH  30  31ENDBRANCH  29  30ENDBRANCH  27  29BRANCH  27  34ATOM     34  N   UNL     1      37.039  45.471  16.509 -0.16 +0.11    -0.274 NA ATOM     35  H   UNL     1      37.513  44.563  16.540 +0.08 -0.04    +0.126 HD BRANCH  34  36ATOM     36  C   UNL     1      36.065  45.526  17.594 -0.34 -0.04    +0.086 C  BRANCH  36  37ATOM     37  C   UNL     1      34.642  45.954  17.205 -0.40 -0.03    +0.037 C  BRANCH  37  38ATOM     38  C   UNL     1      34.057  45.207  15.998 -0.29 -0.09    +0.117 C  BRANCH  38  39ATOM     39  N   UNL     1      34.991  45.159  14.889 -0.10 +0.22    -0.353 N  ATOM     40  C   UNL     1      35.056  46.197  14.004 -0.27 -0.19    +0.243 CG0ATOM     41  H   UNL     1      35.823  44.605  15.038 +0.11 -0.07    +0.163 HD ATOM     42  O   UNL     1      34.152  47.014  13.846 -0.04 +0.30    -0.270 OA ATOM     43  G   UNL     1      36.291  46.340  13.192 +0.00 +0.00    +0.000 G0 ENDBRANCH  38  39ENDBRANCH  37  38ENDBRANCH  36  37ENDBRANCH  34  36ENDBRANCH  27  34ENDBRANCH   2  27TORSDOF 7TERENDMDL