REMARK SMILES Cc1c(N2CCN(S(C)(=O)=O)[C@H](O)C2)cc2cnc(-c3cc4ccccc4o3)c(-c3ccncc3)n12
REMARK SMILES IDX 4 1 5 2 6 3 7 4 12 5 14 6 3 7 2 8 36 9 15 10 29 11 16 12
REMARK SMILES IDX 19 13 17 14 18 15 1 16 30 17 31 18 35 19 32 20 34 21 33 22
REMARK SMILES IDX 20 23 21 24 28 25 22 26 27 27 23 28 26 29 24 30 25 31 13 32
REMARK SMILES IDX 8 34 9 35 10 36 11 37
REMARK H PARENT 13 33
ROOT
ATOM      1  N   UNL     1       3.182   0.125  -0.851  1.00  0.00    -0.365 N 
ATOM      2  C   UNL     1       3.772  -0.899   0.030  1.00  0.00     0.133 C 
ATOM      3  C   UNL     1       4.635  -0.258   1.135  1.00  0.00     0.126 C 
ATOM      4  N   UNL     1       5.696   0.677   0.613  1.00  0.00    -0.171 NA
ATOM      5  C   UNL     1       5.118   1.679  -0.314  1.00  0.00     0.218 C 
ATOM      6  C   UNL     1       4.195   1.063  -1.400  1.00  0.00     0.166 C 
ENDROOT
BRANCH   1   7
ATOM      7  C   UNL     1       1.894   0.518  -0.648  1.00  0.00     0.059 A 
ATOM      8  C   UNL     1       0.783  -0.315  -0.682  1.00  0.00     0.044 A 
ATOM      9  N   UNL     1      -0.342   0.460  -0.383  1.00  0.00    -0.308 N 
ATOM     10  C   UNL     1       1.444   1.833  -0.429  1.00  0.00     0.056 A 
ATOM     11  C   UNL     1      -1.716   0.161  -0.202  1.00  0.00     0.083 A 
ATOM     12  C   UNL     1       0.085   1.765  -0.255  1.00  0.00     0.066 A 
ATOM     13  C   UNL     1      -2.548   1.206   0.085  1.00  0.00     0.130 A 
ATOM     14  C   UNL     1      -0.868   2.788   0.033  1.00  0.00     0.138 A 
ATOM     15  N   UNL     1      -2.127   2.527   0.201  1.00  0.00    -0.249 NA
ATOM     16  C   UNL     1       0.727  -1.764  -1.031  1.00  0.00     0.067 C 
BRANCH  11  17
ATOM     17  C   UNL     1      -2.213  -1.229  -0.270  1.00  0.00     0.004 A 
ATOM     18  C   UNL     1      -2.253  -2.019   0.881  1.00  0.00     0.030 A 
ATOM     19  C   UNL     1      -2.685  -1.760  -1.473  1.00  0.00     0.030 A 
ATOM     20  C   UNL     1      -2.745  -3.309   0.774  1.00  0.00     0.111 A 
ATOM     21  C   UNL     1      -3.157  -3.062  -1.475  1.00  0.00     0.111 A 
ATOM     22  N   UNL     1      -3.188  -3.852  -0.380  1.00  0.00    -0.265 NA
ENDBRANCH  11  17
BRANCH  13  23
ATOM     23  C   UNL     1      -3.965   1.065   0.321  1.00  0.00     0.155 A 
ATOM     24  C   UNL     1      -4.832   1.961   0.952  1.00  0.00     0.061 A 
ATOM     25  O   UNL     1      -4.735  -0.012  -0.076  1.00  0.00    -0.454 OA
ATOM     26  C   UNL     1      -6.138   1.409   0.954  1.00  0.00     0.021 A 
ATOM     27  C   UNL     1      -6.018   0.192   0.309  1.00  0.00     0.134 A 
ATOM     28  C   UNL     1      -7.402   1.803   1.423  1.00  0.00     0.012 A 
ATOM     29  C   UNL     1      -7.074  -0.689   0.093  1.00  0.00     0.048 A 
ATOM     30  C   UNL     1      -8.490   0.941   1.221  1.00  0.00     0.001 A 
ATOM     31  C   UNL     1      -8.326  -0.284   0.568  1.00  0.00     0.004 A 
ENDBRANCH  13  23
ENDBRANCH   1   7
BRANCH   5  32
ATOM     32  O   UNL     1       4.428   2.595   0.523  1.00  0.00    -0.375 OA
ATOM     33  H   UNL     1       4.968   2.608   1.329  1.00  0.00     0.212 HD
ENDBRANCH   5  32
BRANCH   4  34
ATOM     34  S   UNL     1       7.119  -0.045   0.032  1.00  0.00     0.213 S 
ATOM     35  C   UNL     1       7.901  -0.580   1.541  1.00  0.00     0.177 C 
ATOM     36  O   UNL     1       7.945   1.002  -0.529  1.00  0.00    -0.212 OA
ATOM     37  O   UNL     1       6.763  -1.209  -0.744  1.00  0.00    -0.212 OA
ENDBRANCH   4  34
TORSDOF 5
