MODEL        2USER    Run = 2USERUSER    Estimated Free Energy of Binding    =  -8.98 kcal/mol  [=(1)+(2)+(3)-(4)]USERUSER    (1) Final Intermolecular Energy     = -10.77 kcal/molUSER        vdW + Hbond + desolv Energy     = -10.43 kcal/molUSER        Electrostatic Energy            =  -0.34 kcal/molUSER        Moving Ligand-Fixed Receptor    = -10.77 kcal/molUSER        Moving Ligand-Moving Receptor   =  +0.00 kcal/molUSER    (2) Final Total Internal Energy     =  -1.07 kcal/molUSER    (3) Torsional Free Energy           =  +1.79 kcal/molUSER    (4) Unbound System's Energy         =  -1.07 kcal/molUSERUSERREMARK SMILES Nc1cc(Nc2nccc(-c3ccc4[nH]ncc4c3)n2)ccc1C(=O)OREMARK SMILES IDX 2 1 3 2 4 3 21 4 22 5 23 6 1 7 24 10 25 11 26 12 5 14 6 16REMARK SMILES IDX 7 17 20 18 8 19 10 20 9 21 11 22 12 23 19 24 13 25 18 26REMARK SMILES IDX 14 27 17 28 15 29 16 30REMARK H PARENT 1 8 1 9 26 13 5 15 15 31USER                              x       y       z     vdW  Elec       q    TypeUSER                           _______ _______ _______ _____ _____    ______ ____ROOTATOM      1  C   UNL     1      35.476  46.334  14.225 -0.40 -0.04    +0.048 A  ATOM      2  C   UNL     1      35.622  45.445  15.308 -0.32 -0.03    +0.052 A  ATOM      3  C   UNL     1      36.877  44.983  15.748 -0.33 -0.02    +0.043 A  ATOM      4  C   UNL     1      38.004  45.409  15.044 -0.34 -0.01    +0.027 A  ATOM      5  C   UNL     1      37.884  46.250  13.933 -0.42 -0.01    +0.020 A  ATOM      6  C   UNL     1      36.628  46.708  13.511 -0.47 -0.04    +0.082 A  ENDROOTBRANCH   1   7ATOM      7  N   UNL     1      34.171  46.621  13.781 -0.09 +0.39    -0.398 N  ATOM      8  H   UNL     1      33.555  46.981  14.502 -0.29 -0.28    +0.156 HD ATOM      9  H   UNL     1      34.185  47.219  12.949 -0.35 -0.16    +0.156 HD ENDBRANCH   1   7BRANCH   6  10ATOM     10  C   UNL     1      36.619  47.594  12.317 -0.43 -0.13    +0.337 C  ATOM     11  O   UNL     1      35.780  48.442  12.069 -0.56 +0.14    -0.246 OA BRANCH  10  12ATOM     12  O   UNL     1      37.620  47.355  11.445 -0.75 +0.05    -0.478 OA ATOM     13  H   UNL     1      37.343  47.864  10.653 -0.17 -0.11    +0.297 HD ENDBRANCH  10  12ENDBRANCH   6  10BRANCH   3  14ATOM     14  N   UNL     1      36.923  44.127  16.852 -0.14 +0.10    -0.324 N  ATOM     15  H   UNL     1      36.600  43.180  16.717 +0.11 -0.05    +0.170 HD BRANCH  14  16ATOM     16  C   UNL     1      37.336  44.269  18.173 -0.16 -0.04    +0.227 A  ATOM     17  N   UNL     1      36.599  43.835  19.203 -0.21 +0.03    -0.221 NA ATOM     18  N   UNL     1      38.530  44.865  18.328 -0.25 +0.03    -0.213 NA ATOM     19  C   UNL     1      37.092  44.020  20.437 -0.32 -0.00    +0.117 A  ATOM     20  C   UNL     1      39.012  45.031  19.581 -0.34 -0.00    +0.076 A  ATOM     21  C   UNL     1      38.301  44.615  20.688 -0.33 +0.00    +0.049 A  BRANCH  20  22ATOM     22  C   UNL     1      40.330  45.691  19.677 -0.41 +0.00    +0.001 A  ATOM     23  C   UNL     1      40.803  46.557  18.670 -0.47 -0.00    +0.012 A  ATOM     24  C   UNL     1      41.152  45.470  20.804 -0.33 +0.00    +0.022 A  ATOM     25  C   UNL     1      42.053  47.190  18.742 -0.52 +0.00    +0.029 A  ATOM     26  C   UNL     1      42.409  46.093  20.897 -0.32 +0.00    +0.020 A  ATOM     27  C   UNL     1      42.829  46.930  19.872 -0.41 +0.02    +0.065 A  ATOM     28  C   UNL     1      43.472  46.113  21.827 -0.20 +0.06    +0.143 A  ATOM     29  N   UNL     1      44.067  47.375  20.253 -0.16 -0.15    -0.278 N  ATOM     30  N   UNL     1      44.485  46.891  21.437 -0.67 -0.16    -0.183 NA ATOM     31  H   UNL     1      44.678  48.009  19.752 -0.38 +0.07    +0.190 HD ENDBRANCH  20  22ENDBRANCH  14  16ENDBRANCH   3  14TORSDOF 6TERENDMDL