MODEL        8USER    Run = 8USERUSER    Estimated Free Energy of Binding    =  -9.20 kcal/mol  [=(1)+(2)+(3)-(4)]USERUSER    (1) Final Intermolecular Energy     = -10.69 kcal/molUSER        vdW + Hbond + desolv Energy     = -10.52 kcal/molUSER        Electrostatic Energy            =  -0.17 kcal/molUSER        Moving Ligand-Fixed Receptor    = -10.69 kcal/molUSER        Moving Ligand-Moving Receptor   =  +0.00 kcal/molUSER    (2) Final Total Internal Energy     =  -1.22 kcal/molUSER    (3) Torsional Free Energy           =  +1.49 kcal/molUSER    (4) Unbound System's Energy         =  -1.22 kcal/molUSERUSERREMARK SMILES CC(C)c1nc2cccc(-c3cc4cn[nH]c(N)c-4c3)c2nc1CNREMARK SMILES IDX 4 1 5 2 6 3 7 4 8 5 9 6 10 7 21 8 22 9 23 10 2 11 1 12 3 13REMARK SMILES IDX 24 14 25 15 11 18 12 19 20 20 13 21 19 22 14 23 17 24 15 25REMARK SMILES IDX 16 26 18 28REMARK H PARENT 25 16 25 17 16 27 18 29 18 30USER                              x       y       z     vdW  Elec       q    TypeUSER                           _______ _______ _______ _____ _____    ______ ____ROOTATOM      1  C   UNL     1      38.192  46.928  14.804 -0.39 -0.03    +0.066 A  ATOM      2  N   UNL     1      37.344  46.017  15.356 -0.18 +0.11    -0.249 NA ATOM      3  C   UNL     1      37.624  45.524  16.576 -0.30 -0.03    +0.090 A  ATOM      4  C   UNL     1      36.754  44.593  17.127 -0.32 -0.01    +0.030 A  ATOM      5  C   UNL     1      36.979  44.041  18.384 -0.30 -0.00    +0.003 A  ATOM      6  C   UNL     1      38.100  44.429  19.105 -0.35 -0.00    +0.011 A  ATOM      7  C   UNL     1      38.998  45.368  18.566 -0.41 -0.00    +0.010 A  ATOM      8  C   UNL     1      38.767  45.928  17.295 -0.34 -0.02    +0.097 A  ATOM      9  N   UNL     1      39.609  46.833  16.743 -0.28 +0.06    -0.247 NA ATOM     10  C   UNL     1      39.335  47.325  15.498 -0.43 -0.02    +0.076 A  ENDROOTBRANCH   1  11ATOM     11  C   UNL     1      37.768  47.390  13.425 -0.58 -0.01    +0.034 C  ATOM     12  C   UNL     1      36.918  48.661  13.485 -0.55 -0.01    +0.014 C  ATOM     13  C   UNL     1      37.126  46.316  12.547 -0.64 -0.00    +0.014 C  ENDBRANCH   1  11BRANCH  10  14ATOM     14  C   UNL     1      40.327  48.345  14.979 -0.53 -0.03    +0.136 C  BRANCH  14  15ATOM     15  N   UNL     1      41.407  48.645  15.936 -0.68 +0.01    -0.325 NA ATOM     16  H   UNL     1      40.976  49.208  16.677 +0.07 -0.01    +0.119 HD ATOM     17  H   UNL     1      41.631  47.776  16.425 -0.29 -0.01    +0.119 HD ENDBRANCH  14  15ENDBRANCH  10  14BRANCH   7  18ATOM     18  C   UNL     1      40.172  45.756  19.367 -0.41 +0.00    -0.015 A  ATOM     19  C   UNL     1      40.370  45.533  20.806 -0.33 +0.00    +0.019 A  ATOM     20  C   UNL     1      41.250  46.407  18.870 -0.48 +0.00    +0.021 A  ATOM     21  C   UNL     1      41.555  46.046  21.157 -0.31 +0.00    +0.006 A  ATOM     22  C   UNL     1      42.162  46.605  19.973 -0.42 +0.00    +0.026 A  ATOM     23  C   UNL     1      42.284  46.160  22.424 -0.17 +0.02    +0.142 A  ATOM     24  C   UNL     1      43.377  47.179  20.076 -0.26 +0.04    +0.125 A  ATOM     25  N   UNL     1      43.455  46.723  22.515 -0.18 -0.05    -0.182 NA ATOM     26  N   UNL     1      43.987  47.188  21.328 -0.22 -0.13    -0.263 N  ATOM     27  H   UNL     1      44.772  47.830  21.403 -0.30 +0.10    +0.192 HD BRANCH  24  28ATOM     28  N   UNL     1      44.045  47.732  19.005 -0.08 -0.11    -0.384 N  ATOM     29  H   UNL     1      44.036  48.747  19.026 -0.49 -0.04    +0.158 HD ATOM     30  H   UNL     1      43.672  47.379  18.128 -0.36 +0.01    +0.158 HD ENDBRANCH  24  28ENDBRANCH   7  18TORSDOF 5TERENDMDL