REMARK SMILES Cc1cc(-c2ccc(C(=O)NCCN)cc2)ccc1NC(=O)[C@@]1(F)C=CC=CC(=O)NCCCN1
REMARK SMILES IDX 20 1 21 2 22 3 19 5 2 6 3 7 4 8 18 9 17 10 1 11 5 12 6 13
REMARK SMILES IDX 16 14 7 15 15 16 8 17 9 18 11 19 10 20 12 22 13 23 14 24
REMARK SMILES IDX 23 27 24 28 25 29 26 30 27 31 28 32 35 34 34 36 33 37 32 38
REMARK SMILES IDX 31 39 29 40 30 42
REMARK H PARENT 20 4 11 21 14 25 14 26 35 35 31 41
REMARK Flexibility Score:   71.900
ROOT
ATOM      1  N   UNL     1      -2.457   0.143   0.158  1.00  0.00    -0.322 N 
ATOM      2  C   UNL     1      -3.161  -1.042   0.331  1.00  0.00     0.281 C 
ATOM      3  O   UNL     1      -2.720  -2.181   0.173  1.00  0.00    -0.269 OA
ATOM      4  H   UNL     1      -2.858   0.931   0.662  1.00  0.00     0.170 HD
ENDROOT
BRANCH   1   5
ATOM      5  C   UNL     1      -1.114   0.267  -0.254  1.00  0.00     0.044 A 
ATOM      6  C   UNL     1      -0.494  -0.518  -1.240  1.00  0.00    -0.027 A 
ATOM      7  C   UNL     1       0.885  -0.336  -1.484  1.00  0.00     0.014 A 
ATOM      8  C   UNL     1       1.635   0.644  -0.821  1.00  0.00    -0.018 A 
ATOM      9  C   UNL     1      -0.380   1.291   0.365  1.00  0.00     0.027 A 
ATOM     10  C   UNL     1       0.980   1.471   0.094  1.00  0.00     0.011 A 
ATOM     11  C   UNL     1      -1.207  -1.514  -2.112  1.00  0.00     0.046 C 
BRANCH   8  12
ATOM     12  C   UNL     1       3.065   0.801  -1.093  1.00  0.00    -0.018 A 
ATOM     13  C   UNL     1       4.016   0.090  -0.346  1.00  0.00     0.009 A 
ATOM     14  C   UNL     1       3.511   1.664  -2.105  1.00  0.00     0.009 A 
ATOM     15  C   UNL     1       5.382   0.226  -0.611  1.00  0.00     0.014 A 
ATOM     16  C   UNL     1       4.875   1.805  -2.372  1.00  0.00     0.014 A 
ATOM     17  C   UNL     1       5.814   1.074  -1.636  1.00  0.00     0.039 A 
BRANCH  17  18
ATOM     18  C   UNL     1       7.257   1.238  -1.962  1.00  0.00     0.251 C 
ATOM     19  N   UNL     1       8.057   0.135  -1.732  1.00  0.00    -0.351 N 
ATOM     20  O   UNL     1       7.667   2.285  -2.449  1.00  0.00    -0.269 OA
ATOM     21  H   UNL     1       7.601  -0.761  -1.641  1.00  0.00     0.163 HD
BRANCH  19  22
ATOM     22  C   UNL     1       9.444   0.134  -2.182  1.00  0.00     0.131 C 
BRANCH  22  23
ATOM     23  C   UNL     1      10.232  -1.053  -1.611  1.00  0.00     0.099 C 
BRANCH  23  24
ATOM     24  N   UNL     1      10.290  -1.022  -0.150  1.00  0.00    -0.329 NA
ATOM     25  H   UNL     1       9.371  -0.786   0.224  1.00  0.00     0.118 HD
ATOM     26  H   UNL     1      10.550  -1.937   0.212  1.00  0.00     0.118 HD
ENDBRANCH  23  24
ENDBRANCH  22  23
ENDBRANCH  19  22
ENDBRANCH  17  18
ENDBRANCH   8  12
ENDBRANCH   1   5
BRANCH   2  27
ATOM     27  C   UNL     1      -4.617  -0.791   0.853  1.00  0.00     0.259 C 
ATOM     28  F   UNL     1      -4.787   0.525   1.147  1.00  0.00    -0.211 F 
BRANCH  27  29
ATOM     29  C   UNL     1      -5.611  -1.274  -0.166  1.00  0.00     0.040 C 
BRANCH  29  30
ATOM     30  C   UNL     1      -6.684  -0.688  -0.721  1.00  0.00     0.001 C 
BRANCH  30  31
ATOM     31  C   UNL     1      -7.218   0.645  -0.587  1.00  0.00     0.006 C 
BRANCH  31  32
ATOM     32  C   UNL     1      -7.567   1.405   0.462  1.00  0.00     0.071 CG0
ATOM     33  G   UNL     1      -7.505   1.252   1.938  1.00  0.00     0.000 G0
ENDBRANCH  31  32
ENDBRANCH  30  31
ENDBRANCH  29  30
ENDBRANCH  27  29
BRANCH  27  34
ATOM     34  N   UNL     1      -4.854  -1.617   2.054  1.00  0.00    -0.274 NA
ATOM     35  H   UNL     1      -4.331  -2.486   1.908  1.00  0.00     0.126 HD
BRANCH  34  36
ATOM     36  C   UNL     1      -4.429  -1.024   3.318  1.00  0.00     0.086 C 
BRANCH  36  37
ATOM     37  C   UNL     1      -5.322   0.095   3.874  1.00  0.00     0.037 C 
BRANCH  37  38
ATOM     38  C   UNL     1      -6.829  -0.187   3.789  1.00  0.00     0.117 C 
BRANCH  38  39
ATOM     39  N   UNL     1      -7.337  -0.006   2.442  1.00  0.00    -0.353 N 
ATOM     40  C   UNL     1      -7.505   1.252   1.938  1.00  0.00     0.243 CG0
ATOM     41  H   UNL     1      -7.147  -0.759   1.796  1.00  0.00     0.163 HD
ATOM     42  O   UNL     1      -7.605   2.258   2.637  1.00  0.00    -0.270 OA
ATOM     43  G   UNL     1      -7.567   1.405   0.462  1.00  0.00     0.000 G0
ENDBRANCH  38  39
ENDBRANCH  37  38
ENDBRANCH  36  37
ENDBRANCH  34  36
ENDBRANCH  27  34
ENDBRANCH   2  27
TORSDOF 7
