REMARK SMILES NC=C(C=CC=CCc1cccc(C(=O)O)c1F)N1CCN(C(=O)c2ccco2)CC1
REMARK SMILES IDX 6 1 5 2 4 3 3 4 2 5 1 6 19 9 20 10 31 11 21 12 30 13 22 14
REMARK SMILES IDX 23 15 24 16 25 17 26 18 29 19 27 20 28 21 7 22 8 23 9 24
REMARK SMILES IDX 10 25 17 26 11 27 13 28 12 29 18 30 14 31 15 32 16 33
REMARK H PARENT 1 7 1 8 16 34
ROOT
ATOM      1  C   UNL     1       0.577  -2.211   1.932  1.00  0.00    -0.004 C 
ENDROOT
BRANCH   1   2
ATOM      2  C   UNL     1       0.114  -1.654   0.681  1.00  0.00     0.002 C 
BRANCH   2   3
ATOM      3  C   UNL     1      -1.069  -1.977   0.134  1.00  0.00     0.027 C 
BRANCH   3   4
ATOM      4  C   UNL     1      -1.555  -1.417  -1.124  1.00  0.00     0.052 C 
BRANCH   4   5
ATOM      5  C   UNL     1      -1.695  -2.255  -2.175  1.00  0.00     0.101 C 
BRANCH   5   6
ATOM      6  N   UNL     1      -1.417  -3.599  -2.283  1.00  0.00    -0.403 N 
ATOM      7  H   UNL     1      -1.239  -4.059  -1.393  1.00  0.00     0.156 HD
ATOM      8  H   UNL     1      -2.064  -4.109  -2.876  1.00  0.00     0.156 HD
ENDBRANCH   5   6
ENDBRANCH   4   5
BRANCH   4   9
ATOM      9  N   UNL     1      -1.859  -0.046  -1.173  1.00  0.00    -0.367 N 
ATOM     10  C   UNL     1      -1.976   0.795   0.041  1.00  0.00     0.138 C 
ATOM     11  C   UNL     1      -1.938   0.691  -2.461  1.00  0.00     0.138 C 
ATOM     12  C   UNL     1      -2.983   1.947  -0.149  1.00  0.00     0.141 C 
ATOM     13  C   UNL     1      -1.755   2.206  -2.278  1.00  0.00     0.141 C 
ATOM     14  N   UNL     1      -2.744   2.759  -1.350  1.00  0.00    -0.332 N 
ATOM     15  C   UNL     1      -3.716   3.640  -1.852  1.00  0.00     0.289 C 
ATOM     16  O   UNL     1      -3.753   3.923  -3.050  1.00  0.00    -0.265 OA
BRANCH  15  17
ATOM     17  C   UNL     1      -4.658   4.215  -0.906  1.00  0.00     0.191 A 
ATOM     18  C   UNL     1      -4.508   4.755   0.361  1.00  0.00     0.056 A 
ATOM     19  O   UNL     1      -5.970   4.328  -1.285  1.00  0.00    -0.459 OA
ATOM     20  C   UNL     1      -5.789   5.186   0.780  1.00  0.00     0.043 A 
ATOM     21  C   UNL     1      -6.644   4.903  -0.258  1.00  0.00     0.196 A 
ENDBRANCH  15  17
ENDBRANCH   4   9
ENDBRANCH   3   4
ENDBRANCH   2   3
ENDBRANCH   1   2
BRANCH   1  22
ATOM     22  C   UNL     1       1.685  -1.858   2.604  1.00  0.00    -0.022 C 
BRANCH  22  23
ATOM     23  C   UNL     1       2.692  -0.798   2.251  1.00  0.00     0.066 C 
BRANCH  23  24
ATOM     24  C   UNL     1       4.091  -1.351   2.122  1.00  0.00    -0.008 A 
ATOM     25  C   UNL     1       4.930  -1.439   3.242  1.00  0.00     0.007 A 
ATOM     26  C   UNL     1       4.561  -1.811   0.882  1.00  0.00     0.141 A 
ATOM     27  C   UNL     1       6.223  -1.951   3.118  1.00  0.00     0.001 A 
ATOM     28  C   UNL     1       5.850  -2.335   0.750  1.00  0.00     0.095 A 
ATOM     29  C   UNL     1       6.683  -2.395   1.877  1.00  0.00     0.019 A 
ATOM     30  F   UNL     1       3.748  -1.724  -0.181  1.00  0.00    -0.206 F 
BRANCH  28  31
ATOM     31  C   UNL     1       6.307  -2.814  -0.574  1.00  0.00     0.338 C 
ATOM     32  O   UNL     1       5.646  -2.944  -1.588  1.00  0.00    -0.246 OA
BRANCH  31  33
ATOM     33  O   UNL     1       7.618  -3.126  -0.578  1.00  0.00    -0.478 OA
ATOM     34  H   UNL     1       7.775  -3.416  -1.501  1.00  0.00     0.297 HD
ENDBRANCH  31  33
ENDBRANCH  28  31
ENDBRANCH  23  24
ENDBRANCH  22  23
ENDBRANCH   1  22
TORSDOF 12
