REMARK SMILES CS(=O)(=O)N1CCN(C=C(F)C(F)=CNC(=O)c2ccc3ccc(F)cc3c2)[C@H]1N
REMARK SMILES IDX 10 1 11 2 9 3 8 4 5 5 6 6 29 7 7 8 2 9 1 10 3 11 4 12 30 13
REMARK SMILES IDX 12 16 13 17 14 18 15 19 16 20 17 22 18 23 19 24 28 25 20 26
REMARK SMILES IDX 27 27 21 28 26 29 22 30 24 31 23 32 25 33
REMARK H PARENT 30 14 30 15 15 21
ROOT
ATOM      1  C   UNL     1      -1.312   1.792   1.286  1.00  0.00     0.176 C 
ATOM      2  F   UNL     1      -0.566   1.502   2.381  1.00  0.00    -0.202 F 
ENDROOT
BRANCH   1   3
ATOM      3  C   UNL     1      -2.502   1.183   1.179  1.00  0.00     0.126 C 
BRANCH   3   4
ATOM      4  N   UNL     1      -3.495   1.181   0.212  1.00  0.00    -0.345 N 
ATOM      5  N   UNL     1      -4.925   0.012  -1.177  1.00  0.00    -0.165 NA
ATOM      6  C   UNL     1      -4.538   1.232  -1.916  1.00  0.00     0.127 C 
ATOM      7  C   UNL     1      -4.623   0.265   0.219  1.00  0.00     0.237 C 
ATOM      8  C   UNL     1      -3.421   1.855  -1.083  1.00  0.00     0.136 C 
BRANCH   5   9
ATOM      9  S   UNL     1      -4.442  -1.471  -1.780  1.00  0.00     0.214 S 
ATOM     10  C   UNL     1      -2.662  -1.470  -1.630  1.00  0.00     0.177 C 
ATOM     11  O   UNL     1      -4.960  -2.492  -0.893  1.00  0.00    -0.212 OA
ATOM     12  O   UNL     1      -4.763  -1.496  -3.192  1.00  0.00    -0.212 OA
ENDBRANCH   5   9
BRANCH   7  13
ATOM     13  N   UNL     1      -5.829   0.754   0.834  1.00  0.00    -0.298 NA
ATOM     14  H   UNL     1      -6.520   0.017   0.733  1.00  0.00     0.122 HD
ATOM     15  H   UNL     1      -5.639   0.865   1.823  1.00  0.00     0.122 HD
ENDBRANCH   7  13
ENDBRANCH   3   4
ENDBRANCH   1   3
BRANCH   1  16
ATOM     16  C   UNL     1      -0.734   2.749   0.379  1.00  0.00     0.176 C 
ATOM     17  F   UNL     1      -1.496   3.836   0.107  1.00  0.00    -0.202 F 
BRANCH  16  18
ATOM     18  C   UNL     1       0.516   2.755  -0.110  1.00  0.00     0.128 C 
BRANCH  18  19
ATOM     19  N   UNL     1       1.496   1.787  -0.030  1.00  0.00    -0.326 N 
ATOM     20  C   UNL     1       1.306   0.415   0.060  1.00  0.00     0.255 C 
ATOM     21  H   UNL     1       2.430   2.084  -0.294  1.00  0.00     0.169 HD
ATOM     22  O   UNL     1       0.240  -0.170  -0.095  1.00  0.00    -0.269 OA
BRANCH  20  23
ATOM     23  C   UNL     1       2.548  -0.383   0.259  1.00  0.00     0.040 A 
ATOM     24  C   UNL     1       2.618  -1.663  -0.298  1.00  0.00     0.014 A 
ATOM     25  C   UNL     1       3.622   0.110   1.011  1.00  0.00     0.022 A 
ATOM     26  C   UNL     1       3.767  -2.439  -0.130  1.00  0.00     0.009 A 
ATOM     27  C   UNL     1       4.782  -0.663   1.189  1.00  0.00    -0.015 A 
ATOM     28  C   UNL     1       4.857  -1.953   0.607  1.00  0.00    -0.018 A 
ATOM     29  C   UNL     1       5.868  -0.185   1.937  1.00  0.00     0.048 A 
ATOM     30  C   UNL     1       6.018  -2.726   0.786  1.00  0.00     0.012 A 
ATOM     31  C   UNL     1       7.005  -0.970   2.097  1.00  0.00     0.123 A 
ATOM     32  C   UNL     1       7.090  -2.233   1.530  1.00  0.00     0.040 A 
ATOM     33  F   UNL     1       8.034  -0.498   2.812  1.00  0.00    -0.207 F 
ENDBRANCH  20  23
ENDBRANCH  18  19
ENDBRANCH  16  18
ENDBRANCH   1  16
TORSDOF 8
