REMARK SMILES Cc1c(NC(=O)CNCCC#N)ccc2ccc(-c3ccc4cn[nH]c4c3)cc12
REMARK SMILES IDX 7 1 5 2 4 3 6 5 3 6 2 7 29 8 13 9 28 10 15 11 14 12 18 13
REMARK SMILES IDX 16 14 17 15 1 16 19 17 20 18 27 19 21 20 26 21 22 22 25 23
REMARK SMILES IDX 23 24 24 25 8 27 9 29 10 30 11 31 12 32
REMARK H PARENT 4 4 25 26 8 28
ROOT
ATOM      1  C   UNL     1       0.851  -4.403  -2.965  1.00  0.00     0.182 C 
ENDROOT
BRANCH   1   2
ATOM      2  C   UNL     1       0.699  -3.233  -1.992  1.00  0.00     0.238 C 
ATOM      3  N   UNL     1      -0.428  -2.477  -2.274  1.00  0.00    -0.325 N 
ATOM      4  H   UNL     1      -1.141  -3.024  -2.753  1.00  0.00     0.169 HD
ATOM      5  O   UNL     1       1.504  -3.056  -1.083  1.00  0.00    -0.273 OA
BRANCH   3   6
ATOM      6  C   UNL     1      -0.872  -1.343  -1.558  1.00  0.00     0.044 A 
ATOM      7  C   UNL     1      -0.042  -0.317  -1.057  1.00  0.00    -0.020 A 
ATOM      8  C   UNL     1      -0.610   0.721  -0.246  1.00  0.00    -0.013 A 
ATOM      9  C   UNL     1      -2.256  -1.252  -1.385  1.00  0.00     0.027 A 
ATOM     10  C   UNL     1       0.153   1.734   0.390  1.00  0.00     0.017 A 
ATOM     11  C   UNL     1      -2.012   0.761  -0.058  1.00  0.00    -0.018 A 
ATOM     12  C   UNL     1      -2.818  -0.216  -0.644  1.00  0.00     0.011 A 
ATOM     13  C   UNL     1      -0.428   2.756   1.162  1.00  0.00    -0.018 A 
ATOM     14  C   UNL     1      -2.598   1.779   0.710  1.00  0.00     0.009 A 
ATOM     15  C   UNL     1      -1.816   2.768   1.308  1.00  0.00     0.009 A 
ATOM     16  C   UNL     1       1.424  -0.239  -1.417  1.00  0.00     0.047 C 
BRANCH  13  17
ATOM     17  C   UNL     1       0.407   3.781   1.800  1.00  0.00    -0.016 A 
ATOM     18  C   UNL     1       0.383   5.106   1.336  1.00  0.00     0.009 A 
ATOM     19  C   UNL     1       1.242   3.439   2.882  1.00  0.00     0.037 A 
ATOM     20  C   UNL     1       1.175   6.106   1.920  1.00  0.00     0.012 A 
ATOM     21  C   UNL     1       2.020   4.452   3.455  1.00  0.00     0.066 A 
ATOM     22  C   UNL     1       2.005   5.765   3.000  1.00  0.00     0.020 A 
ATOM     23  N   UNL     1       2.908   4.441   4.499  1.00  0.00    -0.278 N 
ATOM     24  C   UNL     1       2.921   6.439   3.838  1.00  0.00     0.143 A 
ATOM     25  N   UNL     1       3.473   5.636   4.753  1.00  0.00    -0.183 NA
ATOM     26  H   UNL     1       3.171   3.652   5.079  1.00  0.00     0.190 HD
ENDBRANCH  13  17
ENDBRANCH   3   6
ENDBRANCH   1   2
BRANCH   1  27
ATOM     27  N   UNL     1      -0.426  -5.135  -3.139  1.00  0.00    -0.307 NA
ATOM     28  H   UNL     1      -0.363  -5.626  -4.034  1.00  0.00     0.123 HD
BRANCH  27  29
ATOM     29  C   UNL     1      -0.634  -6.159  -2.096  1.00  0.00     0.096 C 
BRANCH  29  30
ATOM     30  C   UNL     1      -1.142  -5.660  -0.738  1.00  0.00     0.135 C 
BRANCH  30  31
ATOM     31  C   UNL     1      -2.496  -5.103  -0.839  1.00  0.00     0.063 C 
ATOM     32  N   UNL     1      -3.575  -4.682  -0.922  1.00  0.00    -0.198 NA
ENDBRANCH  30  31
ENDBRANCH  29  30
ENDBRANCH  27  29
ENDBRANCH   1  27
TORSDOF 7
