MODEL        4USER    Run = 4USERUSER    Estimated Free Energy of Binding    =  -8.67 kcal/mol  [=(1)+(2)+(3)-(4)]USERUSER    (1) Final Intermolecular Energy     = -12.25 kcal/molUSER        vdW + Hbond + desolv Energy     = -11.61 kcal/molUSER        Electrostatic Energy            =  -0.64 kcal/molUSER        Moving Ligand-Fixed Receptor    = -12.25 kcal/molUSER        Moving Ligand-Moving Receptor   =  +0.00 kcal/molUSER    (2) Final Total Internal Energy     =  -1.58 kcal/molUSER    (3) Torsional Free Energy           =  +3.58 kcal/molUSER    (4) Unbound System's Energy         =  -1.58 kcal/molUSERUSERREMARK SMILES NC=C(C=CC=CCc1cccc(C(=O)O)c1F)N1CCN(C(=O)c2ccco2)CC1REMARK SMILES IDX 6 1 5 2 4 3 3 4 2 5 1 6 19 9 20 10 31 11 21 12 30 13 22 14REMARK SMILES IDX 23 15 24 16 25 17 26 18 29 19 27 20 28 21 7 22 8 23 9 24REMARK SMILES IDX 10 25 17 26 11 27 13 28 12 29 18 30 14 31 15 32 16 33REMARK H PARENT 1 7 1 8 16 34USER                              x       y       z     vdW  Elec       q    TypeUSER                           _______ _______ _______ _____ _____    ______ ____ROOTATOM      1  C   UNL     1      26.075  44.722  17.811 -0.52 -0.00    -0.004 C  ENDROOTBRANCH   1   2ATOM      2  C   UNL     1      26.458  44.407  16.453 -0.39 -0.00    +0.002 C  BRANCH   2   3ATOM      3  C   UNL     1      27.593  43.756  16.150 -0.29 -0.01    +0.027 C  BRANCH   3   4ATOM      4  C   UNL     1      27.671  42.307  15.984 -0.26 -0.02    +0.052 C  BRANCH   4   5ATOM      5  C   UNL     1      26.665  41.693  15.322 -0.29 -0.05    +0.101 C  BRANCH   5   6ATOM      6  N   UNL     1      26.670  40.537  14.574 -0.16 +0.15    -0.403 N  ATOM      7  H   UNL     1      25.850  39.950  14.713 +0.07 -0.00    +0.156 HD ATOM      8  H   UNL     1      26.901  40.678  13.596 -0.16 -0.20    +0.156 HD ENDBRANCH   5   6ENDBRANCH   4   5BRANCH   4   9ATOM      9  N   UNL     1      28.785  41.633  16.511 -0.07 +0.09    -0.367 N  ATOM     10  C   UNL     1      28.923  40.158  16.474 -0.30 +0.01    +0.138 C  ATOM     11  C   UNL     1      29.977  42.365  17.011 -0.23 -0.04    +0.138 C  ATOM     12  C   UNL     1      29.733  39.623  17.672 -0.32 +0.02    +0.141 C  ATOM     13  C   UNL     1      31.235  41.482  17.040 -0.24 -0.05    +0.141 C  ATOM     14  N   UNL     1      31.032  40.285  17.859 -0.16 +0.03    -0.332 N  ATOM     15  C   UNL     1      31.762  40.157  19.052 -0.24 +0.02    +0.289 C  ATOM     16  O   UNL     1      32.536  41.042  19.416 -0.57 -0.03    -0.265 OA BRANCH  15  17ATOM     17  C   UNL     1      31.582  38.939  19.825 -0.29 +0.04    +0.191 A  ATOM     18  C   UNL     1      31.210  37.650  19.478 -0.46 +0.01    +0.056 A  ATOM     19  O   UNL     1      31.863  38.975  21.166 -0.91 -0.15    -0.459 OA ATOM     20  C   UNL     1      31.238  36.880  20.664 -0.46 +0.01    +0.043 A  ATOM     21  C   UNL     1      31.641  37.733  21.663 -0.30 +0.02    +0.196 A  ENDBRANCH  15  17ENDBRANCH   4   9ENDBRANCH   3   4ENDBRANCH   2   3ENDBRANCH   1   2BRANCH   1  22ATOM     22  C   UNL     1      25.512  43.885  18.698 -0.46 +0.00    -0.022 C  BRANCH  22  23ATOM     23  C   UNL     1      26.183  43.079  19.776 -0.42 -0.02    +0.066 C  BRANCH  23  24ATOM     24  C   UNL     1      25.417  41.824  20.120 -0.41 +0.00    -0.008 A  ATOM     25  C   UNL     1      24.937  41.614  21.420 -0.54 -0.00    +0.007 A  ATOM     26  C   UNL     1      25.152  40.862  19.133 -0.20 -0.02    +0.141 A  ATOM     27  C   UNL     1      24.230  40.452  21.733 -0.47 -0.00    +0.001 A  ATOM     28  C   UNL     1      24.436  39.700  19.434 -0.27 -0.03    +0.095 A  ATOM     29  C   UNL     1      23.982  39.497  20.746 -0.35 -0.01    +0.019 A  ATOM     30  F   UNL     1      25.614  41.076  17.892 -0.03 +0.01    -0.206 F  BRANCH  28  31ATOM     31  C   UNL     1      24.172  38.711  18.364 -0.24 -0.17    +0.338 C  ATOM     32  O   UNL     1      24.927  38.353  17.479 -0.88 +0.01    -0.246 OA BRANCH  31  33ATOM     33  O   UNL     1      22.931  38.193  18.444 -0.46 +0.37    -0.478 OA ATOM     34  H   UNL     1      23.085  37.305  18.828 -0.31 -0.63    +0.297 HD ENDBRANCH  31  33ENDBRANCH  28  31ENDBRANCH  23  24ENDBRANCH  22  23ENDBRANCH   1  22TORSDOF 12TERENDMDL