REMARK SMILES COc1cc(CN[C@H]2C[C@H](O)CC[C@@H]2n2cnc3c(N)ncnc32)ccc1C(F)(F)F
REMARK SMILES IDX 7 1 6 3 5 4 3 5 4 6 27 7 26 8 25 9 2 10 1 11 28 12 29 13
REMARK SMILES IDX 30 14 31 15 8 16 9 17 14 18 10 19 13 20 12 21 15 22 16 23
REMARK SMILES IDX 24 24 17 25 23 26 18 27 22 28 19 29 21 30 20 31 11 34
REMARK H PARENT 7 2 20 32 20 33 11 35
ROOT
ATOM      1  N   UNL     1       0.267   0.419  -0.201  1.00  0.00    -0.308 NA
ATOM      2  H   UNL     1       0.971   1.057  -0.573  1.00  0.00     0.123 HD
ENDROOT
BRANCH   1   3
ATOM      3  C   UNL     1       0.815  -0.226   0.994  1.00  0.00     0.117 C 
BRANCH   3   4
ATOM      4  C   UNL     1       2.125  -0.901   0.667  1.00  0.00    -0.030 A 
ATOM      5  C   UNL     1       4.565  -0.907   0.680  1.00  0.00     0.131 A 
ATOM      6  C   UNL     1       3.347  -0.294   0.998  1.00  0.00     0.052 A 
ATOM      7  C   UNL     1       4.568  -2.144   0.015  1.00  0.00     0.097 A 
ATOM      8  C   UNL     1       3.343  -2.745  -0.325  1.00  0.00     0.017 A 
ATOM      9  C   UNL     1       2.135  -2.128  -0.005  1.00  0.00     0.006 A 
BRANCH   5  10
ATOM     10  O   UNL     1       5.797  -0.384   0.968  1.00  0.00    -0.496 OA
ATOM     11  C   UNL     1       5.846   0.856   1.662  1.00  0.00     0.278 C 
ENDBRANCH   5  10
BRANCH   7  12
ATOM     12  C   UNL     1       5.868  -2.822  -0.341  1.00  0.00     0.419 C 
ATOM     13  F   UNL     1       5.688  -4.026  -0.962  1.00  0.00    -0.166 F 
ATOM     14  F   UNL     1       6.638  -2.093  -1.198  1.00  0.00    -0.166 F 
ATOM     15  F   UNL     1       6.650  -3.095   0.742  1.00  0.00    -0.166 F 
ENDBRANCH   7  12
ENDBRANCH   3   4
ENDBRANCH   1   3
BRANCH   1  16
ATOM     16  C   UNL     1      -0.992   1.139   0.088  1.00  0.00     0.079 C 
ATOM     17  C   UNL     1      -0.721   2.606   0.475  1.00  0.00     0.052 C 
ATOM     18  C   UNL     1      -1.913   1.029  -1.164  1.00  0.00     0.107 C 
ATOM     19  C   UNL     1      -0.723   3.533  -0.735  1.00  0.00     0.116 C 
ATOM     20  C   UNL     1      -2.860   2.232  -1.285  1.00  0.00     0.030 C 
ATOM     21  C   UNL     1      -2.089   3.547  -1.429  1.00  0.00     0.034 C 
BRANCH  18  22
ATOM     22  N   UNL     1      -2.620  -0.246  -1.206  1.00  0.00    -0.310 N 
ATOM     23  C   UNL     1      -2.390  -1.252  -2.109  1.00  0.00     0.202 A 
ATOM     24  C   UNL     1      -3.603  -0.675  -0.356  1.00  0.00     0.165 A 
ATOM     25  N   UNL     1      -3.178  -2.288  -1.908  1.00  0.00    -0.231 NA
ATOM     26  N   UNL     1      -4.138  -0.020   0.689  1.00  0.00    -0.217 NA
ATOM     27  C   UNL     1      -3.931  -1.946  -0.803  1.00  0.00     0.150 A 
ATOM     28  C   UNL     1      -5.090  -0.765   1.286  1.00  0.00     0.226 A 
ATOM     29  C   UNL     1      -4.933  -2.626  -0.091  1.00  0.00     0.155 A 
ATOM     30  N   UNL     1      -5.518  -2.003   0.957  1.00  0.00    -0.217 NA
BRANCH  29  31
ATOM     31  N   UNL     1      -5.368  -3.903  -0.420  1.00  0.00    -0.382 N 
ATOM     32  H   UNL     1      -5.151  -4.169  -1.375  1.00  0.00     0.158 HD
ATOM     33  H   UNL     1      -6.298  -4.091  -0.074  1.00  0.00     0.158 HD
ENDBRANCH  29  31
ENDBRANCH  18  22
BRANCH  19  34
ATOM     34  O   UNL     1      -0.385   4.847  -0.310  1.00  0.00    -0.393 OA
ATOM     35  H   UNL     1      -0.426   5.433  -1.086  1.00  0.00     0.210 HD
ENDBRANCH  19  34
ENDBRANCH   1  16
TORSDOF 8
