REMARK SMILES Nc1ncnc2c1ncn2[C@H]1CC[C@@H](O)C[C@@H]1NCc1ccc(O)c(N2CCOCC2)c1
REMARK SMILES IDX 18 1 17 3 11 4 12 5 13 6 16 7 14 8 10 9 2 10 3 11 7 12 4 13
REMARK SMILES IDX 6 14 8 15 5 16 9 17 1 18 15 21 19 23 20 24 21 25 32 26 22 27
REMARK SMILES IDX 25 28 23 29 26 30 27 31 31 32 28 33 30 34 29 35 24 36
REMARK H PARENT 18 2 1 19 1 20 15 22 24 37
ROOT
ATOM      1  N   UNL     1       0.252  -1.572  -0.072  1.00  0.00    -0.308 NA
ATOM      2  H   UNL     1      -0.007  -2.428   0.423  1.00  0.00     0.123 HD
ENDROOT
BRANCH   1   3
ATOM      3  C   UNL     1       1.726  -1.444  -0.094  1.00  0.00     0.079 C 
ATOM      4  C   UNL     1       2.230  -0.043  -0.594  1.00  0.00     0.107 C 
ATOM      5  C   UNL     1       3.188  -0.180  -1.793  1.00  0.00     0.030 C 
ATOM      6  C   UNL     1       4.321  -1.200  -1.620  1.00  0.00     0.034 C 
ATOM      7  C   UNL     1       2.412  -2.636  -0.789  1.00  0.00     0.052 C 
ATOM      8  C   UNL     1       3.924  -2.442  -0.823  1.00  0.00     0.116 C 
BRANCH   4   9
ATOM      9  N   UNL     1       2.659   0.806   0.521  1.00  0.00    -0.310 N 
ATOM     10  C   UNL     1       4.742   2.923   2.390  1.00  0.00     0.155 A 
ATOM     11  N   UNL     1       5.857   2.999   1.632  1.00  0.00    -0.217 NA
ATOM     12  C   UNL     1       3.663   2.150   1.929  1.00  0.00     0.150 A 
ATOM     13  C   UNL     1       5.884   2.307   0.474  1.00  0.00     0.226 A 
ATOM     14  C   UNL     1       3.832   1.486   0.720  1.00  0.00     0.165 A 
ATOM     15  N   UNL     1       2.403   1.933   2.444  1.00  0.00    -0.231 NA
ATOM     16  N   UNL     1       4.921   1.536  -0.065  1.00  0.00    -0.217 NA
ATOM     17  C   UNL     1       1.824   1.140   1.571  1.00  0.00     0.202 A 
BRANCH  10  18
ATOM     18  N   UNL     1       4.710   3.639   3.581  1.00  0.00    -0.382 N 
ATOM     19  H   UNL     1       5.365   4.409   3.583  1.00  0.00     0.158 HD
ATOM     20  H   UNL     1       3.769   3.809   3.922  1.00  0.00     0.158 HD
ENDBRANCH  10  18
ENDBRANCH   4   9
BRANCH   8  21
ATOM     21  O   UNL     1       4.407  -2.301   0.509  1.00  0.00    -0.393 OA
ATOM     22  H   UNL     1       4.344  -3.167   0.946  1.00  0.00     0.210 HD
ENDBRANCH   8  21
ENDBRANCH   1   3
BRANCH   1  23
ATOM     23  C   UNL     1      -0.409  -1.583  -1.377  1.00  0.00     0.117 C 
BRANCH  23  24
ATOM     24  C   UNL     1      -1.910  -1.665  -1.206  1.00  0.00    -0.032 A 
ATOM     25  C   UNL     1      -2.621  -2.784  -1.674  1.00  0.00     0.009 A 
ATOM     26  C   UNL     1      -2.609  -0.618  -0.575  1.00  0.00     0.035 A 
ATOM     27  C   UNL     1      -4.004  -2.859  -1.520  1.00  0.00     0.049 A 
ATOM     28  C   UNL     1      -3.995  -0.682  -0.405  1.00  0.00     0.080 A 
ATOM     29  C   UNL     1      -4.667  -1.815  -0.892  1.00  0.00     0.138 A 
BRANCH  28  30
ATOM     30  N   UNL     1      -4.777   0.325   0.213  1.00  0.00    -0.364 N 
ATOM     31  C   UNL     1      -4.312   0.656   1.585  1.00  0.00     0.145 C 
ATOM     32  C   UNL     1      -4.840   1.550  -0.625  1.00  0.00     0.145 C 
ATOM     33  C   UNL     1      -5.251   1.712   2.193  1.00  0.00     0.181 C 
ATOM     34  C   UNL     1      -5.757   2.581   0.055  1.00  0.00     0.181 C 
ATOM     35  O   UNL     1      -5.299   2.898   1.380  1.00  0.00    -0.378 OA
ENDBRANCH  28  30
BRANCH  29  36
ATOM     36  O   UNL     1      -6.025  -1.885  -0.730  1.00  0.00    -0.506 OA
ATOM     37  H   UNL     1      -6.217  -1.061  -0.231  1.00  0.00     0.293 HD
ENDBRANCH  29  36
ENDBRANCH  23  24
ENDBRANCH   1  23
TORSDOF 8
