MODEL        7USER    Run = 7USERUSER    Estimated Free Energy of Binding    =  -8.34 kcal/mol  [=(1)+(2)+(3)-(4)]USERUSER    (1) Final Intermolecular Energy     = -12.82 kcal/molUSER        vdW + Hbond + desolv Energy     = -13.40 kcal/molUSER        Electrostatic Energy            =  -0.12 kcal/molUSER        Moving Ligand-Fixed Receptor    = -13.52 kcal/molUSER        Moving Ligand-Moving Receptor   =  +0.70 kcal/molUSER    (2) Final Total Internal Energy     =  -4.22 kcal/molUSER    (3) Torsional Free Energy           =  +4.47 kcal/molUSER    (4) Unbound System's Energy         =  -4.22 kcal/molUSERUSERREMARK SMILES COc1ccc(O)c(C(=O)c2ccc(C(=O)N[C@@H]3CCCNC[C@@H]3NC(=O)c3cnc4cc(N(C)C)ccc4n3)cc2)c1FREMARK SMILES IDX 18 1 17 3 15 4 16 5 14 7 11 8 12 9 42 10 13 11 41 12 9 13REMARK SMILES IDX 10 14 8 15 3 16 4 17 43 18 5 19 6 20 44 21 2 22 1 23 7 24REMARK SMILES IDX 24 26 23 27 22 28 21 30 20 31 19 32 25 34 26 35 27 37 28 38REMARK SMILES IDX 29 39 40 40 30 41 39 42 31 43 38 44 32 45 37 46 33 47 34 48REMARK SMILES IDX 35 49 36 50REMARK H PARENT 17 6 7 25 22 29 25 36REMARK Flexibility Score:  100.900USER                              x       y       z     vdW  Elec       q    TypeUSER                           _______ _______ _______ _____ _____    ______ ____ROOTATOM      1  C   UNL     1      38.099  45.663  14.162 -0.39 -0.03    +0.106 CG0ATOM      2  G   UNL     1      38.211  46.795  13.129 +0.00 +0.00    +0.000 G0 ENDROOTBRANCH   1   3ATOM      3  N   UNL     1      39.070  45.902  15.236 -0.16 +0.08    -0.347 N  ATOM      4  C   UNL     1      38.845  46.779  16.270 -0.31 -0.08    +0.251 C  ATOM      5  O   UNL     1      37.868  47.518  16.328 -0.28 +0.17    -0.269 OA ATOM      6  H   UNL     1      39.917  45.335  15.209 +0.13 -0.02    +0.164 HD BRANCH   4   7ATOM      7  C   UNL     1      39.875  46.817  17.345 -0.45 -0.01    +0.039 A  ATOM      8  C   UNL     1      41.782  46.796  19.409 -0.43 +0.00    +0.023 A  ATOM      9  C   UNL     1      41.946  47.639  18.301 -0.50 -0.00    +0.013 A  ATOM     10  C   UNL     1      40.670  45.950  19.473 -0.42 +0.00    +0.013 A  ATOM     11  C   UNL     1      40.997  47.652  17.274 -0.52 -0.00    +0.014 A  ATOM     12  C   UNL     1      39.726  45.956  18.441 -0.43 -0.00    +0.014 A  BRANCH   8  13ATOM     13  C   UNL     1      42.822  46.826  20.473 -0.33 +0.05    +0.199 C  ATOM     14  O   UNL     1      43.988  47.111  20.212 -0.40 -0.19    -0.288 OA BRANCH  13  15ATOM     15  C   UNL     1      42.467  46.550  21.870 -0.25 +0.02    +0.104 A  ATOM     16  C   UNL     1      41.596  44.986  23.508 -0.08 +0.01    +0.155 A  ATOM     17  C   UNL     1      41.676  45.986  24.483 -0.09 +0.00    +0.053 A  ATOM     18  C   UNL     1      41.997  45.281  22.200 -0.15 +0.03    +0.179 A  ATOM     19  C   UNL     1      42.152  47.262  24.154 -0.18 +0.01    +0.051 A  ATOM     20  C   UNL     1      42.547  47.541  22.847 -0.24 +0.02    +0.130 A  ATOM     21  F   UNL     1      41.930  44.327  21.256 -0.08 -0.03    -0.202 F  BRANCH  16  22ATOM     22  O   UNL     1      41.158  43.707  23.717 -0.03 -0.01    -0.494 OA ATOM     23  C   UNL     1      42.145  42.697  23.884 -0.06 -0.02    +0.278 C  ENDBRANCH  16  22BRANCH  20  24ATOM     24  O   UNL     1      43.045  48.772  22.533 -0.61 -0.11    -0.507 OA ATOM     25  H   UNL     1      43.617  48.702  21.749 -0.43 -0.03    +0.293 HD ENDBRANCH  20  24ENDBRANCH  13  15ENDBRANCH   8  13ENDBRANCH   4   7ENDBRANCH   1   3BRANCH   1  26ATOM     26  C   UNL     1      36.688  45.436  14.759 -0.36 -0.05    +0.118 C  BRANCH  26  27ATOM     27  C   UNL     1      35.821  46.709  14.656 -0.37 -0.09    +0.108 C  BRANCH  27  28ATOM     28  N   UNL     1      35.097  46.878  13.391 -0.26 +0.24    -0.315 NA ATOM     29  H   UNL     1      34.886  45.948  13.027 +0.02 -0.08    +0.122 HD BRANCH  28  30ATOM     30  C   UNL     1      35.864  47.604  12.377 -0.59 -0.05    +0.081 C  BRANCH  30  31ATOM     31  C   UNL     1      37.162  46.890  12.022 -0.70 -0.00    +0.017 C  BRANCH  31  32ATOM     32  C   UNL     1      38.211  46.795  13.129 -0.27 -0.01    +0.028 CG0ATOM     33  G   UNL     1      38.091  45.657  14.153 +0.00 +0.00    +0.000 G0 ENDBRANCH  31  32ENDBRANCH  30  31ENDBRANCH  28  30ENDBRANCH  27  28ENDBRANCH  26  27BRANCH  26  34ATOM     34  N   UNL     1      36.700  44.930  16.130 -0.11 +0.14    -0.345 N  ATOM     35  C   UNL     1      35.990  43.839  16.570 -0.24 -0.10    +0.271 C  ATOM     36  H   UNL     1      37.377  45.342  16.775 +0.11 -0.06    +0.164 HD ATOM     37  O   UNL     1      35.243  43.180  15.854 -0.32 +0.11    -0.267 OA BRANCH  35  38ATOM     38  C   UNL     1      36.208  43.489  18.001 -0.17 -0.04    +0.147 A  ATOM     39  C   UNL     1      35.540  42.423  18.566 -0.22 -0.03    +0.146 A  ATOM     40  N   UNL     1      37.083  44.260  18.704 -0.19 +0.04    -0.239 NA ATOM     41  N   UNL     1      35.710  42.079  19.867 -0.27 +0.01    -0.252 NA ATOM     42  C   UNL     1      37.254  43.924  19.997 -0.31 -0.01    +0.090 A  ATOM     43  C   UNL     1      36.566  42.837  20.586 -0.38 -0.00    +0.091 A  ATOM     44  C   UNL     1      38.117  44.665  20.783 -0.33 +0.00    +0.033 A  ATOM     45  C   UNL     1      36.779  42.547  21.932 -0.43 +0.00    +0.056 A  ATOM     46  C   UNL     1      38.317  44.354  22.133 -0.33 +0.00    +0.028 A  ATOM     47  C   UNL     1      37.661  43.278  22.748 -0.35 +0.00    +0.038 A  BRANCH  47  48ATOM     48  N   UNL     1      37.850  42.996  24.106 -0.10 -0.02    -0.378 N  ATOM     49  C   UNL     1      36.921  42.045  24.720 -0.36 -0.00    +0.143 C  ATOM     50  C   UNL     1      38.326  44.056  24.995 -0.20 +0.00    +0.143 C  ENDBRANCH  47  48ENDBRANCH  35  38ENDBRANCH  26  34ENDBRANCH   1  26TORSDOF 9TERENDMDL