MODEL        3USER    Run = 3USERUSER    Estimated Free Energy of Binding    =  -9.92 kcal/mol  [=(1)+(2)+(3)-(4)]USERUSER    (1) Final Intermolecular Energy     = -12.00 kcal/molUSER        vdW + Hbond + desolv Energy     = -11.70 kcal/molUSER        Electrostatic Energy            =  -0.30 kcal/molUSER        Moving Ligand-Fixed Receptor    = -12.00 kcal/molUSER        Moving Ligand-Moving Receptor   =  +0.00 kcal/molUSER    (2) Final Total Internal Energy     =  -1.97 kcal/molUSER    (3) Torsional Free Energy           =  +2.09 kcal/molUSER    (4) Unbound System's Energy         =  -1.97 kcal/molUSERUSERREMARK SMILES COC1=c2cc[nH]c2=C(N2CC[C@@H](Cc3ccc(C(=O)N(C)O)cc3)C2=O)C[C@@H]1CREMARK SMILES IDX 15 1 16 2 17 3 18 4 24 5 25 6 14 7 13 8 10 9 11 10 26 11REMARK SMILES IDX 12 12 27 13 9 14 3 15 4 16 29 17 5 18 8 19 28 20 6 21 7 22REMARK SMILES IDX 30 23 2 25 1 26 19 27 20 28 21 29 22 30 23 31REMARK H PARENT 7 24 23 32USER                              x       y       z     vdW  Elec       q    TypeUSER                           _______ _______ _______ _____ _____    ______ ____ROOTATOM      1  C   UNL     1      34.535  43.555  18.760 -0.33 +0.01    -0.047 A  ATOM      2  C   UNL     1      34.128  42.844  17.623 -0.37 -0.00    +0.004 A  ATOM      3  C   UNL     1      33.430  43.487  16.599 -0.33 -0.01    +0.014 A  ATOM      4  C   UNL     1      33.125  44.848  16.706 -0.29 -0.02    +0.042 A  ATOM      5  C   UNL     1      33.553  45.571  17.823 -0.40 -0.01    +0.014 A  ATOM      6  C   UNL     1      34.248  44.924  18.848 -0.41 -0.00    +0.004 A  ENDROOTBRANCH   1   7ATOM      7  C   UNL     1      35.310  42.858  19.857 -0.47 -0.00    +0.049 C  BRANCH   7   8ATOM      8  C   UNL     1      36.788  43.251  19.865 -0.36 -0.01    +0.085 C  ATOM      9  N   UNL     1      38.222  44.981  19.104 -0.19 +0.03    -0.314 N  ATOM     10  C   UNL     1      38.413  44.834  20.535 -0.32 -0.00    +0.126 C  ATOM     11  C   UNL     1      37.203  44.102  18.670 -0.21 -0.04    +0.230 C  ATOM     12  C   UNL     1      37.143  44.171  21.023 -0.42 +0.00    +0.036 C  ATOM     13  O   UNL     1      36.719  43.976  17.554 -0.19 +0.07    -0.274 OA BRANCH   9  14ATOM     14  C   UNL     1      38.994  45.861  18.332 -0.44 -0.01    +0.046 C  ATOM     15  C   UNL     1      40.729  47.618  16.732 -0.51 -0.02    +0.108 C  ATOM     16  C   UNL     1      39.441  47.398  16.444 -0.45 -0.01    +0.039 A  ATOM     17  C   UNL     1      41.387  46.884  17.878 -0.50 -0.00    +0.058 C  ATOM     18  C   UNL     1      38.647  47.960  15.360 -0.48 -0.01    +0.031 A  ATOM     19  C   UNL     1      38.607  46.435  17.178 -0.36 -0.02    +0.069 A  ATOM     20  C   UNL     1      40.374  46.243  18.872 -0.46 -0.00    +0.067 C  ATOM     21  C   UNL     1      37.468  47.318  15.413 -0.37 -0.05    +0.083 A  ATOM     22  N   UNL     1      37.455  46.397  16.432 -0.14 +0.18    -0.360 N  ATOM     23  C   UNL     1      42.372  47.764  18.657 -0.56 +0.00    +0.016 C  ATOM     24  H   UNL     1      36.629  45.904  16.768 +0.12 -0.09    +0.166 HD BRANCH  15  25ATOM     25  O   UNL     1      41.496  48.519  16.014 -0.56 +0.00    -0.500 OA ATOM     26  C   UNL     1      40.934  49.829  16.077 -0.36 -0.06    +0.278 C  ENDBRANCH  15  25ENDBRANCH   9  14ENDBRANCH   7   8ENDBRANCH   1   7BRANCH   4  27ATOM     27  C   UNL     1      32.403  45.505  15.588 -0.20 -0.22    +0.276 C  ATOM     28  O   UNL     1      32.983  45.722  14.524 -0.28 +0.24    -0.267 OA BRANCH  27  29ATOM     29  N   UNL     1      31.065  45.874  15.784 -0.28 +0.09    -0.224 N  ATOM     30  C   UNL     1      29.986  45.099  15.199 -0.30 -0.11    +0.183 C  BRANCH  29  31ATOM     31  O   UNL     1      30.874  47.242  15.401 -0.88 +0.10    -0.286 OA ATOM     32  H   UNL     1      31.724  47.454  14.955 -0.40 -0.33    +0.246 HD ENDBRANCH  29  31ENDBRANCH  27  29ENDBRANCH   4  27TORSDOF 7TERENDMDL