MODEL        6USER    Run = 6USERUSER    Estimated Free Energy of Binding    = -10.41 kcal/mol  [=(1)+(2)+(3)-(4)]USERUSER    (1) Final Intermolecular Energy     = -13.09 kcal/molUSER        vdW + Hbond + desolv Energy     = -12.78 kcal/molUSER        Electrostatic Energy            =  -0.31 kcal/molUSER        Moving Ligand-Fixed Receptor    = -13.09 kcal/molUSER        Moving Ligand-Moving Receptor   =  +0.00 kcal/molUSER    (2) Final Total Internal Energy     =  -0.99 kcal/molUSER    (3) Torsional Free Energy           =  +2.68 kcal/molUSER    (4) Unbound System's Energy         =  -0.99 kcal/molUSERUSERREMARK SMILES CN(O)C(=O)c1ccc(CN[C@H]2C[C@H](O)CC[C@@H]2n2cnc3c(N)ncnc32)cc1REMARK SMILES IDX 10 1 9 2 6 3 7 4 30 5 8 6 29 7 4 8 5 9 2 10 1 11 3 12 11 14REMARK SMILES IDX 12 16 13 17 18 18 14 19 17 20 16 21 19 22 20 23 28 24 21 25REMARK SMILES IDX 27 26 22 27 26 28 23 29 25 30 24 31 15 34REMARK H PARENT 3 13 11 15 24 32 24 33 15 35USER                              x       y       z     vdW  Elec       q    TypeUSER                           _______ _______ _______ _____ _____    ______ ____ROOTATOM      1  C   UNL     1      37.351  44.143  16.307 -0.30 -0.03    +0.117 C  ENDROOTBRANCH   1   2ATOM      2  C   UNL     1      36.098  43.596  16.956 -0.34 +0.01    -0.034 A  ATOM      3  C   UNL     1      33.810  42.470  18.152 -0.36 -0.01    +0.042 A  ATOM      4  C   UNL     1      33.810  42.785  16.787 -0.36 -0.01    +0.014 A  ATOM      5  C   UNL     1      34.961  42.706  18.913 -0.40 -0.00    +0.014 A  ATOM      6  C   UNL     1      34.946  43.349  16.195 -0.39 -0.00    +0.006 A  ATOM      7  C   UNL     1      36.097  43.265  18.321 -0.27 -0.00    +0.006 A  BRANCH   3   8ATOM      8  C   UNL     1      32.635  41.831  18.817 -0.25 -0.02    +0.276 C  ATOM      9  O   UNL     1      32.170  42.366  19.823 -0.49 -0.03    -0.267 OA BRANCH   8  10ATOM     10  N   UNL     1      32.143  40.636  18.297 -0.27 +0.03    -0.224 N  ATOM     11  C   UNL     1      30.929  40.626  17.500 -0.29 -0.03    +0.183 C  BRANCH  10  12ATOM     12  O   UNL     1      33.072  39.698  17.775 -0.31 +0.09    -0.286 OA ATOM     13  H   UNL     1      33.593  40.215  17.130 -0.34 -0.18    +0.246 HD ENDBRANCH  10  12ENDBRANCH   8  10ENDBRANCH   3   8ENDBRANCH   1   2BRANCH   1  14ATOM     14  N   UNL     1      37.296  45.608  16.245 -0.14 +0.13    -0.308 NA ATOM     15  H   UNL     1      36.314  45.888  16.229 +0.09 -0.08    +0.123 HD BRANCH  14  16ATOM     16  C   UNL     1      37.992  46.140  15.048 -0.40 -0.03    +0.079 C  ATOM     17  C   UNL     1      37.155  45.878  13.777 -0.48 -0.02    +0.052 C  ATOM     18  C   UNL     1      38.255  47.663  15.261 -0.47 -0.05    +0.107 C  ATOM     19  C   UNL     1      36.107  46.964  13.543 -0.51 -0.07    +0.116 C  ATOM     20  C   UNL     1      38.149  48.458  13.946 -0.53 -0.01    +0.030 C  ATOM     21  C   UNL     1      36.747  48.341  13.331 -0.59 -0.02    +0.034 C  BRANCH  18  22ATOM     22  N   UNL     1      39.517  47.910  15.954 -0.26 +0.11    -0.310 N  ATOM     23  C   UNL     1      40.446  48.861  15.603 -0.43 -0.05    +0.202 A  ATOM     24  C   UNL     1      40.010  47.233  17.038 -0.37 -0.03    +0.165 A  ATOM     25  N   UNL     1      41.505  48.828  16.388 -0.89 -0.01    -0.231 NA ATOM     26  N   UNL     1      39.425  46.236  17.724 -0.30 +0.04    -0.217 NA ATOM     27  C   UNL     1      41.256  47.797  17.273 -0.36 -0.02    +0.150 A  ATOM     28  C   UNL     1      40.229  45.791  18.709 -0.31 -0.01    +0.226 A  ATOM     29  C   UNL     1      42.003  47.241  18.331 -0.39 -0.00    +0.155 A  ATOM     30  N   UNL     1      41.463  46.229  19.045 -0.32 -0.01    -0.217 NA BRANCH  29  31ATOM     31  N   UNL     1      43.263  47.692  18.699 -0.28 -0.04    -0.382 N  ATOM     32  H   UNL     1      43.219  48.620  19.098 -0.51 -0.02    +0.158 HD ATOM     33  H   UNL     1      43.969  47.523  17.988 -0.36 +0.02    +0.158 HD ENDBRANCH  29  31ENDBRANCH  18  22BRANCH  19  34ATOM     34  O   UNL     1      35.329  46.613  12.401 -0.33 +0.26    -0.393 OA ATOM     35  H   UNL     1      34.393  46.670  12.654 -0.29 -0.20    +0.210 HD ENDBRANCH  19  34ENDBRANCH  14  16ENDBRANCH   1  14TORSDOF 9TERENDMDL