REMARK SMILES COc1ccc2nc(C(=O)N[C@@H]3CNCCC[C@H]3NC(=O)c3ccc(C(=O)c4c(O)ccc(OC)c4F)cc3)cnc2c1
REMARK SMILES IDX 18 1 12 3 11 4 9 5 10 6 8 8 3 9 4 10 43 11 5 12 42 13 6 14
REMARK SMILES IDX 41 15 7 16 40 17 2 18 1 19 13 20 14 21 15 23 16 24 17 25
REMARK SMILES IDX 19 27 20 28 21 30 22 31 23 32 39 33 24 34 38 35 25 36 26 37
REMARK SMILES IDX 27 38 28 39 29 40 36 41 31 42 33 43 32 44 37 45 30 46 34 48
REMARK SMILES IDX 35 49
REMARK H PARENT 11 7 14 22 19 29 30 47
REMARK Flexibility Score:  100.900
ROOT
ATOM      1  C   UNL     1      -0.910  -0.559   0.693  1.00  0.00     0.106 CG0
ATOM      2  G   UNL     1      -1.019  -2.037   0.272  1.00  0.00     0.000 G0
ENDROOT
BRANCH   1   3
ATOM      3  C   UNL     1      -1.644   0.442  -0.244  1.00  0.00     0.118 C 
BRANCH   3   4
ATOM      4  N   UNL     1      -3.060   0.110  -0.421  1.00  0.00    -0.345 N 
ATOM      5  C   UNL     1      -3.982   1.022  -0.892  1.00  0.00     0.271 C 
ATOM      6  O   UNL     1      -3.694   2.147  -1.284  1.00  0.00    -0.267 OA
ATOM      7  H   UNL     1      -3.447  -0.752  -0.046  1.00  0.00     0.164 HD
BRANCH   5   8
ATOM      8  C   UNL     1      -5.391   0.539  -0.890  1.00  0.00     0.147 A 
ATOM      9  C   UNL     1      -9.562  -2.046  -0.417  1.00  0.00     0.121 A 
ATOM     10  C   UNL     1      -8.540  -2.854   0.066  1.00  0.00     0.049 A 
ATOM     11  C   UNL     1      -9.249  -0.771  -0.896  1.00  0.00     0.077 A 
ATOM     12  C   UNL     1      -7.221  -2.385   0.059  1.00  0.00     0.034 A 
ATOM     13  C   UNL     1      -7.946  -0.293  -0.908  1.00  0.00     0.092 A 
ATOM     14  C   UNL     1      -6.902  -1.122  -0.420  1.00  0.00     0.090 A 
ATOM     15  N   UNL     1      -7.695   0.946  -1.381  1.00  0.00    -0.252 NA
ATOM     16  N   UNL     1      -5.617  -0.715  -0.409  1.00  0.00    -0.239 NA
ATOM     17  C   UNL     1      -6.403   1.351  -1.362  1.00  0.00     0.146 A 
BRANCH   9  18
ATOM     18  O   UNL     1     -10.887  -2.370  -0.474  1.00  0.00    -0.497 OA
ATOM     19  C   UNL     1     -11.258  -3.664  -0.015  1.00  0.00     0.278 C 
ENDBRANCH   9  18
ENDBRANCH   5   8
ENDBRANCH   3   4
BRANCH   3  20
ATOM     20  C   UNL     1      -0.933   0.718  -1.601  1.00  0.00     0.108 C 
BRANCH  20  21
ATOM     21  N   UNL     1       0.037  -0.272  -2.097  1.00  0.00    -0.315 NA
ATOM     22  H   UNL     1       0.330   0.041  -3.025  1.00  0.00     0.122 HD
BRANCH  21  23
ATOM     23  C   UNL     1      -0.547  -1.604  -2.225  1.00  0.00     0.081 C 
BRANCH  23  24
ATOM     24  C   UNL     1      -0.259  -2.446  -0.988  1.00  0.00     0.017 C 
BRANCH  24  25
ATOM     25  C   UNL     1      -1.019  -2.037   0.272  1.00  0.00     0.028 CG0
ATOM     26  G   UNL     1      -0.910  -0.559   0.693  1.00  0.00     0.000 G0
ENDBRANCH  24  25
ENDBRANCH  23  24
ENDBRANCH  21  23
ENDBRANCH  20  21
ENDBRANCH   3  20
ENDBRANCH   1   3
BRANCH   1  27
ATOM     27  N   UNL     1       0.486  -0.184   0.897  1.00  0.00    -0.347 N 
ATOM     28  C   UNL     1       1.158  -0.426   2.073  1.00  0.00     0.251 C 
ATOM     29  H   UNL     1       0.997   0.061   0.056  1.00  0.00     0.164 HD
ATOM     30  O   UNL     1       0.615  -0.837   3.092  1.00  0.00    -0.269 OA
BRANCH  28  31
ATOM     31  C   UNL     1       2.620  -0.138   2.071  1.00  0.00     0.039 A 
ATOM     32  C   UNL     1       3.408  -0.273   0.919  1.00  0.00     0.014 A 
ATOM     33  C   UNL     1       3.217   0.255   3.276  1.00  0.00     0.014 A 
ATOM     34  C   UNL     1       4.777   0.018   0.967  1.00  0.00     0.013 A 
ATOM     35  C   UNL     1       4.582   0.548   3.323  1.00  0.00     0.013 A 
ATOM     36  C   UNL     1       5.359   0.453   2.164  1.00  0.00     0.023 A 
BRANCH  36  37
ATOM     37  C   UNL     1       6.808   0.747   2.260  1.00  0.00     0.199 C 
ATOM     38  O   UNL     1       7.427   0.367   3.255  1.00  0.00    -0.288 OA
BRANCH  37  39
ATOM     39  C   UNL     1       7.568   1.433   1.191  1.00  0.00     0.104 A 
ATOM     40  C   UNL     1       8.926   1.141   1.020  1.00  0.00     0.130 A 
ATOM     41  C   UNL     1       6.982   2.397   0.368  1.00  0.00     0.179 A 
ATOM     42  C   UNL     1       9.664   1.757   0.011  1.00  0.00     0.051 A 
ATOM     43  C   UNL     1       7.715   3.032  -0.646  1.00  0.00     0.155 A 
ATOM     44  C   UNL     1       9.059   2.699  -0.826  1.00  0.00     0.053 A 
ATOM     45  F   UNL     1       5.699   2.752   0.551  1.00  0.00    -0.202 F 
BRANCH  40  46
ATOM     46  O   UNL     1       9.604   0.255   1.813  1.00  0.00    -0.507 OA
ATOM     47  H   UNL     1       9.044   0.065   2.600  1.00  0.00     0.293 HD
ENDBRANCH  40  46
BRANCH  43  48
ATOM     48  O   UNL     1       7.020   3.949  -1.389  1.00  0.00    -0.494 OA
ATOM     49  C   UNL     1       7.731   4.639  -2.408  1.00  0.00     0.278 C 
ENDBRANCH  43  48
ENDBRANCH  37  39
ENDBRANCH  36  37
ENDBRANCH  28  31
ENDBRANCH   1  27
TORSDOF 9
