MODEL        6USER    Run = 6USERUSER    Estimated Free Energy of Binding    = -10.13 kcal/mol  [=(1)+(2)+(3)-(4)]USERUSER    (1) Final Intermolecular Energy     = -12.52 kcal/molUSER        vdW + Hbond + desolv Energy     = -12.39 kcal/molUSER        Electrostatic Energy            =  -0.13 kcal/molUSER        Moving Ligand-Fixed Receptor    = -12.52 kcal/molUSER        Moving Ligand-Moving Receptor   =  +0.00 kcal/molUSER    (2) Final Total Internal Energy     =  -2.55 kcal/molUSER    (3) Torsional Free Energy           =  +2.39 kcal/molUSER    (4) Unbound System's Energy         =  -2.55 kcal/molUSERUSERREMARK SMILES COC1=c2cc[nH]c2=C(N2CC[C@H](Cc3ccc(C(=O)NCCN(C)C)cc3)C2=O)C[C@@H]1CREMARK SMILES IDX 15 1 16 2 17 3 18 4 27 5 28 6 14 7 13 8 10 9 11 10 29 11REMARK SMILES IDX 12 12 30 13 9 14 3 15 4 16 32 17 5 18 8 19 31 20 6 21 7 22REMARK SMILES IDX 33 23 2 25 1 26 19 27 21 28 20 29 22 31 23 32 24 33 25 34REMARK SMILES IDX 26 35REMARK H PARENT 7 24 21 30USER                              x       y       z     vdW  Elec       q    TypeUSER                           _______ _______ _______ _____ _____    ______ ____ROOTATOM      1  C   UNL     1      39.681  45.067  21.856 -0.28 -0.00    -0.047 A  ATOM      2  C   UNL     1      38.310  45.122  21.571 -0.31 +0.00    +0.004 A  ATOM      3  C   UNL     1      37.420  44.235  22.186 -0.37 +0.00    +0.014 A  ATOM      4  C   UNL     1      37.897  43.279  23.090 -0.32 +0.00    +0.039 A  ATOM      5  C   UNL     1      39.263  43.228  23.388 -0.25 +0.00    +0.014 A  ATOM      6  C   UNL     1      40.150  44.112  22.767 -0.23 +0.00    +0.004 A  ENDROOTBRANCH   1   7ATOM      7  C   UNL     1      40.643  46.021  21.186 -0.23 +0.00    +0.049 C  BRANCH   7   8ATOM      8  C   UNL     1      41.435  45.370  20.046 -0.39 +0.01    +0.085 C  ATOM      9  N   UNL     1      40.302  45.757  17.993 -0.23 +0.02    -0.314 N  ATOM     10  C   UNL     1      39.740  44.554  18.576 -0.36 -0.01    +0.126 C  ATOM     11  C   UNL     1      41.374  46.218  18.787 -0.39 +0.01    +0.230 C  ATOM     12  C   UNL     1      40.785  44.078  19.564 -0.30 +0.00    +0.036 C  ATOM     13  O   UNL     1      42.150  47.141  18.579 -0.44 -0.00    -0.274 OA BRANCH   9  14ATOM     14  C   UNL     1      39.781  46.337  16.827 -0.49 -0.01    +0.046 C  ATOM     15  C   UNL     1      38.545  47.538  14.443 -0.48 -0.04    +0.108 C  ATOM     16  C   UNL     1      39.663  48.012  15.008 -0.51 -0.01    +0.039 A  ATOM     17  C   UNL     1      37.803  46.387  15.083 -0.42 -0.02    +0.058 C  ATOM     18  C   UNL     1      40.488  49.133  14.583 -0.50 -0.01    +0.031 A  ATOM     19  C   UNL     1      40.207  47.485  16.268 -0.47 -0.01    +0.069 A  ATOM     20  C   UNL     1      38.663  45.584  16.103 -0.32 -0.02    +0.067 C  ATOM     21  C   UNL     1      41.393  49.299  15.565 -0.52 -0.01    +0.083 A  ATOM     22  N   UNL     1      41.195  48.389  16.577 -0.27 +0.03    -0.360 N  ATOM     23  C   UNL     1      37.201  45.423  14.055 -0.48 -0.01    +0.016 C  ATOM     24  H   UNL     1      41.883  48.176  17.301 -0.06 +0.00    +0.166 HD BRANCH  15  25ATOM     25  O   UNL     1      38.030  48.063  13.271 -0.56 +0.10    -0.500 OA ATOM     26  C   UNL     1      36.692  48.517  13.468 -0.31 -0.14    +0.278 C  ENDBRANCH  15  25ENDBRANCH   9  14ENDBRANCH   7   8ENDBRANCH   1   7BRANCH   4  27ATOM     27  C   UNL     1      36.988  42.322  23.776 -0.31 +0.01    +0.251 C  ATOM     28  N   UNL     1      36.710  42.586  25.101 -0.17 +0.01    -0.351 N  ATOM     29  O   UNL     1      36.509  41.375  23.163 -0.44 -0.01    -0.269 OA ATOM     30  H   UNL     1      37.000  43.466  25.505 +0.11 -0.00    +0.163 HD BRANCH  28  31ATOM     31  C   UNL     1      35.802  41.746  25.865 -0.39 -0.03    +0.131 C  BRANCH  31  32ATOM     32  C   UNL     1      35.452  42.360  27.236 -0.55 -0.03    +0.105 C  BRANCH  32  33ATOM     33  N   UNL     1      35.895  43.743  27.494 -0.25 +0.07    -0.308 NA ATOM     34  C   UNL     1      35.035  44.452  28.434 -0.57 -0.03    +0.105 C  ATOM     35  C   UNL     1      37.295  43.804  27.911 -0.35 -0.02    +0.105 C  ENDBRANCH  32  33ENDBRANCH  31  32ENDBRANCH  28  31ENDBRANCH   4  27TORSDOF 8TERENDMDL