REMARK SMILES COC1=c2cc[nH]c2=C(N2CC[C@@H](Cc3ccc(C(=O)N(C)O)cc3)C2=O)C[C@@H]1C
REMARK SMILES IDX 15 1 16 2 17 3 18 4 24 5 25 6 14 7 13 8 10 9 11 10 26 11
REMARK SMILES IDX 12 12 27 13 9 14 3 15 4 16 29 17 5 18 8 19 28 20 6 21 7 22
REMARK SMILES IDX 30 23 2 25 1 26 19 27 20 28 21 29 22 30 23 31
REMARK H PARENT 7 24 23 32
ROOT
ATOM      1  C   UNL     1       3.223  -1.098  -0.545  1.00  0.00    -0.047 A 
ATOM      2  C   UNL     1       4.189  -1.703   0.272  1.00  0.00     0.004 A 
ATOM      3  C   UNL     1       5.296  -0.977   0.715  1.00  0.00     0.014 A 
ATOM      4  C   UNL     1       5.453   0.361   0.338  1.00  0.00     0.042 A 
ATOM      5  C   UNL     1       4.480   0.980  -0.452  1.00  0.00     0.014 A 
ATOM      6  C   UNL     1       3.375   0.250  -0.897  1.00  0.00     0.004 A 
ENDROOT
BRANCH   1   7
ATOM      7  C   UNL     1       2.014  -1.883  -1.004  1.00  0.00     0.049 C 
BRANCH   7   8
ATOM      8  C   UNL     1       0.848  -1.784  -0.020  1.00  0.00     0.085 C 
ATOM      9  N   UNL     1      -1.441  -1.164   0.042  1.00  0.00    -0.314 N 
ATOM     10  C   UNL     1      -1.327  -2.517   0.554  1.00  0.00     0.126 C 
ATOM     11  C   UNL     1      -0.171  -0.710  -0.383  1.00  0.00     0.230 C 
ATOM     12  C   UNL     1      -0.023  -3.031  -0.017  1.00  0.00     0.036 C 
ATOM     13  O   UNL     1       0.128   0.347  -0.921  1.00  0.00    -0.274 OA
BRANCH   9  14
ATOM     14  C   UNL     1      -2.658  -0.466   0.035  1.00  0.00     0.046 C 
ATOM     15  C   UNL     1      -5.234   0.950   0.155  1.00  0.00     0.108 C 
ATOM     16  C   UNL     1      -4.155   1.439  -0.468  1.00  0.00     0.039 A 
ATOM     17  C   UNL     1      -5.145  -0.352   0.917  1.00  0.00     0.058 C 
ATOM     18  C   UNL     1      -4.025   2.690  -1.203  1.00  0.00     0.031 A 
ATOM     19  C   UNL     1      -2.841   0.783  -0.432  1.00  0.00     0.069 A 
ATOM     20  C   UNL     1      -3.894  -1.205   0.552  1.00  0.00     0.067 C 
ATOM     21  C   UNL     1      -2.719   2.789  -1.506  1.00  0.00     0.083 A 
ATOM     22  N   UNL     1      -2.018   1.713  -1.018  1.00  0.00    -0.360 N 
ATOM     23  C   UNL     1      -6.405  -1.213   0.768  1.00  0.00     0.016 C 
ATOM     24  H   UNL     1      -1.053   1.486  -1.252  1.00  0.00     0.166 HD
BRANCH  15  25
ATOM     25  O   UNL     1      -6.457   1.597   0.119  1.00  0.00    -0.500 OA
ATOM     26  C   UNL     1      -6.669   2.350   1.313  1.00  0.00     0.278 C 
ENDBRANCH  15  25
ENDBRANCH   9  14
ENDBRANCH   7   8
ENDBRANCH   1   7
BRANCH   4  27
ATOM     27  C   UNL     1       6.630   1.109   0.846  1.00  0.00     0.276 C 
ATOM     28  O   UNL     1       7.058   0.886   1.979  1.00  0.00    -0.267 OA
BRANCH  27  29
ATOM     29  N   UNL     1       7.220   2.070   0.014  1.00  0.00    -0.224 N 
ATOM     30  C   UNL     1       7.577   1.749  -1.356  1.00  0.00     0.183 C 
BRANCH  29  31
ATOM     31  O   UNL     1       8.382   2.620   0.648  1.00  0.00    -0.286 OA
ATOM     32  H   UNL     1       8.353   2.200   1.536  1.00  0.00     0.246 HD
ENDBRANCH  29  31
ENDBRANCH  27  29
ENDBRANCH   4  27
TORSDOF 7
