MODEL        2USER    Run = 2USERUSER    Estimated Free Energy of Binding    = -11.75 kcal/mol  [=(1)+(2)+(3)-(4)]USERUSER    (1) Final Intermolecular Energy     = -14.44 kcal/molUSER        vdW + Hbond + desolv Energy     = -14.20 kcal/molUSER        Electrostatic Energy            =  -0.24 kcal/molUSER        Moving Ligand-Fixed Receptor    = -14.44 kcal/molUSER        Moving Ligand-Moving Receptor   =  +0.00 kcal/molUSER    (2) Final Total Internal Energy     =  -2.83 kcal/molUSER    (3) Torsional Free Energy           =  +2.68 kcal/molUSER    (4) Unbound System's Energy         =  -2.83 kcal/molUSERUSERREMARK SMILES C[C@H](O)NC[C@@H]1C(=O)N[C@@H](c2c(Cl)cccc2Cl)N1C(=O)CN1CCC(c2cccc3c2CCC3)CC1REMARK SMILES IDX 6 1 7 2 8 3 9 4 10 5 19 6 5 8 4 9 2 11 1 12 3 13 20 15 21 16REMARK SMILES IDX 22 17 23 18 24 19 37 20 25 21 36 22 26 23 27 24 28 25 32 26REMARK SMILES IDX 29 27 31 28 33 29 30 30 35 31 34 32 11 33 12 34 17 35 14 36REMARK SMILES IDX 16 37 15 38 13 39 18 40REMARK H PARENT 9 7 4 10 3 14USER                              x       y       z     vdW  Elec       q    TypeUSER                           _______ _______ _______ _____ _____    ______ ____ROOTATOM      1  C   UNL     1      38.746  47.185  15.396 -0.38 -0.07    +0.190 C  ATOM      2  C   UNL     1      37.625  47.727  14.516 -0.38 -0.13    +0.246 C  ATOM      3  O   UNL     1      37.741  48.310  13.448 -0.75 +0.09    -0.273 OA ATOM      4  N   UNL     1      36.416  47.500  15.123 -0.14 +0.32    -0.330 N  ATOM      5  C   UNL     1      36.554  46.849  16.377 -0.23 -0.17    +0.216 C  ATOM      6  N   UNL     1      37.971  46.577  16.496 -0.19 +0.13    -0.304 N  ATOM      7  H   UNL     1      35.553  47.839  14.720 +0.17 -0.22    +0.166 HD ENDROOTBRANCH   1   8ATOM      8  C   UNL     1      39.653  48.350  15.854 -0.51 -0.04    +0.118 C  BRANCH   8   9ATOM      9  N   UNL     1      40.239  49.093  14.727 -0.31 +0.10    -0.290 NA ATOM     10  H   UNL     1      39.474  49.514  14.189 -0.22 -0.09    +0.125 HD BRANCH   9  11ATOM     11  C   UNL     1      41.107  50.182  15.129 -0.52 -0.06    +0.179 C  ATOM     12  C   UNL     1      42.290  50.431  14.199 -0.69 -0.01    +0.056 C  BRANCH  11  13ATOM     13  O   UNL     1      41.570  49.947  16.445 -0.94 -0.01    -0.379 OA ATOM     14  H   UNL     1      41.648  50.818  16.869 -0.45 -0.05    +0.212 HD ENDBRANCH  11  13ENDBRANCH   9  11ENDBRANCH   8   9ENDBRANCH   1   8BRANCH   6  15ATOM     15  C   UNL     1      38.624  45.946  17.538 -0.30 -0.06    +0.239 C  ATOM     16  O   UNL     1      39.591  46.482  18.085 -0.33 +0.04    -0.273 OA BRANCH  15  17ATOM     17  C   UNL     1      38.095  44.563  17.972 -0.28 -0.03    +0.185 C  BRANCH  17  18ATOM     18  N   UNL     1      37.747  44.510  19.405 -0.18 +0.03    -0.294 NA ATOM     19  C   UNL     1      37.013  43.300  19.775 -0.30 -0.01    +0.085 C  ATOM     20  C   UNL     1      38.939  44.704  20.243 -0.37 -0.00    +0.085 C  ATOM     21  C   UNL     1      36.416  43.454  21.180 -0.45 +0.00    +0.024 C  ATOM     22  C   UNL     1      38.791  44.156  21.670 -0.36 +0.00    +0.024 C  ATOM     23  C   UNL     1      37.332  44.241  22.137 -0.42 +0.00    +0.022 C  BRANCH  23  24ATOM     24  C   UNL     1      37.140  43.812  23.579 -0.30 -0.01    -0.041 A  ATOM     25  C   UNL     1      36.614  42.548  23.906 -0.38 +0.00    +0.004 A  ATOM     26  C   UNL     1      37.457  44.656  24.643 -0.30 -0.00    -0.041 A  ATOM     27  C   UNL     1      36.450  42.143  25.240 -0.41 -0.00    +0.001 A  ATOM     28  C   UNL     1      37.296  44.245  25.975 -0.29 +0.00    -0.045 A  ATOM     29  C   UNL     1      38.039  46.040  24.602 -0.30 +0.01    +0.036 C  ATOM     30  C   UNL     1      36.803  42.991  26.288 -0.38 -0.00    +0.004 A  ATOM     31  C   UNL     1      37.767  45.299  26.929 -0.33 -0.00    +0.036 C  ATOM     32  C   UNL     1      37.763  46.537  26.028 -0.36 -0.00    +0.010 C  ENDBRANCH  23  24ENDBRANCH  17  18ENDBRANCH  15  17ENDBRANCH   6  15BRANCH   5  33ATOM     33  C   UNL     1      35.613  45.662  16.470 -0.32 -0.02    +0.032 A  ATOM     34  C   UNL     1      35.712  44.531  15.630 -0.32 -0.02    +0.049 A  ATOM     35  C   UNL     1      34.551  45.666  17.402 -0.35 -0.04    +0.049 A  ATOM     36  C   UNL     1      34.824  43.451  15.754 -0.23 -0.01    +0.021 A  ATOM     37  C   UNL     1      33.668  44.584  17.519 -0.31 -0.01    +0.021 A  ATOM     38  C   UNL     1      33.808  43.473  16.700 -0.34 -0.00    +0.003 A  ATOM     39  Cl  UNL     1      36.896  44.375  14.380 -0.31 +0.03    -0.084 Cl ATOM     40  Cl  UNL     1      34.247  47.000  18.467 -0.46 +0.07    -0.084 Cl ENDBRANCH   5  33TORSDOF 9TERENDMDL