REMARK SMILES C[C@H](O)NC[C@@H]1C(=O)N[C@@H](c2c(Cl)cccc2Cl)N1C(=O)CN1CCC(c2cccc3c2CCC3)CC1
REMARK SMILES IDX 6 1 7 2 8 3 9 4 10 5 19 6 5 8 4 9 2 11 1 12 3 13 20 15 21 16
REMARK SMILES IDX 22 17 23 18 24 19 37 20 25 21 36 22 26 23 27 24 28 25 32 26
REMARK SMILES IDX 29 27 31 28 33 29 30 30 35 31 34 32 11 33 12 34 17 35 14 36
REMARK SMILES IDX 16 37 15 38 13 39 18 40
REMARK H PARENT 9 7 4 10 3 14
ROOT
ATOM      1  C   UNL     1      -4.006   0.119   1.488  1.00  0.00     0.190 C 
ATOM      2  C   UNL     1      -5.373   0.472   0.911  1.00  0.00     0.246 C 
ATOM      3  O   UNL     1      -6.465   0.120   1.332  1.00  0.00    -0.273 OA
ATOM      4  N   UNL     1      -5.210   1.238  -0.216  1.00  0.00    -0.330 N 
ATOM      5  C   UNL     1      -3.843   1.468  -0.521  1.00  0.00     0.216 C 
ATOM      6  N   UNL     1      -3.115   0.860   0.573  1.00  0.00    -0.304 N 
ATOM      7  H   UNL     1      -6.002   1.525  -0.775  1.00  0.00     0.166 HD
ENDROOT
BRANCH   1   8
ATOM      8  C   UNL     1      -3.803  -1.412   1.437  1.00  0.00     0.118 C 
BRANCH   8   9
ATOM      9  N   UNL     1      -4.680  -2.135   2.372  1.00  0.00    -0.290 NA
ATOM     10  H   UNL     1      -5.645  -1.831   2.206  1.00  0.00     0.125 HD
BRANCH   9  11
ATOM     11  C   UNL     1      -4.667  -3.574   2.197  1.00  0.00     0.179 C 
ATOM     12  C   UNL     1      -3.296  -4.223   2.355  1.00  0.00     0.056 C 
BRANCH  11  13
ATOM     13  O   UNL     1      -5.208  -3.894   0.929  1.00  0.00    -0.379 OA
ATOM     14  H   UNL     1      -5.324  -4.858   0.915  1.00  0.00     0.212 HD
ENDBRANCH  11  13
ENDBRANCH   9  11
ENDBRANCH   8   9
ENDBRANCH   1   8
BRANCH   6  15
ATOM     15  C   UNL     1      -1.745   0.818   0.754  1.00  0.00     0.239 C 
ATOM     16  O   UNL     1      -1.266   0.336   1.783  1.00  0.00    -0.273 OA
BRANCH  15  17
ATOM     17  C   UNL     1      -0.863   1.396  -0.372  1.00  0.00     0.185 C 
BRANCH  17  18
ATOM     18  N   UNL     1       0.508   0.852  -0.358  1.00  0.00    -0.294 NA
ATOM     19  C   UNL     1       0.566  -0.574  -0.681  1.00  0.00     0.085 C 
ATOM     20  C   UNL     1       1.397   1.644  -1.220  1.00  0.00     0.085 C 
ATOM     21  C   UNL     1       1.953  -1.136  -0.342  1.00  0.00     0.024 C 
ATOM     22  C   UNL     1       2.651   0.887  -1.681  1.00  0.00     0.024 C 
ATOM     23  C   UNL     1       3.090  -0.135  -0.625  1.00  0.00     0.022 C 
BRANCH  23  24
ATOM     24  C   UNL     1       4.386  -0.840  -0.976  1.00  0.00    -0.041 A 
ATOM     25  C   UNL     1       4.562  -1.476  -2.219  1.00  0.00     0.004 A 
ATOM     26  C   UNL     1       5.451  -0.905  -0.079  1.00  0.00    -0.041 A 
ATOM     27  C   UNL     1       5.767  -2.116  -2.553  1.00  0.00     0.001 A 
ATOM     28  C   UNL     1       6.655  -1.541  -0.419  1.00  0.00    -0.045 A 
ATOM     29  C   UNL     1       5.556  -0.316   1.299  1.00  0.00     0.036 C 
ATOM     30  C   UNL     1       6.830  -2.142  -1.653  1.00  0.00     0.004 A 
ATOM     31  C   UNL     1       7.663  -1.419   0.682  1.00  0.00     0.036 C 
ATOM     32  C   UNL     1       6.763  -1.072   1.871  1.00  0.00     0.010 C 
ENDBRANCH  23  24
ENDBRANCH  17  18
ENDBRANCH  15  17
ENDBRANCH   6  15
BRANCH   5  33
ATOM     33  C   UNL     1      -3.594   2.942  -0.781  1.00  0.00     0.032 A 
ATOM     34  C   UNL     1      -3.641   3.924   0.232  1.00  0.00     0.049 A 
ATOM     35  C   UNL     1      -3.337   3.400  -2.094  1.00  0.00     0.049 A 
ATOM     36  C   UNL     1      -3.398   5.277  -0.051  1.00  0.00     0.021 A 
ATOM     37  C   UNL     1      -3.096   4.753  -2.369  1.00  0.00     0.021 A 
ATOM     38  C   UNL     1      -3.120   5.691  -1.347  1.00  0.00     0.003 A 
ATOM     39  Cl  UNL     1      -4.014   3.570   1.883  1.00  0.00    -0.084 Cl
ATOM     40  Cl  UNL     1      -3.304   2.339  -3.464  1.00  0.00    -0.084 Cl
ENDBRANCH   5  33
TORSDOF 9
