MODEL        6USER    Run = 6USERUSER    Estimated Free Energy of Binding    =  -7.46 kcal/mol  [=(1)+(2)+(3)-(4)]USERUSER    (1) Final Intermolecular Energy     = -11.94 kcal/molUSER        vdW + Hbond + desolv Energy     = -12.69 kcal/molUSER        Electrostatic Energy            =  -0.27 kcal/molUSER        Moving Ligand-Fixed Receptor    = -12.95 kcal/molUSER        Moving Ligand-Moving Receptor   =  +1.02 kcal/molUSER    (2) Final Total Internal Energy     =  -2.33 kcal/molUSER    (3) Torsional Free Energy           =  +4.47 kcal/molUSER    (4) Unbound System's Energy         =  -2.33 kcal/molUSERUSERREMARK SMILES COc1ccc(O)c(C(=O)c2ccc(/C=C/[C@@H]3CCCNC[C@H]3NC(=O)c3ccncc3)cc2)c1FREMARK SMILES IDX 16 1 15 2 14 3 11 4 12 5 34 6 13 7 33 8 9 9 10 10 8 11 3 12REMARK SMILES IDX 4 13 35 14 5 15 6 16 36 17 2 18 1 19 7 20 17 22 18 23 23 25REMARK SMILES IDX 22 26 21 27 20 29 19 30 24 32 25 33 26 35 27 36 28 37 32 38REMARK SMILES IDX 29 39 31 40 30 41REMARK H PARENT 7 21 21 28 24 34REMARK Flexibility Score:   99.900USER                              x       y       z     vdW  Elec       q    TypeUSER                           _______ _______ _______ _____ _____    ______ ____ROOTATOM      1  C   UNL     1      37.801  43.995  18.475 -0.24 +0.00    -0.021 C  ENDROOTBRANCH   1   2ATOM      2  C   UNL     1      38.603  44.504  19.424 -0.42 -0.00    +0.004 C  BRANCH   2   3ATOM      3  C   UNL     1      38.258  44.522  20.851 -0.35 -0.00    -0.026 A  ATOM      4  C   UNL     1      37.611  44.637  23.580 -0.30 +0.00    +0.023 A  ATOM      5  C   UNL     1      38.574  45.503  23.054 -0.31 +0.00    +0.013 A  ATOM      6  C   UNL     1      36.942  43.742  22.740 -0.33 +0.00    +0.013 A  ATOM      7  C   UNL     1      38.891  45.445  21.692 -0.33 +0.00    +0.009 A  ATOM      8  C   UNL     1      37.271  43.681  21.384 -0.40 +0.00    +0.009 A  BRANCH   4   9ATOM      9  C   UNL     1      37.228  44.690  25.007 -0.26 +0.01    +0.199 C  ATOM     10  O   UNL     1      36.935  45.779  25.503 -0.75 -0.01    -0.288 OA BRANCH   9  11ATOM     11  C   UNL     1      37.230  43.498  25.885 -0.25 -0.01    +0.104 A  ATOM     12  C   UNL     1      38.341  41.545  26.832 -0.28 -0.01    +0.155 A  ATOM     13  C   UNL     1      37.188  41.248  27.562 -0.47 -0.01    +0.053 A  ATOM     14  C   UNL     1      38.349  42.671  25.995 -0.17 -0.01    +0.179 A  ATOM     15  C   UNL     1      36.053  42.054  27.436 -0.48 -0.02    +0.051 A  ATOM     16  C   UNL     1      36.071  43.161  26.594 -0.35 -0.02    +0.130 A  ATOM     17  F   UNL     1      39.450  42.924  25.269 -0.03 -0.00    -0.202 F  BRANCH  12  18ATOM     18  O   UNL     1      39.503  40.822  26.858 -0.10 +0.03    -0.494 OA ATOM     19  C   UNL     1      40.505  41.231  27.780 -0.16 -0.03    +0.278 C  ENDBRANCH  12  18BRANCH  16  20ATOM     20  O   UNL     1      34.907  43.877  26.506 -0.09 +0.08    -0.507 OA ATOM     21  H   UNL     1      35.136  44.788  26.211 -0.22 -0.13    +0.293 HD ENDBRANCH  16  20ENDBRANCH   9  11ENDBRANCH   4   9ENDBRANCH   2   3ENDBRANCH   1   2BRANCH   1  22ATOM     22  C   UNL     1      36.485  44.600  17.991 -0.36 -0.01    +0.035 C  BRANCH  22  23ATOM     23  C   UNL     1      35.455  43.454  17.951 -0.38 -0.00    +0.011 CG0ATOM     24  G   UNL     1      34.579  43.309  16.712 +0.00 +0.00    +0.000 G0 ENDBRANCH  22  23BRANCH  22  25ATOM     25  C   UNL     1      36.547  45.449  16.684 -0.33 -0.05    +0.103 C  BRANCH  25  26ATOM     26  C   UNL     1      35.223  46.234  16.460 -0.29 -0.11    +0.106 C  BRANCH  26  27ATOM     27  N   UNL     1      33.998  45.696  17.040 -0.13 +0.28    -0.315 NA ATOM     28  H   UNL     1      33.255  46.393  16.965 -0.38 -0.19    +0.122 HD BRANCH  27  29ATOM     29  C   UNL     1      33.559  44.423  16.491 -0.32 -0.04    +0.081 C  BRANCH  29  30ATOM     30  C   UNL     1      34.578  43.316  16.713 -0.43 -0.01    +0.016 CG0ATOM     31  G   UNL     1      35.447  43.462  17.957 +0.00 +0.00    +0.000 G0 ENDBRANCH  29  30ENDBRANCH  27  29ENDBRANCH  26  27ENDBRANCH  25  26BRANCH  25  32ATOM     32  N   UNL     1      37.658  46.411  16.725 -0.15 +0.15    -0.347 N  ATOM     33  C   UNL     1      38.687  46.372  15.812 -0.29 -0.08    +0.251 C  ATOM     34  H   UNL     1      37.554  47.222  17.321 +0.10 -0.09    +0.164 HD ATOM     35  O   UNL     1      38.764  45.547  14.911 -0.26 +0.07    -0.269 OA BRANCH  33  36ATOM     36  C   UNL     1      39.721  47.429  15.947 -0.48 -0.01    +0.042 A  ATOM     37  C   UNL     1      40.558  47.498  17.061 -0.50 -0.01    +0.034 A  ATOM     38  C   UNL     1      39.870  48.348  14.910 -0.53 -0.01    +0.034 A  ATOM     39  C   UNL     1      41.498  48.511  17.098 -0.23 -0.00    +0.112 A  ATOM     40  C   UNL     1      40.838  49.325  15.046 -0.54 -0.03    +0.112 A  ATOM     41  N   UNL     1      41.648  49.432  16.122 -0.91 -0.02    -0.265 NA ENDBRANCH  33  36ENDBRANCH  25  32ENDBRANCH  22  25ENDBRANCH   1  22TORSDOF 9TERENDMDL