MODEL        4USER    Run = 4USERUSER    Estimated Free Energy of Binding    =  -6.64 kcal/mol  [=(1)+(2)+(3)-(4)]USERUSER    (1) Final Intermolecular Energy     = -11.11 kcal/molUSER        vdW + Hbond + desolv Energy     = -11.72 kcal/molUSER        Electrostatic Energy            =  -0.24 kcal/molUSER        Moving Ligand-Fixed Receptor    = -11.96 kcal/molUSER        Moving Ligand-Moving Receptor   =  +0.84 kcal/molUSER    (2) Final Total Internal Energy     =  -3.09 kcal/molUSER    (3) Torsional Free Energy           =  +4.47 kcal/molUSER    (4) Unbound System's Energy         =  -3.09 kcal/molUSERUSERREMARK SMILES COc1ccc(O)c(C(=O)c2ccc(CO[C@@H]3CCCNC[C@@H]3NC(=O)c3ccncc3)cc2)c1FREMARK SMILES IDX 16 1 15 2 14 3 11 4 12 5 34 6 13 7 33 8 9 9 10 10 8 11 3 12REMARK SMILES IDX 4 13 35 14 5 15 6 16 36 17 2 18 1 19 7 20 17 22 18 23 23 25REMARK SMILES IDX 22 26 21 27 20 29 19 30 24 32 25 33 26 35 27 36 28 37 32 38REMARK SMILES IDX 29 39 31 40 30 41REMARK H PARENT 7 21 21 28 24 34REMARK Flexibility Score:   99.900USER                              x       y       z     vdW  Elec       q    TypeUSER                           _______ _______ _______ _____ _____    ______ ____ROOTATOM      1  O   UNL     1      32.792  42.883  15.666 -0.17 +0.21    -0.371 OA ENDROOTBRANCH   1   2ATOM      2  C   UNL     1      31.721  43.805  15.855 -0.27 -0.09    +0.196 C  BRANCH   2   3ATOM      3  C   UNL     1      30.440  43.022  15.975 -0.30 +0.01    -0.022 A  ATOM      4  C   UNL     1      28.041  41.579  16.224 -0.26 -0.01    +0.023 A  ATOM      5  C   UNL     1      28.010  42.971  16.093 -0.23 -0.01    +0.012 A  ATOM      6  C   UNL     1      29.268  40.907  16.197 -0.38 -0.00    +0.012 A  ATOM      7  C   UNL     1      29.204  43.685  15.976 -0.26 -0.00    +0.007 A  ATOM      8  C   UNL     1      30.460  41.624  16.079 -0.33 -0.00    +0.007 A  BRANCH   4   9ATOM      9  C   UNL     1      26.799  40.775  16.316 -0.24 -0.01    +0.199 C  ATOM     10  O   UNL     1      26.378  40.205  15.306 -0.72 -0.01    -0.288 OA BRANCH   9  11ATOM     11  C   UNL     1      25.993  40.666  17.551 -0.22 -0.00    +0.104 A  ATOM     12  C   UNL     1      25.172  41.575  19.659 -0.26 -0.03    +0.155 A  ATOM     13  C   UNL     1      24.431  40.409  19.870 -0.31 -0.01    +0.053 A  ATOM     14  C   UNL     1      25.954  41.688  18.500 -0.16 -0.02    +0.179 A  ATOM     15  C   UNL     1      24.490  39.366  18.943 -0.31 -0.02    +0.051 A  ATOM     16  C   UNL     1      25.276  39.489  17.800 -0.28 -0.01    +0.130 A  ATOM     17  F   UNL     1      26.689  42.798  18.326 -0.04 +0.03    -0.202 F  BRANCH  12  18ATOM     18  O   UNL     1      25.207  42.653  20.501 -0.17 +0.17    -0.494 OA ATOM     19  C   UNL     1      24.668  42.482  21.806 -0.45 -0.08    +0.278 C  ENDBRANCH  12  18BRANCH  16  20ATOM     20  O   UNL     1      25.301  38.409  16.959 -0.66 -0.19    -0.507 OA ATOM     21  H   UNL     1      24.994  38.710  16.072 +0.01 -0.01    +0.293 HD ENDBRANCH  16  20ENDBRANCH   9  11ENDBRANCH   4   9ENDBRANCH   2   3ENDBRANCH   1   2BRANCH   1  22ATOM     22  C   UNL     1      33.541  42.618  16.872 -0.32 -0.06    +0.142 C  BRANCH  22  23ATOM     23  C   UNL     1      32.875  43.494  17.943 -0.36 -0.01    +0.035 CG0ATOM     24  G   UNL     1      33.456  44.870  18.247 +0.00 +0.00    +0.000 G0 ENDBRANCH  22  23BRANCH  22  25ATOM     25  C   UNL     1      35.042  42.888  16.612 -0.41 -0.05    +0.125 C  BRANCH  25  26ATOM     26  C   UNL     1      35.810  43.079  17.944 -0.29 -0.03    +0.108 C  BRANCH  26  27ATOM     27  N   UNL     1      35.886  44.441  18.469 -0.12 +0.08    -0.315 NA ATOM     28  H   UNL     1      36.131  45.069  17.702 +0.08 -0.05    +0.122 HD BRANCH  27  29ATOM     29  C   UNL     1      34.680  44.898  19.143 -0.39 -0.02    +0.081 C  BRANCH  29  30ATOM     30  C   UNL     1      33.457  44.872  18.238 -0.43 -0.01    +0.018 CG0ATOM     31  G   UNL     1      32.875  43.496  17.935 +0.00 +0.00    +0.000 G0 ENDBRANCH  29  30ENDBRANCH  27  29ENDBRANCH  26  27ENDBRANCH  25  26BRANCH  25  32ATOM     32  N   UNL     1      35.226  43.982  15.647 -0.12 +0.15    -0.345 N  ATOM     33  C   UNL     1      36.459  44.572  15.460 -0.26 -0.10    +0.251 C  ATOM     34  H   UNL     1      34.638  43.920  14.826 +0.16 -0.07    +0.164 HD ATOM     35  O   UNL     1      37.446  44.316  16.136 -0.23 +0.08    -0.269 OA BRANCH  33  36ATOM     36  C   UNL     1      36.560  45.539  14.334 -0.38 -0.02    +0.042 A  ATOM     37  C   UNL     1      36.536  46.902  14.629 -0.40 -0.02    +0.034 A  ATOM     38  C   UNL     1      36.641  45.123  13.005 -0.45 -0.01    +0.034 A  ATOM     39  C   UNL     1      36.612  47.797  13.577 -0.48 -0.06    +0.112 A  ATOM     40  C   UNL     1      36.710  46.098  12.025 -0.54 -0.04    +0.112 A  ATOM     41  N   UNL     1      36.703  47.423  12.283 -0.78 +0.10    -0.265 NA ENDBRANCH  33  36ENDBRANCH  25  32ENDBRANCH  22  25ENDBRANCH   1  22TORSDOF 9TERENDMDL