MODEL        9USER    Run = 9USERUSER    Estimated Free Energy of Binding    =  -6.55 kcal/mol  [=(1)+(2)+(3)-(4)]USERUSER    (1) Final Intermolecular Energy     = -11.02 kcal/molUSER        vdW + Hbond + desolv Energy     = -11.07 kcal/molUSER        Electrostatic Energy            =  -0.26 kcal/molUSER        Moving Ligand-Fixed Receptor    = -11.32 kcal/molUSER        Moving Ligand-Moving Receptor   =  +0.30 kcal/molUSER    (2) Final Total Internal Energy     =  -2.50 kcal/molUSER    (3) Torsional Free Energy           =  +4.47 kcal/molUSER    (4) Unbound System's Energy         =  -2.50 kcal/molUSERUSERREMARK SMILES COc1ccc(O)c(C(=O)c2ccc(NC[C@@H]3CCCNC[C@@H]3NC(=O)c3ccncc3)cc2)c1FREMARK SMILES IDX 16 1 15 2 14 4 11 5 12 6 34 7 13 8 33 9 9 10 10 11 8 12 3 13REMARK SMILES IDX 4 14 35 15 5 16 6 17 36 18 2 19 1 20 7 21 17 23 18 24 23 26REMARK SMILES IDX 22 27 21 28 20 30 19 31 24 33 25 34 26 36 27 37 28 38 32 39REMARK SMILES IDX 29 40 31 41 30 42REMARK H PARENT 15 3 7 22 21 29 24 35REMARK Flexibility Score:   99.900USER                              x       y       z     vdW  Elec       q    TypeUSER                           _______ _______ _______ _____ _____    ______ ____ROOTATOM      1  C   UNL     1      25.917  41.821  17.584 -0.24 -0.01    +0.118 C  ENDROOTBRANCH   1   2ATOM      2  N   UNL     1      25.160  41.938  16.334 -0.05 +0.02    -0.385 N  ATOM      3  H   UNL     1      24.877  41.041  15.951 +0.08 -0.01    +0.160 HD BRANCH   2   4ATOM      4  C   UNL     1      25.455  42.893  15.365 -0.31 -0.01    +0.034 A  ATOM      5  C   UNL     1      25.880  44.854  13.369 -0.23 -0.01    +0.023 A  ATOM      6  C   UNL     1      26.630  44.868  14.546 -0.14 -0.01    +0.014 A  ATOM      7  C   UNL     1      24.877  43.897  13.209 -0.30 +0.00    +0.014 A  ATOM      8  C   UNL     1      26.412  43.901  15.535 -0.27 -0.01    +0.026 A  ATOM      9  C   UNL     1      24.670  42.933  14.204 -0.30 -0.00    +0.026 A  BRANCH   5  10ATOM     10  C   UNL     1      26.121  45.917  12.364 -0.28 -0.06    +0.199 C  ATOM     11  O   UNL     1      26.881  45.688  11.421 -0.79 +0.11    -0.288 OA BRANCH  10  12ATOM     12  C   UNL     1      25.536  47.272  12.459 -0.26 -0.03    +0.104 A  ATOM     13  C   UNL     1      24.084  48.908  13.538 -0.27 -0.02    +0.155 A  ATOM     14  C   UNL     1      24.471  49.866  12.599 -0.28 -0.02    +0.053 A  ATOM     15  C   UNL     1      24.618  47.613  13.454 -0.22 -0.01    +0.179 A  ATOM     16  C   UNL     1      25.363  49.527  11.580 -0.28 -0.02    +0.051 A  ATOM     17  C   UNL     1      25.879  48.236  11.504 -0.27 -0.06    +0.130 A  ATOM     18  F   UNL     1      24.206  46.689  14.337 -0.10 -0.04    -0.202 F  BRANCH  13  19ATOM     19  O   UNL     1      23.205  49.117  14.568 -0.28 -0.03    -0.494 OA ATOM     20  C   UNL     1      21.929  48.497  14.471 -0.30 +0.01    +0.278 C  ENDBRANCH  13  19BRANCH  17  21ATOM     21  O   UNL     1      26.722  47.978  10.455 -0.14 +0.37    -0.507 OA ATOM     22  H   UNL     1      26.771  47.001  10.342 -0.19 -0.22    +0.293 HD ENDBRANCH  17  21ENDBRANCH  10  12ENDBRANCH   5  10ENDBRANCH   2   4ENDBRANCH   1   2BRANCH   1  23ATOM     23  C   UNL     1      25.004  41.463  18.784 -0.28 -0.00    +0.032 C  BRANCH  23  24ATOM     24  C   UNL     1      24.923  42.654  19.760 -0.47 -0.00    +0.009 CG0ATOM     25  G   UNL     1      24.400  42.408  21.176 +0.00 +0.00    +0.000 G0 ENDBRANCH  23  24BRANCH  23  26ATOM     26  C   UNL     1      25.441  40.119  19.411 -0.27 -0.02    +0.101 C  BRANCH  26  27ATOM     27  C   UNL     1      24.707  39.848  20.745 -0.35 -0.04    +0.106 C  BRANCH  27  28ATOM     28  N   UNL     1      25.421  40.290  21.950 -0.75 +0.05    -0.315 NA ATOM     29  H   UNL     1      24.969  39.845  22.752 -0.37 -0.03    +0.122 HD BRANCH  28  30ATOM     30  C   UNL     1      25.363  41.738  22.149 -0.15 -0.01    +0.081 C  BRANCH  30  31ATOM     31  C   UNL     1      24.402  42.408  21.174 -0.63 -0.00    +0.016 CG0ATOM     32  G   UNL     1      24.923  42.654  19.758 +0.00 +0.00    +0.000 G0 ENDBRANCH  30  31ENDBRANCH  28  30ENDBRANCH  27  28ENDBRANCH  26  27BRANCH  26  33ATOM     33  N   UNL     1      26.884  40.026  19.620 -0.06 +0.03    -0.348 N  ATOM     34  C   UNL     1      27.753  39.531  18.677 -0.16 +0.03    +0.251 C  ATOM     35  H   UNL     1      27.191  40.242  20.560 +0.08 -0.02    +0.164 HD ATOM     36  O   UNL     1      27.387  39.120  17.582 -0.15 -0.13    -0.269 OA BRANCH  34  37ATOM     37  C   UNL     1      29.192  39.486  19.048 -0.22 +0.00    +0.042 A  ATOM     38  C   UNL     1      29.565  38.694  20.135 -0.28 +0.00    +0.034 A  ATOM     39  C   UNL     1      30.172  40.178  18.336 -0.27 +0.00    +0.034 A  ATOM     40  C   UNL     1      30.902  38.646  20.480 -0.36 +0.02    +0.112 A  ATOM     41  C   UNL     1      31.484  40.062  18.761 -0.32 +0.00    +0.112 A  ATOM     42  N   UNL     1      31.869  39.318  19.818 -0.67 -0.07    -0.265 NA ENDBRANCH  34  37ENDBRANCH  26  33ENDBRANCH  23  26ENDBRANCH   1  23TORSDOF 9TERENDMDL