MODEL        1USER    Run = 1USERUSER    Estimated Free Energy of Binding    = -12.83 kcal/mol  [=(1)+(2)+(3)-(4)]USERUSER    (1) Final Intermolecular Energy     = -15.21 kcal/molUSER        vdW + Hbond + desolv Energy     = -15.08 kcal/molUSER        Electrostatic Energy            =  -0.13 kcal/molUSER        Moving Ligand-Fixed Receptor    = -15.21 kcal/molUSER        Moving Ligand-Moving Receptor   =  +0.00 kcal/molUSER    (2) Final Total Internal Energy     =  -2.60 kcal/molUSER    (3) Torsional Free Energy           =  +2.39 kcal/molUSER    (4) Unbound System's Energy         =  -2.60 kcal/molUSERUSERREMARK SMILES N#Cc1cnc(-c2ccc(CNCc3ccc(-c4csnn4)cc3)cc2)c(-c2ccccc2)c1REMARK SMILES IDX 11 1 10 2 7 3 8 4 26 5 9 6 25 7 6 8 3 9 4 10 34 11 5 12REMARK SMILES IDX 27 13 2 14 1 15 28 16 29 17 33 18 30 19 32 20 31 21 12 22REMARK SMILES IDX 13 24 14 25 15 26 24 27 16 28 23 29 17 30 18 31 19 32 22 33REMARK SMILES IDX 20 34 21 35REMARK H PARENT 12 23USER                              x       y       z     vdW  Elec       q    TypeUSER                           _______ _______ _______ _____ _____    ______ ____ROOTATOM      1  C   UNL     1      36.196  43.311  20.424 -0.42 -0.00    +0.117 C  ENDROOTBRANCH   1   2ATOM      2  C   UNL     1      35.344  43.833  19.292 -0.36 +0.01    -0.034 A  ATOM      3  C   UNL     1      33.764  44.794  17.136 -0.32 -0.00    +0.001 A  ATOM      4  C   UNL     1      34.426  45.678  18.006 -0.43 -0.01    +0.011 A  ATOM      5  C   UNL     1      33.898  43.418  17.381 -0.32 -0.00    +0.011 A  ATOM      6  C   UNL     1      35.210  45.208  19.065 -0.26 -0.00    +0.006 A  ATOM      7  C   UNL     1      34.683  42.943  18.437 -0.37 -0.00    +0.006 A  BRANCH   3   8ATOM      8  C   UNL     1      32.945  45.318  16.024 -0.25 -0.06    +0.078 A  ATOM      9  C   UNL     1      31.169  46.201  14.095 -0.52 -0.05    +0.071 A  ATOM     10  C   UNL     1      30.756  45.731  15.326 -0.36 -0.06    +0.131 A  ATOM     11  C   UNL     1      32.539  46.235  13.837 -0.14 -0.03    +0.032 A  ATOM     12  N   UNL     1      31.605  45.299  16.286 -0.67 +0.10    -0.254 NA ATOM     13  C   UNL     1      33.465  45.795  14.803 -0.14 -0.01    +0.009 A  BRANCH   9  14ATOM     14  C   UNL     1      30.218  46.645  13.128 -0.56 -0.05    +0.101 C  ATOM     15  N   UNL     1      29.445  47.004  12.342 -0.77 +0.09    -0.192 NA ENDBRANCH   9  14BRANCH  13  16ATOM     16  C   UNL     1      34.904  45.893  14.501 -0.35 +0.01    -0.016 A  ATOM     17  C   UNL     1      35.800  44.905  14.944 -0.34 -0.00    +0.009 A  ATOM     18  C   UNL     1      35.417  46.964  13.750 -0.41 -0.01    +0.009 A  ATOM     19  C   UNL     1      37.164  44.989  14.656 -0.37 -0.00    +0.001 A  ATOM     20  C   UNL     1      36.781  47.050  13.463 -0.56 -0.00    +0.001 A  ATOM     21  C   UNL     1      37.654  46.064  13.916 -0.44 -0.00    +0.000 A  ENDBRANCH  13  16ENDBRANCH   3   8ENDBRANCH   1   2BRANCH   1  22ATOM     22  N   UNL     1      37.172  44.318  20.838 -0.20 -0.00    -0.309 NA ATOM     23  H   UNL     1      37.196  44.339  21.856 +0.06 +0.01    +0.123 HD BRANCH  22  24ATOM     24  C   UNL     1      38.515  44.023  20.338 -0.26 -0.00    +0.117 C  BRANCH  24  25ATOM     25  C   UNL     1      39.018  45.033  19.334 -0.37 +0.00    -0.034 A  ATOM     26  C   UNL     1      38.311  45.282  18.151 -0.39 -0.00    +0.006 A  ATOM     27  C   UNL     1      40.213  45.726  19.559 -0.41 -0.00    +0.006 A  ATOM     28  C   UNL     1      38.784  46.212  17.218 -0.41 -0.00    +0.011 A  ATOM     29  C   UNL     1      40.688  46.654  18.627 -0.45 -0.00    +0.011 A  ATOM     30  C   UNL     1      39.976  46.915  17.447 -0.48 -0.00    +0.003 A  BRANCH  30  31ATOM     31  C   UNL     1      40.497  47.892  16.495 -0.46 -0.02    +0.105 A  ATOM     32  C   UNL     1      40.107  47.987  15.170 -0.45 -0.03    +0.118 A  ATOM     33  N   UNL     1      41.441  48.841  16.884 -0.99 -0.00    -0.138 NA ATOM     34  S   UNL     1      40.981  49.285  14.466 -0.84 +0.00    -0.020 S  ATOM     35  N   UNL     1      41.784  49.639  15.888 -1.05 -0.01    -0.091 NA ENDBRANCH  30  31ENDBRANCH  24  25ENDBRANCH  22  24ENDBRANCH   1  22TORSDOF 8TERENDMDL