MODEL        10USER    Run = 10USERUSER    Estimated Free Energy of Binding    =  -7.47 kcal/mol  [=(1)+(2)+(3)-(4)]USERUSER    (1) Final Intermolecular Energy     = -11.65 kcal/molUSER        vdW + Hbond + desolv Energy     = -11.69 kcal/molUSER        Electrostatic Energy            =  -0.20 kcal/molUSER        Moving Ligand-Fixed Receptor    = -11.89 kcal/molUSER        Moving Ligand-Moving Receptor   =  +0.25 kcal/molUSER    (2) Final Total Internal Energy     =  -2.61 kcal/molUSER    (3) Torsional Free Energy           =  +4.18 kcal/molUSER    (4) Unbound System's Energy         =  -2.61 kcal/molUSERUSERREMARK SMILES COc1ccc(O)c(C(=O)c2ccc(C(=O)N[C@@H]3CCCNC[C@H]3NC(=O)c3ccncc3)cc2)c1FREMARK SMILES IDX 15 1 16 2 17 3 14 5 11 6 12 7 35 8 13 9 34 10 9 11 10 12REMARK SMILES IDX 8 13 3 14 4 15 36 16 5 17 6 18 37 19 2 20 1 21 7 22 18 24REMARK SMILES IDX 19 25 24 27 23 28 22 29 21 31 20 32 25 34 26 35 27 37 28 38REMARK SMILES IDX 29 39 33 40 30 41 32 42 31 43REMARK H PARENT 17 4 7 23 22 30 25 36REMARK Flexibility Score:   88.900USER                              x       y       z     vdW  Elec       q    TypeUSER                           _______ _______ _______ _____ _____    ______ ____ROOTATOM      1  C   UNL     1      35.238  43.065  17.682 -0.25 -0.08    +0.251 C  ATOM      2  O   UNL     1      35.900  42.893  16.665 -0.31 +0.09    -0.269 OA ATOM      3  N   UNL     1      33.876  43.284  17.671 -0.08 +0.11    -0.347 N  ATOM      4  H   UNL     1      33.443  43.620  18.521 +0.13 -0.04    +0.164 HD ENDROOTBRANCH   1   5ATOM      5  C   UNL     1      35.906  43.122  19.013 -0.33 -0.01    +0.039 A  ATOM      6  C   UNL     1      37.136  43.092  21.532 -0.40 +0.00    +0.023 A  ATOM      7  C   UNL     1      35.999  42.311  21.298 -0.45 +0.00    +0.013 A  ATOM      8  C   UNL     1      37.657  43.889  20.506 -0.36 -0.00    +0.013 A  ATOM      9  C   UNL     1      35.379  42.336  20.046 -0.43 -0.00    +0.014 A  ATOM     10  C   UNL     1      37.036  43.913  19.250 -0.33 -0.00    +0.014 A  BRANCH   6  11ATOM     11  C   UNL     1      37.802  42.971  22.847 -0.30 +0.01    +0.199 C  ATOM     12  O   UNL     1      38.777  42.222  22.936 -0.19 -0.04    -0.288 OA BRANCH  11  13ATOM     13  C   UNL     1      37.400  43.730  24.054 -0.28 +0.01    +0.104 A  ATOM     14  C   UNL     1      37.230  45.803  25.331 -0.16 +0.01    +0.155 A  ATOM     15  C   UNL     1      36.602  45.112  26.371 -0.22 -0.01    +0.053 A  ATOM     16  C   UNL     1      37.622  45.102  24.178 -0.17 +0.03    +0.179 A  ATOM     17  C   UNL     1      36.350  43.743  26.248 -0.36 -0.01    +0.051 A  ATOM     18  C   UNL     1      36.733  43.065  25.094 -0.29 +0.00    +0.130 A  ATOM     19  F   UNL     1      38.190  45.788  23.173 -0.11 -0.03    -0.202 F  BRANCH  14  20ATOM     20  O   UNL     1      37.515  47.142  25.330 -0.56 -0.05    -0.494 OA ATOM     21  C   UNL     1      36.514  48.020  25.837 -0.28 -0.02    +0.278 C  ENDBRANCH  14  20BRANCH  18  22ATOM     22  O   UNL     1      36.418  41.732  25.049 -0.15 +0.07    -0.507 OA ATOM     23  H   UNL     1      37.156  41.270  24.585 +0.12 -0.02    +0.293 HD ENDBRANCH  18  22ENDBRANCH  11  13ENDBRANCH   6  11ENDBRANCH   1   5BRANCH   3  24ATOM     24  C   UNL     1      33.162  43.527  16.412 -0.32 -0.05    +0.106 C  BRANCH  24  25ATOM     25  C   UNL     1      33.251  45.014  16.044 -0.37 -0.02    +0.028 CG0ATOM     26  G   UNL     1      31.930  45.798  16.113 +0.00 +0.00    +0.000 G0 ENDBRANCH  24  25BRANCH  24  27ATOM     27  C   UNL     1      31.707  42.984  16.500 -0.30 -0.05    +0.118 C  BRANCH  27  28ATOM     28  C   UNL     1      30.877  43.128  15.202 -0.25 -0.07    +0.108 C  BRANCH  28  29ATOM     29  N   UNL     1      30.142  44.383  15.014 -0.13 +0.25    -0.315 NA ATOM     30  H   UNL     1      29.557  44.321  14.184 -0.38 -0.23    +0.122 HD BRANCH  29  31ATOM     31  C   UNL     1      30.945  45.599  14.962 -0.49 -0.05    +0.081 C  BRANCH  31  32ATOM     32  C   UNL     1      31.928  45.800  16.112 -0.21 -0.01    +0.017 CG0ATOM     33  G   UNL     1      33.248  45.014  16.044 +0.00 +0.00    +0.000 G0 ENDBRANCH  31  32ENDBRANCH  29  31ENDBRANCH  28  29ENDBRANCH  27  28BRANCH  27  34ATOM     34  N   UNL     1      31.714  41.592  16.969 -0.05 +0.15    -0.346 N  ATOM     35  C   UNL     1      31.818  41.283  18.306 -0.25 -0.03    +0.251 C  ATOM     36  H   UNL     1      31.367  40.892  16.333 -0.41 -0.10    +0.164 HD ATOM     37  O   UNL     1      32.001  42.117  19.183 -0.28 +0.00    -0.269 OA BRANCH  35  38ATOM     38  C   UNL     1      31.665  39.852  18.664 -0.40 +0.00    +0.042 A  ATOM     39  C   UNL     1      30.738  39.512  19.650 -0.31 +0.00    +0.034 A  ATOM     40  C   UNL     1      32.437  38.854  18.067 -0.37 -0.00    +0.034 A  ATOM     41  C   UNL     1      30.604  38.178  19.982 -0.35 +0.02    +0.112 A  ATOM     42  C   UNL     1      32.228  37.548  18.472 -0.36 +0.02    +0.112 A  ATOM     43  N   UNL     1      31.324  37.189  19.412 -0.71 -0.09    -0.265 NA ENDBRANCH  35  38ENDBRANCH  27  34ENDBRANCH  24  27ENDBRANCH   3  24TORSDOF 8TERENDMDL