MODEL        2USER    Run = 2USERUSER    Estimated Free Energy of Binding    =  -9.29 kcal/mol  [=(1)+(2)+(3)-(4)]USERUSER    (1) Final Intermolecular Energy     = -13.77 kcal/molUSER        vdW + Hbond + desolv Energy     = -13.78 kcal/molUSER        Electrostatic Energy            =  -0.24 kcal/molUSER        Moving Ligand-Fixed Receptor    = -14.02 kcal/molUSER        Moving Ligand-Moving Receptor   =  +0.25 kcal/molUSER    (2) Final Total Internal Energy     =  -3.14 kcal/molUSER    (3) Torsional Free Energy           =  +4.47 kcal/molUSER    (4) Unbound System's Energy         =  -3.14 kcal/molUSERUSERREMARK SMILES O=C(N[C@H]1CNCCC[C@H]1NC(=O)c1ccc(C(=O)c2c(O)ccc(O[C@H]3CNCCO3)c2F)cc1)c1ccnc(F)c1REMARK SMILES IDX 14 1 15 2 16 3 17 4 35 5 36 6 12 7 11 8 13 10 10 11 4 12REMARK SMILES IDX 3 13 2 14 1 15 37 17 38 18 43 19 39 20 41 21 40 22 42 23REMARK SMILES IDX 5 24 6 25 7 27 9 29 8 30 18 32 19 33 20 34 21 35 33 36 23 37REMARK SMILES IDX 25 38 24 39 34 40 22 41 26 43 27 44 28 45 32 46 29 47 31 48REMARK SMILES IDX 30 49REMARK H PARENT 11 9 3 16 6 26 22 42 29 50REMARK Flexibility Score:  141.900USER                              x       y       z     vdW  Elec       q    TypeUSER                           _______ _______ _______ _____ _____    ______ ____ROOTATOM      1  C   UNL     1      39.402  44.242  21.287 -0.27 +0.00    +0.039 A  ATOM      2  C   UNL     1      40.795  44.391  21.247 -0.31 +0.00    +0.014 A  ATOM      3  C   UNL     1      41.384  45.230  20.297 -0.36 +0.00    +0.013 A  ATOM      4  C   UNL     1      40.588  45.920  19.376 -0.42 +0.00    +0.023 A  ATOM      5  C   UNL     1      39.195  45.800  19.430 -0.34 -0.00    +0.013 A  ATOM      6  C   UNL     1      38.608  44.962  20.383 -0.34 -0.00    +0.014 A  ENDROOTBRANCH   1   7ATOM      7  C   UNL     1      38.714  43.377  22.291 -0.19 +0.01    +0.251 C  ATOM      8  N   UNL     1      39.086  43.534  23.607 -0.07 -0.02    -0.347 N  ATOM      9  H   UNL     1      39.812  44.200  23.869 +0.08 +0.01    +0.164 HD ATOM     10  O   UNL     1      37.874  42.562  21.926 -0.24 -0.01    -0.269 OA BRANCH   8  11ATOM     11  C   UNL     1      38.427  42.831  24.712 -0.25 +0.00    +0.106 C  BRANCH  11  12ATOM     12  C   UNL     1      38.952  43.367  26.068 -0.18 -0.00    +0.118 C  BRANCH  12  13ATOM     13  N   UNL     1      38.611  44.772  26.320 -0.05 +0.01    -0.346 N  ATOM     14  C   UNL     1      39.140  45.821  25.610 -0.12 +0.01    +0.251 C  ATOM     15  O   UNL     1      39.959  45.676  24.709 -0.07 -0.01    -0.269 OA ATOM     16  H   UNL     1      37.927  44.913  27.056 +0.08 -0.02    +0.164 HD BRANCH  14  17ATOM     17  C   UNL     1      38.677  47.183  25.977 -0.25 +0.00    +0.045 A  ATOM     18  C   UNL     1      39.430  48.043  26.777 -0.22 +0.00    +0.034 A  ATOM     19  C   UNL     1      37.425  47.591  25.519 -0.33 +0.00    +0.074 A  ATOM     20  C   UNL     1      38.901  49.288  27.065 -0.17 +0.01    +0.115 A  ATOM     21  C   UNL     1      36.992  48.855  25.861 -0.31 +0.00    +0.213 A  ATOM     22  N   UNL     1      37.702  49.715  26.619 -0.13 -0.03    -0.228 NA ATOM     23  F   UNL     1      35.797  49.265  25.415 -0.21 +0.02    -0.185 F  ENDBRANCH  14  17ENDBRANCH  12  13BRANCH  12  24ATOM     24  C   UNL     1      38.476  42.485  27.242 -0.31 -0.01    +0.108 C  BRANCH  24  25ATOM     25  N   UNL     1      37.226  42.923  27.876 -0.15 +0.08    -0.315 NA ATOM     26  H   UNL     1      36.754  42.088  28.232 -0.30 -0.05    +0.122 HD BRANCH  25  27ATOM     27  C   UNL     1      36.316  43.589  26.940 -0.42 -0.01    +0.081 CG0ATOM     28  G   UNL     1      35.998  42.720  25.730 +0.00 +0.00    +0.000 G0 ENDBRANCH  25  27ENDBRANCH  24  25ENDBRANCH  12  24ENDBRANCH  11  12BRANCH  11  29ATOM     29  C   UNL     1      36.904  42.897  24.510 -0.43 +0.00    +0.028 C  BRANCH  29  30ATOM     30  C   UNL     1      35.998  42.722  25.728 -0.37 -0.00    +0.017 CG0ATOM     31  G   UNL     1      36.314  43.588  26.940 +0.00 +0.00    +0.000 G0 ENDBRANCH  29  30ENDBRANCH  11  29ENDBRANCH   8  11ENDBRANCH   1   7BRANCH   4  32ATOM     32  C   UNL     1      41.251  46.829  18.414 -0.43 -0.01    +0.199 C  ATOM     33  O   UNL     1      42.348  47.305  18.708 -0.45 -0.01    -0.288 OA BRANCH  32  34ATOM     34  C   UNL     1      40.633  47.238  17.132 -0.44 -0.02    +0.104 A  ATOM     35  C   UNL     1      40.935  48.498  16.597 -0.44 -0.02    +0.130 A  ATOM     36  C   UNL     1      39.795  46.382  16.413 -0.32 -0.03    +0.180 A  ATOM     37  C   UNL     1      40.372  48.915  15.393 -0.56 -0.02    +0.051 A  ATOM     38  C   UNL     1      39.217  46.799  15.210 -0.34 -0.04    +0.159 A  ATOM     39  C   UNL     1      39.517  48.062  14.698 -0.49 -0.02    +0.053 A  ATOM     40  F   UNL     1      39.577  45.132  16.850 +0.04 +0.03    -0.202 F  BRANCH  35  41ATOM     41  O   UNL     1      41.790  49.379  17.204 -0.65 -0.09    -0.507 OA ATOM     42  H   UNL     1      42.247  48.904  17.935 +0.18 +0.04    +0.293 HD ENDBRANCH  35  41BRANCH  38  43ATOM     43  O   UNL     1      38.421  46.010  14.429 -0.13 +0.13    -0.460 OA BRANCH  43  44ATOM     44  C   UNL     1      37.026  46.353  14.414 -0.24 -0.16    +0.321 C  ATOM     45  C   UNL     1      36.757  47.739  13.756 -0.50 -0.09    +0.157 C  ATOM     46  O   UNL     1      36.299  45.317  13.725 -0.24 +0.15    -0.340 OA ATOM     47  N   UNL     1      37.158  47.842  12.334 -0.94 +0.06    -0.309 NA ATOM     48  C   UNL     1      36.173  45.532  12.315 -0.41 -0.07    +0.180 C  ATOM     49  C   UNL     1      37.201  46.506  11.718 -0.54 -0.03    +0.109 C  ATOM     50  H   UNL     1      36.479  48.426  11.847 -0.20 -0.05    +0.123 HD ENDBRANCH  43  44ENDBRANCH  38  43ENDBRANCH  32  34ENDBRANCH   4  32TORSDOF 9TERENDMDL