REMARK SMILES O=C(N[C@H]1CNCCC[C@H]1NC(=O)c1ccc(C(=O)c2c(O)ccc(O[C@H]3CNCCO3)c2F)cc1)c1ccnc(F)c1
REMARK SMILES IDX 14 1 15 2 16 3 17 4 35 5 36 6 12 7 11 8 13 10 10 11 4 12
REMARK SMILES IDX 3 13 2 14 1 15 37 17 38 18 43 19 39 20 41 21 40 22 42 23
REMARK SMILES IDX 5 24 6 25 7 27 9 29 8 30 18 32 19 33 20 34 21 35 33 36 23 37
REMARK SMILES IDX 25 38 24 39 34 40 22 41 26 43 27 44 28 45 32 46 29 47 31 48
REMARK SMILES IDX 30 49
REMARK H PARENT 11 9 3 16 6 26 22 42 29 50
REMARK Flexibility Score:  141.900
ROOT
ATOM      1  C   UNL     1      -0.135  -0.163  -1.385  1.00  0.00     0.039 A 
ATOM      2  C   UNL     1      -0.483   1.159  -1.074  1.00  0.00     0.014 A 
ATOM      3  C   UNL     1       0.495   2.158  -1.062  1.00  0.00     0.013 A 
ATOM      4  C   UNL     1       1.827   1.843  -1.353  1.00  0.00     0.023 A 
ATOM      5  C   UNL     1       2.176   0.532  -1.695  1.00  0.00     0.013 A 
ATOM      6  C   UNL     1       1.196  -0.465  -1.708  1.00  0.00     0.014 A 
ENDROOT
BRANCH   1   7
ATOM      7  C   UNL     1      -1.137  -1.268  -1.434  1.00  0.00     0.251 C 
ATOM      8  N   UNL     1      -2.284  -1.102  -0.692  1.00  0.00    -0.347 N 
ATOM      9  H   UNL     1      -2.423  -0.266  -0.125  1.00  0.00     0.164 HD
ATOM     10  O   UNL     1      -0.911  -2.273  -2.100  1.00  0.00    -0.269 OA
BRANCH   8  11
ATOM     11  C   UNL     1      -3.400  -2.052  -0.723  1.00  0.00     0.106 C 
BRANCH  11  12
ATOM     12  C   UNL     1      -4.164  -2.016   0.625  1.00  0.00     0.118 C 
BRANCH  12  13
ATOM     13  N   UNL     1      -5.090  -0.885   0.749  1.00  0.00    -0.346 N 
ATOM     14  C   UNL     1      -4.683   0.419   0.888  1.00  0.00     0.251 C 
ATOM     15  O   UNL     1      -3.503   0.752   0.936  1.00  0.00    -0.269 OA
ATOM     16  H   UNL     1      -6.071  -1.138   0.703  1.00  0.00     0.164 HD
BRANCH  14  17
ATOM     17  C   UNL     1      -5.747   1.450   0.983  1.00  0.00     0.045 A 
ATOM     18  C   UNL     1      -7.013   1.277   0.423  1.00  0.00     0.034 A 
ATOM     19  C   UNL     1      -5.441   2.643   1.636  1.00  0.00     0.074 A 
ATOM     20  C   UNL     1      -7.928   2.305   0.563  1.00  0.00     0.115 A 
ATOM     21  C   UNL     1      -6.427   3.603   1.722  1.00  0.00     0.213 A 
ATOM     22  N   UNL     1      -7.665   3.461   1.206  1.00  0.00    -0.228 NA
ATOM     23  F   UNL     1      -6.151   4.749   2.360  1.00  0.00    -0.185 F 
ENDBRANCH  14  17
ENDBRANCH  12  13
BRANCH  12  24
ATOM     24  C   UNL     1      -4.907  -3.344   0.884  1.00  0.00     0.108 C 
BRANCH  24  25
ATOM     25  N   UNL     1      -6.134  -3.528   0.098  1.00  0.00    -0.315 NA
ATOM     26  H   UNL     1      -6.592  -4.377   0.439  1.00  0.00     0.122 HD
BRANCH  25  27
ATOM     27  C   UNL     1      -5.872  -3.705  -1.333  1.00  0.00     0.081 CG0
ATOM     28  G   UNL     1      -5.655  -2.377  -2.047  1.00  0.00     0.000 G0
ENDBRANCH  25  27
ENDBRANCH  24  25
ENDBRANCH  12  24
ENDBRANCH  11  12
BRANCH  11  29
ATOM     29  C   UNL     1      -4.247  -1.789  -1.979  1.00  0.00     0.028 C 
BRANCH  29  30
ATOM     30  C   UNL     1      -5.655  -2.377  -2.047  1.00  0.00     0.017 CG0
ATOM     31  G   UNL     1      -5.872  -3.705  -1.333  1.00  0.00     0.000 G0
ENDBRANCH  29  30
ENDBRANCH  11  29
ENDBRANCH   8  11
ENDBRANCH   1   7
BRANCH   4  32
ATOM     32  C   UNL     1       2.822   2.939  -1.369  1.00  0.00     0.199 C 
ATOM     33  O   UNL     1       2.502   4.023  -1.858  1.00  0.00    -0.288 OA
BRANCH  32  34
ATOM     34  C   UNL     1       4.207   2.780  -0.871  1.00  0.00     0.104 A 
ATOM     35  C   UNL     1       5.234   3.543  -1.444  1.00  0.00     0.130 A 
ATOM     36  C   UNL     1       4.513   1.925   0.191  1.00  0.00     0.180 A 
ATOM     37  C   UNL     1       6.548   3.419  -1.000  1.00  0.00     0.051 A 
ATOM     38  C   UNL     1       5.832   1.787   0.634  1.00  0.00     0.159 A 
ATOM     39  C   UNL     1       6.845   2.544   0.044  1.00  0.00     0.053 A 
ATOM     40  F   UNL     1       3.532   1.266   0.827  1.00  0.00    -0.202 F 
BRANCH  35  41
ATOM     41  O   UNL     1       5.017   4.447  -2.450  1.00  0.00    -0.507 OA
ATOM     42  H   UNL     1       4.047   4.604  -2.513  1.00  0.00     0.293 HD
ENDBRANCH  35  41
BRANCH  38  43
ATOM     43  O   UNL     1       6.207   1.005   1.690  1.00  0.00    -0.460 OA
BRANCH  43  44
ATOM     44  C   UNL     1       5.835  -0.380   1.602  1.00  0.00     0.321 C 
ATOM     45  C   UNL     1       6.600  -1.136   0.476  1.00  0.00     0.157 C 
ATOM     46  O   UNL     1       6.068  -1.007   2.879  1.00  0.00    -0.340 OA
ATOM     47  N   UNL     1       8.071  -1.179   0.642  1.00  0.00    -0.309 NA
ATOM     48  C   UNL     1       7.379  -1.564   3.025  1.00  0.00     0.180 C 
ATOM     49  C   UNL     1       8.430  -0.997   2.058  1.00  0.00     0.109 C 
ATOM     50  H   UNL     1       8.409  -2.083   0.313  1.00  0.00     0.123 HD
ENDBRANCH  43  44
ENDBRANCH  38  43
ENDBRANCH  32  34
ENDBRANCH   4  32
TORSDOF 9
