MODEL        5USER    Run = 5USERUSER    Estimated Free Energy of Binding    = -12.01 kcal/mol  [=(1)+(2)+(3)-(4)]USERUSER    (1) Final Intermolecular Energy     = -14.09 kcal/molUSER        vdW + Hbond + desolv Energy     = -14.01 kcal/molUSER        Electrostatic Energy            =  -0.09 kcal/molUSER        Moving Ligand-Fixed Receptor    = -14.09 kcal/molUSER        Moving Ligand-Moving Receptor   =  +0.00 kcal/molUSER    (2) Final Total Internal Energy     =  -2.62 kcal/molUSER    (3) Torsional Free Energy           =  +2.09 kcal/molUSER    (4) Unbound System's Energy         =  -2.62 kcal/molUSERUSERREMARK SMILES Oc1nc2ccccc2n1[C@@H]1CCN(Cc2ccc(-c3nc4ncccc4nc3-c3ccc(F)c(F)c3)cc2)C[C@H]1OREMARK SMILES IDX 15 1 14 2 11 3 12 4 41 5 13 6 40 7 10 8 2 9 3 10 4 11 9 12REMARK SMILES IDX 5 13 8 14 6 15 7 16 1 17 42 19 16 21 17 22 39 23 18 24 38 25REMARK SMILES IDX 19 26 20 27 21 28 29 29 22 30 28 31 23 32 27 33 24 34 26 35REMARK SMILES IDX 25 36 30 37 31 38 37 39 32 40 35 41 33 42 36 43 34 44REMARK H PARENT 1 18 42 20USER                              x       y       z     vdW  Elec       q    TypeUSER                           _______ _______ _______ _____ _____    ______ ____ROOTATOM      1  C   UNL     1      38.110  44.368  21.736 -0.34 +0.01    +0.120 C  ENDROOTBRANCH   1   2ATOM      2  N   UNL     1      39.317  44.487  20.891 -0.15 -0.01    -0.296 NA ATOM      3  C   UNL     1      41.181  45.517  18.868 -0.43 +0.01    +0.124 C  ATOM      4  C   UNL     1      40.142  44.432  18.546 -0.40 -0.00    +0.044 C  ATOM      5  C   UNL     1      41.342  45.802  20.372 -0.33 +0.02    +0.151 C  ATOM      6  C   UNL     1      38.935  44.394  19.474 -0.35 -0.00    +0.087 C  ATOM      7  C   UNL     1      40.023  45.760  21.155 -0.25 +0.01    +0.118 C  BRANCH   3   8ATOM      8  N   UNL     1      41.119  46.706  18.024 -0.32 +0.02    -0.288 N  ATOM      9  C   UNL     1      42.003  47.753  18.145 -0.23 -0.01    +0.295 A  ATOM     10  N   UNL     1      41.795  48.718  17.297 -0.76 -0.02    -0.195 NA ATOM     11  C   UNL     1      40.717  48.299  16.568 -0.47 -0.02    +0.092 A  ATOM     12  C   UNL     1      40.262  47.041  16.992 -0.45 -0.01    +0.072 A  ATOM     13  C   UNL     1      40.075  48.963  15.510 -0.56 -0.01    +0.031 A  ATOM     14  C   UNL     1      39.166  46.432  16.369 -0.41 -0.01    +0.029 A  ATOM     15  C   UNL     1      38.984  48.356  14.888 -0.54 -0.00    +0.002 A  ATOM     16  C   UNL     1      38.539  47.109  15.315 -0.45 -0.00    +0.002 A  BRANCH   9  17ATOM     17  O   UNL     1      42.988  47.812  19.018 -0.32 -0.03    -0.480 OA ATOM     18  H   UNL     1      43.077  48.774  19.143 -0.38 -0.05    +0.296 HD ENDBRANCH   9  17ENDBRANCH   3   8BRANCH   5  19ATOM     19  O   UNL     1      42.199  44.785  20.938 -0.14 -0.09    -0.390 OA ATOM     20  H   UNL     1      41.600  44.088  21.268 +0.11 +0.02    +0.211 HD ENDBRANCH   5  19ENDBRANCH   1   2BRANCH   1  21ATOM     21  C   UNL     1      36.931  43.743  21.024 -0.39 -0.00    -0.034 A  ATOM     22  C   UNL     1      35.943  44.548  20.444 -0.09 -0.00    +0.006 A  ATOM     23  C   UNL     1      36.835  42.353  20.879 -0.44 +0.00    +0.006 A  ATOM     24  C   UNL     1      34.879  43.971  19.745 -0.40 -0.00    +0.011 A  ATOM     25  C   UNL     1      35.767  41.778  20.181 -0.31 -0.00    +0.011 A  ATOM     26  C   UNL     1      34.763  42.577  19.611 -0.43 -0.00    +0.002 A  BRANCH  26  27ATOM     27  C   UNL     1      33.633  41.995  18.864 -0.32 -0.01    +0.099 A  ATOM     28  N   UNL     1      32.938  41.056  19.565 -0.30 -0.04    -0.224 NA ATOM     29  C   UNL     1      33.263  42.349  17.558 -0.30 -0.03    +0.098 A  ATOM     30  C   UNL     1      31.875  40.487  18.996 -0.26 +0.01    +0.178 A  ATOM     31  N   UNL     1      32.172  41.792  16.972 -0.08 +0.11    -0.242 NA ATOM     32  N   UNL     1      31.198  39.566  19.692 -0.34 -0.03    -0.235 NA ATOM     33  C   UNL     1      31.497  40.870  17.689 -0.29 -0.02    +0.108 A  ATOM     34  C   UNL     1      30.123  38.988  19.118 -0.29 +0.02    +0.114 A  ATOM     35  C   UNL     1      30.386  40.252  17.133 -0.34 -0.00    +0.034 A  ATOM     36  C   UNL     1      29.680  39.293  17.849 -0.33 +0.01    +0.022 A  BRANCH  29  37ATOM     37  C   UNL     1      33.987  43.292  16.689 -0.36 -0.00    +0.005 A  ATOM     38  C   UNL     1      35.387  43.197  16.549 -0.41 -0.00    +0.013 A  ATOM     39  C   UNL     1      33.326  44.330  16.008 -0.29 -0.03    +0.052 A  ATOM     40  C   UNL     1      36.098  44.091  15.740 -0.36 -0.02    +0.043 A  ATOM     41  C   UNL     1      34.039  45.218  15.206 -0.13 -0.12    +0.159 A  ATOM     42  C   UNL     1      35.415  45.097  15.071 -0.22 -0.09    +0.158 A  ATOM     43  F   UNL     1      33.382  46.201  14.574 -0.08 +0.24    -0.204 F  ATOM     44  F   UNL     1      36.099  45.957  14.303 -0.08 +0.12    -0.204 F  ENDBRANCH  29  37ENDBRANCH  26  27ENDBRANCH   1  21TORSDOF 7TERENDMDL