MODEL        1USER    Run = 1USERUSER    Estimated Free Energy of Binding    = -13.72 kcal/mol  [=(1)+(2)+(3)-(4)]USERUSER    (1) Final Intermolecular Energy     = -16.71 kcal/molUSER        vdW + Hbond + desolv Energy     = -16.54 kcal/molUSER        Electrostatic Energy            =  -0.16 kcal/molUSER        Moving Ligand-Fixed Receptor    = -16.71 kcal/molUSER        Moving Ligand-Moving Receptor   =  +0.00 kcal/molUSER    (2) Final Total Internal Energy     =  -3.20 kcal/molUSER    (3) Torsional Free Energy           =  +2.98 kcal/molUSER    (4) Unbound System's Energy         =  -3.20 kcal/molUSERUSERREMARK SMILES Oc1nc2ccccc2n1C1CCN(Cc2ccc(-c3nc4cc(OCCN5CCOCC5)ccc4nc3-c3ncccn3)cc2)CC1REMARK SMILES IDX 16 1 17 2 18 3 19 4 45 5 46 6 15 7 14 8 11 9 12 10 48 11REMARK SMILES IDX 13 12 47 13 10 14 2 15 3 16 4 17 9 18 5 19 8 20 6 21 7 22REMARK SMILES IDX 1 23 20 25 21 26 38 27 22 28 37 29 23 30 36 31 24 32 35 33REMARK SMILES IDX 34 34 39 35 40 36 44 37 41 38 43 39 42 40 25 41 26 42 27 43REMARK SMILES IDX 28 44 29 45 33 46 30 47 32 48 31 49REMARK H PARENT 1 24USER                              x       y       z     vdW  Elec       q    TypeUSER                           _______ _______ _______ _____ _____    ______ ____ROOTATOM      1  C   UNL     1      35.714  45.701  15.456 -0.33 +0.02    -0.034 A  ATOM      2  C   UNL     1      36.242  44.407  15.540 -0.37 -0.00    +0.006 A  ATOM      3  C   UNL     1      36.400  43.784  16.782 -0.35 -0.00    +0.011 A  ATOM      4  C   UNL     1      36.037  44.430  17.976 -0.32 -0.00    +0.003 A  ATOM      5  C   UNL     1      35.542  45.742  17.880 -0.36 -0.01    +0.011 A  ATOM      6  C   UNL     1      35.372  46.365  16.640 -0.31 -0.01    +0.006 A  ENDROOTBRANCH   1   7ATOM      7  C   UNL     1      35.515  46.367  14.111 -0.42 -0.09    +0.120 C  BRANCH   7   8ATOM      8  N   UNL     1      36.714  47.065  13.619 -0.28 +0.15    -0.299 NA ATOM      9  C   UNL     1      38.850  47.216  15.613 -0.45 -0.03    +0.095 C  ATOM     10  C   UNL     1      37.624  48.141  15.694 -0.45 -0.03    +0.041 C  ATOM     11  C   UNL     1      39.157  46.774  14.178 -0.43 -0.01    +0.041 C  ATOM     12  C   UNL     1      36.951  48.321  14.335 -0.52 -0.06    +0.087 C  ATOM     13  C   UNL     1      37.892  46.185  13.552 -0.40 -0.03    +0.087 C  BRANCH   9  14ATOM     14  N   UNL     1      40.019  47.746  16.303 -0.29 +0.07    -0.291 N  ATOM     15  C   UNL     1      40.715  48.859  15.921 -0.34 -0.06    +0.295 A  ATOM     16  N   UNL     1      41.734  49.124  16.691 -0.90 -0.03    -0.195 NA ATOM     17  C   UNL     1      41.710  48.128  17.636 -0.35 -0.00    +0.092 A  ATOM     18  C   UNL     1      40.646  47.247  17.426 -0.47 -0.01    +0.072 A  ATOM     19  C   UNL     1      42.583  47.914  18.714 -0.44 +0.00    +0.031 A  ATOM     20  C   UNL     1      40.412  46.145  18.259 -0.46 -0.00    +0.029 A  ATOM     21  C   UNL     1      42.363  46.817  19.555 -0.48 +0.00    +0.002 A  ATOM     22  C   UNL     1      41.293  45.949  19.328 -0.45 +0.00    +0.002 A  BRANCH  15  23ATOM     23  O   UNL     1      40.417  49.612  14.882 -0.21 +0.21    -0.480 OA ATOM     24  H   UNL     1      39.797  50.250  15.280 -0.18 -0.23    +0.296 HD ENDBRANCH  15  23ENDBRANCH   9  14ENDBRANCH   7   8ENDBRANCH   1   7BRANCH   4  25ATOM     25  C   UNL     1      36.198  43.749  19.277 -0.31 -0.01    +0.101 A  ATOM     26  N   UNL     1      37.401  43.978  19.882 -0.21 +0.02    -0.244 NA ATOM     27  C   UNL     1      35.232  42.938  19.882 -0.34 -0.01    +0.135 A  ATOM     28  C   UNL     1      37.613  43.414  21.085 -0.29 +0.00    +0.093 A  ATOM     29  N   UNL     1      35.442  42.382  21.115 -0.26 -0.02    -0.240 NA ATOM     30  C   UNL     1      38.830  43.614  21.728 -0.22 +0.00    +0.077 A  ATOM     31  C   UNL     1      36.622  42.620  21.706 -0.40 +0.01    +0.090 A  ATOM     32  C   UNL     1      39.095  43.042  22.969 -0.21 +0.01    +0.121 A  ATOM     33  C   UNL     1      36.883  42.070  22.950 -0.47 +0.00    +0.034 A  ATOM     34  C   UNL     1      38.107  42.277  23.584 -0.17 +0.01    +0.049 A  BRANCH  27  35ATOM     35  C   UNL     1      33.966  42.585  19.229 -0.28 -0.01    +0.180 A  ATOM     36  N   UNL     1      32.839  43.166  19.695 -0.68 -0.01    -0.235 NA ATOM     37  N   UNL     1      34.006  41.688  18.220 -0.26 +0.06    -0.235 NA ATOM     38  C   UNL     1      31.692  42.823  19.081 -0.16 -0.01    +0.115 A  ATOM     39  C   UNL     1      32.828  41.388  17.641 -0.29 -0.04    +0.115 A  ATOM     40  C   UNL     1      31.629  41.932  18.036 -0.29 -0.01    +0.040 A  ENDBRANCH  27  35BRANCH  32  41ATOM     41  O   UNL     1      40.246  43.167  23.689 -0.05 -0.02    -0.492 OA BRANCH  41  42ATOM     42  C   UNL     1      41.082  44.306  23.473 -0.10 +0.01    +0.245 C  BRANCH  42  43ATOM     43  C   UNL     1      40.579  45.576  24.194 -0.13 +0.01    +0.126 C  BRANCH  43  44ATOM     44  N   UNL     1      39.123  45.787  24.128 -0.11 -0.02    -0.295 NA ATOM     45  C   UNL     1      38.470  45.381  25.389 -0.22 +0.00    +0.113 C  ATOM     46  C   UNL     1      38.725  47.156  23.741 -0.31 +0.02    +0.113 C  ATOM     47  C   UNL     1      37.048  45.950  25.492 -0.19 +0.01    +0.175 C  ATOM     48  C   UNL     1      38.157  47.988  24.904 -0.35 +0.02    +0.175 C  ATOM     49  O   UNL     1      37.020  47.385  25.532 -0.67 -0.02    -0.379 OA ENDBRANCH  43  44ENDBRANCH  42  43ENDBRANCH  41  42ENDBRANCH  32  41ENDBRANCH   4  25TORSDOF 10TERENDMDL