REMARK SMILES Oc1nc2ccccc2n1C1CCN(Cc2ccc(-c3nc4cc(OCCN5CCOCC5)ccc4nc3-c3ncccn3)cc2)CC1
REMARK SMILES IDX 16 1 17 2 18 3 19 4 45 5 46 6 15 7 14 8 11 9 12 10 48 11
REMARK SMILES IDX 13 12 47 13 10 14 2 15 3 16 4 17 9 18 5 19 8 20 6 21 7 22
REMARK SMILES IDX 1 23 20 25 21 26 38 27 22 28 37 29 23 30 36 31 24 32 35 33
REMARK SMILES IDX 34 34 39 35 40 36 44 37 41 38 43 39 42 40 25 41 26 42 27 43
REMARK SMILES IDX 28 44 29 45 33 46 30 47 32 48 31 49
REMARK H PARENT 1 24
ROOT
ATOM      1  C   UNL     1      -2.151   1.326  -0.761  1.00  0.00    -0.034 A 
ATOM      2  C   UNL     1      -1.023   1.606   0.020  1.00  0.00     0.006 A 
ATOM      3  C   UNL     1       0.253   1.236  -0.417  1.00  0.00     0.011 A 
ATOM      4  C   UNL     1       0.444   0.578  -1.644  1.00  0.00     0.003 A 
ATOM      5  C   UNL     1      -0.700   0.271  -2.401  1.00  0.00     0.011 A 
ATOM      6  C   UNL     1      -1.977   0.648  -1.973  1.00  0.00     0.006 A 
ENDROOT
BRANCH   1   7
ATOM      7  C   UNL     1      -3.530   1.751  -0.304  1.00  0.00     0.120 C 
BRANCH   7   8
ATOM      8  N   UNL     1      -3.988   1.052   0.908  1.00  0.00    -0.299 NA
ATOM      9  C   UNL     1      -6.652  -0.123   0.613  1.00  0.00     0.095 C 
ATOM     10  C   UNL     1      -6.473   1.388   0.840  1.00  0.00     0.041 C 
ATOM     11  C   UNL     1      -5.502  -0.945   1.206  1.00  0.00     0.041 C 
ATOM     12  C   UNL     1      -5.144   1.712   1.519  1.00  0.00     0.087 C 
ATOM     13  C   UNL     1      -4.172  -0.393   0.690  1.00  0.00     0.087 C 
BRANCH   9  14
ATOM     14  N   UNL     1      -7.963  -0.615   1.015  1.00  0.00    -0.291 N 
ATOM     15  C   UNL     1      -8.887  -1.162   0.168  1.00  0.00     0.295 A 
ATOM     16  N   UNL     1      -9.993  -1.515   0.764  1.00  0.00    -0.195 NA
ATOM     17  C   UNL     1      -9.788  -1.181   2.080  1.00  0.00     0.092 A 
ATOM     18  C   UNL     1      -8.524  -0.617   2.275  1.00  0.00     0.072 A 
ATOM     19  C   UNL     1     -10.654  -1.332   3.173  1.00  0.00     0.031 A 
ATOM     20  C   UNL     1      -8.082  -0.192   3.535  1.00  0.00     0.029 A 
ATOM     21  C   UNL     1     -10.227  -0.912   4.438  1.00  0.00     0.002 A 
ATOM     22  C   UNL     1      -8.960  -0.352   4.612  1.00  0.00     0.002 A 
BRANCH  15  23
ATOM     23  O   UNL     1      -8.714  -1.329  -1.127  1.00  0.00    -0.480 OA
ATOM     24  H   UNL     1      -9.562  -1.737  -1.381  1.00  0.00     0.296 HD
ENDBRANCH  15  23
ENDBRANCH   9  14
ENDBRANCH   7   8
ENDBRANCH   1   7
BRANCH   4  25
ATOM     25  C   UNL     1       1.801   0.209  -2.094  1.00  0.00     0.101 A 
ATOM     26  N   UNL     1       2.541  -0.451  -1.154  1.00  0.00    -0.244 NA
ATOM     27  C   UNL     1       2.326   0.480  -3.362  1.00  0.00     0.135 A 
ATOM     28  C   UNL     1       3.780  -0.846  -1.499  1.00  0.00     0.093 A 
ATOM     29  N   UNL     1       3.579   0.059  -3.717  1.00  0.00    -0.240 NA
ATOM     30  C   UNL     1       4.569  -1.510  -0.566  1.00  0.00     0.077 A 
ATOM     31  C   UNL     1       4.295  -0.596  -2.791  1.00  0.00     0.090 A 
ATOM     32  C   UNL     1       5.860  -1.928  -0.877  1.00  0.00     0.121 A 
ATOM     33  C   UNL     1       5.573  -1.032  -3.102  1.00  0.00     0.034 A 
ATOM     34  C   UNL     1       6.354  -1.696  -2.158  1.00  0.00     0.049 A 
BRANCH  27  35
ATOM     35  C   UNL     1       1.608   1.268  -4.370  1.00  0.00     0.180 A 
ATOM     36  N   UNL     1       1.379   2.571  -4.098  1.00  0.00    -0.235 NA
ATOM     37  N   UNL     1       1.206   0.637  -5.495  1.00  0.00    -0.235 NA
ATOM     38  C   UNL     1       0.717   3.270  -5.038  1.00  0.00     0.115 A 
ATOM     39  C   UNL     1       0.553   1.389  -6.400  1.00  0.00     0.115 A 
ATOM     40  C   UNL     1       0.279   2.724  -6.221  1.00  0.00     0.040 A 
ENDBRANCH  27  35
BRANCH  32  41
ATOM     41  O   UNL     1       6.722  -2.583  -0.047  1.00  0.00    -0.492 OA
BRANCH  41  42
ATOM     42  C   UNL     1       6.482  -2.562   1.362  1.00  0.00     0.245 C 
BRANCH  42  43
ATOM     43  C   UNL     1       6.833  -1.209   2.019  1.00  0.00     0.126 C 
BRANCH  43  44
ATOM     44  N   UNL     1       8.206  -0.739   1.769  1.00  0.00    -0.295 NA
ATOM     45  C   UNL     1       8.347   0.692   2.108  1.00  0.00     0.113 C 
ATOM     46  C   UNL     1       9.254  -1.546   2.427  1.00  0.00     0.113 C 
ATOM     47  C   UNL     1       9.823   1.094   2.236  1.00  0.00     0.175 C 
ATOM     48  C   UNL     1       9.908  -0.848   3.632  1.00  0.00     0.175 C 
ATOM     49  O   UNL     1      10.499   0.415   3.305  1.00  0.00    -0.379 OA
ENDBRANCH  43  44
ENDBRANCH  42  43
ENDBRANCH  41  42
ENDBRANCH  32  41
ENDBRANCH   4  25
TORSDOF 10
