REMARK SMILES Oc1nc2ccccc2n1[C@@H]1CCN(Cc2ccc(-c3nc4ncccc4nc3-c3ccc(F)c(F)c3)cc2)C[C@H]1O
REMARK SMILES IDX 15 1 14 2 11 3 12 4 41 5 13 6 40 7 10 8 2 9 3 10 4 11 9 12
REMARK SMILES IDX 5 13 8 14 6 15 7 16 1 17 42 19 16 21 17 22 39 23 18 24 38 25
REMARK SMILES IDX 19 26 20 27 21 28 29 29 22 30 28 31 23 32 27 33 24 34 26 35
REMARK SMILES IDX 25 36 30 37 31 38 37 39 32 40 35 41 33 42 36 43 34 44
REMARK H PARENT 1 18 42 20
ROOT
ATOM      1  C   UNL     1       1.177   1.565  -1.461  1.00  0.00     0.120 C 
ENDROOT
BRANCH   1   2
ATOM      2  N   UNL     1       1.902   0.277  -1.467  1.00  0.00    -0.296 NA
ATOM      3  C   UNL     1       4.035  -1.694  -1.028  1.00  0.00     0.124 C 
ATOM      4  C   UNL     1       3.921  -0.890  -2.332  1.00  0.00     0.044 C 
ATOM      5  C   UNL     1       2.802  -1.583  -0.114  1.00  0.00     0.151 C 
ATOM      6  C   UNL     1       3.157   0.424  -2.219  1.00  0.00     0.087 C 
ATOM      7  C   UNL     1       2.175  -0.183  -0.088  1.00  0.00     0.118 C 
BRANCH   3   8
ATOM      8  N   UNL     1       5.318  -1.581  -0.340  1.00  0.00    -0.288 N 
ATOM      9  C   UNL     1       6.173  -2.647  -0.178  1.00  0.00     0.295 A 
ATOM     10  N   UNL     1       7.273  -2.348   0.450  1.00  0.00    -0.195 NA
ATOM     11  C   UNL     1       7.152  -1.014   0.724  1.00  0.00     0.092 A 
ATOM     12  C   UNL     1       5.940  -0.494   0.245  1.00  0.00     0.072 A 
ATOM     13  C   UNL     1       8.066  -0.179   1.388  1.00  0.00     0.031 A 
ATOM     14  C   UNL     1       5.625   0.859   0.421  1.00  0.00     0.029 A 
ATOM     15  C   UNL     1       7.753   1.169   1.563  1.00  0.00     0.002 A 
ATOM     16  C   UNL     1       6.549   1.676   1.086  1.00  0.00     0.002 A 
BRANCH   9  17
ATOM     17  O   UNL     1       5.944  -3.870  -0.610  1.00  0.00    -0.480 OA
ATOM     18  H   UNL     1       6.744  -4.335  -0.303  1.00  0.00     0.296 HD
ENDBRANCH   9  17
ENDBRANCH   3   8
BRANCH   5  19
ATOM     19  O   UNL     1       1.789  -2.488  -0.606  1.00  0.00    -0.390 OA
ATOM     20  H   UNL     1       1.319  -2.001  -1.311  1.00  0.00     0.211 HD
ENDBRANCH   5  19
ENDBRANCH   1   2
BRANCH   1  21
ATOM     21  C   UNL     1      -0.260   1.449  -1.003  1.00  0.00    -0.034 A 
ATOM     22  C   UNL     1      -0.750   2.274   0.016  1.00  0.00     0.006 A 
ATOM     23  C   UNL     1      -1.142   0.558  -1.628  1.00  0.00     0.006 A 
ATOM     24  C   UNL     1      -2.090   2.199   0.407  1.00  0.00     0.011 A 
ATOM     25  C   UNL     1      -2.482   0.483  -1.233  1.00  0.00     0.011 A 
ATOM     26  C   UNL     1      -2.978   1.294  -0.200  1.00  0.00     0.002 A 
BRANCH  26  27
ATOM     27  C   UNL     1      -4.388   1.240   0.227  1.00  0.00     0.099 A 
ATOM     28  N   UNL     1      -5.009   2.453   0.220  1.00  0.00    -0.224 NA
ATOM     29  C   UNL     1      -5.072   0.075   0.604  1.00  0.00     0.098 A 
ATOM     30  C   UNL     1      -6.297   2.516   0.558  1.00  0.00     0.178 A 
ATOM     31  N   UNL     1      -6.389   0.121   0.933  1.00  0.00    -0.242 NA
ATOM     32  N   UNL     1      -6.899   3.711   0.548  1.00  0.00    -0.235 NA
ATOM     33  C   UNL     1      -6.983   1.332   0.912  1.00  0.00     0.108 A 
ATOM     34  C   UNL     1      -8.202   3.778   0.891  1.00  0.00     0.114 A 
ATOM     35  C   UNL     1      -8.321   1.442   1.259  1.00  0.00     0.034 A 
ATOM     36  C   UNL     1      -8.952   2.680   1.253  1.00  0.00     0.022 A 
BRANCH  29  37
ATOM     37  C   UNL     1      -4.478  -1.268   0.718  1.00  0.00     0.005 A 
ATOM     38  C   UNL     1      -5.082  -2.368   0.075  1.00  0.00     0.013 A 
ATOM     39  C   UNL     1      -3.328  -1.507   1.491  1.00  0.00     0.052 A 
ATOM     40  C   UNL     1      -4.544  -3.655   0.181  1.00  0.00     0.043 A 
ATOM     41  C   UNL     1      -2.798  -2.791   1.595  1.00  0.00     0.159 A 
ATOM     42  C   UNL     1      -3.401  -3.857   0.942  1.00  0.00     0.158 A 
ATOM     43  F   UNL     1      -1.704  -2.988   2.344  1.00  0.00    -0.204 F 
ATOM     44  F   UNL     1      -2.892  -5.092   1.048  1.00  0.00    -0.204 F 
ENDBRANCH  29  37
ENDBRANCH  26  27
ENDBRANCH   1  21
TORSDOF 7
