MODEL        2USER    Run = 2USERUSER    Estimated Free Energy of Binding    = -11.33 kcal/mol  [=(1)+(2)+(3)-(4)]USERUSER    (1) Final Intermolecular Energy     = -13.12 kcal/molUSER        vdW + Hbond + desolv Energy     = -12.92 kcal/molUSER        Electrostatic Energy            =  -0.20 kcal/molUSER        Moving Ligand-Fixed Receptor    = -13.12 kcal/molUSER        Moving Ligand-Moving Receptor   =  +0.00 kcal/molUSER    (2) Final Total Internal Energy     =  -1.12 kcal/molUSER    (3) Torsional Free Energy           =  +1.79 kcal/molUSER    (4) Unbound System's Energy         =  -1.12 kcal/molUSERUSERREMARK SMILES O=C(c1ccc(CN2CCC(n3c(O)nc4ccccc43)CC2)cc1)N1CCN(c2nc3ccccc3[nH]2)CC1REMARK SMILES IDX 7 1 6 2 3 3 4 4 25 5 5 6 24 7 2 8 26 9 27 10 40 11 28 12REMARK SMILES IDX 39 13 29 14 1 15 30 16 31 17 38 18 32 19 37 20 33 21 36 22REMARK SMILES IDX 34 23 35 24 8 26 9 27 23 28 10 29 22 30 11 31 12 32 13 33REMARK SMILES IDX 21 34 15 35 20 36 16 37 19 38 17 39 18 40 14 41REMARK H PARENT 38 25 14 42USER                              x       y       z     vdW  Elec       q    TypeUSER                           _______ _______ _______ _____ _____    ______ ____ROOTATOM      1  C   UNL     1      31.317  39.387  18.686 -0.40 +0.01    +0.120 C  ENDROOTBRANCH   1   2ATOM      2  C   UNL     1      31.829  40.774  18.350 -0.37 +0.00    -0.034 A  ATOM      3  C   UNL     1      32.774  43.361  17.756 -0.29 -0.01    +0.040 A  ATOM      4  C   UNL     1      33.149  42.730  18.947 -0.38 -0.00    +0.014 A  ATOM      5  C   UNL     1      31.951  42.688  16.848 -0.30 -0.01    +0.014 A  ATOM      6  C   UNL     1      32.680  41.447  19.241 -0.32 +0.00    +0.006 A  ATOM      7  C   UNL     1      31.464  41.414  17.156 -0.26 -0.00    +0.006 A  BRANCH   3   8ATOM      8  C   UNL     1      33.337  44.702  17.453 -0.20 -0.11    +0.253 C  ATOM      9  N   UNL     1      34.634  45.014  17.869 -0.12 +0.16    -0.335 N  ATOM     10  C   UNL     1      35.742  44.040  17.786 -0.27 -0.04    +0.141 C  ATOM     11  C   UNL     1      35.084  46.392  17.641 -0.35 -0.12    +0.141 C  ATOM     12  C   UNL     1      36.485  44.166  16.435 -0.32 -0.05    +0.141 C  ATOM     13  C   UNL     1      35.789  46.522  16.271 -0.31 -0.14    +0.141 C  ATOM     14  N   UNL     1      36.918  45.560  16.168 -0.11 +0.16    -0.339 N  ATOM     15  O   UNL     1      32.617  45.511  16.866 -0.40 +0.17    -0.269 OA BRANCH  14  16ATOM     16  C   UNL     1      38.093  45.925  16.748 -0.25 -0.07    +0.203 A  ATOM     17  N   UNL     1      38.732  45.354  17.743 -0.26 +0.04    -0.213 NA ATOM     18  N   UNL     1      38.801  46.994  16.262 -0.20 +0.12    -0.324 N  ATOM     19  C   UNL     1      39.860  46.115  17.943 -0.40 -0.01    +0.091 A  ATOM     20  C   UNL     1      39.926  47.157  17.026 -0.44 -0.01    +0.067 A  ATOM     21  C   UNL     1      40.883  45.974  18.892 -0.45 +0.00    +0.030 A  ATOM     22  C   UNL     1      40.965  48.090  16.993 -0.51 -0.00    +0.028 A  ATOM     23  C   UNL     1      41.937  46.899  18.886 -0.53 +0.00    +0.002 A  ATOM     24  C   UNL     1      41.972  47.940  17.953 -0.41 -0.00    +0.002 A  ATOM     25  H   UNL     1      38.536  47.534  15.455 +0.13 -0.08    +0.170 HD ENDBRANCH  14  16ENDBRANCH   3   8ENDBRANCH   1   2BRANCH   1  26ATOM     26  N   UNL     1      29.906  39.286  19.071 -0.13 -0.04    -0.299 NA ATOM     27  C   UNL     1      29.631  38.455  20.241 -0.32 +0.01    +0.087 C  ATOM     28  C   UNL     1      28.967  39.158  17.967 -0.29 +0.03    +0.087 C  ATOM     29  C   UNL     1      28.271  37.751  20.218 -0.33 -0.00    +0.041 C  ATOM     30  C   UNL     1      27.572  39.507  18.467 -0.26 +0.01    +0.041 C  ATOM     31  C   UNL     1      27.128  38.567  19.595 -0.26 -0.01    +0.095 C  BRANCH  31  32ATOM     32  N   UNL     1      26.265  39.210  20.578 -0.13 +0.09    -0.291 N  ATOM     33  C   UNL     1      25.738  38.579  21.677 -0.17 -0.18    +0.295 A  ATOM     34  C   UNL     1      25.796  40.507  20.606 -0.31 -0.01    +0.072 A  ATOM     35  N   UNL     1      24.964  39.344  22.397 -0.34 +0.10    -0.195 NA ATOM     36  C   UNL     1      25.964  41.623  19.777 -0.32 -0.00    +0.029 A  ATOM     37  C   UNL     1      24.993  40.554  21.751 -0.38 -0.02    +0.092 A  ATOM     38  C   UNL     1      25.317  42.810  20.145 -0.47 -0.00    +0.002 A  ATOM     39  C   UNL     1      24.340  41.748  22.096 -0.60 -0.01    +0.031 A  ATOM     40  C   UNL     1      24.519  42.876  21.287 -0.49 -0.00    +0.002 A  BRANCH  33  41ATOM     41  O   UNL     1      25.962  37.322  22.003 -0.12 +0.49    -0.480 OA ATOM     42  H   UNL     1      25.272  36.868  21.482 -0.27 -0.64    +0.296 HD ENDBRANCH  33  41ENDBRANCH  31  32ENDBRANCH   1  26TORSDOF 6TERENDMDL