REMARK SMILES O=C(c1ccc(CN2CCC(n3c(O)nc4ccccc43)CC2)cc1)N1CCN(c2nc3ccccc3[nH]2)CC1
REMARK SMILES IDX 7 1 6 2 3 3 4 4 25 5 5 6 24 7 2 8 26 9 27 10 40 11 28 12
REMARK SMILES IDX 39 13 29 14 1 15 30 16 31 17 38 18 32 19 37 20 33 21 36 22
REMARK SMILES IDX 34 23 35 24 8 26 9 27 23 28 10 29 22 30 11 31 12 32 13 33
REMARK SMILES IDX 21 34 15 35 20 36 16 37 19 38 17 39 18 40 14 41
REMARK H PARENT 38 25 14 42
ROOT
ATOM      1  C   UNL     1       2.542   0.433  -1.776  1.00  0.00     0.120 C 
ENDROOT
BRANCH   1   2
ATOM      2  C   UNL     1       1.240  -0.129  -1.239  1.00  0.00    -0.034 A 
ATOM      3  C   UNL     1      -1.187  -1.183  -0.272  1.00  0.00     0.040 A 
ATOM      4  C   UNL     1      -0.372  -1.948  -1.114  1.00  0.00     0.014 A 
ATOM      5  C   UNL     1      -0.776   0.097   0.110  1.00  0.00     0.014 A 
ATOM      6  C   UNL     1       0.831  -1.425  -1.593  1.00  0.00     0.006 A 
ATOM      7  C   UNL     1       0.417   0.627  -0.390  1.00  0.00     0.006 A 
BRANCH   3   8
ATOM      8  C   UNL     1      -2.432  -1.795   0.262  1.00  0.00     0.253 C 
ATOM      9  N   UNL     1      -3.553  -0.992   0.486  1.00  0.00    -0.335 N 
ATOM     10  C   UNL     1      -3.953   0.078  -0.451  1.00  0.00     0.141 C 
ATOM     11  C   UNL     1      -4.707  -1.636   1.123  1.00  0.00     0.141 C 
ATOM     12  C   UNL     1      -4.943  -0.460  -1.510  1.00  0.00     0.141 C 
ATOM     13  C   UNL     1      -5.673  -2.210   0.061  1.00  0.00     0.141 C 
ATOM     14  N   UNL     1      -6.102  -1.148  -0.887  1.00  0.00    -0.339 N 
ATOM     15  O   UNL     1      -2.417  -2.999   0.521  1.00  0.00    -0.269 OA
BRANCH  14  16
ATOM     16  C   UNL     1      -7.113  -0.333  -0.483  1.00  0.00     0.203 A 
ATOM     17  N   UNL     1      -7.123   0.976  -0.376  1.00  0.00    -0.213 NA
ATOM     18  N   UNL     1      -8.341  -0.858  -0.171  1.00  0.00    -0.324 N 
ATOM     19  C   UNL     1      -8.381   1.300   0.076  1.00  0.00     0.091 A 
ATOM     20  C   UNL     1      -9.167   0.163   0.217  1.00  0.00     0.067 A 
ATOM     21  C   UNL     1      -8.929   2.553   0.386  1.00  0.00     0.030 A 
ATOM     22  C   UNL     1     -10.492   0.192   0.659  1.00  0.00     0.028 A 
ATOM     23  C   UNL     1     -10.256   2.613   0.837  1.00  0.00     0.002 A 
ATOM     24  C   UNL     1     -11.020   1.449   0.973  1.00  0.00     0.002 A 
ATOM     25  H   UNL     1      -8.583  -1.831  -0.255  1.00  0.00     0.170 HD
ENDBRANCH  14  16
ENDBRANCH   3   8
ENDBRANCH   1   2
BRANCH   1  26
ATOM     26  N   UNL     1       3.670   0.478  -0.841  1.00  0.00    -0.299 NA
ATOM     27  C   UNL     1       4.213  -0.821  -0.448  1.00  0.00     0.087 C 
ATOM     28  C   UNL     1       3.560   1.466   0.221  1.00  0.00     0.087 C 
ATOM     29  C   UNL     1       4.798  -0.867   0.966  1.00  0.00     0.041 C 
ATOM     30  C   UNL     1       4.941   1.702   0.817  1.00  0.00     0.041 C 
ATOM     31  C   UNL     1       5.524   0.413   1.410  1.00  0.00     0.095 C 
BRANCH  31  32
ATOM     32  N   UNL     1       6.975   0.330   1.301  1.00  0.00    -0.291 N 
ATOM     33  C   UNL     1       7.828   0.227   2.371  1.00  0.00     0.295 A 
ATOM     34  C   UNL     1       7.764   0.360   0.170  1.00  0.00     0.072 A 
ATOM     35  N   UNL     1       9.088   0.205   2.034  1.00  0.00    -0.195 NA
ATOM     36  C   UNL     1       7.499   0.460  -1.202  1.00  0.00     0.029 A 
ATOM     37  C   UNL     1       9.071   0.278   0.664  1.00  0.00     0.092 A 
ATOM     38  C   UNL     1       8.593   0.449  -2.077  1.00  0.00     0.002 A 
ATOM     39  C   UNL     1      10.155   0.284  -0.228  1.00  0.00     0.031 A 
ATOM     40  C   UNL     1       9.901   0.360  -1.602  1.00  0.00     0.002 A 
BRANCH  33  41
ATOM     41  O   UNL     1       7.450   0.163   3.632  1.00  0.00    -0.480 OA
ATOM     42  H   UNL     1       8.314   0.147   4.086  1.00  0.00     0.296 HD
ENDBRANCH  33  41
ENDBRANCH  31  32
ENDBRANCH   1  26
TORSDOF 6
