MODEL        10USER    Run = 10USERUSER    Estimated Free Energy of Binding    = -13.70 kcal/mol  [=(1)+(2)+(3)-(4)]USERUSER    (1) Final Intermolecular Energy     = -15.78 kcal/molUSER        vdW + Hbond + desolv Energy     = -15.65 kcal/molUSER        Electrostatic Energy            =  -0.14 kcal/molUSER        Moving Ligand-Fixed Receptor    = -15.78 kcal/molUSER        Moving Ligand-Moving Receptor   =  +0.00 kcal/molUSER    (2) Final Total Internal Energy     =  -2.05 kcal/molUSER    (3) Torsional Free Energy           =  +2.09 kcal/molUSER    (4) Unbound System's Energy         =  -2.05 kcal/molUSERUSERREMARK SMILES CN1CCN(c2cc(-c3nc4ccccc4nc3-c3ccc(CN4CCC(n5c(O)nc6ccccc65)CC4)cc3)ccn2)CC1REMARK SMILES IDX 19 1 20 2 21 3 22 4 40 5 41 6 18 7 9 8 10 9 11 10 17 11REMARK SMILES IDX 12 12 16 13 13 14 15 15 14 16 8 17 6 18 7 19 44 20 43 21REMARK SMILES IDX 42 22 5 23 2 24 3 25 46 26 4 27 45 28 1 29 23 30 24 31 25 32REMARK SMILES IDX 39 33 26 34 38 35 27 36 28 37 29 38 37 39 31 40 36 41 32 42REMARK SMILES IDX 35 43 33 44 34 45 30 46REMARK H PARENT 30 47USER                              x       y       z     vdW  Elec       q    TypeUSER                           _______ _______ _______ _____ _____    ______ ____ROOTATOM      1  C   UNL     1      38.548  44.785  23.602 -0.28 +0.00    +0.002 A  ATOM      2  C   UNL     1      38.036  45.426  22.462 -0.23 +0.00    +0.011 A  ATOM      3  C   UNL     1      38.862  45.748  21.381 -0.19 +0.00    +0.006 A  ATOM      4  C   UNL     1      40.222  45.419  21.400 -0.30 -0.00    -0.034 A  ATOM      5  C   UNL     1      40.741  44.782  22.534 -0.22 +0.00    +0.006 A  ATOM      6  C   UNL     1      39.915  44.467  23.617 -0.18 +0.00    +0.011 A  ENDROOTBRANCH   1   7ATOM      7  C   UNL     1      37.655  44.432  24.720 -0.25 +0.01    +0.097 A  ATOM      8  C   UNL     1      37.345  45.267  25.803 -0.27 -0.00    +0.097 A  ATOM      9  N   UNL     1      36.560  44.828  26.828 -0.23 +0.05    -0.244 NA ATOM     10  C   UNL     1      36.072  43.578  26.747 -0.37 -0.01    +0.089 A  ATOM     11  N   UNL     1      37.145  43.171  24.636 -0.21 -0.01    -0.244 NA ATOM     12  C   UNL     1      35.261  43.090  27.765 -0.53 -0.01    +0.030 A  ATOM     13  C   UNL     1      36.364  42.747  25.644 -0.33 -0.01    +0.089 A  ATOM     14  C   UNL     1      34.735  41.798  27.716 -0.53 -0.00    +0.002 A  ATOM     15  C   UNL     1      35.836  41.462  25.605 -0.17 -0.01    +0.030 A  ATOM     16  C   UNL     1      35.024  40.979  26.631 -0.59 -0.00    +0.002 A  BRANCH   8  17ATOM     17  C   UNL     1      37.783  46.665  25.949 -0.32 +0.00    +0.008 A  ATOM     18  C   UNL     1      39.437  48.408  25.521 -0.23 +0.01    +0.129 A  ATOM     19  C   UNL     1      38.998  47.090  25.385 -0.23 +0.00    +0.057 A  ATOM     20  N   UNL     1      38.677  49.306  26.185 -0.07 -0.03    -0.239 NA ATOM     21  C   UNL     1      37.519  48.896  26.744 -0.26 +0.00    +0.114 A  ATOM     22  C   UNL     1      37.040  47.603  26.664 -0.35 -0.00    +0.030 A  BRANCH  18  23ATOM     23  N   UNL     1      40.624  48.837  24.942 -0.16 -0.06    -0.354 N  ATOM     24  N   UNL     1      43.439  48.793  23.914 -0.64 -0.09    -0.303 NA ATOM     25  C   UNL     1      42.980  49.580  25.082 -0.24 +0.02    +0.105 C  ATOM     26  C   UNL     1      42.370  47.891  23.425 -0.31 +0.02    +0.105 C  ATOM     27  C   UNL     1      41.776  48.985  25.846 -0.27 +0.02    +0.133 C  ATOM     28  C   UNL     1      40.938  48.464  23.551 -0.10 +0.02    +0.133 C  ATOM     29  C   UNL     1      44.640  48.020  24.230 -0.21 +0.02    +0.105 C  ENDBRANCH  18  23ENDBRANCH   8  17ENDBRANCH   1   7BRANCH   4  30ATOM     30  C   UNL     1      41.114  45.735  20.218 -0.36 +0.01    +0.120 C  BRANCH  30  31ATOM     31  N   UNL     1      40.451  46.199  18.987 -0.25 +0.01    -0.299 NA ATOM     32  C   UNL     1      41.377  46.792  18.018 -0.50 -0.01    +0.087 C  ATOM     33  C   UNL     1      39.597  45.182  18.370 -0.43 -0.01    +0.087 C  ATOM     34  C   UNL     1      40.601  47.484  16.897 -0.57 -0.01    +0.041 C  ATOM     35  C   UNL     1      38.737  45.804  17.273 -0.44 -0.01    +0.041 C  ATOM     36  C   UNL     1      39.612  46.515  16.235 -0.44 -0.02    +0.095 C  BRANCH  36  37ATOM     37  N   UNL     1      38.826  47.142  15.180 -0.22 +0.10    -0.291 N  ATOM     38  C   UNL     1      38.734  48.491  14.969 -0.28 -0.15    +0.295 A  ATOM     39  C   UNL     1      38.056  46.533  14.210 -0.39 -0.02    +0.072 A  ATOM     40  N   UNL     1      37.978  48.807  13.953 -0.44 +0.10    -0.195 NA ATOM     41  C   UNL     1      37.754  45.200  13.903 -0.35 -0.01    +0.029 A  ATOM     42  C   UNL     1      37.545  47.599  13.464 -0.48 -0.03    +0.092 A  ATOM     43  C   UNL     1      36.917  44.963  12.807 -0.51 -0.00    +0.002 A  ATOM     44  C   UNL     1      36.706  47.340  12.369 -0.66 -0.01    +0.031 A  ATOM     45  C   UNL     1      36.399  46.013  12.050 -0.63 -0.00    +0.002 A  BRANCH  38  46ATOM     46  O   UNL     1      39.336  49.410  15.696 -0.19 +0.28    -0.480 OA ATOM     47  H   UNL     1      38.906  50.221  15.367 -0.26 -0.30    +0.296 HD ENDBRANCH  38  46ENDBRANCH  36  37ENDBRANCH  30  31ENDBRANCH   4  30TORSDOF 7TERENDMDL