MODEL        2USER    Run = 2USERUSER    Estimated Free Energy of Binding    = -12.23 kcal/mol  [=(1)+(2)+(3)-(4)]USERUSER    (1) Final Intermolecular Energy     = -14.61 kcal/molUSER        vdW + Hbond + desolv Energy     = -14.49 kcal/molUSER        Electrostatic Energy            =  -0.12 kcal/molUSER        Moving Ligand-Fixed Receptor    = -14.61 kcal/molUSER        Moving Ligand-Moving Receptor   =  +0.00 kcal/molUSER    (2) Final Total Internal Energy     =  -2.08 kcal/molUSER    (3) Torsional Free Energy           =  +2.39 kcal/molUSER    (4) Unbound System's Energy         =  -2.08 kcal/molUSERUSERREMARK SMILES C[C@@H]1CN(Cc2ccc(-c3nc4ncccc4nc3-c3ccc(O[C@H]4CNCCO4)cc3F)cc2)CC[C@@H]1n1c(O)nc2ncccc21REMARK SMILES IDX 6 1 7 2 8 3 9 4 34 5 35 6 5 7 4 8 2 9 3 10 38 11 37 12 36 13REMARK SMILES IDX 1 14 39 15 40 16 48 17 42 18 47 19 43 20 46 21 44 22 45 23REMARK SMILES IDX 41 24 10 26 11 27 19 28 12 29 18 30 13 31 17 32 14 33 16 34REMARK SMILES IDX 15 35 20 36 21 37 32 38 22 39 31 40 23 41 33 42 24 43 25 44REMARK SMILES IDX 26 45 30 46 27 47 29 48 28 49REMARK H PARENT 41 25 27 50USER                              x       y       z     vdW  Elec       q    TypeUSER                           _______ _______ _______ _____ _____    ______ ____ROOTATOM      1  C   UNL     1      40.731  44.203  22.434 -0.22 -0.00    -0.034 A  ATOM      2  C   UNL     1      40.143  45.474  22.426 -0.26 +0.00    +0.006 A  ATOM      3  C   UNL     1      39.888  46.134  21.220 +0.16 +0.00    +0.011 A  ATOM      4  C   UNL     1      40.219  45.543  19.990 -0.39 +0.00    +0.002 A  ATOM      5  C   UNL     1      40.808  44.267  20.008 -0.32 +0.00    +0.011 A  ATOM      6  C   UNL     1      41.068  43.607  21.213 -0.24 +0.00    +0.006 A  ENDROOTBRANCH   1   7ATOM      7  C   UNL     1      40.963  43.473  23.740 -0.19 +0.00    +0.120 C  BRANCH   7   8ATOM      8  N   UNL     1      39.755  42.786  24.245 -0.08 -0.02    -0.299 NA ATOM      9  C   UNL     1      38.634  41.763  26.196 -0.30 -0.00    +0.023 C  ATOM     10  C   UNL     1      39.833  42.579  25.701 -0.18 -0.00    +0.090 C  ATOM     11  C   UNL     1      37.277  42.374  25.781 -0.35 -0.01    +0.098 C  ATOM     12  C   UNL     1      37.278  42.868  24.325 -0.40 +0.00    +0.041 C  ATOM     13  C   UNL     1      38.564  43.571  23.896 -0.26 +0.00    +0.087 C  ATOM     14  C   UNL     1      38.747  41.471  27.694 -0.45 -0.00    +0.011 C  BRANCH  11  15ATOM     15  N   UNL     1      36.670  43.311  26.722 -0.18 +0.04    -0.289 N  ATOM     16  C   UNL     1      35.719  43.071  27.677 -0.26 -0.09    +0.296 A  ATOM     17  C   UNL     1      36.975  44.658  26.815 -0.31 -0.01    +0.091 A  ATOM     18  N   UNL     1      35.396  44.126  28.375 -0.43 +0.05    -0.175 NA ATOM     19  C   UNL     1      37.838  45.520  26.134 -0.28 -0.00    +0.032 A  ATOM     20  C   UNL     1      36.168  45.122  27.852 -0.28 -0.05    +0.181 A  ATOM     21  C   UNL     1      37.832  46.845  26.565 -0.30 -0.00    +0.022 A  ATOM     22  N   UNL     1      36.157  46.404  28.277 -0.26 +0.06    -0.235 NA ATOM     23  C   UNL     1      36.998  47.220  27.610 -0.26 -0.02    +0.114 A  BRANCH  16  24ATOM     24  O   UNL     1      35.142  41.914  27.908 -0.25 +0.20    -0.480 OA ATOM     25  H   UNL     1      35.440  41.732  28.820 -0.29 -0.22    +0.296 HD ENDBRANCH  16  24ENDBRANCH  11  15ENDBRANCH   7   8ENDBRANCH   1   7BRANCH   4  26ATOM     26  C   UNL     1      39.914  46.205  18.711 -0.36 -0.01    +0.099 A  ATOM     27  N   UNL     1      40.811  47.171  18.363 -0.33 +0.02    -0.224 NA ATOM     28  C   UNL     1      38.846  45.866  17.870 -0.35 -0.02    +0.100 A  ATOM     29  C   UNL     1      40.671  47.775  17.184 -0.38 -0.03    +0.178 A  ATOM     30  N   UNL     1      38.709  46.451  16.650 -0.24 +0.07    -0.242 NA ATOM     31  N   UNL     1      41.554  48.724  16.849 -0.85 -0.01    -0.235 NA ATOM     32  C   UNL     1      39.613  47.398  16.325 -0.41 -0.03    +0.108 A  ATOM     33  C   UNL     1      41.423  49.335  15.654 -0.47 -0.01    +0.114 A  ATOM     34  C   UNL     1      39.515  48.045  15.103 -0.52 -0.01    +0.034 A  ATOM     35  C   UNL     1      40.429  49.031  14.749 -0.54 -0.01    +0.022 A  BRANCH  28  36ATOM     36  C   UNL     1      37.788  44.903  18.195 -0.35 -0.01    +0.038 A  ATOM     37  C   UNL     1      37.446  44.632  19.530 -0.32 -0.00    +0.017 A  ATOM     38  C   UNL     1      37.119  44.186  17.197 -0.22 -0.04    +0.136 A  ATOM     39  C   UNL     1      36.449  43.700  19.848 -0.37 -0.00    +0.047 A  ATOM     40  C   UNL     1      36.130  43.255  17.506 -0.21 -0.02    +0.086 A  ATOM     41  C   UNL     1      35.777  43.020  18.833 -0.27 -0.02    +0.125 A  ATOM     42  F   UNL     1      37.442  44.362  15.907 -0.08 +0.06    -0.206 F  BRANCH  41  43ATOM     43  O   UNL     1      34.813  42.072  19.015 -0.15 +0.05    -0.463 OA BRANCH  43  44ATOM     44  C   UNL     1      33.522  42.504  19.460 -0.21 +0.01    +0.321 C  ATOM     45  C   UNL     1      33.094  43.853  18.798 -0.34 -0.03    +0.157 C  ATOM     46  O   UNL     1      32.541  41.495  19.154 -0.31 -0.01    -0.340 OA ATOM     47  N   UNL     1      32.253  43.732  17.579 -0.10 +0.08    -0.309 NA ATOM     48  C   UNL     1      32.446  41.244  17.744 -0.31 -0.05    +0.180 C  ATOM     49  C   UNL     1      32.641  42.501  16.874 -0.28 -0.05    +0.109 C  ATOM     50  H   UNL     1      31.287  43.603  17.890 +0.08 -0.02    +0.123 HD ENDBRANCH  43  44ENDBRANCH  41  43ENDBRANCH  28  36ENDBRANCH   4  26TORSDOF 8TERENDMDL