REMARK SMILES C[C@@H]1CN(Cc2ccc(-c3nc4ncccc4nc3-c3ccc(O[C@H]4CNCCO4)cc3F)cc2)CC[C@@H]1n1c(O)nc2ncccc21
REMARK SMILES IDX 6 1 7 2 8 3 9 4 34 5 35 6 5 7 4 8 2 9 3 10 38 11 37 12 36 13
REMARK SMILES IDX 1 14 39 15 40 16 48 17 42 18 47 19 43 20 46 21 44 22 45 23
REMARK SMILES IDX 41 24 10 26 11 27 19 28 12 29 18 30 13 31 17 32 14 33 16 34
REMARK SMILES IDX 15 35 20 36 21 37 32 38 22 39 31 40 23 41 33 42 24 43 25 44
REMARK SMILES IDX 26 45 30 46 27 47 29 48 28 49
REMARK H PARENT 41 25 27 50
ROOT
ATOM      1  C   UNL     1       0.351   0.048  -0.906  1.00  0.00    -0.034 A 
ATOM      2  C   UNL     1      -0.348   0.018   0.307  1.00  0.00     0.006 A 
ATOM      3  C   UNL     1      -1.125  -1.091   0.655  1.00  0.00     0.011 A 
ATOM      4  C   UNL     1      -1.228  -2.198  -0.204  1.00  0.00     0.002 A 
ATOM      5  C   UNL     1      -0.522  -2.159  -1.418  1.00  0.00     0.011 A 
ATOM      6  C   UNL     1       0.252  -1.049  -1.770  1.00  0.00     0.006 A 
ENDROOT
BRANCH   1   7
ATOM      7  C   UNL     1       1.228   1.232  -1.258  1.00  0.00     0.120 C 
BRANCH   7   8
ATOM      8  N   UNL     1       2.364   1.410  -0.328  1.00  0.00    -0.299 NA
ATOM      9  C   UNL     1       4.445   0.439   0.586  1.00  0.00     0.023 C 
ATOM     10  C   UNL     1       3.334   0.310  -0.462  1.00  0.00     0.090 C 
ATOM     11  C   UNL     1       5.142   1.817   0.559  1.00  0.00     0.098 C 
ATOM     12  C   UNL     1       4.143   2.975   0.402  1.00  0.00     0.041 C 
ATOM     13  C   UNL     1       3.009   2.704  -0.584  1.00  0.00     0.087 C 
ATOM     14  C   UNL     1       5.413  -0.744   0.510  1.00  0.00     0.011 C 
BRANCH  11  15
ATOM     15  N   UNL     1       6.320   1.934  -0.296  1.00  0.00    -0.289 N 
ATOM     16  C   UNL     1       6.388   1.943  -1.663  1.00  0.00     0.296 A 
ATOM     17  C   UNL     1       7.622   2.069   0.153  1.00  0.00     0.091 A 
ATOM     18  N   UNL     1       7.599   2.081  -2.129  1.00  0.00    -0.175 NA
ATOM     19  C   UNL     1       8.228   2.119   1.411  1.00  0.00     0.032 A 
ATOM     20  C   UNL     1       8.380   2.161  -1.013  1.00  0.00     0.181 A 
ATOM     21  C   UNL     1       9.613   2.269   1.408  1.00  0.00     0.022 A 
ATOM     22  N   UNL     1       9.722   2.308  -1.024  1.00  0.00    -0.235 NA
ATOM     23  C   UNL     1      10.289   2.357   0.198  1.00  0.00     0.114 A 
BRANCH  16  24
ATOM     24  O   UNL     1       5.367   1.817  -2.481  1.00  0.00    -0.480 OA
ATOM     25  H   UNL     1       5.814   1.851  -3.349  1.00  0.00     0.296 HD
ENDBRANCH  16  24
ENDBRANCH  11  15
ENDBRANCH   7   8
ENDBRANCH   1   7
BRANCH   4  26
ATOM     26  C   UNL     1      -2.004  -3.392   0.170  1.00  0.00     0.099 A 
ATOM     27  N   UNL     1      -1.266  -4.537   0.210  1.00  0.00    -0.224 NA
ATOM     28  C   UNL     1      -3.361  -3.387   0.518  1.00  0.00     0.100 A 
ATOM     29  C   UNL     1      -1.856  -5.661   0.617  1.00  0.00     0.178 A 
ATOM     30  N   UNL     1      -3.968  -4.518   0.966  1.00  0.00    -0.242 NA
ATOM     31  N   UNL     1      -1.127  -6.783   0.652  1.00  0.00    -0.235 NA
ATOM     32  C   UNL     1      -3.216  -5.637   1.004  1.00  0.00     0.108 A 
ATOM     33  C   UNL     1      -1.715  -7.922   1.070  1.00  0.00     0.114 A 
ATOM     34  C   UNL     1      -3.783  -6.827   1.432  1.00  0.00     0.034 A 
ATOM     35  C   UNL     1      -3.031  -7.996   1.471  1.00  0.00     0.022 A 
BRANCH  28  36
ATOM     36  C   UNL     1      -4.252  -2.225   0.426  1.00  0.00     0.038 A 
ATOM     37  C   UNL     1      -4.970  -1.777   1.547  1.00  0.00     0.017 A 
ATOM     38  C   UNL     1      -4.459  -1.555  -0.785  1.00  0.00     0.136 A 
ATOM     39  C   UNL     1      -5.837  -0.679   1.461  1.00  0.00     0.047 A 
ATOM     40  C   UNL     1      -5.322  -0.466  -0.879  1.00  0.00     0.086 A 
ATOM     41  C   UNL     1      -6.002  -0.011   0.249  1.00  0.00     0.125 A 
ATOM     42  F   UNL     1      -3.843  -1.973  -1.902  1.00  0.00    -0.206 F 
BRANCH  41  43
ATOM     43  O   UNL     1      -6.836   1.047   0.032  1.00  0.00    -0.463 OA
BRANCH  43  44
ATOM     44  C   UNL     1      -7.023   1.984   1.100  1.00  0.00     0.321 C 
ATOM     45  C   UNL     1      -5.783   2.915   1.288  1.00  0.00     0.157 C 
ATOM     46  O   UNL     1      -8.186   2.792   0.837  1.00  0.00    -0.340 OA
ATOM     47  N   UNL     1      -5.850   4.224   0.588  1.00  0.00    -0.309 NA
ATOM     48  C   UNL     1      -8.055   3.547  -0.377  1.00  0.00     0.180 C 
ATOM     49  C   UNL     1      -6.622   4.043  -0.650  1.00  0.00     0.109 C 
ATOM     50  H   UNL     1      -6.389   4.857   1.184  1.00  0.00     0.123 HD
ENDBRANCH  43  44
ENDBRANCH  41  43
ENDBRANCH  28  36
ENDBRANCH   4  26
TORSDOF 8
