REMARK SMILES NS(=O)(=O)C=Cc1ccc(N2CCC(C(F)(F)F)CC2)ccn[nH]c1SC(=O)C(F)F
REMARK SMILES IDX 7 1 8 2 9 3 10 4 21 5 22 6 23 7 24 8 25 9 6 11 5 12 2 13
REMARK SMILES IDX 3 14 4 15 1 16 26 19 27 20 28 21 29 22 30 23 31 24 11 25
REMARK SMILES IDX 12 26 20 27 13 28 19 29 14 30 15 31 16 32 17 33 18 34
REMARK H PARENT 24 10 1 17 1 18
ROOT
ATOM      1  C   UNL     1      -2.360   0.490   0.442  1.00  0.00     0.007 A 
ATOM      2  C   UNL     1      -1.070   0.885   0.458  1.00  0.00     0.013 A 
ATOM      3  C   UNL     1       0.179   0.407   0.382  1.00  0.00     0.026 A 
ATOM      4  C   UNL     1       0.946  -0.664   0.090  1.00  0.00     0.038 A 
ATOM      5  C   UNL     1       0.671  -1.891  -0.402  1.00  0.00     0.048 A 
ATOM      6  C   UNL     1      -0.403  -2.647  -0.674  1.00  0.00     0.135 A 
ATOM      7  N   UNL     1      -1.718  -2.650  -0.436  1.00  0.00    -0.183 NA
ATOM      8  N   UNL     1      -2.000  -1.865   0.744  1.00  0.00    -0.271 N 
ATOM      9  C   UNL     1      -2.822  -0.780   0.544  1.00  0.00     0.104 A 
ATOM     10  H   UNL     1      -2.444  -2.501   1.403  1.00  0.00     0.191 HD
ENDROOT
BRANCH   1  11
ATOM     11  C   UNL     1      -3.327   1.601   0.361  1.00  0.00     0.024 C 
BRANCH  11  12
ATOM     12  C   UNL     1      -3.602   2.237  -0.789  1.00  0.00     0.123 C 
BRANCH  12  13
ATOM     13  S   UNL     1      -4.741   3.527  -0.807  1.00  0.00     0.231 S 
ATOM     14  O   UNL     1      -6.049   3.052  -0.415  1.00  0.00    -0.208 OA
ATOM     15  O   UNL     1      -4.548   4.316  -2.004  1.00  0.00    -0.208 OA
BRANCH  13  16
ATOM     16  N   UNL     1      -4.265   4.541   0.461  1.00  0.00    -0.225 NA
ATOM     17  H   UNL     1      -3.265   4.726   0.444  1.00  0.00     0.137 HD
ATOM     18  H   UNL     1      -4.629   4.197   1.346  1.00  0.00     0.137 HD
ENDBRANCH  13  16
ENDBRANCH  12  13
ENDBRANCH  11  12
ENDBRANCH   1  11
BRANCH   9  19
ATOM     19  S   UNL     1      -4.573  -1.098   0.547  1.00  0.00    -0.026 SA
BRANCH  19  20
ATOM     20  C   UNL     1      -4.701  -1.594  -1.147  1.00  0.00     0.261 C 
ATOM     21  O   UNL     1      -4.755  -0.749  -2.043  1.00  0.00    -0.280 OA
BRANCH  20  22
ATOM     22  C   UNL     1      -4.990  -3.064  -1.369  1.00  0.00     0.420 C 
ATOM     23  F   UNL     1      -4.413  -3.591  -2.488  1.00  0.00    -0.201 F 
ATOM     24  F   UNL     1      -4.703  -3.909  -0.338  1.00  0.00    -0.201 F 
ENDBRANCH  20  22
ENDBRANCH  19  20
ENDBRANCH   9  19
BRANCH   4  25
ATOM     25  N   UNL     1       2.365  -0.367   0.228  1.00  0.00    -0.371 N 
ATOM     26  C   UNL     1       3.127  -1.167   1.201  1.00  0.00     0.117 C 
ATOM     27  C   UNL     1       3.106  -0.067  -1.010  1.00  0.00     0.117 C 
ATOM     28  C   UNL     1       4.404  -0.424   1.582  1.00  0.00     0.034 C 
ATOM     29  C   UNL     1       4.386   0.691  -0.670  1.00  0.00     0.034 C 
ATOM     30  C   UNL     1       5.236  -0.091   0.337  1.00  0.00     0.098 C 
BRANCH  30  31
ATOM     31  C   UNL     1       6.482   0.686   0.710  1.00  0.00     0.391 C 
ATOM     32  F   UNL     1       6.193   1.860   1.307  1.00  0.00    -0.171 F 
ATOM     33  F   UNL     1       7.232   0.954  -0.383  1.00  0.00    -0.171 F 
ATOM     34  F   UNL     1       7.258  -0.024   1.559  1.00  0.00    -0.171 F 
ENDBRANCH  30  31
ENDBRANCH   4  25
TORSDOF 9
