REMARK SMILES C[C@@H](N)C(=O)Sc1[nH]nccc(N2CCC(C(F)(F)F)CC2)ccc1C=CS(N)(=O)=O
REMARK SMILES IDX 7 1 8 2 9 3 10 4 11 5 12 6 23 7 24 8 25 9 6 11 4 12 5 13
REMARK SMILES IDX 2 14 1 15 3 16 26 19 27 20 28 21 30 22 31 23 29 24 13 27
REMARK SMILES IDX 14 28 22 29 15 30 21 31 16 32 17 33 18 34 19 35 20 36
REMARK H PARENT 8 10 3 17 3 18 29 25 29 26
ROOT
ATOM      1  C   UNL     1      -2.344   0.160  -1.232  1.00  0.00     0.104 A 
ATOM      2  N   UNL     1      -1.567  -0.842  -1.777  1.00  0.00    -0.271 N 
ATOM      3  N   UNL     1      -1.615  -2.154  -1.194  1.00  0.00    -0.183 NA
ATOM      4  C   UNL     1      -0.489  -2.429  -0.519  1.00  0.00     0.135 A 
ATOM      5  C   UNL     1       0.606  -1.811  -0.046  1.00  0.00     0.048 A 
ATOM      6  C   UNL     1       1.092  -0.561   0.138  1.00  0.00     0.038 A 
ATOM      7  C   UNL     1       0.564   0.680   0.056  1.00  0.00     0.026 A 
ATOM      8  C   UNL     1      -0.540   1.396  -0.188  1.00  0.00     0.013 A 
ATOM      9  C   UNL     1      -1.812   1.254  -0.619  1.00  0.00     0.007 A 
ATOM     10  H   UNL     1      -0.602  -0.539  -1.879  1.00  0.00     0.191 HD
ENDROOT
BRANCH   1  11
ATOM     11  S   UNL     1      -4.098   0.139  -1.602  1.00  0.00    -0.030 SA
BRANCH  11  12
ATOM     12  C   UNL     1      -4.578  -1.393  -0.869  1.00  0.00     0.211 C 
ATOM     13  O   UNL     1      -5.313  -2.175  -1.472  1.00  0.00    -0.285 OA
BRANCH  12  14
ATOM     14  C   UNL     1      -4.250  -1.579   0.630  1.00  0.00     0.127 C 
ATOM     15  C   UNL     1      -5.515  -1.287   1.440  1.00  0.00     0.033 C 
BRANCH  14  16
ATOM     16  N   UNL     1      -3.822  -2.978   0.897  1.00  0.00    -0.321 NA
ATOM     17  H   UNL     1      -4.352  -3.563   0.243  1.00  0.00     0.119 HD
ATOM     18  H   UNL     1      -2.871  -3.006   0.475  1.00  0.00     0.119 HD
ENDBRANCH  14  16
ENDBRANCH  12  14
ENDBRANCH  11  12
ENDBRANCH   1  11
BRANCH   9  19
ATOM     19  C   UNL     1      -2.660   2.437  -0.407  1.00  0.00     0.024 C 
BRANCH  19  20
ATOM     20  C   UNL     1      -2.696   3.594  -1.086  1.00  0.00     0.123 C 
BRANCH  20  21
ATOM     21  S   UNL     1      -1.716   4.013  -2.443  1.00  0.00     0.231 S 
ATOM     22  O   UNL     1      -1.262   5.377  -2.245  1.00  0.00    -0.208 OA
ATOM     23  O   UNL     1      -0.794   2.979  -2.840  1.00  0.00    -0.208 OA
BRANCH  21  24
ATOM     24  N   UNL     1      -2.822   4.081  -3.725  1.00  0.00    -0.225 NA
ATOM     25  H   UNL     1      -3.722   4.458  -3.433  1.00  0.00     0.137 HD
ATOM     26  H   UNL     1      -2.900   3.142  -4.116  1.00  0.00     0.137 HD
ENDBRANCH  21  24
ENDBRANCH  20  21
ENDBRANCH  19  20
ENDBRANCH   9  19
BRANCH   6  27
ATOM     27  N   UNL     1       2.469  -0.527   0.589  1.00  0.00    -0.371 N 
ATOM     28  C   UNL     1       2.755  -0.875   1.995  1.00  0.00     0.117 C 
ATOM     29  C   UNL     1       3.524  -0.831  -0.384  1.00  0.00     0.117 C 
ATOM     30  C   UNL     1       4.256  -1.024   2.235  1.00  0.00     0.034 C 
ATOM     31  C   UNL     1       4.776  -0.037  -0.038  1.00  0.00     0.034 C 
ATOM     32  C   UNL     1       5.037   0.054   1.477  1.00  0.00     0.098 C 
BRANCH  32  33
ATOM     33  C   UNL     1       6.521  -0.043   1.777  1.00  0.00     0.391 C 
ATOM     34  F   UNL     1       7.031  -1.224   1.378  1.00  0.00    -0.171 F 
ATOM     35  F   UNL     1       6.762   0.084   3.102  1.00  0.00    -0.171 F 
ATOM     36  F   UNL     1       7.211   0.935   1.156  1.00  0.00    -0.171 F 
ENDBRANCH  32  33
ENDBRANCH   6  27
TORSDOF 10
