MODEL        7USER    Run = 7USERUSER    Estimated Free Energy of Binding    =  -8.23 kcal/mol  [=(1)+(2)+(3)-(4)]USERUSER    (1) Final Intermolecular Energy     = -11.21 kcal/molUSER        vdW + Hbond + desolv Energy     = -10.98 kcal/molUSER        Electrostatic Energy            =  -0.23 kcal/molUSER        Moving Ligand-Fixed Receptor    = -11.21 kcal/molUSER        Moving Ligand-Moving Receptor   =  +0.00 kcal/molUSER    (2) Final Total Internal Energy     =  -3.65 kcal/molUSER    (3) Torsional Free Energy           =  +2.98 kcal/molUSER    (4) Unbound System's Energy         =  -3.65 kcal/molUSERUSERREMARK SMILES C[C@@H](N)C(=O)Sc1[nH]nccc(N2CCC(C(F)(F)F)CC2)ccc1C=CS(N)(=O)=OREMARK SMILES IDX 7 1 8 2 9 3 10 4 11 5 12 6 23 7 24 8 25 9 6 11 4 12 5 13REMARK SMILES IDX 2 14 1 15 3 16 26 19 27 20 28 21 30 22 31 23 29 24 13 27REMARK SMILES IDX 14 28 22 29 15 30 21 31 16 32 17 33 18 34 19 35 20 36REMARK H PARENT 8 10 3 17 3 18 29 25 29 26USER                              x       y       z     vdW  Elec       q    TypeUSER                           _______ _______ _______ _____ _____    ______ ____ROOTATOM      1  C   UNL     1      41.564  45.733  20.888 -0.28 +0.01    +0.104 A  ATOM      2  N   UNL     1      42.356  45.859  19.765 -0.11 -0.07    -0.271 N  ATOM      3  N   UNL     1      42.944  47.136  19.470 -0.42 -0.04    -0.183 NA ATOM      4  C   UNL     1      42.348  47.716  18.418 -0.39 -0.00    +0.135 A  ATOM      5  C   UNL     1      41.251  47.585  17.653 -0.47 -0.00    +0.048 A  ATOM      6  C   UNL     1      40.086  46.896  17.623 -0.45 -0.01    +0.038 A  ATOM      7  C   UNL     1      39.429  46.109  18.504 -0.39 -0.00    +0.026 A  ATOM      8  C   UNL     1      39.438  45.584  19.735 -0.37 -0.00    +0.013 A  ATOM      9  C   UNL     1      40.229  45.468  20.823 -0.34 +0.00    +0.007 A  ATOM     10  H   UNL     1      41.882  45.493  18.943 +0.12 +0.03    +0.191 HD ENDROOTBRANCH   1  11ATOM     11  S   UNL     1      42.392  45.637  22.476 -0.30 -0.01    -0.030 SA BRANCH  11  12ATOM     12  C   UNL     1      42.737  47.341  22.778 -0.23 +0.04    +0.211 C  ATOM     13  O   UNL     1      41.822  48.145  22.961 -0.23 -0.04    -0.285 OA BRANCH  12  14ATOM     14  C   UNL     1      44.193  47.806  22.549 -0.27 +0.04    +0.127 C  ATOM     15  C   UNL     1      45.006  47.482  23.805 -0.20 +0.01    +0.033 C  BRANCH  14  16ATOM     16  N   UNL     1      44.790  47.089  21.392 -0.66 -0.33    -0.321 NA ATOM     17  H   UNL     1      44.116  46.360  21.135 +0.03 +0.10    +0.119 HD ATOM     18  H   UNL     1      44.664  47.770  20.616 -0.46 +0.07    +0.119 HD ENDBRANCH  14  16ENDBRANCH  12  14ENDBRANCH  11  12ENDBRANCH   1  11BRANCH   9  19ATOM     19  C   UNL     1      39.539  44.978  22.026 -0.33 +0.00    +0.024 C  BRANCH  19  20ATOM     20  C   UNL     1      38.486  45.497  22.676 -0.31 +0.01    +0.123 C  BRANCH  20  21ATOM     21  S   UNL     1      38.547  46.541  24.049 -0.32 +0.03    +0.231 S  ATOM     22  O   UNL     1      38.591  47.904  23.555 -0.36 -0.04    -0.208 OA ATOM     23  O   UNL     1      37.642  46.168  25.107 -0.79 -0.03    -0.208 OA BRANCH  21  24ATOM     24  N   UNL     1      40.080  46.243  24.707 -0.07 -0.01    -0.225 NA ATOM     25  H   UNL     1      40.763  46.937  24.411 +0.06 +0.01    +0.137 HD ATOM     26  H   UNL     1      40.349  45.294  24.446 +0.06 +0.01    +0.137 HD ENDBRANCH  21  24ENDBRANCH  20  21ENDBRANCH  19  20ENDBRANCH   9  19BRANCH   6  27ATOM     27  N   UNL     1      39.324  47.084  16.404 -0.19 +0.11    -0.371 N  ATOM     28  C   UNL     1      39.652  48.238  15.544 -0.52 -0.04    +0.117 C  ATOM     29  C   UNL     1      38.799  45.895  15.725 -0.35 -0.03    +0.117 C  ATOM     30  C   UNL     1      38.932  48.150  14.200 -0.54 -0.01    +0.034 C  ATOM     31  C   UNL     1      37.489  46.244  15.033 -0.43 -0.02    +0.034 C  ATOM     32  C   UNL     1      37.499  47.640  14.384 -0.50 -0.05    +0.098 C  BRANCH  32  33ATOM     33  C   UNL     1      36.756  47.628  13.062 -0.36 -0.17    +0.391 C  ATOM     34  F   UNL     1      37.572  47.314  12.038 -0.23 +0.02    -0.171 F  ATOM     35  F   UNL     1      36.207  48.836  12.797 -0.19 +0.07    -0.171 F  ATOM     36  F   UNL     1      35.748  46.732  13.075 -0.20 +0.10    -0.171 F  ENDBRANCH  32  33ENDBRANCH   6  27TORSDOF 10TERENDMDL