MODEL        6USER    Run = 6USERUSER    Estimated Free Energy of Binding    = -10.42 kcal/mol  [=(1)+(2)+(3)-(4)]USERUSER    (1) Final Intermolecular Energy     = -12.80 kcal/molUSER        vdW + Hbond + desolv Energy     = -12.75 kcal/molUSER        Electrostatic Energy            =  -0.06 kcal/molUSER        Moving Ligand-Fixed Receptor    = -12.80 kcal/molUSER        Moving Ligand-Moving Receptor   =  +0.00 kcal/molUSER    (2) Final Total Internal Energy     =  -1.56 kcal/molUSER    (3) Torsional Free Energy           =  +2.39 kcal/molUSER    (4) Unbound System's Energy         =  -1.56 kcal/molUSERUSERREMARK SMILES CC(=O)Sc1[nH]nccc(N2CCC(C(F)(F)F)CC2)ccc1C=CS(N)(=O)=OREMARK SMILES IDX 24 1 23 2 5 3 6 4 7 5 22 6 8 7 21 8 9 9 10 10 4 12 2 13 1 14REMARK SMILES IDX 3 15 11 16 12 17 20 18 13 19 19 20 14 21 15 22 16 23 17 24REMARK SMILES IDX 18 25 25 26 26 27 28 28 29 29 27 30REMARK H PARENT 6 11 27 31 27 32USER                              x       y       z     vdW  Elec       q    TypeUSER                           _______ _______ _______ _____ _____    ______ ____ROOTATOM      1  C   UNL     1      38.228  46.108  14.090 -0.46 -0.01    +0.024 C  ENDROOTBRANCH   1   2ATOM      2  C   UNL     1      38.643  46.396  15.478 -0.41 -0.00    +0.007 A  ATOM      3  C   UNL     1      39.372  47.512  15.745 -0.42 -0.03    +0.104 A  ATOM      4  N   UNL     1      39.921  47.803  16.972 -0.28 +0.07    -0.271 N  ATOM      5  N   UNL     1      41.162  47.112  17.290 -0.35 +0.02    -0.183 NA ATOM      6  C   UNL     1      38.189  45.481  16.362 -0.35 -0.00    +0.013 A  ATOM      7  C   UNL     1      41.016  46.542  18.489 -0.41 -0.00    +0.135 A  ATOM      8  C   UNL     1      38.239  45.140  17.656 -0.36 -0.01    +0.026 A  ATOM      9  C   UNL     1      40.055  45.878  19.149 -0.40 -0.00    +0.048 A  ATOM     10  C   UNL     1      38.873  45.309  18.835 -0.38 -0.00    +0.038 A  ATOM     11  H   UNL     1      40.141  48.794  17.022 +0.13 -0.06    +0.191 HD BRANCH   3  12ATOM     12  S   UNL     1      39.564  48.773  14.494 -0.56 +0.01    -0.032 SA BRANCH  12  13ATOM     13  C   UNL     1      41.149  49.388  14.954 -0.56 -0.04    +0.192 C  ATOM     14  C   UNL     1      42.125  49.621  13.834 -0.62 -0.01    +0.101 C  ATOM     15  O   UNL     1      41.422  49.629  16.127 -1.08 +0.01    -0.287 OA ENDBRANCH  12  13ENDBRANCH   3  12BRANCH  10  16ATOM     16  N   UNL     1      38.263  44.654  19.970 -0.14 +0.01    -0.371 N  ATOM     17  C   UNL     1      37.233  43.634  19.759 -0.31 -0.01    +0.117 C  ATOM     18  C   UNL     1      39.030  44.533  21.215 -0.32 +0.00    +0.117 C  ATOM     19  C   UNL     1      36.242  43.679  20.920 -0.44 +0.00    +0.034 C  ATOM     20  C   UNL     1      38.071  44.590  22.402 -0.38 +0.00    +0.034 C  ATOM     21  C   UNL     1      36.925  43.573  22.292 -0.37 +0.01    +0.098 C  BRANCH  21  22ATOM     22  C   UNL     1      37.393  42.156  22.585 -0.25 +0.03    +0.391 C  ATOM     23  F   UNL     1      38.731  42.126  22.795 -0.10 -0.02    -0.171 F  ATOM     24  F   UNL     1      37.123  41.283  21.597 -0.22 -0.01    -0.171 F  ATOM     25  F   UNL     1      36.808  41.684  23.713 -0.18 -0.00    -0.171 F  ENDBRANCH  21  22ENDBRANCH  10  16ENDBRANCH   1   2BRANCH   1  26ATOM     26  C   UNL     1      36.958  46.294  13.698 -0.45 -0.05    +0.123 C  BRANCH  26  27ATOM     27  S   UNL     1      36.623  46.909  12.128 -0.73 -0.09    +0.231 S  ATOM     28  O   UNL     1      35.447  46.268  11.585 -0.53 +0.13    -0.208 OA ATOM     29  O   UNL     1      37.849  47.017  11.365 -0.77 +0.02    -0.208 OA BRANCH  27  30ATOM     30  N   UNL     1      36.154  48.505  12.416 -0.67 +0.10    -0.225 NA ATOM     31  H   UNL     1      35.901  48.980  11.552 -0.44 -0.08    +0.137 HD ATOM     32  H   UNL     1      36.835  48.991  12.997 +0.07 -0.04    +0.137 HD ENDBRANCH  27  30ENDBRANCH  26  27ENDBRANCH   1  26TORSDOF 8TERENDMDL