MODEL        9USER    Run = 9USERUSER    Estimated Free Energy of Binding    =  -9.59 kcal/mol  [=(1)+(2)+(3)-(4)]USERUSER    (1) Final Intermolecular Energy     = -12.28 kcal/molUSER        vdW + Hbond + desolv Energy     = -11.99 kcal/molUSER        Electrostatic Energy            =  -0.29 kcal/molUSER        Moving Ligand-Fixed Receptor    = -12.28 kcal/molUSER        Moving Ligand-Moving Receptor   =  +0.00 kcal/molUSER    (2) Final Total Internal Energy     =  -1.18 kcal/molUSER    (3) Torsional Free Energy           =  +2.68 kcal/molUSER    (4) Unbound System's Energy         =  -1.18 kcal/molUSERUSERREMARK SMILES NS(=O)(=O)C=Cc1ccc(N2CCC(C(F)(F)F)CC2)ccn[nH]c1SC(=O)C(F)FREMARK SMILES IDX 7 1 8 2 9 3 10 4 21 5 22 6 23 7 24 8 25 9 6 11 5 12 2 13REMARK SMILES IDX 3 14 4 15 1 16 26 19 27 20 28 21 29 22 30 23 31 24 11 25REMARK SMILES IDX 12 26 20 27 13 28 19 29 14 30 15 31 16 32 17 33 18 34REMARK H PARENT 24 10 1 17 1 18USER                              x       y       z     vdW  Elec       q    TypeUSER                           _______ _______ _______ _____ _____    ______ ____ROOTATOM      1  C   UNL     1      38.503  47.543  15.609 -0.46 -0.00    +0.007 A  ATOM      2  C   UNL     1      39.260  47.168  16.661 -0.45 -0.00    +0.013 A  ATOM      3  C   UNL     1      39.281  46.313  17.692 -0.42 -0.01    +0.026 A  ATOM      4  C   UNL     1      38.711  45.223  18.247 -0.37 -0.01    +0.038 A  ATOM      5  C   UNL     1      37.742  44.377  17.837 -0.30 -0.01    +0.048 A  ATOM      6  C   UNL     1      36.839  44.286  16.850 -0.25 -0.04    +0.135 A  ATOM      7  N   UNL     1      36.318  45.055  15.888 -0.22 +0.09    -0.183 NA ATOM      8  N   UNL     1      36.464  46.447  16.247 -0.20 +0.20    -0.271 N  ATOM      9  C   UNL     1      37.212  47.202  15.374 -0.35 -0.07    +0.104 A  ATOM     10  H   UNL     1      35.520  46.825  16.288 +0.10 -0.24    +0.191 HD ENDROOTBRANCH   1  11ATOM     11  C   UNL     1      39.182  48.465  14.679 -0.59 -0.01    +0.024 C  BRANCH  11  12ATOM     12  C   UNL     1      40.519  48.546  14.590 -0.51 -0.03    +0.123 C  BRANCH  12  13ATOM     13  S   UNL     1      41.386  49.620  15.617 -0.66 -0.02    +0.231 S  ATOM     14  O   UNL     1      42.385  50.345  14.863 -0.71 +0.02    -0.208 OA ATOM     15  O   UNL     1      41.714  48.939  16.850 -1.02 -0.03    -0.208 OA BRANCH  13  16ATOM     16  N   UNL     1      40.257  50.799  16.060 -0.16 +0.12    -0.225 NA ATOM     17  H   UNL     1      39.408  50.739  15.504 -0.44 -0.14    +0.137 HD ATOM     18  H   UNL     1      40.695  51.717  16.089 -0.45 -0.09    +0.137 HD ENDBRANCH  13  16ENDBRANCH  12  13ENDBRANCH  11  12ENDBRANCH   1  11BRANCH   9  19ATOM     19  S   UNL     1      36.364  47.838  13.944 -0.60 +0.02    -0.026 SA BRANCH  19  20ATOM     20  C   UNL     1      37.247  46.891  12.737 -0.45 -0.08    +0.261 C  ATOM     21  O   UNL     1      37.588  47.403  11.669 -0.99 +0.03    -0.280 OA BRANCH  20  22ATOM     22  C   UNL     1      37.311  45.402  13.006 -0.18 -0.14    +0.420 C  ATOM     23  F   UNL     1      38.276  45.029  13.897 -0.08 +0.05    -0.201 F  ATOM     24  F   UNL     1      36.153  44.798  13.397 -0.06 +0.08    -0.201 F  ENDBRANCH  20  22ENDBRANCH  19  20ENDBRANCH   9  19BRANCH   4  25ATOM     25  N   UNL     1      39.380  44.832  19.480 -0.16 +0.01    -0.371 N  ATOM     26  C   UNL     1      40.764  45.294  19.669 -0.39 +0.01    +0.117 C  ATOM     27  C   UNL     1      38.570  44.851  20.711 -0.33 +0.00    +0.117 C  ATOM     28  C   UNL     1      41.458  44.415  20.706 -0.37 +0.00    +0.034 C  ATOM     29  C   UNL     1      39.225  43.969  21.769 -0.32 +0.00    +0.034 C  ATOM     30  C   UNL     1      40.673  44.400  22.024 -0.25 +0.01    +0.098 C  BRANCH  30  31ATOM     31  C   UNL     1      41.337  43.492  23.039 -0.12 +0.01    +0.391 C  ATOM     32  F   UNL     1      40.499  42.541  23.499 -0.09 -0.01    -0.171 F  ATOM     33  F   UNL     1      41.783  44.198  24.103 -0.02 -0.01    -0.171 F  ATOM     34  F   UNL     1      42.408  42.867  22.501 -0.14 +0.00    -0.171 F  ENDBRANCH  30  31ENDBRANCH   4  25TORSDOF 9TERENDMDL