MODEL        8USER    Run = 8USERUSER    Estimated Free Energy of Binding    =  -8.87 kcal/mol  [=(1)+(2)+(3)-(4)]USERUSER    (1) Final Intermolecular Energy     = -10.66 kcal/molUSER        vdW + Hbond + desolv Energy     = -10.44 kcal/molUSER        Electrostatic Energy            =  -0.23 kcal/molUSER        Moving Ligand-Fixed Receptor    = -10.66 kcal/molUSER        Moving Ligand-Moving Receptor   =  +0.00 kcal/molUSER    (2) Final Total Internal Energy     =  -1.21 kcal/molUSER    (3) Torsional Free Energy           =  +1.79 kcal/molUSER    (4) Unbound System's Energy         =  -1.21 kcal/molUSERUSERREMARK SMILES Cc1ncc2n1[C@@]2(NS(=O)(=O)Cc1ccccc1)c1ccc(O)cc1REMARK SMILES IDX 1 1 2 2 3 3 4 4 5 5 6 6 7 7 8 8 9 10 10 11 11 12 12 13 13 14REMARK SMILES IDX 14 15 18 16 15 17 17 18 16 19 19 20 20 21 25 22 21 23 24 24REMARK SMILES IDX 22 25 23 26REMARK H PARENT 8 9 23 27USER                              x       y       z     vdW  Elec       q    TypeUSER                           _______ _______ _______ _____ _____    ______ ____ROOTATOM      1  C   UNL     1      36.975  44.649  12.406 -0.47 -0.03    +0.088 C  ATOM      2  C   UNL     1      36.742  46.103  12.547 -0.52 -0.04    +0.108 A  ATOM      3  N   UNL     1      35.833  46.835  11.946 -0.48 +0.14    -0.241 NA ATOM      4  C   UNL     1      36.130  48.111  12.337 -0.44 -0.07    +0.139 A  ATOM      5  C   UNL     1      36.992  48.173  13.412 -0.51 -0.04    +0.087 A  ATOM      6  N   UNL     1      37.533  46.894  13.322 -0.27 +0.10    -0.299 N  ATOM      7  C   UNL     1      37.323  47.319  14.674 -0.39 -0.10    +0.178 C  ENDROOTBRANCH   7   8ATOM      8  N   UNL     1      36.169  46.743  15.396 -0.27 +0.16    -0.180 NA ATOM      9  H   UNL     1      35.779  47.337  16.134 +0.09 -0.20    +0.144 HD BRANCH   8  10ATOM     10  S   UNL     1      36.235  45.140  15.906 -0.36 -0.11    +0.218 S  ATOM     11  O   UNL     1      34.950  44.593  15.516 -0.25 +0.11    -0.212 OA ATOM     12  O   UNL     1      37.471  44.569  15.422 -0.27 +0.07    -0.212 OA BRANCH  10  13ATOM     13  C   UNL     1      36.282  45.271  17.703 -0.26 -0.07    +0.189 C  BRANCH  13  14ATOM     14  C   UNL     1      35.151  44.468  18.292 -0.31 +0.01    -0.032 A  ATOM     15  C   UNL     1      33.964  45.098  18.691 -0.43 -0.00    +0.005 A  ATOM     16  C   UNL     1      35.273  43.081  18.458 -0.36 -0.00    +0.005 A  ATOM     17  C   UNL     1      32.917  44.354  19.236 -0.43 -0.00    +0.000 A  ATOM     18  C   UNL     1      34.225  42.339  19.003 -0.41 -0.00    +0.000 A  ATOM     19  C   UNL     1      33.046  42.975  19.389 -0.41 -0.00    +0.000 A  ENDBRANCH  13  14ENDBRANCH  10  13ENDBRANCH   8  10ENDBRANCH   7   8BRANCH   7  20ATOM     20  C   UNL     1      38.609  47.615  15.422 -0.48 -0.00    +0.000 A  ATOM     21  C   UNL     1      38.921  46.912  16.604 -0.43 -0.00    +0.012 A  ATOM     22  C   UNL     1      39.538  48.584  14.991 -0.53 -0.00    +0.012 A  ATOM     23  C   UNL     1      40.103  47.153  17.310 -0.45 -0.01    +0.046 A  ATOM     24  C   UNL     1      40.723  48.831  15.695 -0.58 -0.01    +0.046 A  ATOM     25  C   UNL     1      40.995  48.110  16.849 -0.45 -0.01    +0.115 A  BRANCH  25  26ATOM     26  O   UNL     1      42.136  48.313  17.565 -0.40 -0.03    -0.508 OA ATOM     27  H   UNL     1      42.742  47.572  17.404 -0.36 -0.08    +0.293 HD ENDBRANCH  25  26ENDBRANCH   7  20TORSDOF 6TERENDMDL