REMARK SMILES Cc1ncc2n1[C@]2(NS(=O)(=O)Cc1ccnc(N)c1)c1ccc(O)cc1
REMARK SMILES IDX 8 1 7 3 2 4 3 5 6 6 4 7 5 8 1 9 20 10 21 11 26 12 22 13
REMARK SMILES IDX 25 14 23 15 24 16 9 18 10 19 11 20 12 21 13 22 14 23 19 24
REMARK SMILES IDX 15 25 17 26 16 27 18 28
REMARK H PARENT 8 2 24 17 18 29 18 30
ROOT
ATOM      1  N   UNL     1      -0.487  -0.871   0.858  1.00  0.00    -0.180 NA
ATOM      2  H   UNL     1      -0.824  -1.000   1.815  1.00  0.00     0.144 HD
ENDROOT
BRANCH   1   3
ATOM      3  C   UNL     1      -1.509  -0.329  -0.063  1.00  0.00     0.178 C 
ATOM      4  C   UNL     1      -2.561  -2.082  -1.873  1.00  0.00     0.108 A 
ATOM      5  N   UNL     1      -2.031  -1.816  -3.032  1.00  0.00    -0.241 NA
ATOM      6  N   UNL     1      -2.163  -1.297  -0.856  1.00  0.00    -0.299 N 
ATOM      7  C   UNL     1      -1.255  -0.746  -2.788  1.00  0.00     0.139 A 
ATOM      8  C   UNL     1      -1.233  -0.356  -1.490  1.00  0.00     0.087 A 
ATOM      9  C   UNL     1      -3.549  -3.163  -1.622  1.00  0.00     0.088 C 
BRANCH   3  10
ATOM     10  C   UNL     1      -2.402   0.772   0.484  1.00  0.00     0.000 A 
ATOM     11  C   UNL     1      -3.488   0.475   1.334  1.00  0.00     0.012 A 
ATOM     12  C   UNL     1      -2.170   2.132   0.199  1.00  0.00     0.012 A 
ATOM     13  C   UNL     1      -4.306   1.481   1.856  1.00  0.00     0.046 A 
ATOM     14  C   UNL     1      -2.983   3.145   0.720  1.00  0.00     0.046 A 
ATOM     15  C   UNL     1      -4.046   2.808   1.544  1.00  0.00     0.115 A 
BRANCH  15  16
ATOM     16  O   UNL     1      -4.865   3.758   2.077  1.00  0.00    -0.508 OA
ATOM     17  H   UNL     1      -4.551   4.632   1.791  1.00  0.00     0.293 HD
ENDBRANCH  15  16
ENDBRANCH   3  10
ENDBRANCH   1   3
BRANCH   1  18
ATOM     18  S   UNL     1       1.002  -0.064   0.916  1.00  0.00     0.218 S 
ATOM     19  O   UNL     1       0.920   1.158   0.149  1.00  0.00    -0.212 OA
ATOM     20  O   UNL     1       1.343  -0.054   2.324  1.00  0.00    -0.212 OA
BRANCH  18  21
ATOM     21  C   UNL     1       2.049  -1.253   0.065  1.00  0.00     0.189 C 
BRANCH  21  22
ATOM     22  C   UNL     1       3.464  -0.744   0.034  1.00  0.00    -0.026 A 
ATOM     23  C   UNL     1       4.325  -0.938   1.115  1.00  0.00     0.025 A 
ATOM     24  C   UNL     1       3.950  -0.049  -1.080  1.00  0.00     0.051 A 
ATOM     25  C   UNL     1       5.614  -0.439   1.029  1.00  0.00     0.114 A 
ATOM     26  C   UNL     1       5.264   0.404  -1.080  1.00  0.00     0.123 A 
ATOM     27  N   UNL     1       6.098   0.219  -0.046  1.00  0.00    -0.240 NA
BRANCH  26  28
ATOM     28  N   UNL     1       5.769   1.109  -2.168  1.00  0.00    -0.384 N 
ATOM     29  H   UNL     1       6.746   1.302  -1.962  1.00  0.00     0.158 HD
ATOM     30  H   UNL     1       5.661   0.593  -3.032  1.00  0.00     0.158 HD
ENDBRANCH  26  28
ENDBRANCH  21  22
ENDBRANCH  18  21
ENDBRANCH   1  18
TORSDOF 7
