MODEL        8USER    Run = 8USERUSER    Estimated Free Energy of Binding    =  -8.44 kcal/mol  [=(1)+(2)+(3)-(4)]USERUSER    (1) Final Intermolecular Energy     = -10.53 kcal/molUSER        vdW + Hbond + desolv Energy     = -10.26 kcal/molUSER        Electrostatic Energy            =  -0.26 kcal/molUSER        Moving Ligand-Fixed Receptor    = -10.53 kcal/molUSER        Moving Ligand-Moving Receptor   =  +0.00 kcal/molUSER    (2) Final Total Internal Energy     =  -1.65 kcal/molUSER    (3) Torsional Free Energy           =  +2.09 kcal/molUSER    (4) Unbound System's Energy         =  -1.65 kcal/molUSERUSERREMARK SMILES Cc1ncc2n1[C@]2(NS(=O)(=O)Cc1ccc(N)cc1)c1ccc(O)cc1REMARK SMILES IDX 8 1 7 3 2 4 3 5 6 6 4 7 5 8 1 9 20 10 21 11 26 12 22 13REMARK SMILES IDX 25 14 23 15 24 16 9 18 10 19 11 20 12 21 13 22 14 23 19 24REMARK SMILES IDX 15 25 18 26 16 27 17 28REMARK H PARENT 8 2 24 17 17 29 17 30USER                              x       y       z     vdW  Elec       q    TypeUSER                           _______ _______ _______ _____ _____    ______ ____ROOTATOM      1  N   UNL     1      37.787  44.040  17.016 -0.20 +0.04    -0.180 NA ATOM      2  H   UNL     1      38.508  43.847  16.319 +0.15 -0.03    +0.144 HD ENDROOTBRANCH   1   3ATOM      3  C   UNL     1      36.489  44.503  16.491 -0.28 -0.07    +0.178 C  ATOM      4  C   UNL     1      34.310  45.388  17.432 -0.29 -0.07    +0.108 A  ATOM      5  N   UNL     1      33.318  44.680  16.949 -0.16 +0.12    -0.241 NA ATOM      6  N   UNL     1      35.440  44.633  17.445 -0.11 +0.12    -0.299 N  ATOM      7  C   UNL     1      33.908  43.496  16.599 -0.25 -0.06    +0.139 A  ATOM      8  C   UNL     1      35.287  43.519  16.626 -0.32 -0.03    +0.087 A  ATOM      9  C   UNL     1      34.247  46.756  17.989 -0.40 -0.09    +0.088 C  BRANCH   3  10ATOM     10  C   UNL     1      36.525  45.482  15.329 -0.37 -0.00    +0.000 A  ATOM     11  C   UNL     1      36.517  45.060  13.986 -0.40 -0.00    +0.012 A  ATOM     12  C   UNL     1      36.610  46.869  15.563 -0.39 -0.01    +0.012 A  ATOM     13  C   UNL     1      36.574  45.973  12.927 -0.52 -0.02    +0.046 A  ATOM     14  C   UNL     1      36.669  47.787  14.512 -0.41 -0.04    +0.046 A  ATOM     15  C   UNL     1      36.648  47.331  13.203 -0.51 -0.06    +0.115 A  BRANCH  15  16ATOM     16  O   UNL     1      36.708  48.257  12.206 -0.75 +0.14    -0.508 OA ATOM     17  H   UNL     1      35.993  48.078  11.572 -0.11 -0.19    +0.293 HD ENDBRANCH  15  16ENDBRANCH   3  10ENDBRANCH   1   3BRANCH   1  18ATOM     18  S   UNL     1      38.459  44.923  18.283 -0.40 -0.03    +0.218 S  ATOM     19  O   UNL     1      38.435  44.133  19.496 -0.27 +0.01    -0.212 OA ATOM     20  O   UNL     1      37.790  46.208  18.243 -0.22 +0.05    -0.212 OA BRANCH  18  21ATOM     21  C   UNL     1      40.174  45.133  17.781 -0.24 -0.01    +0.189 C  BRANCH  21  22ATOM     22  C   UNL     1      40.402  46.481  17.146 -0.46 +0.00    -0.031 A  ATOM     23  C   UNL     1      41.178  47.447  17.798 -0.52 -0.00    +0.007 A  ATOM     24  C   UNL     1      39.814  46.814  15.920 -0.47 -0.00    +0.007 A  ATOM     25  C   UNL     1      41.387  48.702  17.218 -0.23 -0.00    +0.026 A  ATOM     26  C   UNL     1      40.029  48.071  15.346 -0.53 -0.01    +0.026 A  ATOM     27  C   UNL     1      40.860  49.007  15.963 -0.59 -0.01    +0.031 A  BRANCH  27  28ATOM     28  N   UNL     1      40.972  50.300  15.445 -0.32 +0.14    -0.399 N  ATOM     29  H   UNL     1      41.517  50.933  16.024 -0.36 -0.05    +0.156 HD ATOM     30  H   UNL     1      40.091  50.707  15.148 -0.34 -0.13    +0.156 HD ENDBRANCH  27  28ENDBRANCH  21  22ENDBRANCH  18  21ENDBRANCH   1  18TORSDOF 7TERENDMDL