MODEL        5USER    Run = 5USERUSER    Estimated Free Energy of Binding    =  -8.78 kcal/mol  [=(1)+(2)+(3)-(4)]USERUSER    (1) Final Intermolecular Energy     = -10.87 kcal/molUSER        vdW + Hbond + desolv Energy     = -10.29 kcal/molUSER        Electrostatic Energy            =  -0.58 kcal/molUSER        Moving Ligand-Fixed Receptor    = -10.87 kcal/molUSER        Moving Ligand-Moving Receptor   =  +0.00 kcal/molUSER    (2) Final Total Internal Energy     =  -1.68 kcal/molUSER    (3) Torsional Free Energy           =  +2.09 kcal/molUSER    (4) Unbound System's Energy         =  -1.68 kcal/molUSERUSERREMARK SMILES Cc1ncc2n1[C@]2(NS(=O)(=O)Cc1ccnc(N)c1)c1ccc(O)cc1REMARK SMILES IDX 8 1 7 3 2 4 3 5 6 6 4 7 5 8 1 9 20 10 21 11 26 12 22 13REMARK SMILES IDX 25 14 23 15 24 16 9 18 10 19 11 20 12 21 13 22 14 23 19 24REMARK SMILES IDX 15 25 17 26 16 27 18 28REMARK H PARENT 8 2 24 17 18 29 18 30USER                              x       y       z     vdW  Elec       q    TypeUSER                           _______ _______ _______ _____ _____    ______ ____ROOTATOM      1  N   UNL     1      37.611  59.480   7.069 -0.36 +0.12    -0.180 NA ATOM      2  H   UNL     1      36.629  59.357   7.330 -0.35 -0.12    +0.144 HD ENDROOTBRANCH   1   3ATOM      3  C   UNL     1      37.800  60.220   5.803 -0.35 -0.13    +0.178 C  ATOM      4  C   UNL     1      38.017  62.934   6.007 -0.43 -0.08    +0.108 A  ATOM      5  N   UNL     1      36.889  63.450   5.610 -0.72 +0.12    -0.241 NA ATOM      6  N   UNL     1      38.093  61.593   5.959 -0.25 +0.24    -0.299 N  ATOM      7  C   UNL     1      36.170  62.382   5.225 -0.20 -0.09    +0.139 A  ATOM      8  C   UNL     1      36.790  61.192   5.417 -0.51 -0.06    +0.087 A  ATOM      9  C   UNL     1      39.184  63.719   6.487 -0.41 -0.09    +0.088 C  BRANCH   3  10ATOM     10  C   UNL     1      38.581  59.510   4.711 -0.43 -0.00    +0.000 A  ATOM     11  C   UNL     1      39.861  59.957   4.321 -0.23 -0.01    +0.012 A  ATOM     12  C   UNL     1      38.084  58.361   4.064 -0.40 -0.00    +0.012 A  ATOM     13  C   UNL     1      40.595  59.302   3.328 -0.31 -0.03    +0.046 A  ATOM     14  C   UNL     1      38.814  57.698   3.072 -0.49 -0.02    +0.046 A  ATOM     15  C   UNL     1      40.065  58.177   2.712 -0.35 -0.07    +0.115 A  BRANCH  15  16ATOM     16  O   UNL     1      40.815  57.566   1.753 -0.35 +0.43    -0.508 OA ATOM     17  H   UNL     1      41.200  56.757   2.131 -0.07 -0.66    +0.293 HD ENDBRANCH  15  16ENDBRANCH   3  10ENDBRANCH   1   3BRANCH   1  18ATOM     18  S   UNL     1      38.461  60.042   8.423 -0.53 -0.13    +0.218 S  ATOM     19  O   UNL     1      38.590  61.480   8.351 -0.38 +0.17    -0.212 OA ATOM     20  O   UNL     1      37.808  59.395   9.543 -0.80 +0.06    -0.212 OA BRANCH  18  21ATOM     21  C   UNL     1      40.060  59.268   8.147 -0.22 -0.13    +0.189 C  BRANCH  21  22ATOM     22  C   UNL     1      39.883  58.041   7.296 -0.26 +0.02    -0.026 A  ATOM     23  C   UNL     1      38.789  57.192   7.470 -0.25 -0.01    +0.025 A  ATOM     24  C   UNL     1      40.823  57.711   6.311 -0.16 -0.04    +0.051 A  ATOM     25  C   UNL     1      38.686  56.074   6.660 -0.40 -0.04    +0.114 A  ATOM     26  C   UNL     1      40.628  56.573   5.538 -0.17 -0.09    +0.123 A  ATOM     27  N   UNL     1      39.578  55.755   5.698 -0.23 +0.13    -0.240 NA BRANCH  26  28ATOM     28  N   UNL     1      41.553  56.215   4.562 +0.22 +0.47    -0.384 N  ATOM     29  H   UNL     1      41.473  55.208   4.440 -0.48 -0.27    +0.158 HD ATOM     30  H   UNL     1      41.395  56.713   3.695 -0.43 -0.27    +0.158 HD ENDBRANCH  26  28ENDBRANCH  21  22ENDBRANCH  18  21ENDBRANCH   1  18TORSDOF 7TERENDMDL