MODEL        6USER    Run = 6USERUSER    Estimated Free Energy of Binding    =  -9.14 kcal/mol  [=(1)+(2)+(3)-(4)]USERUSER    (1) Final Intermolecular Energy     = -10.93 kcal/molUSER        vdW + Hbond + desolv Energy     = -10.67 kcal/molUSER        Electrostatic Energy            =  -0.26 kcal/molUSER        Moving Ligand-Fixed Receptor    = -10.93 kcal/molUSER        Moving Ligand-Moving Receptor   =  +0.00 kcal/molUSER    (2) Final Total Internal Energy     =  -1.07 kcal/molUSER    (3) Torsional Free Energy           =  +1.79 kcal/molUSER    (4) Unbound System's Energy         =  -1.07 kcal/molUSERUSERREMARK SMILES Cc1ncc2n1[C@@]2(NS(=O)(=O)Cc1ccncc1)c1ccc(O)cc1REMARK SMILES IDX 1 1 2 2 3 3 4 4 5 5 6 6 7 7 8 8 9 10 10 11 11 12 12 13 13 14REMARK SMILES IDX 14 15 18 16 15 17 17 18 16 19 19 20 20 21 25 22 21 23 24 24REMARK SMILES IDX 22 25 23 26REMARK H PARENT 8 9 23 27USER                              x       y       z     vdW  Elec       q    TypeUSER                           _______ _______ _______ _____ _____    ______ ____ROOTATOM      1  C   UNL     1      36.941  44.638  12.490 -0.47 -0.03    +0.088 C  ATOM      2  C   UNL     1      36.744  46.099  12.596 -0.51 -0.04    +0.108 A  ATOM      3  N   UNL     1      35.848  46.834  11.980 -0.48 +0.14    -0.241 NA ATOM      4  C   UNL     1      36.171  48.115  12.340 -0.46 -0.07    +0.139 A  ATOM      5  C   UNL     1      37.058  48.187  13.395 -0.49 -0.04    +0.087 A  ATOM      6  N   UNL     1      37.551  46.891  13.354 -0.27 +0.10    -0.299 N  ATOM      7  C   UNL     1      37.340  47.366  14.691 -0.39 -0.10    +0.178 C  ENDROOTBRANCH   7   8ATOM      8  N   UNL     1      36.154  46.857  15.438 -0.26 +0.16    -0.180 NA ATOM      9  H   UNL     1      36.011  47.428  16.282 +0.08 -0.19    +0.144 HD BRANCH   8  10ATOM     10  S   UNL     1      36.304  45.245  15.960 -0.36 -0.11    +0.218 S  ATOM     11  O   UNL     1      35.061  44.549  15.707 -0.25 +0.11    -0.212 OA ATOM     12  O   UNL     1      37.558  44.745  15.437 -0.27 +0.07    -0.212 OA BRANCH  10  13ATOM     13  C   UNL     1      36.459  45.430  17.744 -0.27 -0.07    +0.189 C  BRANCH  13  14ATOM     14  C   UNL     1      35.393  44.649  18.468 -0.33 +0.01    -0.029 A  ATOM     15  C   UNL     1      34.114  45.191  18.638 -0.42 -0.01    +0.025 A  ATOM     16  C   UNL     1      35.649  43.379  18.994 -0.36 -0.00    +0.025 A  ATOM     17  C   UNL     1      33.164  44.456  19.329 -0.35 -0.02    +0.111 A  ATOM     18  C   UNL     1      34.635  42.725  19.678 -0.35 -0.00    +0.111 A  ATOM     19  N   UNL     1      33.400  43.239  19.858 -0.78 -0.01    -0.265 NA ENDBRANCH  13  14ENDBRANCH  10  13ENDBRANCH   8  10ENDBRANCH   7   8BRANCH   7  20ATOM     20  C   UNL     1      38.625  47.633  15.450 -0.49 -0.00    +0.000 A  ATOM     21  C   UNL     1      39.574  48.551  14.957 -0.54 -0.00    +0.012 A  ATOM     22  C   UNL     1      38.934  46.981  16.660 -0.43 -0.00    +0.012 A  ATOM     23  C   UNL     1      40.763  48.823  15.645 -0.58 -0.01    +0.046 A  ATOM     24  C   UNL     1      40.117  47.247  17.353 -0.44 -0.01    +0.046 A  ATOM     25  C   UNL     1      41.020  48.168  16.843 -0.45 -0.01    +0.115 A  BRANCH  25  26ATOM     26  O   UNL     1      42.163  48.400  17.549 -0.39 -0.05    -0.508 OA ATOM     27  H   UNL     1      42.798  47.691  17.355 -0.36 -0.06    +0.293 HD ENDBRANCH  25  26ENDBRANCH   7  20TORSDOF 6TERENDMDL