MODEL        1USER    Run = 1USERUSER    Estimated Free Energy of Binding    =  -9.22 kcal/mol  [=(1)+(2)+(3)-(4)]USERUSER    (1) Final Intermolecular Energy     = -11.01 kcal/molUSER        vdW + Hbond + desolv Energy     = -10.66 kcal/molUSER        Electrostatic Energy            =  -0.35 kcal/molUSER        Moving Ligand-Fixed Receptor    = -11.01 kcal/molUSER        Moving Ligand-Moving Receptor   =  +0.00 kcal/molUSER    (2) Final Total Internal Energy     =  -1.38 kcal/molUSER    (3) Torsional Free Energy           =  +1.79 kcal/molUSER    (4) Unbound System's Energy         =  -1.38 kcal/molUSERUSERREMARK SMILES Cc1cc(CS(=O)(=O)N[C@]2(c3ccc(O)cc3)c3cnc(C)n32)ccn1REMARK SMILES IDX 9 1 6 3 7 4 8 5 5 6 4 7 2 8 3 9 26 10 25 11 24 12 1 13 10 14REMARK SMILES IDX 18 15 23 16 19 17 21 18 20 19 22 20 11 21 12 22 17 23 13 24REMARK SMILES IDX 16 25 14 26 15 27REMARK H PARENT 9 2 15 28USER                              x       y       z     vdW  Elec       q    TypeUSER                           _______ _______ _______ _____ _____    ______ ____ROOTATOM      1  N   UNL     1      35.751  46.589  16.392 -0.27 +0.18    -0.180 NA ATOM      2  H   UNL     1      35.192  47.420  16.598 -0.07 -0.29    +0.144 HD ENDROOTBRANCH   1   3ATOM      3  S   UNL     1      34.725  45.456  15.646 -0.34 -0.18    +0.218 S  ATOM      4  O   UNL     1      34.342  46.093  14.403 -0.36 +0.20    -0.212 OA ATOM      5  O   UNL     1      35.334  44.145  15.682 -0.27 +0.10    -0.212 OA BRANCH   3   6ATOM      6  C   UNL     1      33.335  45.495  16.783 -0.23 -0.15    +0.189 C  BRANCH   6   7ATOM      7  C   UNL     1      33.626  44.594  17.952 -0.32 +0.01    -0.028 A  ATOM      8  C   UNL     1      35.062  43.858  19.744 -0.38 -0.00    +0.038 A  ATOM      9  C   UNL     1      34.831  44.700  18.658 -0.36 -0.01    +0.028 A  ATOM     10  N   UNL     1      34.167  42.927  20.147 -0.60 -0.03    -0.262 NA ATOM     11  C   UNL     1      33.006  42.844  19.462 -0.32 +0.00    +0.111 A  ATOM     12  C   UNL     1      32.694  43.643  18.375 -0.33 -0.00    +0.025 A  ATOM     13  C   UNL     1      36.342  43.962  20.517 -0.43 -0.00    +0.067 C  ENDBRANCH   6   7ENDBRANCH   3   6ENDBRANCH   1   3BRANCH   1  14ATOM     14  C   UNL     1      36.994  46.924  15.656 -0.34 -0.12    +0.178 C  ATOM     15  C   UNL     1      36.926  47.971  14.652 -0.42 -0.07    +0.087 A  ATOM     16  N   UNL     1      36.996  46.551  14.294 -0.19 +0.15    -0.299 N  ATOM     17  C   UNL     1      36.866  48.578  13.442 -0.37 -0.07    +0.139 A  ATOM     18  C   UNL     1      36.958  46.558  12.951 -0.50 -0.04    +0.108 A  ATOM     19  N   UNL     1      36.869  47.733  12.396 -1.02 +0.07    -0.241 NA ATOM     20  C   UNL     1      37.031  45.275  12.205 -0.48 -0.03    +0.088 C  BRANCH  14  21ATOM     21  C   UNL     1      38.308  46.695  16.389 -0.40 -0.00    +0.000 A  ATOM     22  C   UNL     1      39.455  47.467  16.122 -0.49 -0.00    +0.012 A  ATOM     23  C   UNL     1      38.422  45.709  17.393 -0.39 -0.00    +0.012 A  ATOM     24  C   UNL     1      40.655  47.259  16.808 -0.48 -0.01    +0.046 A  ATOM     25  C   UNL     1      39.621  45.495  18.083 -0.41 -0.00    +0.046 A  ATOM     26  C   UNL     1      40.729  46.273  17.781 -0.41 -0.01    +0.115 A  BRANCH  26  27ATOM     27  O   UNL     1      41.919  46.099  18.421 -0.16 -0.02    -0.508 OA ATOM     28  H   UNL     1      42.608  46.585  17.941 -0.33 -0.03    +0.293 HD ENDBRANCH  26  27ENDBRANCH  14  21ENDBRANCH   1  14TORSDOF 6TERENDMDL