MODEL        7USER    Run = 7USERUSER    Estimated Free Energy of Binding    =  -9.76 kcal/mol  [=(1)+(2)+(3)-(4)]USERUSER    (1) Final Intermolecular Energy     = -11.25 kcal/molUSER        vdW + Hbond + desolv Energy     = -11.09 kcal/molUSER        Electrostatic Energy            =  -0.16 kcal/molUSER        Moving Ligand-Fixed Receptor    = -11.25 kcal/molUSER        Moving Ligand-Moving Receptor   =  +0.00 kcal/molUSER    (2) Final Total Internal Energy     =  -1.20 kcal/molUSER    (3) Torsional Free Energy           =  +1.49 kcal/molUSER    (4) Unbound System's Energy         =  -1.20 kcal/molUSERUSERREMARK SMILES CN(C)c1ccc(C(=O)N2CCN(Cc3ncsc3-c3ccc(F)cc3)CC2)cc1REMARK SMILES IDX 8 1 9 2 10 3 11 4 12 5 13 6 27 7 28 8 7 9 4 10 5 11 30 12REMARK SMILES IDX 6 13 29 14 2 15 1 16 3 17 14 18 15 19 16 20 19 21 17 22REMARK SMILES IDX 18 23 20 24 21 25 26 26 22 27 25 28 23 29 24 30REMARK H PARENTUSER                              x       y       z     vdW  Elec       q    TypeUSER                           _______ _______ _______ _____ _____    ______ ____ROOTATOM      1  C   UNL     1      34.906  43.251  19.830 -0.30 -0.01    +0.253 C  ATOM      2  O   UNL     1      33.729  43.223  20.184 -0.83 -0.03    -0.269 OA ATOM      3  N   UNL     1      35.309  43.459  18.508 -0.11 +0.08    -0.336 N  ATOM      4  C   UNL     1      36.587  44.102  18.177 -0.29 -0.03    +0.135 C  ATOM      5  C   UNL     1      36.983  43.909  16.700 -0.31 -0.03    +0.106 C  ATOM      6  N   UNL     1      35.931  44.252  15.721 -0.17 +0.12    -0.294 NA ATOM      7  C   UNL     1      34.698  43.512  16.081 -0.35 -0.05    +0.106 C  ATOM      8  C   UNL     1      34.233  43.685  17.538 -0.28 -0.05    +0.135 C  ENDROOTBRANCH   1   9ATOM      9  C   UNL     1      35.938  43.040  20.869 -0.38 +0.00    +0.040 A  ATOM     10  C   UNL     1      37.888  42.684  22.916 -0.36 +0.00    +0.036 A  ATOM     11  C   UNL     1      37.147  41.604  22.393 -0.51 +0.00    +0.027 A  ATOM     12  C   UNL     1      37.605  43.950  22.366 -0.35 +0.00    +0.027 A  ATOM     13  C   UNL     1      36.176  41.773  21.395 -0.54 +0.00    +0.016 A  ATOM     14  C   UNL     1      36.637  44.135  21.368 -0.32 +0.00    +0.016 A  BRANCH  10  15ATOM     15  N   UNL     1      38.874  42.500  23.894 -0.04 -0.04    -0.378 N  ATOM     16  C   UNL     1      40.252  42.888  23.595 -0.21 +0.01    +0.143 C  ATOM     17  C   UNL     1      38.490  42.586  25.303 -0.22 +0.00    +0.143 C  ENDBRANCH  10  15ENDBRANCH   1   9BRANCH   6  18ATOM     18  C   UNL     1      35.720  45.711  15.665 -0.31 -0.10    +0.142 C  BRANCH  18  19ATOM     19  C   UNL     1      36.152  46.267  14.336 -0.38 -0.05    +0.073 A  ATOM     20  N   UNL     1      35.293  46.122  13.249 -0.26 +0.16    -0.248 NA ATOM     21  C   UNL     1      37.338  46.931  14.055 -0.43 -0.03    +0.059 A  ATOM     22  C   UNL     1      35.841  46.660  12.181 -0.47 -0.10    +0.176 A  ATOM     23  S   UNL     1      37.383  47.370  12.397 -0.65 +0.03    -0.122 S  BRANCH  21  24ATOM     24  C   UNL     1      38.457  47.263  14.927 -0.46 +0.00    -0.006 A  ATOM     25  C   UNL     1      39.001  48.558  14.916 -0.51 -0.01    +0.012 A  ATOM     26  C   UNL     1      39.014  46.284  15.766 -0.41 -0.00    +0.012 A  ATOM     27  C   UNL     1      40.087  48.868  15.735 -0.55 -0.01    +0.040 A  ATOM     28  C   UNL     1      40.100  46.596  16.586 -0.45 -0.01    +0.040 A  ATOM     29  C   UNL     1      40.627  47.884  16.562 -0.45 -0.02    +0.123 A  ATOM     30  F   UNL     1      41.670  48.183  17.348 -0.19 +0.01    -0.207 F  ENDBRANCH  21  24ENDBRANCH  18  19ENDBRANCH   6  18TORSDOF 5TERENDMDL