REMARK SMILES CN(C)c1ccc(S(=O)(=O)Nc2cc(F)ccc2-c2ccc(-c3ccncc3)cc2)cc1
REMARK SMILES IDX 8 1 9 2 10 3 7 4 4 5 5 6 32 7 6 8 31 9 2 10 1 11 3 12 11 13
REMARK SMILES IDX 12 15 13 16 18 17 14 18 17 19 16 20 15 21 19 22 20 23 30 24
REMARK SMILES IDX 21 25 29 26 22 27 23 28 24 29 28 30 25 31 27 32 26 33
REMARK H PARENT 11 14
ROOT
ATOM      1  S   UNL     1       1.424  -0.048  -3.362  1.00  0.00     0.261 S 
ATOM      2  O   UNL     1       0.951   1.206  -3.911  1.00  0.00    -0.201 OA
ATOM      3  O   UNL     1       2.455  -0.814  -4.029  1.00  0.00    -0.201 OA
ENDROOT
BRANCH   1   4
ATOM      4  C   UNL     1       1.964   0.267  -1.700  1.00  0.00     0.087 A 
ATOM      5  C   UNL     1       2.834   0.788   0.957  1.00  0.00     0.036 A 
ATOM      6  C   UNL     1       1.929   1.636   0.288  1.00  0.00     0.027 A 
ATOM      7  C   UNL     1       3.288  -0.329   0.228  1.00  0.00     0.027 A 
ATOM      8  C   UNL     1       1.501   1.392  -1.024  1.00  0.00     0.024 A 
ATOM      9  C   UNL     1       2.875  -0.586  -1.087  1.00  0.00     0.024 A 
BRANCH   5  10
ATOM     10  N   UNL     1       3.219   1.015   2.284  1.00  0.00    -0.378 N 
ATOM     11  C   UNL     1       2.969   2.330   2.876  1.00  0.00     0.143 C 
ATOM     12  C   UNL     1       4.389   0.309   2.809  1.00  0.00     0.143 C 
ENDBRANCH   5  10
ENDBRANCH   1   4
BRANCH   1  13
ATOM     13  N   UNL     1       0.048  -1.010  -3.147  1.00  0.00    -0.279 N 
ATOM     14  H   UNL     1      -0.758  -0.427  -2.923  1.00  0.00     0.180 HD
BRANCH  13  15
ATOM     15  C   UNL     1       0.160  -2.258  -2.450  1.00  0.00     0.060 A 
ATOM     16  C   UNL     1       0.928  -3.281  -3.013  1.00  0.00     0.066 A 
ATOM     17  C   UNL     1      -0.486  -2.453  -1.206  1.00  0.00     0.006 A 
ATOM     18  C   UNL     1       1.072  -4.487  -2.340  1.00  0.00     0.125 A 
ATOM     19  C   UNL     1      -0.314  -3.687  -0.548  1.00  0.00     0.014 A 
ATOM     20  C   UNL     1       0.463  -4.699  -1.111  1.00  0.00     0.040 A 
ATOM     21  F   UNL     1       1.808  -5.464  -2.884  1.00  0.00    -0.207 F 
BRANCH  17  22
ATOM     22  C   UNL     1      -1.320  -1.421  -0.573  1.00  0.00    -0.016 A 
ATOM     23  C   UNL     1      -0.879  -0.749   0.574  1.00  0.00     0.009 A 
ATOM     24  C   UNL     1      -2.578  -1.086  -1.094  1.00  0.00     0.009 A 
ATOM     25  C   UNL     1      -1.658   0.251   1.166  1.00  0.00     0.009 A 
ATOM     26  C   UNL     1      -3.358  -0.087  -0.499  1.00  0.00     0.009 A 
ATOM     27  C   UNL     1      -2.909   0.603   0.638  1.00  0.00    -0.018 A 
BRANCH  27  28
ATOM     28  C   UNL     1      -3.724   1.661   1.257  1.00  0.00    -0.015 A 
ATOM     29  C   UNL     1      -4.240   2.718   0.498  1.00  0.00     0.029 A 
ATOM     30  C   UNL     1      -4.007   1.649   2.629  1.00  0.00     0.029 A 
ATOM     31  C   UNL     1      -4.994   3.695   1.128  1.00  0.00     0.111 A 
ATOM     32  C   UNL     1      -4.774   2.670   3.168  1.00  0.00     0.111 A 
ATOM     33  N   UNL     1      -5.272   3.695   2.448  1.00  0.00    -0.265 NA
ENDBRANCH  27  28
ENDBRANCH  17  22
ENDBRANCH  13  15
ENDBRANCH   1  13
TORSDOF 6
