REMARK SMILES Nc1ccc(C(=O)N2CCN(Cc3ncsc3-c3ccc(Cl)cc3)CC2)cc1
REMARK SMILES IDX 6 1 7 2 8 3 9 4 10 5 11 6 25 7 26 8 5 9 2 10 3 11 28 12 4 13
REMARK SMILES IDX 27 14 1 15 12 18 13 19 14 20 17 21 15 22 16 23 18 24 19 25
REMARK SMILES IDX 24 26 20 27 23 28 21 29 22 30
REMARK H PARENT 1 16 1 17
ROOT
ATOM      1  C   UNL     1       2.987  -1.453  -0.822  1.00  0.00     0.253 C 
ATOM      2  O   UNL     1       3.178  -2.516  -1.407  1.00  0.00    -0.269 OA
ATOM      3  N   UNL     1       1.733  -0.865  -0.705  1.00  0.00    -0.336 N 
ATOM      4  C   UNL     1       1.389   0.203   0.244  1.00  0.00     0.135 C 
ATOM      5  C   UNL     1      -0.059   0.081   0.758  1.00  0.00     0.106 C 
ATOM      6  N   UNL     1      -1.100   0.011  -0.291  1.00  0.00    -0.294 NA
ATOM      7  C   UNL     1      -0.569  -0.531  -1.562  1.00  0.00     0.106 C 
ATOM      8  C   UNL     1       0.604  -1.507  -1.379  1.00  0.00     0.135 C 
ENDROOT
BRANCH   1   9
ATOM      9  C   UNL     1       4.157  -0.774  -0.218  1.00  0.00     0.040 A 
ATOM     10  C   UNL     1       6.397   0.461   0.937  1.00  0.00     0.031 A 
ATOM     11  C   UNL     1       6.138  -0.895   1.162  1.00  0.00     0.026 A 
ATOM     12  C   UNL     1       5.576   1.165   0.050  1.00  0.00     0.026 A 
ATOM     13  C   UNL     1       5.016  -1.511   0.599  1.00  0.00     0.016 A 
ATOM     14  C   UNL     1       4.452   0.558  -0.518  1.00  0.00     0.016 A 
BRANCH  10  15
ATOM     15  N   UNL     1       7.582   1.037   1.405  1.00  0.00    -0.399 N 
ATOM     16  H   UNL     1       7.951   0.602   2.245  1.00  0.00     0.156 HD
ATOM     17  H   UNL     1       7.555   2.049   1.474  1.00  0.00     0.156 HD
ENDBRANCH  10  15
ENDBRANCH   1   9
BRANCH   6  18
ATOM     18  C   UNL     1      -1.760   1.305  -0.535  1.00  0.00     0.142 C 
BRANCH  18  19
ATOM     19  C   UNL     1      -2.653   1.684   0.616  1.00  0.00     0.073 A 
ATOM     20  N   UNL     1      -2.187   2.636   1.524  1.00  0.00    -0.248 NA
ATOM     21  C   UNL     1      -3.938   1.218   0.871  1.00  0.00     0.059 A 
ATOM     22  C   UNL     1      -3.098   2.849   2.446  1.00  0.00     0.176 A 
ATOM     23  S   UNL     1      -4.554   1.967   2.291  1.00  0.00    -0.122 S 
BRANCH  21  24
ATOM     24  C   UNL     1      -4.755   0.242   0.151  1.00  0.00    -0.006 A 
ATOM     25  C   UNL     1      -5.962   0.623  -0.453  1.00  0.00     0.011 A 
ATOM     26  C   UNL     1      -4.334  -1.091   0.044  1.00  0.00     0.011 A 
ATOM     27  C   UNL     1      -6.734  -0.312  -1.149  1.00  0.00     0.021 A 
ATOM     28  C   UNL     1      -5.104  -2.026  -0.652  1.00  0.00     0.021 A 
ATOM     29  C   UNL     1      -6.301  -1.633  -1.245  1.00  0.00     0.041 A 
ATOM     30  Cl  UNL     1      -7.249  -2.782  -2.104  1.00  0.00    -0.084 Cl
ENDBRANCH  21  24
ENDBRANCH  18  19
ENDBRANCH   6  18
TORSDOF 5
