REMARK SMILES Nc1cc(C(=O)N2CCN(Cc3ncsc3-c3ccc(F)cc3)CC2)ccn1
REMARK SMILES IDX 5 1 6 2 7 3 8 4 9 5 10 6 24 7 25 8 4 9 2 10 3 11 28 12 27 13
REMARK SMILES IDX 26 14 1 15 11 18 12 19 13 20 16 21 14 22 15 23 17 24 18 25
REMARK SMILES IDX 23 26 19 27 22 28 20 29 21 30
REMARK H PARENT 1 16 1 17
ROOT
ATOM      1  C   UNL     1       3.391   1.042   0.190  1.00  0.00     0.254 C 
ATOM      2  O   UNL     1       3.797   2.108   0.645  1.00  0.00    -0.269 OA
ATOM      3  N   UNL     1       2.050   0.766  -0.041  1.00  0.00    -0.336 N 
ATOM      4  C   UNL     1       1.493  -0.574  -0.269  1.00  0.00     0.135 C 
ATOM      5  C   UNL     1       0.078  -0.721   0.324  1.00  0.00     0.106 C 
ATOM      6  N   UNL     1      -0.905   0.285  -0.127  1.00  0.00    -0.294 NA
ATOM      7  C   UNL     1      -0.251   1.553  -0.538  1.00  0.00     0.106 C 
ATOM      8  C   UNL     1       1.073   1.831   0.191  1.00  0.00     0.135 C 
ENDROOT
BRANCH   1   9
ATOM      9  C   UNL     1       4.395   0.009  -0.132  1.00  0.00     0.045 A 
ATOM     10  C   UNL     1       6.235  -1.340   0.535  1.00  0.00     0.124 A 
ATOM     11  C   UNL     1       5.289  -0.386   0.859  1.00  0.00     0.060 A 
ATOM     12  N   UNL     1       6.322  -1.896  -0.686  1.00  0.00    -0.240 NA
ATOM     13  C   UNL     1       5.460  -1.470  -1.637  1.00  0.00     0.114 A 
ATOM     14  C   UNL     1       4.484  -0.520  -1.415  1.00  0.00     0.034 A 
BRANCH  10  15
ATOM     15  N   UNL     1       7.130  -1.805   1.493  1.00  0.00    -0.384 N 
ATOM     16  H   UNL     1       7.757  -2.455   1.025  1.00  0.00     0.158 HD
ATOM     17  H   UNL     1       7.637  -1.044   1.932  1.00  0.00     0.158 HD
ENDBRANCH  10  15
ENDBRANCH   1   9
BRANCH   6  18
ATOM     18  C   UNL     1      -1.767  -0.248  -1.198  1.00  0.00     0.142 C 
BRANCH  18  19
ATOM     19  C   UNL     1      -2.910   0.687  -1.493  1.00  0.00     0.073 A 
ATOM     20  N   UNL     1      -2.770   1.576  -2.559  1.00  0.00    -0.248 NA
ATOM     21  C   UNL     1      -4.130   0.759  -0.831  1.00  0.00     0.059 A 
ATOM     22  C   UNL     1      -3.856   2.305  -2.671  1.00  0.00     0.176 A 
ATOM     23  S   UNL     1      -5.106   1.980  -1.551  1.00  0.00    -0.122 S 
BRANCH  21  24
ATOM     24  C   UNL     1      -4.635   0.004   0.316  1.00  0.00    -0.006 A 
ATOM     25  C   UNL     1      -3.959   0.051   1.545  1.00  0.00     0.012 A 
ATOM     26  C   UNL     1      -5.790  -0.786   0.204  1.00  0.00     0.012 A 
ATOM     27  C   UNL     1      -4.428  -0.675   2.641  1.00  0.00     0.040 A 
ATOM     28  C   UNL     1      -6.259  -1.513   1.302  1.00  0.00     0.040 A 
ATOM     29  C   UNL     1      -5.574  -1.450   2.509  1.00  0.00     0.123 A 
ATOM     30  F   UNL     1      -6.023  -2.149   3.559  1.00  0.00    -0.207 F 
ENDBRANCH  21  24
ENDBRANCH  18  19
ENDBRANCH   6  18
TORSDOF 5
