MODEL        6USER    Run = 6USERUSER    Estimated Free Energy of Binding    = -10.57 kcal/mol  [=(1)+(2)+(3)-(4)]USERUSER    (1) Final Intermolecular Energy     = -12.36 kcal/molUSER        vdW + Hbond + desolv Energy     = -12.31 kcal/molUSER        Electrostatic Energy            =  -0.05 kcal/molUSER        Moving Ligand-Fixed Receptor    = -12.36 kcal/molUSER        Moving Ligand-Moving Receptor   =  +0.00 kcal/molUSER    (2) Final Total Internal Energy     =  -2.38 kcal/molUSER    (3) Torsional Free Energy           =  +1.79 kcal/molUSER    (4) Unbound System's Energy         =  -2.38 kcal/molUSERUSERREMARK SMILES CN(C)c1ccc(S(=O)(=O)Nc2cc(F)ccc2-c2ccc(-c3ccncc3)cc2)cc1REMARK SMILES IDX 8 1 9 2 10 3 7 4 4 5 5 6 32 7 6 8 31 9 2 10 1 11 3 12 11 13REMARK SMILES IDX 12 15 13 16 18 17 14 18 17 19 16 20 15 21 19 22 20 23 30 24REMARK SMILES IDX 21 25 29 26 22 27 23 28 24 29 28 30 25 31 27 32 26 33REMARK H PARENT 11 14USER                              x       y       z     vdW  Elec       q    TypeUSER                           _______ _______ _______ _____ _____    ______ ____ROOTATOM      1  S   UNL     1      40.154  45.334  20.195 -0.37 +0.01    +0.261 S  ATOM      2  O   UNL     1      40.382  43.979  19.736 -0.27 -0.01    -0.201 OA ATOM      3  O   UNL     1      40.898  45.879  21.310 -0.24 -0.02    -0.201 OA ENDROOTBRANCH   1   4ATOM      4  C   UNL     1      40.379  46.415  18.805 -0.36 -0.00    +0.087 A  ATOM      5  C   UNL     1      40.743  48.160  16.589 -0.52 -0.01    +0.036 A  ATOM      6  C   UNL     1      41.712  48.030  17.604 -0.40 -0.00    +0.027 A  ATOM      7  C   UNL     1      39.580  47.378  16.741 -0.46 -0.01    +0.027 A  ATOM      8  C   UNL     1      41.538  47.179  18.704 -0.47 -0.00    +0.024 A  ATOM      9  C   UNL     1      39.387  46.526  17.837 -0.40 -0.00    +0.024 A  BRANCH   5  10ATOM     10  N   UNL     1      40.947  48.977  15.470 -0.29 +0.07    -0.378 N  ATOM     11  C   UNL     1      41.397  50.355  15.676 -0.56 -0.03    +0.143 C  ATOM     12  C   UNL     1      40.120  48.764  14.281 -0.35 -0.04    +0.143 C  ENDBRANCH   5  10ENDBRANCH   1   4BRANCH   1  13ATOM     13  N   UNL     1      38.494  45.445  20.508 -0.12 -0.00    -0.279 N  ATOM     14  H   UNL     1      38.310  46.196  21.173 +0.11 +0.02    +0.180 HD BRANCH  13  15ATOM     15  C   UNL     1      37.721  44.247  20.654 -0.34 -0.00    +0.060 A  ATOM     16  C   UNL     1      37.758  43.560  21.871 -0.33 +0.00    +0.066 A  ATOM     17  C   UNL     1      36.922  43.767  19.589 -0.36 -0.00    +0.006 A  ATOM     18  C   UNL     1      36.994  42.414  22.041 -0.39 +0.01    +0.125 A  ATOM     19  C   UNL     1      36.155  42.603  19.798 -0.39 -0.00    +0.014 A  ATOM     20  C   UNL     1      36.189  41.931  21.019 -0.49 +0.00    +0.040 A  ATOM     21  F   UNL     1      37.033  41.760  23.208 -0.16 -0.01    -0.207 F  BRANCH  17  22ATOM     22  C   UNL     1      36.855  44.436  18.281 -0.33 +0.00    -0.016 A  ATOM     23  C   UNL     1      35.986  45.514  18.072 -0.32 -0.00    +0.009 A  ATOM     24  C   UNL     1      37.652  44.010  17.209 -0.21 -0.00    +0.009 A  ATOM     25  C   UNL     1      35.937  46.170  16.837 -0.36 -0.01    +0.009 A  ATOM     26  C   UNL     1      37.600  44.665  15.972 -0.31 -0.00    +0.009 A  ATOM     27  C   UNL     1      36.746  45.760  15.767 -0.35 +0.01    -0.018 A  BRANCH  27  28ATOM     28  C   UNL     1      36.699  46.456  14.470 -0.41 +0.01    -0.015 A  ATOM     29  C   UNL     1      36.909  47.837  14.379 -0.49 -0.02    +0.029 A  ATOM     30  C   UNL     1      36.438  45.759  13.283 -0.48 -0.01    +0.029 A  ATOM     31  C   UNL     1      36.845  48.448  13.137 -0.37 -0.04    +0.111 A  ATOM     32  C   UNL     1      36.398  46.458  12.087 -0.57 -0.05    +0.111 A  ATOM     33  N   UNL     1      36.593  47.788  11.987 -0.92 +0.10    -0.265 NA ENDBRANCH  27  28ENDBRANCH  17  22ENDBRANCH  13  15ENDBRANCH   1  13TORSDOF 6TERENDMDL