MODEL        9USER    Run = 9USERUSER    Estimated Free Energy of Binding    = -10.22 kcal/mol  [=(1)+(2)+(3)-(4)]USERUSER    (1) Final Intermolecular Energy     = -11.71 kcal/molUSER        vdW + Hbond + desolv Energy     = -11.58 kcal/molUSER        Electrostatic Energy            =  -0.13 kcal/molUSER        Moving Ligand-Fixed Receptor    = -11.71 kcal/molUSER        Moving Ligand-Moving Receptor   =  +0.00 kcal/molUSER    (2) Final Total Internal Energy     =  -1.09 kcal/molUSER    (3) Torsional Free Energy           =  +1.49 kcal/molUSER    (4) Unbound System's Energy         =  -1.09 kcal/molUSERUSERREMARK SMILES Nc1ccc(C(=O)N2CCN(Cc3ncsc3-c3ccc(Cl)cc3)CC2)cc1REMARK SMILES IDX 6 1 7 2 8 3 9 4 10 5 11 6 25 7 26 8 5 9 2 10 3 11 28 12 4 13REMARK SMILES IDX 27 14 1 15 12 18 13 19 14 20 17 21 15 22 16 23 18 24 19 25REMARK SMILES IDX 24 26 20 27 23 28 21 29 22 30REMARK H PARENT 1 16 1 17USER                              x       y       z     vdW  Elec       q    TypeUSER                           _______ _______ _______ _____ _____    ______ ____ROOTATOM      1  C   UNL     1      41.868  47.451  18.273 -0.38 -0.01    +0.253 C  ATOM      2  O   UNL     1      42.882  48.126  18.434 -0.43 -0.01    -0.269 OA ATOM      3  N   UNL     1      40.935  47.709  17.275 -0.29 +0.04    -0.336 N  ATOM      4  C   UNL     1      39.902  46.766  16.825 -0.45 -0.03    +0.135 C  ATOM      5  C   UNL     1      39.617  46.891  15.315 -0.46 -0.02    +0.106 C  ATOM      6  N   UNL     1      39.270  48.251  14.847 -0.28 +0.11    -0.294 NA ATOM      7  C   UNL     1      39.834  49.300  15.726 -0.51 -0.05    +0.106 C  ATOM      8  C   UNL     1      41.136  48.886  16.430 -0.48 -0.01    +0.135 C  ENDROOTBRANCH   1   9ATOM      9  C   UNL     1      41.639  46.313  19.193 -0.45 +0.00    +0.040 A  ATOM     10  C   UNL     1      41.206  44.121  20.891 -0.32 +0.00    +0.031 A  ATOM     11  C   UNL     1      41.007  44.002  19.512 -0.21 +0.00    +0.026 A  ATOM     12  C   UNL     1      41.716  45.321  21.397 -0.29 +0.00    +0.026 A  ATOM     13  C   UNL     1      41.209  45.095  18.664 -0.40 +0.00    +0.016 A  ATOM     14  C   UNL     1      41.921  46.420  20.557 -0.35 +0.00    +0.016 A  BRANCH  10  15ATOM     15  N   UNL     1      41.117  42.994  21.714 -0.07 -0.01    -0.399 N  ATOM     16  H   UNL     1      41.082  43.207  22.706 +0.07 +0.00    +0.156 HD ATOM     17  H   UNL     1      41.790  42.266  21.498 -0.26 -0.01    +0.156 HD ENDBRANCH  10  15ENDBRANCH   1   9BRANCH   6  18ATOM     18  C   UNL     1      37.819  48.454  14.692 -0.49 -0.09    +0.142 C  BRANCH  18  19ATOM     19  C   UNL     1      37.240  47.487  13.693 -0.49 -0.03    +0.073 A  ATOM     20  N   UNL     1      37.271  47.839  12.343 -0.98 +0.04    -0.248 NA ATOM     21  C   UNL     1      36.698  46.234  13.955 -0.41 -0.03    +0.059 A  ATOM     22  C   UNL     1      36.738  46.877  11.624 -0.46 -0.07    +0.176 A  ATOM     23  S   UNL     1      36.193  45.503  12.482 -0.59 +0.05    -0.122 S  BRANCH  21  24ATOM     24  C   UNL     1      36.507  45.526  15.220 -0.37 +0.00    -0.006 A  ATOM     25  C   UNL     1      36.533  44.125  15.270 -0.38 -0.00    +0.011 A  ATOM     26  C   UNL     1      36.306  46.244  16.408 -0.37 -0.01    +0.011 A  ATOM     27  C   UNL     1      36.361  43.454  16.484 -0.37 -0.01    +0.021 A  ATOM     28  C   UNL     1      36.134  45.574  17.622 -0.33 -0.01    +0.021 A  ATOM     29  C   UNL     1      36.161  44.183  17.655 -0.29 -0.01    +0.041 A  ATOM     30  Cl  UNL     1      35.952  43.357  19.149 -0.52 +0.01    -0.084 Cl ENDBRANCH  21  24ENDBRANCH  18  19ENDBRANCH   6  18TORSDOF 5TERENDMDL