MODEL        8USER    Run = 8USERUSER    Estimated Free Energy of Binding    =  -9.23 kcal/mol  [=(1)+(2)+(3)-(4)]USERUSER    (1) Final Intermolecular Energy     = -10.72 kcal/molUSER        vdW + Hbond + desolv Energy     = -10.64 kcal/molUSER        Electrostatic Energy            =  -0.08 kcal/molUSER        Moving Ligand-Fixed Receptor    = -10.72 kcal/molUSER        Moving Ligand-Moving Receptor   =  +0.00 kcal/molUSER    (2) Final Total Internal Energy     =  -1.02 kcal/molUSER    (3) Torsional Free Energy           =  +1.49 kcal/molUSER    (4) Unbound System's Energy         =  -1.02 kcal/molUSERUSERREMARK SMILES Nc1cc(C(=O)N2CCN(Cc3ncsc3-c3ccc(F)cc3)CC2)ccn1REMARK SMILES IDX 5 1 6 2 7 3 8 4 9 5 10 6 24 7 25 8 4 9 2 10 3 11 28 12 27 13REMARK SMILES IDX 26 14 1 15 11 18 12 19 13 20 16 21 14 22 15 23 17 24 18 25REMARK SMILES IDX 23 26 19 27 22 28 20 29 21 30REMARK H PARENT 1 16 1 17USER                              x       y       z     vdW  Elec       q    TypeUSER                           _______ _______ _______ _____ _____    ______ ____ROOTATOM      1  C   UNL     1      33.900  43.830  19.004 -0.27 -0.05    +0.254 C  ATOM      2  O   UNL     1      33.486  43.496  20.111 -0.84 -0.02    -0.269 OA ATOM      3  N   UNL     1      35.208  44.225  18.760 -0.13 +0.08    -0.336 N  ATOM      4  C   UNL     1      35.664  44.930  17.555 -0.29 -0.06    +0.135 C  ATOM      5  C   UNL     1      36.796  45.930  17.863 -0.20 -0.04    +0.106 C  ATOM      6  N   UNL     1      37.972  45.361  18.554 -0.19 +0.05    -0.294 NA ATOM      7  C   UNL     1      37.618  44.160  19.351 -0.33 -0.01    +0.106 C  ATOM      8  C   UNL     1      36.169  44.161  19.863 -0.36 -0.01    +0.135 C  ENDROOTBRANCH   1   9ATOM      9  C   UNL     1      32.945  43.797  17.879 -0.29 -0.01    +0.045 A  ATOM     10  C   UNL     1      31.507  42.562  16.445 -0.22 -0.06    +0.124 A  ATOM     11  C   UNL     1      32.384  42.577  17.514 -0.28 -0.02    +0.060 A  ATOM     12  N   UNL     1      31.179  43.667  15.755 -0.20 +0.12    -0.240 NA ATOM     13  C   UNL     1      31.764  44.833  16.113 -0.26 -0.05    +0.114 A  ATOM     14  C   UNL     1      32.654  44.952  17.160 -0.27 -0.01    +0.034 A  BRANCH  10  15ATOM     15  N   UNL     1      30.882  41.381  16.058 +0.02 +0.19    -0.384 N  ATOM     16  H   UNL     1      30.909  41.348  15.042 -0.47 -0.11    +0.158 HD ATOM     17  H   UNL     1      31.328  40.569  16.472 -0.40 -0.08    +0.158 HD ENDBRANCH  10  15ENDBRANCH   1   9BRANCH   6  18ATOM     18  C   UNL     1      39.066  45.077  17.608 -0.31 -0.02    +0.142 C  BRANCH  18  19ATOM     19  C   UNL     1      39.814  46.333  17.246 -0.41 -0.01    +0.073 A  ATOM     20  N   UNL     1      40.879  46.718  18.060 -0.33 +0.02    -0.248 NA ATOM     21  C   UNL     1      39.582  47.166  16.158 -0.44 -0.02    +0.059 A  ATOM     22  C   UNL     1      41.412  47.824  17.596 -0.37 -0.01    +0.176 A  ATOM     23  S   UNL     1      40.712  48.464  16.174 -0.71 +0.02    -0.122 S  BRANCH  21  24ATOM     24  C   UNL     1      38.571  47.092  15.103 -0.45 +0.00    -0.006 A  ATOM     25  C   UNL     1      38.261  45.860  14.507 -0.40 -0.00    +0.012 A  ATOM     26  C   UNL     1      37.908  48.248  14.661 -0.53 -0.01    +0.012 A  ATOM     27  C   UNL     1      37.306  45.782  13.492 -0.44 -0.01    +0.040 A  ATOM     28  C   UNL     1      36.951  48.170  13.645 -0.55 -0.02    +0.040 A  ATOM     29  C   UNL     1      36.660  46.939  13.071 -0.50 -0.06    +0.123 A  ATOM     30  F   UNL     1      35.745  46.866  12.096 -0.23 +0.12    -0.207 F  ENDBRANCH  21  24ENDBRANCH  18  19ENDBRANCH   6  18TORSDOF 5TERENDMDL