MODEL        7USER    Run = 7USERUSER    Estimated Free Energy of Binding    = -10.14 kcal/mol  [=(1)+(2)+(3)-(4)]USERUSER    (1) Final Intermolecular Energy     = -11.93 kcal/molUSER        vdW + Hbond + desolv Energy     = -11.85 kcal/molUSER        Electrostatic Energy            =  -0.08 kcal/molUSER        Moving Ligand-Fixed Receptor    = -11.93 kcal/molUSER        Moving Ligand-Moving Receptor   =  +0.00 kcal/molUSER    (2) Final Total Internal Energy     =  -1.37 kcal/molUSER    (3) Torsional Free Energy           =  +1.79 kcal/molUSER    (4) Unbound System's Energy         =  -1.37 kcal/molUSERUSERREMARK SMILES Oc1cc(CN2CCC(n3c(O)nc4ccccc43)CC2)ccc1-c1nc2ccc(F)cc2s1REMARK SMILES IDX 6 1 7 2 8 3 9 4 20 5 21 6 5 7 4 8 2 9 3 10 24 11 23 12 22 13REMARK SMILES IDX 1 14 25 16 26 17 34 18 27 19 33 20 28 21 32 22 29 23 30 24REMARK SMILES IDX 31 25 10 26 11 27 19 28 13 29 18 30 14 31 17 32 15 33 16 34REMARK SMILES IDX 12 35REMARK H PARENT 1 15 12 36USER                              x       y       z     vdW  Elec       q    TypeUSER                           _______ _______ _______ _____ _____    ______ ____ROOTATOM      1  N   UNL     1      40.793  45.752  18.490 -0.25 +0.00    -0.299 NA ATOM      2  C   UNL     1      39.337  45.599  18.627 -0.42 -0.01    +0.087 C  ATOM      3  C   UNL     1      38.529  46.387  17.589 -0.39 -0.01    +0.041 C  ATOM      4  C   UNL     1      39.281  46.473  16.259 -0.43 -0.02    +0.095 C  ATOM      5  C   UNL     1      40.688  47.072  16.433 -0.50 -0.01    +0.041 C  ATOM      6  C   UNL     1      41.166  47.029  17.886 -0.51 -0.01    +0.087 C  ENDROOTBRANCH   1   7ATOM      7  C   UNL     1      41.498  45.529  19.762 -0.37 +0.01    +0.120 C  BRANCH   7   8ATOM      8  C   UNL     1      40.566  45.225  20.916 -0.32 -0.00    -0.030 A  ATOM      9  C   UNL     1      39.338  43.622  22.263 -0.20 +0.01    +0.126 A  ATOM     10  C   UNL     1      40.192  43.906  21.194 -0.15 +0.00    +0.052 A  ATOM     11  C   UNL     1      38.825  44.638  23.092 -0.26 +0.00    +0.052 A  ATOM     12  C   UNL     1      39.211  45.958  22.799 -0.31 +0.00    +0.015 A  ATOM     13  C   UNL     1      40.069  46.248  21.728 +0.01 +0.00    +0.006 A  BRANCH   9  14ATOM     14  O   UNL     1      39.043  42.292  22.440 -0.03 -0.05    -0.507 OA ATOM     15  H   UNL     1      38.279  42.235  23.053 +0.18 +0.03    +0.293 HD ENDBRANCH   9  14BRANCH  11  16ATOM     16  C   UNL     1      37.922  44.298  24.216 -0.22 +0.01    +0.128 A  ATOM     17  N   UNL     1      37.387  43.097  24.367 -0.21 -0.01    -0.236 NA ATOM     18  S   UNL     1      37.483  45.431  25.434 -0.39 -0.00    -0.114 S  ATOM     19  C   UNL     1      36.589  43.056  25.498 -0.33 -0.00    +0.082 A  ATOM     20  C   UNL     1      36.516  44.247  26.219 -0.33 -0.01    +0.058 A  ATOM     21  C   UNL     1      35.868  41.934  25.959 -0.41 -0.01    +0.033 A  ATOM     22  C   UNL     1      35.748  44.363  27.388 -0.35 -0.02    +0.060 A  ATOM     23  C   UNL     1      35.100  42.037  27.122 -0.56 -0.01    +0.041 A  ATOM     24  C   UNL     1      35.048  43.237  27.816 -0.48 -0.03    +0.124 A  ATOM     25  F   UNL     1      34.306  43.317  28.928 -0.20 +0.07    -0.207 F  ENDBRANCH  11  16ENDBRANCH   7   8ENDBRANCH   1   7BRANCH   4  26ATOM     26  N   UNL     1      38.504  47.142  15.224 -0.21 +0.11    -0.291 N  ATOM     27  C   UNL     1      38.411  48.498  15.062 -0.29 -0.17    +0.295 A  ATOM     28  C   UNL     1      37.749  46.568  14.221 -0.39 -0.03    +0.072 A  ATOM     29  N   UNL     1      37.666  48.849  14.050 -0.47 +0.11    -0.195 NA ATOM     30  C   UNL     1      37.453  45.245  13.863 -0.40 -0.01    +0.029 A  ATOM     31  C   UNL     1      37.242  47.660  13.511 -0.49 -0.04    +0.092 A  ATOM     32  C   UNL     1      36.625  45.048  12.752 -0.46 -0.00    +0.002 A  ATOM     33  C   UNL     1      36.414  47.440  12.399 -0.66 -0.01    +0.031 A  ATOM     34  C   UNL     1      36.113  46.124  12.029 -0.62 -0.00    +0.002 A  BRANCH  27  35ATOM     35  O   UNL     1      39.003  49.388  15.830 -0.13 +0.32    -0.480 OA ATOM     36  H   UNL     1      38.748  50.219  15.391 -0.27 -0.30    +0.296 HD ENDBRANCH  27  35ENDBRANCH   4  26TORSDOF 6TERENDMDL