MODEL        8USER    Run = 8USERUSER    Estimated Free Energy of Binding    = -10.79 kcal/mol  [=(1)+(2)+(3)-(4)]USERUSER    (1) Final Intermolecular Energy     = -12.87 kcal/molUSER        vdW + Hbond + desolv Energy     = -12.95 kcal/molUSER        Electrostatic Energy            =  +0.07 kcal/molUSER        Moving Ligand-Fixed Receptor    = -12.87 kcal/molUSER        Moving Ligand-Moving Receptor   =  +0.00 kcal/molUSER    (2) Final Total Internal Energy     =  -1.37 kcal/molUSER    (3) Torsional Free Energy           =  +2.09 kcal/molUSER    (4) Unbound System's Energy         =  -1.37 kcal/molUSERUSERREMARK SMILES N#Cc1ccc(C(=O)c2ccc(CN3CCN(c4nc5ccccc5[nH]4)CC3)cc2)c(O)c1REMARK SMILES IDX 9 1 10 2 11 3 12 4 29 5 30 6 7 7 8 8 6 9 3 10 4 11 33 12REMARK SMILES IDX 5 13 31 14 2 15 1 16 32 17 13 19 14 20 15 21 28 22 16 23REMARK SMILES IDX 27 24 17 25 18 26 19 27 26 28 20 29 25 30 21 31 24 32 22 33REMARK SMILES IDX 23 34REMARK H PARENT 32 18 26 35USER                              x       y       z     vdW  Elec       q    TypeUSER                           _______ _______ _______ _____ _____    ______ ____ROOTATOM      1  C   UNL     1      40.869  47.056  17.662 -0.50 -0.00    +0.023 A  ATOM      2  C   UNL     1      41.911  47.363  18.539 -0.53 -0.00    +0.012 A  ATOM      3  C   UNL     1      42.186  46.518  19.617 -0.45 +0.00    +0.006 A  ATOM      4  C   UNL     1      41.411  45.369  19.845 -0.38 -0.00    -0.034 A  ATOM      5  C   UNL     1      40.360  45.080  18.960 -0.44 -0.00    +0.006 A  ATOM      6  C   UNL     1      40.081  45.923  17.881 -0.46 -0.00    +0.012 A  ENDROOTBRANCH   1   7ATOM      7  C   UNL     1      40.597  47.981  16.539 -0.46 -0.04    +0.196 C  ATOM      8  O   UNL     1      41.237  49.029  16.463 -0.91 +0.01    -0.288 OA BRANCH   7   9ATOM      9  C   UNL     1      39.570  47.696  15.503 -0.47 -0.02    +0.064 A  ATOM     10  C   UNL     1      37.607  47.223  13.545 -0.49 -0.02    +0.056 A  ATOM     11  C   UNL     1      38.542  46.230  13.863 -0.32 -0.01    +0.020 A  ATOM     12  C   UNL     1      37.665  48.460  14.191 -0.49 -0.04    +0.066 A  ATOM     13  C   UNL     1      39.523  46.466  14.834 -0.43 -0.00    +0.017 A  ATOM     14  C   UNL     1      38.647  48.694  15.153 -0.38 -0.07    +0.128 A  BRANCH  10  15ATOM     15  C   UNL     1      36.603  46.975  12.552 -0.66 -0.04    +0.099 C  ATOM     16  N   UNL     1      35.784  46.765  11.757 -0.49 +0.11    -0.192 NA ENDBRANCH  10  15BRANCH  14  17ATOM     17  O   UNL     1      38.650  49.942  15.719 +0.15 +0.42    -0.507 OA ATOM     18  H   UNL     1      39.573  50.283  15.695 -0.22 -0.21    +0.293 HD ENDBRANCH  14  17ENDBRANCH   7   9ENDBRANCH   1   7BRANCH   4  19ATOM     19  C   UNL     1      41.713  44.466  21.026 -0.30 +0.02    +0.120 C  BRANCH  19  20ATOM     20  N   UNL     1      40.828  44.576  22.186 -0.09 -0.02    -0.296 NA ATOM     21  C   UNL     1      39.653  45.441  21.989 -0.30 +0.01    +0.106 C  ATOM     22  C   UNL     1      40.486  43.302  22.846 -0.26 +0.00    +0.106 C  ATOM     23  C   UNL     1      38.655  45.371  23.169 -0.28 +0.01    +0.135 C  ATOM     24  C   UNL     1      38.988  42.927  22.798 -0.27 +0.01    +0.135 C  ATOM     25  N   UNL     1      38.154  44.003  23.371 -0.12 -0.02    -0.340 N  BRANCH  25  26ATOM     26  C   UNL     1      37.366  43.691  24.432 -0.21 +0.01    +0.203 A  ATOM     27  N   UNL     1      36.871  44.502  25.342 -0.28 -0.01    -0.213 NA ATOM     28  N   UNL     1      37.003  42.394  24.707 -0.20 +0.00    -0.324 N  ATOM     29  C   UNL     1      36.154  43.714  26.208 -0.34 -0.01    +0.091 A  ATOM     30  C   UNL     1      36.220  42.379  25.832 -0.38 -0.01    +0.067 A  ATOM     31  C   UNL     1      35.417  44.069  27.346 -0.42 -0.01    +0.030 A  ATOM     32  C   UNL     1      35.590  41.350  26.534 -0.53 -0.01    +0.028 A  ATOM     33  C   UNL     1      34.769  43.059  28.070 -0.57 -0.00    +0.002 A  ATOM     34  C   UNL     1      34.858  41.723  27.667 -0.57 -0.00    +0.002 A  ATOM     35  H   UNL     1      37.288  41.588  24.178 +0.09 +0.00    +0.170 HD ENDBRANCH  25  26ENDBRANCH  19  20ENDBRANCH   4  19TORSDOF 7TERENDMDL