REMARK SMILES Oc1cc(CN2CCC(n3c(O)nc4ccccc43)CC2)ccc1-c1nc2ccc(F)cc2s1
REMARK SMILES IDX 6 1 7 2 8 3 9 4 20 5 21 6 5 7 4 8 2 9 3 10 24 11 23 12 22 13
REMARK SMILES IDX 1 14 25 16 26 17 34 18 27 19 33 20 28 21 32 22 29 23 30 24
REMARK SMILES IDX 31 25 10 26 11 27 19 28 13 29 18 30 14 31 17 32 15 33 16 34
REMARK SMILES IDX 12 35
REMARK H PARENT 1 15 12 36
ROOT
ATOM      1  N   UNL     1      -1.177  -1.423   0.109  1.00  0.00    -0.299 NA
ATOM      2  C   UNL     1      -1.334  -0.241  -0.753  1.00  0.00     0.087 C 
ATOM      3  C   UNL     1      -2.708   0.430  -0.642  1.00  0.00     0.041 C 
ATOM      4  C   UNL     1      -3.271   0.297   0.775  1.00  0.00     0.095 C 
ATOM      5  C   UNL     1      -3.337  -1.172   1.230  1.00  0.00     0.041 C 
ATOM      6  C   UNL     1      -2.449  -2.087   0.384  1.00  0.00     0.087 C 
ENDROOT
BRANCH   1   7
ATOM      7  C   UNL     1      -0.177  -2.365  -0.416  1.00  0.00     0.120 C 
BRANCH   7   8
ATOM      8  C   UNL     1       1.222  -1.789  -0.459  1.00  0.00    -0.030 A 
ATOM      9  C   UNL     1       3.163  -0.888   0.688  1.00  0.00     0.126 A 
ATOM     10  C   UNL     1       1.869  -1.413   0.724  1.00  0.00     0.052 A 
ATOM     11  C   UNL     1       3.860  -0.716  -0.524  1.00  0.00     0.052 A 
ATOM     12  C   UNL     1       3.196  -1.099  -1.703  1.00  0.00     0.015 A 
ATOM     13  C   UNL     1       1.898  -1.628  -1.672  1.00  0.00     0.006 A 
BRANCH   9  14
ATOM     14  O   UNL     1       3.696  -0.557   1.910  1.00  0.00    -0.507 OA
ATOM     15  H   UNL     1       4.597  -0.200   1.756  1.00  0.00     0.293 HD
ENDBRANCH   9  14
BRANCH  11  16
ATOM     16  C   UNL     1       5.231  -0.156  -0.522  1.00  0.00     0.128 A 
ATOM     17  N   UNL     1       5.859   0.200   0.587  1.00  0.00    -0.236 NA
ATOM     18  S   UNL     1       6.141   0.085  -1.963  1.00  0.00    -0.114 S 
ATOM     19  C   UNL     1       7.122   0.688   0.300  1.00  0.00     0.082 A 
ATOM     20  C   UNL     1       7.461   0.704  -1.053  1.00  0.00     0.058 A 
ATOM     21  C   UNL     1       8.061   1.155   1.244  1.00  0.00     0.033 A 
ATOM     22  C   UNL     1       8.706   1.170  -1.502  1.00  0.00     0.060 A 
ATOM     23  C   UNL     1       9.305   1.621   0.809  1.00  0.00     0.041 A 
ATOM     24  C   UNL     1       9.610   1.624  -0.544  1.00  0.00     0.124 A 
ATOM     25  F   UNL     1      10.807   2.075  -0.943  1.00  0.00    -0.207 F 
ENDBRANCH  11  16
ENDBRANCH   7   8
ENDBRANCH   1   7
BRANCH   4  26
ATOM     26  N   UNL     1      -4.537   0.999   0.938  1.00  0.00    -0.291 N 
ATOM     27  C   UNL     1      -4.737   2.081   1.752  1.00  0.00     0.295 A 
ATOM     28  C   UNL     1      -5.741   0.741   0.315  1.00  0.00     0.072 A 
ATOM     29  N   UNL     1      -5.957   2.542   1.711  1.00  0.00    -0.195 NA
ATOM     30  C   UNL     1      -6.169  -0.221  -0.611  1.00  0.00     0.029 A 
ATOM     31  C   UNL     1      -6.601   1.720   0.820  1.00  0.00     0.092 A 
ATOM     32  C   UNL     1      -7.505  -0.167  -1.025  1.00  0.00     0.002 A 
ATOM     33  C   UNL     1      -7.937   1.756   0.391  1.00  0.00     0.031 A 
ATOM     34  C   UNL     1      -8.377   0.804  -0.535  1.00  0.00     0.002 A 
BRANCH  27  35
ATOM     35  O   UNL     1      -3.813   2.631   2.511  1.00  0.00    -0.480 OA
ATOM     36  H   UNL     1      -4.316   3.351   2.933  1.00  0.00     0.296 HD
ENDBRANCH  27  35
ENDBRANCH   4  26
TORSDOF 6
