MODEL        8USER    Run = 8USERUSER    Estimated Free Energy of Binding    =  -8.65 kcal/mol  [=(1)+(2)+(3)-(4)]USERUSER    (1) Final Intermolecular Energy     = -12.83 kcal/molUSER        vdW + Hbond + desolv Energy     = -12.95 kcal/molUSER        Electrostatic Energy            =  -0.19 kcal/molUSER        Moving Ligand-Fixed Receptor    = -13.14 kcal/molUSER        Moving Ligand-Moving Receptor   =  +0.31 kcal/molUSER    (2) Final Total Internal Energy     =  -2.39 kcal/molUSER    (3) Torsional Free Energy           =  +4.18 kcal/molUSER    (4) Unbound System's Energy         =  -2.39 kcal/molUSERUSERREMARK SMILES N#Cc1ccc(C(=O)c2ccc(C(=O)N[C@@H]3CCCNC[C@@H]3NC(=O)c3cncc(F)c3)cc2)c(O)c1REMARK SMILES IDX 13 1 14 2 15 3 12 5 9 6 10 7 34 8 11 9 33 10 7 11 8 12 6 13REMARK SMILES IDX 3 14 4 15 37 16 5 17 35 18 2 19 1 20 36 21 16 23 17 24 18 25REMARK SMILES IDX 22 27 21 28 20 29 19 31 23 33 24 34 25 36 26 37 27 38 32 39REMARK SMILES IDX 28 40 30 41 29 42 31 43REMARK H PARENT 15 4 36 22 20 30 23 35REMARK Flexibility Score:   88.900USER                              x       y       z     vdW  Elec       q    TypeUSER                           _______ _______ _______ _____ _____    ______ ____ROOTATOM      1  C   UNL     1      38.175  42.946  22.371 -0.24 +0.02    +0.251 C  ATOM      2  O   UNL     1      37.446  42.006  22.073 -0.34 -0.02    -0.269 OA ATOM      3  N   UNL     1      38.548  43.232  23.667 -0.09 -0.02    -0.347 N  ATOM      4  H   UNL     1      38.965  44.134  23.853 +0.09 +0.01    +0.164 HD ENDROOTBRANCH   1   5ATOM      5  C   UNL     1      38.691  43.854  21.309 -0.25 +0.00    +0.039 A  ATOM      6  C   UNL     1      39.696  45.631  19.387 -0.39 -0.00    +0.023 A  ATOM      7  C   UNL     1      38.697  44.713  19.038 -0.37 -0.00    +0.013 A  ATOM      8  C   UNL     1      40.165  45.687  20.704 -0.30 +0.00    +0.013 A  ATOM      9  C   UNL     1      38.196  43.825  19.997 -0.20 -0.00    +0.014 A  ATOM     10  C   UNL     1      39.666  44.799  21.660 -0.29 +0.00    +0.014 A  BRANCH   6  11ATOM     11  C   UNL     1      40.222  46.609  18.408 -0.36 -0.02    +0.196 C  ATOM     12  O   UNL     1      41.305  47.149  18.626 -0.37 +0.01    -0.288 OA BRANCH  11  13ATOM     13  C   UNL     1      39.478  46.983  17.177 -0.41 -0.02    +0.064 A  ATOM     14  C   UNL     1      38.125  47.723  14.827 -0.46 -0.03    +0.056 A  ATOM     15  C   UNL     1      37.521  46.855  15.746 -0.39 -0.01    +0.020 A  ATOM     16  C   UNL     1      39.411  48.207  15.074 -0.49 -0.02    +0.066 A  ATOM     17  C   UNL     1      38.196  46.481  16.915 -0.37 -0.01    +0.017 A  ATOM     18  C   UNL     1      40.084  47.826  16.235 -0.43 -0.03    +0.128 A  BRANCH  14  19ATOM     19  C   UNL     1      37.427  48.105  13.635 -0.54 -0.04    +0.099 C  ATOM     20  N   UNL     1      36.877  48.415  12.661 -0.89 +0.05    -0.192 NA ENDBRANCH  14  19BRANCH  18  21ATOM     21  O   UNL     1      41.352  48.320  16.388 -0.52 +0.03    -0.507 OA ATOM     22  H   UNL     1      41.919  47.598  16.746 -0.29 -0.05    +0.293 HD ENDBRANCH  18  21ENDBRANCH  11  13ENDBRANCH   6  11ENDBRANCH   1   5BRANCH   3  23ATOM     23  C   UNL     1      38.060  42.473  24.832 -0.28 +0.00    +0.106 C  BRANCH  23  24ATOM     24  C   UNL     1      36.536  42.316  24.780 -0.45 -0.00    +0.028 C  BRANCH  24  25ATOM     25  C   UNL     1      35.787  41.835  26.026 -0.51 -0.00    +0.017 CG0ATOM     26  G   UNL     1      36.054  42.538  27.352 +0.00 +0.00    +0.000 G0 ENDBRANCH  24  25ENDBRANCH  23  24BRANCH  23  27ATOM     27  C   UNL     1      38.575  42.981  26.211 -0.22 -0.00    +0.118 C  BRANCH  27  28ATOM     28  C   UNL     1      38.436  41.947  27.350 -0.36 -0.01    +0.108 C  BRANCH  28  29ATOM     29  N   UNL     1      37.163  41.934  28.074 -0.16 +0.10    -0.315 NA ATOM     30  H   UNL     1      37.301  42.427  28.958 -0.38 -0.07    +0.122 HD BRANCH  29  31ATOM     31  C   UNL     1      36.054  42.539  27.353 -0.50 -0.02    +0.081 CG0ATOM     32  G   UNL     1      35.784  41.836  26.029 +0.00 +0.00    +0.000 G0 ENDBRANCH  29  31ENDBRANCH  28  29ENDBRANCH  27  28BRANCH  27  33ATOM     33  N   UNL     1      37.889  44.231  26.576 -0.07 +0.02    -0.346 N  ATOM     34  C   UNL     1      38.068  45.408  25.888 -0.19 -0.00    +0.253 C  ATOM     35  H   UNL     1      37.290  44.182  27.400 +0.10 -0.02    +0.164 HD ATOM     36  O   UNL     1      38.775  45.493  24.888 -0.13 -0.01    -0.269 OA BRANCH  34  37ATOM     37  C   UNL     1      37.350  46.612  26.376 -0.31 -0.00    +0.061 A  ATOM     38  C   UNL     1      37.174  47.764  25.613 -0.31 +0.00    +0.125 A  ATOM     39  C   UNL     1      36.793  46.589  27.658 -0.29 -0.01    +0.056 A  ATOM     40  N   UNL     1      36.512  48.870  26.047 -0.30 +0.01    -0.261 NA ATOM     41  C   UNL     1      36.114  47.706  28.120 -0.27 -0.03    +0.142 A  ATOM     42  C   UNL     1      35.998  48.812  27.298 -0.28 -0.01    +0.150 A  ATOM     43  F   UNL     1      35.578  47.709  29.346 -0.12 +0.04    -0.205 F  ENDBRANCH  34  37ENDBRANCH  27  33ENDBRANCH  23  27ENDBRANCH   3  23TORSDOF 8TERENDMDL