REMARK SMILES COc1ccc(O)c(C(=O)c2ccc(C(=O)N[C@@H]3CCN(CC(=O)N4CC[C@H](F)[C@@H](F)C4)C[C@H]3NC(=O)c3ccncc3)cc2)c1F
REMARK SMILES IDX 15 1 16 2 17 3 14 5 11 6 12 7 45 8 13 9 44 10 9 11 10 12
REMARK SMILES IDX 8 13 3 14 4 15 46 16 5 17 6 18 47 19 2 20 1 21 7 22 18 24
REMARK SMILES IDX 19 25 34 26 20 27 33 28 21 29 35 30 36 31 37 33 38 34 39 35
REMARK SMILES IDX 43 36 40 37 42 38 41 39 22 40 23 41 24 42 25 43 26 44 32 45
REMARK SMILES IDX 27 46 30 47 28 48 31 49 29 50
REMARK H PARENT 17 4 7 23 35 32
ROOT
ATOM      1  C   UNL     1       1.235   0.499   1.151  1.00  0.00     0.251 C 
ATOM      2  O   UNL     1       0.751   0.911   2.201  1.00  0.00    -0.269 OA
ATOM      3  N   UNL     1       0.634  -0.454   0.352  1.00  0.00    -0.347 N 
ATOM      4  H   UNL     1       0.838  -0.359  -0.645  1.00  0.00     0.164 HD
ENDROOT
BRANCH   1   5
ATOM      5  C   UNL     1       2.524   1.056   0.652  1.00  0.00     0.039 A 
ATOM      6  C   UNL     1       4.977   2.130  -0.165  1.00  0.00     0.023 A 
ATOM      7  C   UNL     1       4.160   2.849   0.713  1.00  0.00     0.013 A 
ATOM      8  C   UNL     1       4.557   0.892  -0.665  1.00  0.00     0.013 A 
ATOM      9  C   UNL     1       2.943   2.306   1.130  1.00  0.00     0.014 A 
ATOM     10  C   UNL     1       3.336   0.353  -0.251  1.00  0.00     0.014 A 
BRANCH   6  11
ATOM     11  C   UNL     1       6.271   2.720  -0.572  1.00  0.00     0.199 C 
ATOM     12  O   UNL     1       6.297   3.892  -0.948  1.00  0.00    -0.288 OA
BRANCH  11  13
ATOM     13  C   UNL     1       7.535   1.944  -0.583  1.00  0.00     0.104 A 
ATOM     14  C   UNL     1       8.937   0.118   0.230  1.00  0.00     0.155 A 
ATOM     15  C   UNL     1       9.947   0.501  -0.655  1.00  0.00     0.053 A 
ATOM     16  C   UNL     1       7.741   0.851   0.262  1.00  0.00     0.179 A 
ATOM     17  C   UNL     1       9.766   1.611  -1.484  1.00  0.00     0.051 A 
ATOM     18  C   UNL     1       8.574   2.331  -1.438  1.00  0.00     0.130 A 
ATOM     19  F   UNL     1       6.800   0.495   1.151  1.00  0.00    -0.202 F 
BRANCH  14  20
ATOM     20  O   UNL     1       8.999  -0.942   1.095  1.00  0.00    -0.494 OA
ATOM     21  C   UNL     1      10.221  -1.665   1.156  1.00  0.00     0.278 C 
ENDBRANCH  14  20
BRANCH  18  22
ATOM     22  O   UNL     1       8.493   3.419  -2.267  1.00  0.00    -0.507 OA
ATOM     23  H   UNL     1       7.683   3.926  -2.024  1.00  0.00     0.293 HD
ENDBRANCH  18  22
ENDBRANCH  11  13
ENDBRANCH   6  11
ENDBRANCH   1   5
BRANCH   3  24
ATOM     24  C   UNL     1      -0.714  -0.949   0.645  1.00  0.00     0.107 C 
ATOM     25  C   UNL     1      -0.778  -1.800   1.912  1.00  0.00     0.042 C 
ATOM     26  C   UNL     1      -1.285  -1.732  -0.566  1.00  0.00     0.118 C 
ATOM     27  C   UNL     1      -2.242  -2.131   2.192  1.00  0.00     0.087 C 
ATOM     28  C   UNL     1      -2.192  -2.925  -0.171  1.00  0.00     0.112 C 
ATOM     29  N   UNL     1      -2.877  -2.880   1.116  1.00  0.00    -0.292 NA
BRANCH  26  30
ATOM     30  N   UNL     1      -1.963  -0.813  -1.479  1.00  0.00    -0.346 N 
ATOM     31  C   UNL     1      -1.247   0.029  -2.303  1.00  0.00     0.251 C 
ATOM     32  H   UNL     1      -2.931  -0.603  -1.239  1.00  0.00     0.164 HD
ATOM     33  O   UNL     1      -0.029  -0.056  -2.445  1.00  0.00    -0.269 OA
BRANCH  31  34
ATOM     34  C   UNL     1      -2.010   1.071  -3.038  1.00  0.00     0.042 A 
ATOM     35  C   UNL     1      -3.192   1.623  -2.545  1.00  0.00     0.034 A 
ATOM     36  C   UNL     1      -1.497   1.519  -4.256  1.00  0.00     0.034 A 
ATOM     37  C   UNL     1      -3.824   2.586  -3.312  1.00  0.00     0.112 A 
ATOM     38  C   UNL     1      -2.207   2.482  -4.948  1.00  0.00     0.112 A 
ATOM     39  N   UNL     1      -3.364   3.019  -4.505  1.00  0.00    -0.265 NA
ENDBRANCH  31  34
ENDBRANCH  26  30
BRANCH  29  40
ATOM     40  C   UNL     1      -4.343  -2.818   1.090  1.00  0.00     0.185 C 
BRANCH  40  41
ATOM     41  C   UNL     1      -4.917  -1.470   0.612  1.00  0.00     0.236 C 
ATOM     42  O   UNL     1      -4.255  -0.670  -0.056  1.00  0.00    -0.273 OA
BRANCH  41  43
ATOM     43  N   UNL     1      -6.239  -1.178   0.949  1.00  0.00    -0.338 N 
ATOM     44  C   UNL     1      -7.206  -2.125   1.499  1.00  0.00     0.122 C 
ATOM     45  C   UNL     1      -6.763   0.132   0.556  1.00  0.00     0.160 C 
ATOM     46  C   UNL     1      -7.930  -1.512   2.691  1.00  0.00     0.062 C 
ATOM     47  C   UNL     1      -8.204   0.379   0.986  1.00  0.00     0.220 C 
ATOM     48  C   UNL     1      -8.437  -0.096   2.415  1.00  0.00     0.204 C 
ATOM     49  F   UNL     1      -8.460   1.716   0.908  1.00  0.00    -0.242 F 
ATOM     50  F   UNL     1      -9.782  -0.081   2.663  1.00  0.00    -0.244 F 
ENDBRANCH  41  43
ENDBRANCH  40  41
ENDBRANCH  29  40
ENDBRANCH   3  24
TORSDOF 11
