REMARK SMILES COc1ccc(O)c(C(=O)c2ccc(C(=O)N[C@@H]3CCN(Cc4nc5ncccc5[nH]4)C[C@H]3NC(=O)c3ccncc3)cc2)c1F
REMARK SMILES IDX 11 1 12 2 13 3 14 4 43 5 44 6 9 7 10 8 8 9 3 10 4 11 45 12
REMARK SMILES IDX 5 13 6 14 46 15 2 16 1 17 7 18 15 20 17 21 16 22 18 24 19 25
REMARK SMILES IDX 33 26 20 27 32 28 21 29 34 30 35 31 36 33 37 34 38 35 42 36
REMARK SMILES IDX 39 37 41 38 40 39 22 40 23 41 24 42 31 43 25 44 30 45 26 46
REMARK SMILES IDX 29 47 27 48 28 49
REMARK H PARENT 7 19 17 23 34 32 31 50
ROOT
ATOM      1  C   UNL     1       5.364   0.118  -2.029  1.00  0.00     0.023 A 
ATOM      2  C   UNL     1       4.422   0.911  -1.360  1.00  0.00     0.013 A 
ATOM      3  C   UNL     1       3.055   0.720  -1.589  1.00  0.00     0.014 A 
ATOM      4  C   UNL     1       2.624  -0.257  -2.497  1.00  0.00     0.039 A 
ATOM      5  C   UNL     1       3.568  -1.020  -3.193  1.00  0.00     0.014 A 
ATOM      6  C   UNL     1       4.933  -0.833  -2.962  1.00  0.00     0.013 A 
ENDROOT
BRANCH   1   7
ATOM      7  C   UNL     1       6.823   0.311  -1.845  1.00  0.00     0.199 C 
ATOM      8  O   UNL     1       7.566   0.198  -2.822  1.00  0.00    -0.288 OA
BRANCH   7   9
ATOM      9  C   UNL     1       7.438   0.696  -0.556  1.00  0.00     0.104 A 
ATOM     10  C   UNL     1       7.504   0.661   1.882  1.00  0.00     0.155 A 
ATOM     11  C   UNL     1       8.635   1.480   1.860  1.00  0.00     0.053 A 
ATOM     12  C   UNL     1       6.918   0.272   0.669  1.00  0.00     0.179 A 
ATOM     13  C   UNL     1       9.184   1.882   0.640  1.00  0.00     0.051 A 
ATOM     14  C   UNL     1       8.598   1.479  -0.556  1.00  0.00     0.130 A 
ATOM     15  F   UNL     1       5.849  -0.540   0.702  1.00  0.00    -0.202 F 
BRANCH  10  16
ATOM     16  O   UNL     1       6.886   0.195   3.012  1.00  0.00    -0.494 OA
ATOM     17  C   UNL     1       7.520   0.463   4.258  1.00  0.00     0.278 C 
ENDBRANCH  10  16
BRANCH  14  18
ATOM     18  O   UNL     1       9.217   1.891  -1.706  1.00  0.00    -0.507 OA
ATOM     19  H   UNL     1       8.846   1.366  -2.452  1.00  0.00     0.293 HD
ENDBRANCH  14  18
ENDBRANCH   7   9
ENDBRANCH   1   7
BRANCH   4  20
ATOM     20  C   UNL     1       1.178  -0.485  -2.778  1.00  0.00     0.251 C 
ATOM     21  N   UNL     1       0.308  -0.205  -1.738  1.00  0.00    -0.347 N 
ATOM     22  O   UNL     1       0.835  -0.921  -3.869  1.00  0.00    -0.269 OA
ATOM     23  H   UNL     1       0.735  -0.250  -0.822  1.00  0.00     0.164 HD
BRANCH  21  24
ATOM     24  C   UNL     1      -1.110  -0.612  -1.797  1.00  0.00     0.107 C 
ATOM     25  C   UNL     1      -1.883   0.119  -2.911  1.00  0.00     0.042 C 
ATOM     26  C   UNL     1      -1.801  -0.401  -0.414  1.00  0.00     0.118 C 
ATOM     27  C   UNL     1      -2.189   1.577  -2.561  1.00  0.00     0.087 C 
ATOM     28  C   UNL     1      -2.161   1.091  -0.210  1.00  0.00     0.112 C 
ATOM     29  N   UNL     1      -2.920   1.751  -1.293  1.00  0.00    -0.294 NA
BRANCH  26  30
ATOM     30  N   UNL     1      -2.953  -1.280  -0.189  1.00  0.00    -0.346 N 
ATOM     31  C   UNL     1      -2.762  -2.632   0.026  1.00  0.00     0.251 C 
ATOM     32  H   UNL     1      -3.776  -0.859   0.244  1.00  0.00     0.164 HD
ATOM     33  O   UNL     1      -1.665  -3.170  -0.091  1.00  0.00    -0.269 OA
BRANCH  31  34
ATOM     34  C   UNL     1      -3.939  -3.433   0.463  1.00  0.00     0.042 A 
ATOM     35  C   UNL     1      -5.253  -2.999   0.301  1.00  0.00     0.034 A 
ATOM     36  C   UNL     1      -3.701  -4.682   1.042  1.00  0.00     0.034 A 
ATOM     37  C   UNL     1      -6.271  -3.821   0.752  1.00  0.00     0.112 A 
ATOM     38  C   UNL     1      -4.787  -5.434   1.451  1.00  0.00     0.112 A 
ATOM     39  N   UNL     1      -6.068  -5.030   1.321  1.00  0.00    -0.265 NA
ENDBRANCH  31  34
ENDBRANCH  26  30
BRANCH  29  40
ATOM     40  C   UNL     1      -4.314   1.303  -1.439  1.00  0.00     0.160 C 
BRANCH  40  41
ATOM     41  C   UNL     1      -5.093   1.383  -0.167  1.00  0.00     0.123 A 
ATOM     42  N   UNL     1      -5.365   0.373   0.638  1.00  0.00    -0.212 NA
ATOM     43  N   UNL     1      -5.588   2.566   0.329  1.00  0.00    -0.340 N 
ATOM     44  C   UNL     1      -6.094   0.917   1.659  1.00  0.00     0.177 A 
ATOM     45  C   UNL     1      -6.251   2.288   1.494  1.00  0.00     0.085 A 
ATOM     46  N   UNL     1      -6.603   0.227   2.700  1.00  0.00    -0.235 NA
ATOM     47  C   UNL     1      -6.955   3.064   2.408  1.00  0.00     0.032 A 
ATOM     48  C   UNL     1      -7.289   0.987   3.582  1.00  0.00     0.114 A 
ATOM     49  C   UNL     1      -7.489   2.361   3.488  1.00  0.00     0.022 A 
ATOM     50  H   UNL     1      -5.467   3.475  -0.095  1.00  0.00     0.168 HD
ENDBRANCH  40  41
ENDBRANCH  29  40
ENDBRANCH  21  24
ENDBRANCH   4  20
TORSDOF 10
