MODEL        9USER    Run = 9USERUSER    Estimated Free Energy of Binding    = -11.02 kcal/mol  [=(1)+(2)+(3)-(4)]USERUSER    (1) Final Intermolecular Energy     = -14.31 kcal/molUSER        vdW + Hbond + desolv Energy     = -13.91 kcal/molUSER        Electrostatic Energy            =  -0.40 kcal/molUSER        Moving Ligand-Fixed Receptor    = -14.31 kcal/molUSER        Moving Ligand-Moving Receptor   =  +0.00 kcal/molUSER    (2) Final Total Internal Energy     =  -3.85 kcal/molUSER    (3) Torsional Free Energy           =  +3.28 kcal/molUSER    (4) Unbound System's Energy         =  -3.85 kcal/molUSERUSERREMARK SMILES COc1ccc(O)c(C(=O)c2ccc(C(=O)N[C@@H]3CCN(CC(=O)N4CC[C@H](F)[C@@H](F)C4)C[C@H]3NC(=O)c3ccncc3)cc2)c1FREMARK SMILES IDX 15 1 16 2 17 3 14 5 11 6 12 7 45 8 13 9 44 10 9 11 10 12REMARK SMILES IDX 8 13 3 14 4 15 46 16 5 17 6 18 47 19 2 20 1 21 7 22 18 24REMARK SMILES IDX 19 25 34 26 20 27 33 28 21 29 35 30 36 31 37 33 38 34 39 35REMARK SMILES IDX 43 36 40 37 42 38 41 39 22 40 23 41 24 42 25 43 26 44 32 45REMARK SMILES IDX 27 46 30 47 28 48 31 49 29 50REMARK H PARENT 17 4 7 23 35 32USER                              x       y       z     vdW  Elec       q    TypeUSER                           _______ _______ _______ _____ _____    ______ ____ROOTATOM      1  C   UNL     1      32.185  43.134  17.415 -0.19 -0.07    +0.251 C  ATOM      2  O   UNL     1      31.290  43.805  17.919 -0.21 +0.03    -0.269 OA ATOM      3  N   UNL     1      32.271  41.760  17.533 -0.12 +0.11    -0.347 N  ATOM      4  H   UNL     1      32.709  41.295  16.735 -0.41 -0.12    +0.164 HD ENDROOTBRANCH   1   5ATOM      5  C   UNL     1      33.239  43.790  16.591 -0.30 -0.02    +0.039 A  ATOM      6  C   UNL     1      35.244  44.910  14.989 -0.23 -0.01    +0.023 A  ATOM      7  C   UNL     1      35.499  43.736  15.706 -0.35 -0.01    +0.013 A  ATOM      8  C   UNL     1      34.002  45.546  15.098 -0.27 -0.01    +0.013 A  ATOM      9  C   UNL     1      34.494  43.172  16.494 -0.39 -0.01    +0.014 A  ATOM     10  C   UNL     1      32.999  44.983  15.892 -0.33 -0.01    +0.014 A  BRANCH   6  11ATOM     11  C   UNL     1      36.320  45.473  14.145 -0.33 -0.09    +0.199 C  ATOM     12  O   UNL     1      36.417  45.096  12.977 -0.33 +0.11    -0.288 OA BRANCH  11  13ATOM     13  C   UNL     1      37.314  46.445  14.661 -0.33 -0.05    +0.104 A  ATOM     14  C   UNL     1      38.828  47.246  16.401 -0.32 -0.06    +0.155 A  ATOM     15  C   UNL     1      39.203  48.312  15.582 -0.48 -0.02    +0.053 A  ATOM     16  C   UNL     1      37.878  46.325  15.933 -0.26 -0.07    +0.179 A  ATOM     17  C   UNL     1      38.625  48.462  14.320 -0.46 -0.02    +0.051 A  ATOM     18  C   UNL     1      37.680  47.541  13.870 -0.42 -0.05    +0.130 A  ATOM     19  F   UNL     1      37.496  45.332  16.752 -0.07 +0.07    -0.202 F  BRANCH  14  20ATOM     20  O   UNL     1      39.315  46.998  17.657 -0.17 +0.12    -0.494 OA ATOM     21  C   UNL     1      40.714  46.779  17.783 -0.36 -0.03    +0.278 C  ENDBRANCH  14  20BRANCH  18  22ATOM     22  O   UNL     1      37.147  47.780  12.631 -0.83 +0.13    -0.507 OA ATOM     23  H   UNL     1      36.744  46.939  12.307 +0.24 -0.11    +0.293 HD ENDBRANCH  18  22ENDBRANCH  11  13ENDBRANCH   6  11ENDBRANCH   1   5BRANCH   3  24ATOM     24  C   UNL     1      31.203  40.985  18.169 -0.31 -0.01    +0.107 C  ATOM     25  C   UNL     1      31.689  39.658  18.750 -0.47 +0.00    +0.042 C  ATOM     26  C   UNL     1      30.033  40.749  17.178 -0.32 -0.01    +0.118 C  ATOM     27  C   UNL     1      30.531  39.015  19.508 -0.38 +0.01    +0.087 C  ATOM     28  C   UNL     1      29.327  39.381  17.355 -0.27 +0.03    +0.112 C  ATOM     29  N   UNL     1      29.376  38.738  18.664 -0.17 -0.08    -0.292 NA BRANCH  26  30ATOM     30  N   UNL     1      29.088  41.862  17.249 -0.05 +0.06    -0.346 N  ATOM     31  C   UNL     1      27.967  41.896  16.446 -0.15 -0.07    +0.251 C  ATOM     32  H   UNL     1      29.461  42.719  17.653 +0.09 -0.03    +0.164 HD ATOM     33  O   UNL     1      27.609  40.939  15.763 -0.25 +0.05    -0.269 OA BRANCH  31  34ATOM     34  C   UNL     1      27.180  43.156  16.432 -0.22 -0.01    +0.042 A  ATOM     35  C   UNL     1      27.112  44.011  17.532 -0.27 -0.00    +0.034 A  ATOM     36  C   UNL     1      26.509  43.493  15.256 -0.24 -0.02    +0.034 A  ATOM     37  C   UNL     1      26.348  45.158  17.411 -0.27 +0.01    +0.112 A  ATOM     38  C   UNL     1      25.768  44.660  15.239 -0.26 -0.01    +0.112 A  ATOM     39  N   UNL     1      25.667  45.495  16.295 -0.65 -0.08    -0.265 NA ENDBRANCH  31  34ENDBRANCH  26  30BRANCH  29  40ATOM     40  C   UNL     1      28.103  38.578  19.377 -0.22 +0.02    +0.185 C  BRANCH  40  41ATOM     41  C   UNL     1      26.897  39.248  18.690 -0.16 +0.02    +0.236 C  ATOM     42  O   UNL     1      26.638  39.075  17.495 -0.28 -0.13    -0.273 OA BRANCH  41  43ATOM     43  N   UNL     1      26.079  40.061  19.475 -0.07 +0.05    -0.338 N  ATOM     44  C   UNL     1      25.022  39.594  20.369 -0.30 -0.05    +0.122 C  ATOM     45  C   UNL     1      26.157  41.507  19.259 -0.24 -0.02    +0.160 C  ATOM     46  C   UNL     1      25.128  40.285  21.723 -0.45 -0.01    +0.062 C  ATOM     47  C   UNL     1      25.252  42.321  20.175 -0.36 -0.06    +0.220 C  ATOM     48  C   UNL     1      25.309  41.798  21.606 -0.43 -0.04    +0.204 C  ATOM     49  F   UNL     1      25.664  43.621  20.154 -0.10 +0.11    -0.242 F  ATOM     50  F   UNL     1      24.309  42.393  22.325 -0.18 +0.06    -0.244 F  ENDBRANCH  41  43ENDBRANCH  40  41ENDBRANCH  29  40ENDBRANCH   3  24TORSDOF 11TERENDMDL