MODEL        4USER    Run = 4USERUSER    Estimated Free Energy of Binding    = -11.82 kcal/mol  [=(1)+(2)+(3)-(4)]USERUSER    (1) Final Intermolecular Energy     = -14.80 kcal/molUSER        vdW + Hbond + desolv Energy     = -14.58 kcal/molUSER        Electrostatic Energy            =  -0.22 kcal/molUSER        Moving Ligand-Fixed Receptor    = -14.80 kcal/molUSER        Moving Ligand-Moving Receptor   =  +0.00 kcal/molUSER    (2) Final Total Internal Energy     =  -2.54 kcal/molUSER    (3) Torsional Free Energy           =  +2.98 kcal/molUSER    (4) Unbound System's Energy         =  -2.54 kcal/molUSERUSERREMARK SMILES COc1ccc(O)c(C(=O)c2ccc(C(=O)N[C@@H]3CCN(Cc4nc5ncccc5[nH]4)C[C@H]3NC(=O)c3ccncc3)cc2)c1FREMARK SMILES IDX 11 1 12 2 13 3 14 4 43 5 44 6 9 7 10 8 8 9 3 10 4 11 45 12REMARK SMILES IDX 5 13 6 14 46 15 2 16 1 17 7 18 15 20 17 21 16 22 18 24 19 25REMARK SMILES IDX 33 26 20 27 32 28 21 29 34 30 35 31 36 33 37 34 38 35 42 36REMARK SMILES IDX 39 37 41 38 40 39 22 40 23 41 24 42 31 43 25 44 30 45 26 46REMARK SMILES IDX 29 47 27 48 28 49REMARK H PARENT 7 19 17 23 34 32 31 50USER                              x       y       z     vdW  Elec       q    TypeUSER                           _______ _______ _______ _____ _____    ______ ____ROOTATOM      1  C   UNL     1      39.829  47.520  16.145 -0.50 -0.01    +0.023 A  ATOM      2  C   UNL     1      41.017  48.034  16.681 -0.53 -0.00    +0.013 A  ATOM      3  C   UNL     1      41.471  47.596  17.930 -0.51 -0.00    +0.014 A  ATOM      4  C   UNL     1      40.732  46.650  18.654 -0.44 -0.00    +0.039 A  ATOM      5  C   UNL     1      39.526  46.168  18.134 -0.43 -0.00    +0.014 A  ATOM      6  C   UNL     1      39.074  46.602  16.885 -0.42 -0.00    +0.013 A  ENDROOTBRANCH   1   7ATOM      7  C   UNL     1      39.291  47.983  14.842 -0.43 -0.07    +0.199 C  ATOM      8  O   UNL     1      39.867  48.900  14.254 -0.37 +0.11    -0.288 OA BRANCH   7   9ATOM      9  C   UNL     1      38.129  47.360  14.173 -0.41 -0.04    +0.104 A  ATOM     10  C   UNL     1      36.990  45.429  13.212 -0.37 -0.06    +0.155 A  ATOM     11  C   UNL     1      35.903  46.239  12.878 -0.53 -0.03    +0.053 A  ATOM     12  C   UNL     1      38.094  45.998  13.863 -0.26 -0.05    +0.179 A  ATOM     13  C   UNL     1      35.913  47.595  13.213 -0.44 -0.03    +0.051 A  ATOM     14  C   UNL     1      37.010  48.145  13.869 -0.45 -0.07    +0.130 A  ATOM     15  F   UNL     1      39.120  45.203  14.206 -0.07 +0.04    -0.202 F  BRANCH  10  16ATOM     16  O   UNL     1      37.089  44.088  12.947 -0.02 +0.15    -0.494 OA ATOM     17  C   UNL     1      37.284  43.707  11.589 -0.28 -0.08    +0.278 C  ENDBRANCH  10  16BRANCH  14  18ATOM     18  O   UNL     1      36.925  49.473  14.189 -0.18 +0.41    -0.507 OA ATOM     19  H   UNL     1      37.841  49.810  14.324 -0.33 -0.28    +0.293 HD ENDBRANCH  14  18ENDBRANCH   7   9ENDBRANCH   1   7BRANCH   4  20ATOM     20  C   UNL     1      41.174  46.165  19.992 -0.27 +0.02    +0.251 C  ATOM     21  N   UNL     1      40.186  46.067  20.957 -0.03 -0.02    -0.347 N  ATOM     22  O   UNL     1      42.356  45.910  20.183 -0.25 -0.07    -0.269 OA ATOM     23  H   UNL     1      39.390  46.669  20.792 +0.14 +0.01    +0.164 HD BRANCH  21  24ATOM     24  C   UNL     1      40.523  45.837  22.376 -0.24 +0.01    +0.107 C  ATOM     25  C   UNL     1      39.721  44.672  22.987 -0.25 +0.00    +0.042 C  ATOM     26  C   UNL     1      40.325  47.142  23.208 -0.15 +0.01    +0.118 C  ATOM     27  C   UNL     1      38.262  45.041  23.266 -0.31 +0.01    +0.087 C  ATOM     28  C   UNL     1      38.825  47.361  23.523 -0.26 +0.02    +0.112 C  ATOM     29  N   UNL     1      38.095  46.226  24.127 -0.43 -0.05    -0.294 NA BRANCH  26  30ATOM     30  N   UNL     1      41.155  47.205  24.415 -0.06 -0.03    -0.346 N  ATOM     31  C   UNL     1      41.990  48.286  24.627 -0.23 +0.04    +0.251 C  ATOM     32  H   UNL     1      40.796  46.734  25.246 +0.07 +0.01    +0.164 HD ATOM     33  O   UNL     1      42.173  49.154  23.778 -0.80 -0.08    -0.269 OA BRANCH  31  34ATOM     34  C   UNL     1      42.640  48.403  25.961 -0.20 +0.00    +0.042 A  ATOM     35  C   UNL     1      43.950  48.847  26.129 -0.19 +0.00    +0.034 A  ATOM     36  C   UNL     1      41.884  48.069  27.088 -0.17 +0.00    +0.034 A  ATOM     37  C   UNL     1      44.457  48.909  27.416 -0.09 +0.00    +0.112 A  ATOM     38  C   UNL     1      42.478  48.175  28.332 -0.12 +0.01    +0.112 A  ATOM     39  N   UNL     1      43.750  48.586  28.521 -0.05 -0.01    -0.265 NA ENDBRANCH  31  34ENDBRANCH  26  30BRANCH  29  40ATOM     40  C   UNL     1      38.471  45.910  25.514 -0.21 +0.01    +0.160 C  BRANCH  40  41ATOM     41  C   UNL     1      37.750  44.723  26.062 -0.22 -0.00    +0.123 A  ATOM     42  N   UNL     1      38.288  43.549  26.335 -0.11 +0.01    -0.212 NA ATOM     43  N   UNL     1      36.414  44.748  26.386 -0.14 +0.06    -0.340 N  ATOM     44  C   UNL     1      37.257  42.784  26.806 -0.24 -0.02    +0.177 A  ATOM     45  C   UNL     1      36.071  43.507  26.850 -0.38 -0.01    +0.085 A  ATOM     46  N   UNL     1      37.361  41.494  27.185 -0.30 +0.05    -0.235 NA ATOM     47  C   UNL     1      34.881  42.943  27.298 -0.55 -0.01    +0.032 A  ATOM     48  C   UNL     1      36.200  40.952  27.616 -0.49 -0.04    +0.114 A  ATOM     49  C   UNL     1      34.975  41.607  27.690 -0.58 -0.01    +0.022 A  ATOM     50  H   UNL     1      35.806  45.551  26.302 -0.49 -0.08    +0.168 HD ENDBRANCH  40  41ENDBRANCH  29  40ENDBRANCH  21  24ENDBRANCH   4  20TORSDOF 10TERENDMDL