MODEL        6USER    Run = 6USERUSER    Estimated Free Energy of Binding    = -11.72 kcal/mol  [=(1)+(2)+(3)-(4)]USERUSER    (1) Final Intermolecular Energy     = -13.81 kcal/molUSER        vdW + Hbond + desolv Energy     = -13.65 kcal/molUSER        Electrostatic Energy            =  -0.16 kcal/molUSER        Moving Ligand-Fixed Receptor    = -13.81 kcal/molUSER        Moving Ligand-Moving Receptor   =  +0.00 kcal/molUSER    (2) Final Total Internal Energy     =  -2.42 kcal/molUSER    (3) Torsional Free Energy           =  +2.09 kcal/molUSER    (4) Unbound System's Energy         =  -2.42 kcal/molUSERUSERREMARK SMILES O=C(c1ccc(-c2nc3cccnc3nc2-c2ccc(CN3CCC(n4c(O)nc5ncccc54)CC3)cc2)cn1)N1CCOCC1REMARK SMILES IDX 17 1 18 2 19 3 20 4 38 5 39 6 16 7 7 8 8 9 9 10 15 11 10 12REMARK SMILES IDX 14 13 11 14 13 15 12 16 6 17 3 18 4 19 41 20 5 21 40 22 2 23REMARK SMILES IDX 42 24 43 25 47 26 44 27 46 28 45 29 1 30 21 31 22 32 23 33REMARK SMILES IDX 37 34 24 35 36 36 25 37 26 38 27 39 35 40 29 41 34 42 30 43REMARK SMILES IDX 33 44 31 45 32 46 28 47REMARK H PARENT 28 48USER                              x       y       z     vdW  Elec       q    TypeUSER                           _______ _______ _______ _____ _____    ______ ____ROOTATOM      1  C   UNL     1      36.862  44.769  18.405 -0.35 -0.00    +0.002 A  ATOM      2  C   UNL     1      38.210  44.458  18.637 -0.35 -0.00    +0.011 A  ATOM      3  C   UNL     1      38.639  43.991  19.884 -0.22 -0.00    +0.006 A  ATOM      4  C   UNL     1      37.725  43.782  20.924 -0.34 -0.00    -0.034 A  ATOM      5  C   UNL     1      36.377  44.084  20.697 -0.38 -0.00    +0.006 A  ATOM      6  C   UNL     1      35.950  44.564  19.453 -0.33 -0.00    +0.011 A  ENDROOTBRANCH   1   7ATOM      7  C   UNL     1      36.429  45.278  17.094 -0.27 -0.04    +0.099 A  ATOM      8  C   UNL     1      35.379  44.745  16.333 -0.25 -0.05    +0.099 A  ATOM      9  N   UNL     1      35.111  45.238  15.093 -0.19 +0.16    -0.242 NA ATOM     10  C   UNL     1      35.868  46.268  14.663 -0.33 -0.08    +0.108 A  ATOM     11  N   UNL     1      37.171  46.330  16.645 -0.23 +0.12    -0.224 NA ATOM     12  C   UNL     1      35.629  46.814  13.411 -0.50 -0.02    +0.034 A  ATOM     13  C   UNL     1      36.904  46.835  15.439 -0.27 -0.12    +0.178 A  ATOM     14  C   UNL     1      36.388  47.883  12.950 -0.60 -0.01    +0.022 A  ATOM     15  N   UNL     1      37.636  47.866  15.004 -0.30 +0.15    -0.235 NA ATOM     16  C   UNL     1      37.375  48.372  13.781 -0.45 -0.06    +0.114 A  BRANCH   8  17ATOM     17  C   UNL     1      34.458  43.677  16.755 -0.33 -0.01    +0.021 A  ATOM     18  C   UNL     1      32.606  41.771  17.597 -0.28 -0.04    +0.128 A  ATOM     19  C   UNL     1      33.958  41.441  17.561 -0.26 -0.02    +0.035 A  ATOM     20  N   UNL     1      32.156  42.995  17.238 -0.14 +0.08    -0.250 NA ATOM     21  C   UNL     1      34.884  42.402  17.149 -0.41 -0.01    +0.014 A  ATOM     22  C   UNL     1      33.083  43.905  16.837 -0.23 -0.05    +0.122 A  BRANCH  18  23ATOM     23  C   UNL     1      31.630  40.726  18.071 -0.25 -0.04    +0.272 C  ATOM     24  N   UNL     1      30.456  40.438  17.367 -0.16 +0.03    -0.333 N  ATOM     25  C   UNL     1      29.444  39.589  17.998 -0.28 +0.02    +0.148 C  ATOM     26  C   UNL     1      30.031  41.067  16.110 -0.36 -0.04    +0.148 C  ATOM     27  C   UNL     1      28.059  40.234  17.867 -0.19 +0.02    +0.181 C  ATOM     28  C   UNL     1      28.730  40.454  15.572 -0.27 -0.02    +0.181 C  ATOM     29  O   UNL     1      27.655  40.500  16.516 -0.14 -0.02    -0.378 OA ATOM     30  O   UNL     1      31.890  40.146  19.130 -0.58 -0.03    -0.267 OA ENDBRANCH  18  23ENDBRANCH   8  17ENDBRANCH   1   7BRANCH   4  31ATOM     31  C   UNL     1      38.171  43.312  22.297 -0.32 +0.01    +0.120 C  BRANCH  31  32ATOM     32  N   UNL     1      39.297  44.078  22.870 -0.09 -0.01    -0.299 NA ATOM     33  C   UNL     1      40.562  43.623  22.281 -0.28 +0.00    +0.087 C  ATOM     34  C   UNL     1      39.135  45.521  22.630 -0.31 +0.01    +0.087 C  ATOM     35  C   UNL     1      41.728  44.245  23.040 -0.21 +0.00    +0.041 C  ATOM     36  C   UNL     1      40.260  46.327  23.287 -0.27 +0.00    +0.041 C  ATOM     37  C   UNL     1      41.677  45.777  23.055 -0.17 +0.01    +0.095 C  BRANCH  37  38ATOM     38  N   UNL     1      42.437  46.358  21.950 -0.14 -0.06    -0.289 N  ATOM     39  C   UNL     1      43.711  46.850  21.938 -0.17 +0.12    +0.296 A  ATOM     40  C   UNL     1      41.956  46.507  20.663 -0.29 +0.01    +0.091 A  ATOM     41  N   UNL     1      44.098  47.279  20.768 -0.41 -0.10    -0.175 NA ATOM     42  C   UNL     1      40.739  46.225  20.035 -0.26 +0.00    +0.032 A  ATOM     43  C   UNL     1      43.017  47.075  19.961 -0.32 +0.05    +0.181 A  ATOM     44  C   UNL     1      40.678  46.542  18.680 -0.45 -0.00    +0.022 A  ATOM     45  N   UNL     1      42.964  47.382  18.648 -0.39 -0.02    -0.235 NA ATOM     46  C   UNL     1      41.785  47.100  18.054 -0.34 -0.01    +0.114 A  BRANCH  39  47ATOM     47  O   UNL     1      44.520  46.904  22.971 -0.09 -0.19    -0.480 OA ATOM     48  H   UNL     1      44.762  47.850  22.975 +0.09 +0.10    +0.296 HD ENDBRANCH  39  47ENDBRANCH  37  38ENDBRANCH  31  32ENDBRANCH   4  31TORSDOF 7TERENDMDL