MODEL        5USER    Run = 5USERUSER    Estimated Free Energy of Binding    =  -9.44 kcal/mol  [=(1)+(2)+(3)-(4)]USERUSER    (1) Final Intermolecular Energy     = -11.82 kcal/molUSER        vdW + Hbond + desolv Energy     = -11.45 kcal/molUSER        Electrostatic Energy            =  -0.38 kcal/molUSER        Moving Ligand-Fixed Receptor    = -11.82 kcal/molUSER        Moving Ligand-Moving Receptor   =  +0.00 kcal/molUSER    (2) Final Total Internal Energy     =  -1.02 kcal/molUSER    (3) Torsional Free Energy           =  +2.39 kcal/molUSER    (4) Unbound System's Energy         =  -1.02 kcal/molUSERUSERREMARK SMILES COCCNc1ncc2c(n1)nc([C@@H](C)c1ccc(F)c(F)n1)c(=O)n2CN1CCOCC1REMARK SMILES IDX 5 1 4 3 3 4 2 5 1 6 6 7 7 8 11 9 8 10 10 11 9 12 12 13 26 14REMARK SMILES IDX 13 15 24 16 25 17 27 18 28 19 29 20 33 21 30 22 32 23 31 24REMARK SMILES IDX 14 25 15 26 16 27 17 28 23 29 18 30 21 31 19 32 22 33 20 34REMARK H PARENT 5 2USER                              x       y       z     vdW  Elec       q    TypeUSER                           _______ _______ _______ _____ _____    ______ ____ROOTATOM      1  N   UNL     1      41.988  46.853  18.730 -0.29 -0.01    -0.352 N  ATOM      2  H   UNL     1      42.613  46.634  17.962 -0.44 -0.02    +0.163 HD ENDROOTBRANCH   1   3ATOM      3  C   UNL     1      42.288  46.223  20.006 -0.32 +0.03    +0.144 C  BRANCH   3   4ATOM      4  C   UNL     1      43.012  47.212  20.932 -0.30 +0.04    +0.181 C  BRANCH   4   5ATOM      5  O   UNL     1      44.406  46.925  21.067 -0.58 -0.35    -0.383 OA ATOM      6  C   UNL     1      44.952  47.349  22.307 -0.24 +0.12    +0.194 C  ENDBRANCH   4   5ENDBRANCH   3   4ENDBRANCH   1   3BRANCH   1   7ATOM      7  C   UNL     1      40.702  46.640  18.260 -0.33 -0.02    +0.224 A  ATOM      8  N   UNL     1      40.355  47.361  17.188 -0.36 +0.04    -0.219 NA ATOM      9  N   UNL     1      39.893  45.763  18.855 -0.31 +0.01    -0.191 NA ATOM     10  C   UNL     1      39.100  47.200  16.715 -0.33 -0.05    +0.145 A  ATOM     11  C   UNL     1      38.656  45.628  18.349 -0.28 -0.03    +0.182 A  ATOM     12  C   UNL     1      38.177  46.340  17.262 -0.29 -0.04    +0.109 A  ATOM     13  N   UNL     1      37.876  44.698  19.043 -0.23 +0.03    -0.225 NA ATOM     14  N   UNL     1      36.852  46.133  16.801 -0.18 +0.15    -0.289 N  ATOM     15  C   UNL     1      36.669  44.458  18.619 -0.27 -0.02    +0.117 A  ATOM     16  C   UNL     1      36.070  45.141  17.391 -0.14 -0.12    +0.274 A  ATOM     17  O   UNL     1      34.976  44.771  16.986 -0.16 +0.13    -0.267 OA BRANCH  14  18ATOM     18  C   UNL     1      36.269  46.889  15.710 -0.26 -0.20    +0.214 C  BRANCH  18  19ATOM     19  N   UNL     1      36.369  46.098  14.482 -0.20 +0.16    -0.281 NA ATOM     20  C   UNL     1      37.776  45.945  14.051 -0.40 -0.04    +0.115 C  ATOM     21  C   UNL     1      35.601  46.636  13.342 -0.51 -0.07    +0.115 C  ATOM     22  C   UNL     1      38.369  47.223  13.437 -0.33 -0.04    +0.175 C  ATOM     23  C   UNL     1      36.222  47.894  12.707 -0.55 -0.09    +0.175 C  ATOM     24  O   UNL     1      37.584  47.675  12.327 -0.94 +0.03    -0.379 OA ENDBRANCH  18  19ENDBRANCH  14  18BRANCH  15  25ATOM     25  C   UNL     1      35.764  43.501  19.381 -0.39 -0.01    +0.090 C  ATOM     26  C   UNL     1      35.394  42.273  18.545 -0.42 -0.00    +0.021 C  BRANCH  25  27ATOM     27  C   UNL     1      36.391  43.096  20.702 -0.41 -0.00    +0.053 A  ATOM     28  C   UNL     1      36.565  41.752  21.050 -0.51 +0.00    +0.028 A  ATOM     29  N   UNL     1      36.754  44.106  21.531 -0.26 -0.01    -0.222 NA ATOM     30  C   UNL     1      37.144  41.435  22.279 -0.50 +0.00    +0.046 A  ATOM     31  C   UNL     1      37.315  43.769  22.717 -0.22 +0.02    +0.249 A  ATOM     32  C   UNL     1      37.526  42.464  23.124 -0.30 +0.01    +0.178 A  ATOM     33  F   UNL     1      37.676  44.772  23.533 -0.11 -0.02    -0.182 F  ATOM     34  F   UNL     1      38.084  42.185  24.310 -0.07 -0.02    -0.202 F  ENDBRANCH  25  27ENDBRANCH  15  25ENDBRANCH   1   7TORSDOF 8TERENDMDL