REMARK SMILES COCCNc1ncc2c(n1)nc([C@@H](C)c1ccc(F)c(F)n1)c(=O)n2CN1CCOCC1
REMARK SMILES IDX 5 1 4 3 3 4 2 5 1 6 6 7 7 8 11 9 8 10 10 11 9 12 12 13 26 14
REMARK SMILES IDX 13 15 24 16 25 17 27 18 28 19 29 20 33 21 30 22 32 23 31 24
REMARK SMILES IDX 14 25 15 26 16 27 17 28 23 29 18 30 21 31 19 32 22 33 20 34
REMARK H PARENT 5 2
ROOT
ATOM      1  N   UNL     1       3.909   1.300   1.115  1.00  0.00    -0.352 N 
ATOM      2  H   UNL     1       4.194   2.255   0.927  1.00  0.00     0.163 HD
ENDROOT
BRANCH   1   3
ATOM      3  C   UNL     1       4.878   0.263   0.795  1.00  0.00     0.144 C 
BRANCH   3   4
ATOM      4  C   UNL     1       6.229   0.573   1.457  1.00  0.00     0.181 C 
BRANCH   4   5
ATOM      5  O   UNL     1       7.196  -0.460   1.252  1.00  0.00    -0.383 OA
ATOM      6  C   UNL     1       7.774  -0.443  -0.045  1.00  0.00     0.194 C 
ENDBRANCH   4   5
ENDBRANCH   3   4
ENDBRANCH   1   3
BRANCH   1   7
ATOM      7  C   UNL     1       2.665   1.140   0.527  1.00  0.00     0.224 A 
ATOM      8  N   UNL     1       2.005   2.273   0.261  1.00  0.00    -0.219 NA
ATOM      9  N   UNL     1       2.189  -0.075   0.252  1.00  0.00    -0.191 NA
ATOM     10  C   UNL     1       0.777   2.158  -0.289  1.00  0.00     0.145 A 
ATOM     11  C   UNL     1       0.967  -0.145  -0.301  1.00  0.00     0.182 A 
ATOM     12  C   UNL     1       0.181   0.957  -0.595  1.00  0.00     0.109 A 
ATOM     13  N   UNL     1       0.546  -1.456  -0.542  1.00  0.00    -0.225 NA
ATOM     14  N   UNL     1      -1.101   0.784  -1.176  1.00  0.00    -0.289 N 
ATOM     15  C   UNL     1      -0.609  -1.645  -1.110  1.00  0.00     0.117 A 
ATOM     16  C   UNL     1      -1.523  -0.496  -1.533  1.00  0.00     0.274 A 
ATOM     17  O   UNL     1      -2.535  -0.752  -2.171  1.00  0.00    -0.267 OA
BRANCH  14  18
ATOM     18  C   UNL     1      -1.998   1.889  -1.450  1.00  0.00     0.214 C 
BRANCH  18  19
ATOM     19  N   UNL     1      -3.000   1.958  -0.385  1.00  0.00    -0.281 NA
ATOM     20  C   UNL     1      -4.274   2.528  -0.878  1.00  0.00     0.115 C 
ATOM     21  C   UNL     1      -2.584   2.735   0.799  1.00  0.00     0.115 C 
ATOM     22  C   UNL     1      -4.215   4.046  -1.107  1.00  0.00     0.175 C 
ATOM     23  C   UNL     1      -2.566   4.258   0.574  1.00  0.00     0.175 C 
ATOM     24  O   UNL     1      -3.824   4.734   0.087  1.00  0.00    -0.379 OA
ENDBRANCH  18  19
ENDBRANCH  14  18
BRANCH  15  25
ATOM     25  C   UNL     1      -1.134  -3.056  -1.333  1.00  0.00     0.090 C 
ATOM     26  C   UNL     1      -0.007  -4.045  -1.644  1.00  0.00     0.021 C 
BRANCH  25  27
ATOM     27  C   UNL     1      -1.960  -3.521  -0.149  1.00  0.00     0.053 A 
ATOM     28  C   UNL     1      -1.435  -3.546   1.148  1.00  0.00     0.028 A 
ATOM     29  N   UNL     1      -3.225  -3.929  -0.420  1.00  0.00    -0.222 NA
ATOM     30  C   UNL     1      -2.237  -3.987   2.200  1.00  0.00     0.046 A 
ATOM     31  C   UNL     1      -3.982  -4.351   0.621  1.00  0.00     0.249 A 
ATOM     32  C   UNL     1      -3.533  -4.394   1.929  1.00  0.00     0.178 A 
ATOM     33  F   UNL     1      -5.234  -4.749   0.349  1.00  0.00    -0.182 F 
ATOM     34  F   UNL     1      -4.323  -4.822   2.923  1.00  0.00    -0.202 F 
ENDBRANCH  25  27
ENDBRANCH  15  25
ENDBRANCH   1   7
TORSDOF 8
