MODEL        6USER    Run = 6USERUSER    Estimated Free Energy of Binding    =  -7.31 kcal/mol  [=(1)+(2)+(3)-(4)]USERUSER    (1) Final Intermolecular Energy     = -11.78 kcal/molUSER        vdW + Hbond + desolv Energy     = -12.06 kcal/molUSER        Electrostatic Energy            =  -0.08 kcal/molUSER        Moving Ligand-Fixed Receptor    = -12.14 kcal/molUSER        Moving Ligand-Moving Receptor   =  +0.36 kcal/molUSER    (2) Final Total Internal Energy     =  -2.40 kcal/molUSER    (3) Torsional Free Energy           =  +4.47 kcal/molUSER    (4) Unbound System's Energy         =  -2.40 kcal/molUSERUSERREMARK SMILES COc1ccc(O)c(C(=O)c2ccc(CN[C@@H]3CCCNC[C@H]3NC(=O)c3ccncc3)cc2)c1FREMARK SMILES IDX 16 1 15 3 14 4 11 5 12 6 34 7 13 8 33 9 9 10 10 11 8 12 3 13REMARK SMILES IDX 4 14 35 15 5 16 6 17 36 18 2 19 1 20 7 21 17 23 18 24 23 26REMARK SMILES IDX 22 27 21 28 20 30 19 31 24 33 25 34 26 36 27 37 28 38 32 39REMARK SMILES IDX 29 40 31 41 30 42REMARK H PARENT 16 2 7 22 21 29 24 35REMARK Flexibility Score:   99.900USER                              x       y       z     vdW  Elec       q    TypeUSER                           _______ _______ _______ _____ _____    ______ ____ROOTATOM      1  N   UNL     1      37.662  45.389  24.085 -0.38 -0.05    -0.308 NA ATOM      2  H   UNL     1      37.377  46.168  24.683 +0.04 +0.03    +0.123 HD ENDROOTBRANCH   1   3ATOM      3  C   UNL     1      39.114  45.446  23.901 -0.23 +0.01    +0.117 C  BRANCH   3   4ATOM      4  C   UNL     1      39.539  45.480  22.453 -0.28 -0.00    -0.034 A  ATOM      5  C   UNL     1      40.353  45.545  19.762 -0.40 +0.00    +0.023 A  ATOM      6  C   UNL     1      41.245  45.921  20.772 -0.33 +0.00    +0.012 A  ATOM      7  C   UNL     1      39.049  45.163  20.095 -0.37 -0.00    +0.012 A  ATOM      8  C   UNL     1      40.840  45.879  22.108 -0.26 +0.00    +0.006 A  ATOM      9  C   UNL     1      38.647  45.125  21.433 -0.34 +0.00    +0.006 A  BRANCH   5  10ATOM     10  C   UNL     1      40.722  45.611  18.327 -0.39 -0.00    +0.199 C  ATOM     11  O   UNL     1      41.439  44.728  17.853 -0.23 -0.02    -0.288 OA BRANCH  10  12ATOM     12  C   UNL     1      40.222  46.657  17.408 -0.42 -0.01    +0.104 A  ATOM     13  C   UNL     1      40.469  48.791  16.255 -0.39 -0.04    +0.155 A  ATOM     14  C   UNL     1      39.217  48.613  15.663 -0.47 -0.03    +0.053 A  ATOM     15  C   UNL     1      40.964  47.803  17.120 -0.38 -0.02    +0.179 A  ATOM     16  C   UNL     1      38.481  47.452  15.917 -0.41 -0.02    +0.051 A  ATOM     17  C   UNL     1      38.989  46.476  16.770 -0.34 -0.04    +0.130 A  ATOM     18  F   UNL     1      42.186  47.967  17.652 -0.17 +0.00    -0.202 F  BRANCH  13  19ATOM     19  O   UNL     1      41.289  49.872  16.065 -0.76 +0.06    -0.494 OA ATOM     20  C   UNL     1      41.829  50.059  14.764 -0.49 -0.04    +0.278 C  ENDBRANCH  13  19BRANCH  17  21ATOM     21  O   UNL     1      38.221  45.353  16.936 -0.07 +0.13    -0.507 OA ATOM     22  H   UNL     1      38.824  44.611  17.172 +0.20 -0.05    +0.293 HD ENDBRANCH  17  21ENDBRANCH  10  12ENDBRANCH   5  10ENDBRANCH   3   4ENDBRANCH   1   3BRANCH   1  23ATOM     23  C   UNL     1      37.186  44.124  24.709 -0.34 +0.01    +0.077 C  BRANCH  23  24ATOM     24  C   UNL     1      38.009  43.909  25.986 -0.27 -0.00    +0.022 CG0ATOM     25  G   UNL     1      37.924  42.508  26.590 +0.00 +0.00    +0.000 G0 ENDBRANCH  23  24BRANCH  23  26ATOM     26  C   UNL     1      37.306  42.950  23.687 -0.36 +0.01    +0.113 C  BRANCH  26  27ATOM     27  C   UNL     1      36.661  41.649  24.225 -0.24 -0.00    +0.107 C  BRANCH  27  28ATOM     28  N   UNL     1      35.831  41.719  25.423 -0.19 +0.06    -0.315 NA ATOM     29  H   UNL     1      35.303  40.848  25.514 -0.26 -0.06    +0.122 HD BRANCH  28  30ATOM     30  C   UNL     1      36.496  41.987  26.689 -0.48 -0.02    +0.081 C  BRANCH  30  31ATOM     31  C   UNL     1      37.928  42.507  26.589 -0.36 -0.00    +0.017 CG0ATOM     32  G   UNL     1      38.011  43.908  25.985 +0.00 +0.00    +0.000 G0 ENDBRANCH  30  31ENDBRANCH  28  30ENDBRANCH  27  28ENDBRANCH  26  27BRANCH  26  33ATOM     33  N   UNL     1      36.659  43.334  22.417 -0.16 -0.04    -0.346 N  ATOM     34  C   UNL     1      36.456  42.418  21.407 -0.36 +0.01    +0.251 C  ATOM     35  H   UNL     1      36.289  44.270  22.346 +0.08 +0.03    +0.164 HD ATOM     36  O   UNL     1      36.875  41.268  21.448 -0.46 -0.00    -0.269 OA BRANCH  34  37ATOM     37  C   UNL     1      35.715  42.895  20.211 -0.43 -0.00    +0.042 A  ATOM     38  C   UNL     1      35.919  44.210  19.793 -0.37 -0.00    +0.034 A  ATOM     39  C   UNL     1      34.857  42.066  19.487 -0.29 -0.00    +0.034 A  ATOM     40  C   UNL     1      35.232  44.654  18.680 -0.29 -0.03    +0.112 A  ATOM     41  C   UNL     1      34.217  42.605  18.385 -0.31 -0.02    +0.112 A  ATOM     42  N   UNL     1      34.378  43.880  17.974 -0.12 +0.08    -0.265 NA ENDBRANCH  34  37ENDBRANCH  26  33ENDBRANCH  23  26ENDBRANCH   1  23TORSDOF 9TERENDMDL