MODEL        6USER    Run = 6USERUSER    Estimated Free Energy of Binding    =  -6.84 kcal/mol  [=(1)+(2)+(3)-(4)]USERUSER    (1) Final Intermolecular Energy     = -11.31 kcal/molUSER        vdW + Hbond + desolv Energy     = -12.00 kcal/molUSER        Electrostatic Energy            =  -0.14 kcal/molUSER        Moving Ligand-Fixed Receptor    = -12.14 kcal/molUSER        Moving Ligand-Moving Receptor   =  +0.83 kcal/molUSER    (2) Final Total Internal Energy     =  -2.99 kcal/molUSER    (3) Torsional Free Energy           =  +4.47 kcal/molUSER    (4) Unbound System's Energy         =  -2.99 kcal/molUSERUSERREMARK SMILES COc1ccc(O)c(C(=O)c2ccc(NC[C@@H]3CCCNC[C@@H]3NC(=O)c3ccncc3)cc2)c1FREMARK SMILES IDX 16 1 15 2 14 4 11 5 12 6 34 7 13 8 33 9 9 10 10 11 8 12 3 13REMARK SMILES IDX 4 14 35 15 5 16 6 17 36 18 2 19 1 20 7 21 17 23 18 24 23 26REMARK SMILES IDX 22 27 21 28 20 30 19 31 24 33 25 34 26 36 27 37 28 38 32 39REMARK SMILES IDX 29 40 31 41 30 42REMARK H PARENT 15 3 7 22 21 29 24 35REMARK Flexibility Score:   99.900USER                              x       y       z     vdW  Elec       q    TypeUSER                           _______ _______ _______ _____ _____    ______ ____ROOTATOM      1  C   UNL     1      37.763  43.487  23.887 -0.30 +0.01    +0.118 C  ENDROOTBRANCH   1   2ATOM      2  N   UNL     1      39.180  43.538  23.517 -0.05 -0.02    -0.385 N  ATOM      3  H   UNL     1      39.795  43.715  24.305 +0.07 +0.00    +0.160 HD BRANCH   2   4ATOM      4  C   UNL     1      39.624  44.101  22.323 -0.24 +0.00    +0.034 A  ATOM      5  C   UNL     1      40.464  45.401  19.953 -0.39 +0.00    +0.023 A  ATOM      6  C   UNL     1      41.294  44.472  20.583 -0.34 +0.00    +0.014 A  ATOM      7  C   UNL     1      39.237  45.727  20.534 -0.25 +0.00    +0.014 A  ATOM      8  C   UNL     1      40.878  43.837  21.760 -0.28 +0.00    +0.026 A  ATOM      9  C   UNL     1      38.832  45.082  21.710 -0.33 +0.00    +0.026 A  BRANCH   5  10ATOM     10  C   UNL     1      40.958  46.075  18.729 -0.40 -0.00    +0.199 C  ATOM     11  O   UNL     1      42.164  46.297  18.612 -0.34 -0.02    -0.288 OA BRANCH  10  12ATOM     12  C   UNL     1      40.066  46.551  17.648 -0.41 -0.01    +0.104 A  ATOM     13  C   UNL     1      38.027  46.378  16.320 -0.28 -0.06    +0.155 A  ATOM     14  C   UNL     1      38.408  47.509  15.595 -0.42 -0.03    +0.053 A  ATOM     15  C   UNL     1      38.868  45.904  17.339 -0.29 -0.04    +0.179 A  ATOM     16  C   UNL     1      39.620  48.144  15.874 -0.49 -0.02    +0.051 A  ATOM     17  C   UNL     1      40.447  47.659  16.882 -0.42 -0.02    +0.130 A  ATOM     18  F   UNL     1      38.512  44.791  18.000 -0.09 +0.03    -0.202 F  BRANCH  13  19ATOM     19  O   UNL     1      36.875  45.663  16.127 -0.04 +0.24    -0.494 OA ATOM     20  C   UNL     1      36.963  44.489  15.328 -0.22 -0.10    +0.278 C  ENDBRANCH  13  19BRANCH  17  21ATOM     21  O   UNL     1      41.632  48.320  17.068 -0.55 +0.00    -0.507 OA ATOM     22  H   UNL     1      42.340  47.645  17.182 -0.35 -0.06    +0.293 HD ENDBRANCH  17  21ENDBRANCH  10  12ENDBRANCH   5  10ENDBRANCH   2   4ENDBRANCH   1   2BRANCH   1  23ATOM     23  C   UNL     1      37.537  42.720  25.214 -0.37 -0.00    +0.032 C  BRANCH  23  24ATOM     24  C   UNL     1      36.124  42.101  25.234 -0.38 -0.00    +0.009 CG0ATOM     25  G   UNL     1      35.666  41.359  26.489 +0.00 +0.00    +0.000 G0 ENDBRANCH  23  24BRANCH  23  26ATOM     26  C   UNL     1      37.884  43.621  26.422 -0.25 -0.01    +0.101 C  BRANCH  26  27ATOM     27  C   UNL     1      37.338  43.034  27.745 -0.34 -0.02    +0.106 C  BRANCH  27  28ATOM     28  N   UNL     1      35.918  43.305  28.007 -0.20 +0.11    -0.315 NA ATOM     29  H   UNL     1      35.814  43.432  29.017 -0.50 -0.08    +0.122 HD BRANCH  28  30ATOM     30  C   UNL     1      35.042  42.206  27.600 -0.61 -0.03    +0.081 C  BRANCH  30  31ATOM     31  C   UNL     1      35.667  41.360  26.498 -0.60 -0.01    +0.016 CG0ATOM     32  G   UNL     1      36.125  42.101  25.241 +0.00 +0.00    +0.000 G0 ENDBRANCH  30  31ENDBRANCH  28  30ENDBRANCH  27  28ENDBRANCH  26  27BRANCH  26  33ATOM     33  N   UNL     1      37.414  44.995  26.266 -0.12 +0.02    -0.348 N  ATOM     34  C   UNL     1      38.133  45.970  25.619 -0.20 +0.01    +0.251 C  ATOM     35  H   UNL     1      36.566  45.214  26.776 -0.03 -0.03    +0.164 HD ATOM     36  O   UNL     1      39.235  45.768  25.123 -0.09 -0.01    -0.269 OA BRANCH  34  37ATOM     37  C   UNL     1      37.525  47.326  25.559 -0.33 +0.00    +0.042 A  ATOM     38  C   UNL     1      36.563  47.656  26.515 -0.28 -0.01    +0.034 A  ATOM     39  C   UNL     1      37.902  48.276  24.609 -0.33 +0.00    +0.034 A  ATOM     40  C   UNL     1      35.999  48.917  26.466 -0.36 -0.01    +0.112 A  ATOM     41  C   UNL     1      37.278  49.510  24.646 -0.25 +0.01    +0.112 A  ATOM     42  N   UNL     1      36.333  49.849  25.548 -0.31 +0.01    -0.265 NA ENDBRANCH  34  37ENDBRANCH  26  33ENDBRANCH  23  26ENDBRANCH   1  23TORSDOF 9TERENDMDL