MODEL        4USER    Run = 4USERUSER    Estimated Free Energy of Binding    = -12.37 kcal/mol  [=(1)+(2)+(3)-(4)]USERUSER    (1) Final Intermolecular Energy     = -14.16 kcal/molUSER        vdW + Hbond + desolv Energy     = -14.00 kcal/molUSER        Electrostatic Energy            =  -0.16 kcal/molUSER        Moving Ligand-Fixed Receptor    = -14.16 kcal/molUSER        Moving Ligand-Moving Receptor   =  +0.00 kcal/molUSER    (2) Final Total Internal Energy     =  -1.93 kcal/molUSER    (3) Torsional Free Energy           =  +1.79 kcal/molUSER    (4) Unbound System's Energy         =  -1.93 kcal/molUSERUSERREMARK SMILES Cn1ccc2ccc3c4[nH]c5c(CCCN[C@H]6CC[C@H](O)CC6)cccc5c4c4c(c3c21)C(=O)NC4=OREMARK SMILES IDX 15 1 14 2 13 3 12 4 2 5 3 6 32 7 4 8 31 9 5 10 30 11 8 12REMARK SMILES IDX 6 13 29 14 33 15 7 16 9 17 28 18 36 19 35 20 10 21 27 22REMARK SMILES IDX 11 23 26 24 25 25 24 26 1 27 34 28 37 29 16 32 17 34 23 35REMARK SMILES IDX 18 36 22 37 19 38 20 39 21 40REMARK H PARENT 35 30 10 31 16 33 21 41USER                              x       y       z     vdW  Elec       q    TypeUSER                           _______ _______ _______ _____ _____    ______ ____ROOTATOM      1  C   UNL     1      35.782  42.460  20.954 -0.46 +0.00    +0.081 C  ENDROOTBRANCH   1   2ATOM      2  C   UNL     1      37.118  41.811  21.327 -0.48 +0.00    +0.020 C  BRANCH   2   3ATOM      3  C   UNL     1      37.707  42.357  22.632 -0.45 +0.00    +0.039 C  BRANCH   3   4ATOM      4  C   UNL     1      39.015  43.090  22.459 -0.27 -0.00    -0.024 A  ATOM      5  N   UNL     1      39.623  47.820  15.215 -0.23 +0.10    -0.350 N  ATOM      6  C   UNL     1      38.662  48.266  14.338 -0.44 -0.04    +0.086 A  ATOM      7  C   UNL     1      39.033  47.241  16.333 -0.41 -0.02    +0.057 A  ATOM      8  C   UNL     1      37.452  47.790  14.766 -0.48 -0.02    +0.028 A  ATOM      9  C   UNL     1      39.534  46.764  17.601 -0.42 -0.00    +0.022 A  ATOM     10  C   UNL     1      37.682  47.080  15.972 -0.41 -0.00    +0.000 A  ATOM     11  C   UNL     1      40.769  47.033  18.213 -0.44 -0.01    +0.063 A  ATOM     12  C   UNL     1      38.647  45.915  18.334 -0.36 -0.00    +0.009 A  ATOM     13  C   UNL     1      36.824  46.321  16.785 -0.35 -0.01    +0.011 A  ATOM     14  C   UNL     1      41.184  46.396  19.388 -0.38 +0.00    +0.063 A  ATOM     15  C   UNL     1      41.794  48.057  17.946 -0.30 -0.01    +0.259 C  ATOM     16  C   UNL     1      37.321  45.702  17.928 -0.31 -0.00    +0.012 A  ATOM     17  C   UNL     1      39.105  45.274  19.528 -0.36 -0.00    +0.055 A  ATOM     18  C   UNL     1      40.381  45.478  20.069 -0.38 +0.00    +0.022 A  ATOM     19  C   UNL     1      42.498  46.924  19.749 -0.35 +0.05    +0.259 C  ATOM     20  N   UNL     1      42.837  47.806  18.777 -0.39 -0.01    -0.288 N  ATOM     21  N   UNL     1      38.470  44.386  20.369 -0.14 +0.00    -0.354 N  ATOM     22  C   UNL     1      40.491  44.662  21.246 -0.31 +0.00    +0.008 A  ATOM     23  C   UNL     1      39.279  43.989  21.406 -0.24 +0.00    +0.050 A  ATOM     24  C   UNL     1      41.506  44.427  22.197 -0.25 +0.00    +0.011 A  ATOM     25  C   UNL     1      41.279  43.542  23.256 -0.23 +0.00    +0.001 A  ATOM     26  C   UNL     1      40.057  42.890  23.382 -0.25 +0.00    +0.006 A  ATOM     27  C   UNL     1      41.013  47.762  14.812 -0.30 -0.01    +0.149 C  ATOM     28  O   UNL     1      41.700  49.020  17.213 -0.90 -0.03    -0.269 OA ATOM     29  O   UNL     1      43.148  46.684  20.745 -0.30 -0.10    -0.269 OA ATOM     30  H   UNL     1      43.606  48.449  18.888 -0.44 -0.01    +0.173 HD ATOM     31  H   UNL     1      37.531  44.044  20.234 +0.11 -0.01    +0.167 HD ENDBRANCH   3   4ENDBRANCH   2   3ENDBRANCH   1   2BRANCH   1  32ATOM     32  N   UNL     1      35.926  43.156  19.674 -0.18 +0.03    -0.314 NA ATOM     33  H   UNL     1      35.607  44.120  19.762 +0.08 -0.02    +0.122 HD BRANCH  32  34ATOM     34  C   UNL     1      35.207  42.489  18.579 -0.42 -0.01    +0.053 C  ATOM     35  C   UNL     1      33.674  42.642  18.682 -0.43 -0.00    +0.021 C  ATOM     36  C   UNL     1      35.758  43.068  17.260 -0.41 -0.01    +0.021 C  ATOM     37  C   UNL     1      33.151  43.827  17.873 -0.36 -0.01    +0.033 C  ATOM     38  C   UNL     1      34.763  42.886  16.121 -0.44 -0.01    +0.033 C  ATOM     39  C   UNL     1      33.472  43.667  16.382 -0.31 -0.05    +0.114 C  BRANCH  39  40ATOM     40  O   UNL     1      32.407  42.975  15.731 -0.17 +0.22    -0.393 OA ATOM     41  H   UNL     1      32.572  42.022  15.831 -0.45 -0.18    +0.210 HD ENDBRANCH  39  40ENDBRANCH  32  34ENDBRANCH   1  32TORSDOF 6TERENDMDL