MODEL        8USER    Run = 8USERUSER    Estimated Free Energy of Binding    = -11.90 kcal/mol  [=(1)+(2)+(3)-(4)]USERUSER    (1) Final Intermolecular Energy     = -13.69 kcal/molUSER        vdW + Hbond + desolv Energy     = -13.57 kcal/molUSER        Electrostatic Energy            =  -0.12 kcal/molUSER        Moving Ligand-Fixed Receptor    = -13.69 kcal/molUSER        Moving Ligand-Moving Receptor   =  +0.00 kcal/molUSER    (2) Final Total Internal Energy     =  -1.60 kcal/molUSER    (3) Torsional Free Energy           =  +1.79 kcal/molUSER    (4) Unbound System's Energy         =  -1.60 kcal/molUSERUSERREMARK SMILES Oc1nc2ccccc2n1C1CCN(Cc2ccc(-c3nc4ccccc4nc3-c3ccccc3)cc2)CC1REMARK SMILES IDX 11 1 12 2 13 3 14 4 38 5 39 6 10 7 2 8 3 9 4 10 9 11 5 12REMARK SMILES IDX 8 13 6 14 7 15 1 16 15 18 16 19 17 20 37 21 18 22 36 23REMARK SMILES IDX 19 24 20 25 21 26 29 27 22 28 28 29 23 30 27 31 24 32 26 33REMARK SMILES IDX 25 34 30 35 31 36 35 37 32 38 34 39 33 40REMARK H PARENT 1 17USER                              x       y       z     vdW  Elec       q    TypeUSER                           _______ _______ _______ _____ _____    ______ ____ROOTATOM      1  C   UNL     1      26.148  41.339  17.446 -0.24 -0.01    +0.095 C  ATOM      2  C   UNL     1      27.666  41.268  17.679 -0.22 -0.00    +0.041 C  ATOM      3  C   UNL     1      28.448  41.381  16.371 -0.29 -0.02    +0.087 C  ATOM      4  N   UNL     1      27.947  42.422  15.469 -0.07 +0.21    -0.299 NA ATOM      5  C   UNL     1      26.523  42.253  15.136 -0.26 -0.05    +0.087 C  ATOM      6  C   UNL     1      25.789  41.192  15.963 -0.35 -0.01    +0.041 C  ENDROOTBRANCH   1   7ATOM      7  N   UNL     1      25.407  40.427  18.303 -0.12 +0.03    -0.291 N  ATOM      8  C   UNL     1      25.005  39.159  17.986 -0.19 -0.04    +0.295 A  ATOM      9  N   UNL     1      24.362  38.562  18.951 -0.27 +0.14    -0.195 NA ATOM     10  C   UNL     1      24.348  39.483  19.970 -0.28 -0.04    +0.092 A  ATOM     11  C   UNL     1      24.998  40.663  19.600 -0.26 -0.01    +0.072 A  ATOM     12  C   UNL     1      23.795  39.375  21.256 -0.32 -0.02    +0.031 A  ATOM     13  C   UNL     1      25.128  41.755  20.470 -0.44 -0.01    +0.029 A  ATOM     14  C   UNL     1      23.913  40.456  22.137 -0.46 -0.00    +0.002 A  ATOM     15  C   UNL     1      24.569  41.624  21.748 -0.58 -0.00    +0.002 A  BRANCH   8  16ATOM     16  O   UNL     1      25.236  38.564  16.834 -0.73 -0.13    -0.480 OA ATOM     17  H   UNL     1      24.332  38.333  16.552 -0.24 -0.16    +0.296 HD ENDBRANCH   8  16ENDBRANCH   1   7BRANCH   4  18ATOM     18  C   UNL     1      28.240  43.795  15.916 -0.23 -0.06    +0.120 C  BRANCH  18  19ATOM     19  C   UNL     1      29.689  44.198  15.749 -0.28 +0.02    -0.034 A  ATOM     20  C   UNL     1      30.036  45.530  15.496 -0.40 -0.00    +0.006 A  ATOM     21  C   UNL     1      30.707  43.239  15.828 -0.33 -0.00    +0.006 A  ATOM     22  C   UNL     1      31.378  45.896  15.347 -0.45 -0.01    +0.011 A  ATOM     23  C   UNL     1      32.046  43.608  15.681 -0.35 -0.01    +0.011 A  ATOM     24  C   UNL     1      32.408  44.946  15.453 -0.37 -0.00    +0.002 A  BRANCH  24  25ATOM     25  C   UNL     1      33.815  45.355  15.312 -0.23 -0.08    +0.097 A  ATOM     26  N   UNL     1      34.052  46.143  14.223 -0.20 +0.24    -0.244 NA ATOM     27  C   UNL     1      34.855  44.980  16.177 -0.25 -0.06    +0.097 A  ATOM     28  C   UNL     1      35.323  46.514  13.991 -0.37 -0.07    +0.089 A  ATOM     29  N   UNL     1      36.144  45.352  15.928 -0.17 +0.13    -0.244 NA ATOM     30  C   UNL     1      35.614  47.307  12.887 -0.48 -0.02    +0.030 A  ATOM     31  C   UNL     1      36.374  46.115  14.846 -0.33 -0.05    +0.089 A  ATOM     32  C   UNL     1      36.920  47.713  12.607 -0.61 -0.00    +0.002 A  ATOM     33  C   UNL     1      37.671  46.524  14.559 -0.40 -0.01    +0.030 A  ATOM     34  C   UNL     1      37.953  47.319  13.448 -0.51 -0.00    +0.002 A  BRANCH  27  35ATOM     35  C   UNL     1      34.691  44.193  17.414 -0.30 -0.00    +0.002 A  ATOM     36  C   UNL     1      35.199  42.884  17.495 -0.38 -0.00    +0.010 A  ATOM     37  C   UNL     1      34.060  44.721  18.555 -0.39 -0.00    +0.010 A  ATOM     38  C   UNL     1      35.058  42.121  18.658 -0.41 -0.00    +0.001 A  ATOM     39  C   UNL     1      33.915  43.959  19.718 -0.40 -0.00    +0.001 A  ATOM     40  C   UNL     1      34.411  42.659  19.769 -0.40 +0.00    +0.000 A  ENDBRANCH  27  35ENDBRANCH  24  25ENDBRANCH  18  19ENDBRANCH   4  18TORSDOF 6TERENDMDL