MODEL        7USER    Run = 7USERUSER    Estimated Free Energy of Binding    =  -7.32 kcal/mol  [=(1)+(2)+(3)-(4)]USERUSER    (1) Final Intermolecular Energy     = -11.50 kcal/molUSER        vdW + Hbond + desolv Energy     = -11.94 kcal/molUSER        Electrostatic Energy            =  -0.30 kcal/molUSER        Moving Ligand-Fixed Receptor    = -12.24 kcal/molUSER        Moving Ligand-Moving Receptor   =  +0.74 kcal/molUSER    (2) Final Total Internal Energy     =  -2.98 kcal/molUSER    (3) Torsional Free Energy           =  +4.18 kcal/molUSER    (4) Unbound System's Energy         =  -2.98 kcal/molUSERUSERREMARK SMILES COc1ccc(O)c(C(=O)c2ccc(C(=O)N[C@@H]3CCCNC[C@H]3NC(=O)c3ccncc3)cc2)c1FREMARK SMILES IDX 15 1 16 2 17 3 14 5 11 6 12 7 35 8 13 9 34 10 9 11 10 12REMARK SMILES IDX 8 13 3 14 4 15 36 16 5 17 6 18 37 19 2 20 1 21 7 22 18 24REMARK SMILES IDX 19 25 24 27 23 28 22 29 21 31 20 32 25 34 26 35 27 37 28 38REMARK SMILES IDX 29 39 33 40 30 41 32 42 31 43REMARK H PARENT 17 4 7 23 22 30 25 36REMARK Flexibility Score:   88.900USER                              x       y       z     vdW  Elec       q    TypeUSER                           _______ _______ _______ _____ _____    ______ ____ROOTATOM      1  C   UNL     1      38.650  45.496  17.551 -0.29 -0.05    +0.251 C  ATOM      2  O   UNL     1      37.950  44.503  17.391 -0.23 +0.06    -0.269 OA ATOM      3  N   UNL     1      38.586  46.607  16.734 -0.18 +0.12    -0.347 N  ATOM      4  H   UNL     1      39.330  47.289  16.802 +0.11 -0.05    +0.164 HD ENDROOTBRANCH   1   5ATOM      5  C   UNL     1      39.687  45.522  18.620 -0.41 -0.00    +0.039 A  ATOM      6  C   UNL     1      41.623  45.431  20.646 -0.33 +0.00    +0.023 A  ATOM      7  C   UNL     1      40.502  44.598  20.711 -0.34 +0.00    +0.013 A  ATOM      8  C   UNL     1      41.775  46.312  19.569 -0.44 +0.00    +0.013 A  ATOM      9  C   UNL     1      39.531  44.652  19.707 -0.37 -0.00    +0.014 A  ATOM     10  C   UNL     1      40.803  46.366  18.562 -0.48 -0.00    +0.014 A  BRANCH   6  11ATOM     11  C   UNL     1      42.660  45.280  21.689 -0.19 +0.05    +0.199 C  ATOM     12  O   UNL     1      43.033  44.141  21.976 -0.19 -0.06    -0.288 OA BRANCH  11  13ATOM     13  C   UNL     1      43.316  46.416  22.379 -0.21 +0.03    +0.104 A  ATOM     14  C   UNL     1      43.231  48.543  23.573 -0.26 +0.04    +0.155 A  ATOM     15  C   UNL     1      44.624  48.536  23.687 -0.19 +0.01    +0.053 A  ATOM     16  C   UNL     1      42.589  47.477  22.920 -0.21 +0.03    +0.179 A  ATOM     17  C   UNL     1      45.361  47.466  23.174 -0.20 +0.02    +0.051 A  ATOM     18  C   UNL     1      44.709  46.411  22.540 -0.17 +0.08    +0.130 A  ATOM     19  F   UNL     1      41.247  47.481  22.852 -0.05 -0.02    -0.202 F  BRANCH  14  20ATOM     20  O   UNL     1      42.403  49.525  24.048 -0.68 -0.19    -0.494 OA ATOM     21  C   UNL     1      41.700  49.254  25.257 -0.24 +0.05    +0.278 C  ENDBRANCH  14  20BRANCH  18  22ATOM     22  O   UNL     1      45.510  45.391  22.096 -0.26 -0.60    -0.507 OA ATOM     23  H   UNL     1      45.103  44.545  22.397 +0.10 +0.18    +0.293 HD ENDBRANCH  18  22ENDBRANCH  11  13ENDBRANCH   6  11ENDBRANCH   1   5BRANCH   3  24ATOM     24  C   UNL     1      37.808  46.583  15.490 -0.38 -0.05    +0.106 C  BRANCH  24  25ATOM     25  C   UNL     1      38.393  47.591  14.492 -0.55 -0.01    +0.028 CG0ATOM     26  G   UNL     1      37.614  47.757  13.177 +0.00 +0.00    +0.000 G0 ENDBRANCH  24  25BRANCH  24  27ATOM     27  C   UNL     1      36.297  46.797  15.791 -0.34 -0.10    +0.118 C  BRANCH  27  28ATOM     28  C   UNL     1      35.381  46.824  14.545 -0.16 -0.11    +0.108 C  BRANCH  28  29ATOM     29  N   UNL     1      35.789  46.010  13.396 -0.25 +0.17    -0.315 NA ATOM     30  H   UNL     1      35.970  45.054  13.696 +0.08 -0.05    +0.122 HD BRANCH  29  31ATOM     31  C   UNL     1      36.922  46.507  12.623 -0.63 -0.03    +0.081 C  BRANCH  31  32ATOM     32  C   UNL     1      37.608  47.754  13.174 -0.56 -0.00    +0.017 CG0ATOM     33  G   UNL     1      38.395  47.593  14.485 +0.00 +0.00    +0.000 G0 ENDBRANCH  31  32ENDBRANCH  29  31ENDBRANCH  28  29ENDBRANCH  27  28BRANCH  27  34ATOM     34  N   UNL     1      35.830  45.804  16.767 -0.13 +0.23    -0.346 N  ATOM     35  C   UNL     1      34.960  46.140  17.777 -0.30 -0.19    +0.251 C  ATOM     36  H   UNL     1      35.937  44.832  16.519 +0.12 -0.08    +0.164 HD ATOM     37  O   UNL     1      34.584  47.285  17.997 -0.67 +0.33    -0.269 OA BRANCH  35  38ATOM     38  C   UNL     1      34.449  45.021  18.606 -0.38 -0.02    +0.042 A  ATOM     39  C   UNL     1      35.363  44.084  19.089 -0.35 -0.01    +0.034 A  ATOM     40  C   UNL     1      33.090  44.870  18.887 -0.34 -0.01    +0.034 A  ATOM     41  C   UNL     1      34.880  43.043  19.857 -0.35 -0.00    +0.112 A  ATOM     42  C   UNL     1      32.708  43.791  19.664 -0.37 -0.00    +0.112 A  ATOM     43  N   UNL     1      33.574  42.878  20.159 -0.64 -0.06    -0.265 NA ENDBRANCH  35  38ENDBRANCH  27  34ENDBRANCH  24  27ENDBRANCH   3  24TORSDOF 8TERENDMDL