MODEL        4USER    Run = 4USERUSER    Estimated Free Energy of Binding    = -12.24 kcal/mol  [=(1)+(2)+(3)-(4)]USERUSER    (1) Final Intermolecular Energy     = -14.63 kcal/molUSER        vdW + Hbond + desolv Energy     = -14.57 kcal/molUSER        Electrostatic Energy            =  -0.05 kcal/molUSER        Moving Ligand-Fixed Receptor    = -14.63 kcal/molUSER        Moving Ligand-Moving Receptor   =  +0.00 kcal/molUSER    (2) Final Total Internal Energy     =  -1.58 kcal/molUSER    (3) Torsional Free Energy           =  +2.39 kcal/molUSER    (4) Unbound System's Energy         =  -1.58 kcal/molUSERUSERREMARK SMILES N#Cc1cnc(-c2ccc(CNCc3ccc(-c4csnn4)cc3)cc2)c(-c2ccccc2)c1REMARK SMILES IDX 11 1 10 2 7 3 8 4 26 5 9 6 25 7 6 8 3 9 4 10 34 11 5 12REMARK SMILES IDX 27 13 2 14 1 15 28 16 29 17 33 18 30 19 32 20 31 21 12 22REMARK SMILES IDX 13 24 14 25 15 26 24 27 16 28 23 29 17 30 18 31 19 32 22 33REMARK SMILES IDX 20 34 21 35REMARK H PARENT 12 23USER                              x       y       z     vdW  Elec       q    TypeUSER                           _______ _______ _______ _____ _____    ______ ____ROOTATOM      1  C   UNL     1      41.752  45.634  18.479 -0.34 +0.01    +0.117 C  ENDROOTBRANCH   1   2ATOM      2  C   UNL     1      40.968  45.578  19.769 -0.39 -0.00    -0.034 A  ATOM      3  C   UNL     1      39.514  45.437  22.205 -0.31 +0.00    +0.001 A  ATOM      4  C   UNL     1      38.856  45.478  20.963 -0.29 +0.00    +0.011 A  ATOM      5  C   UNL     1      40.918  45.486  22.199 -0.24 +0.00    +0.011 A  ATOM      6  C   UNL     1      39.569  45.540  19.761 -0.38 -0.00    +0.006 A  ATOM      7  C   UNL     1      41.635  45.546  20.999 -0.33 +0.00    +0.006 A  BRANCH   3   8ATOM      8  C   UNL     1      38.737  45.369  23.459 -0.25 +0.01    +0.078 A  ATOM      9  C   UNL     1      37.466  45.453  25.914 -0.28 -0.00    +0.071 A  ATOM     10  C   UNL     1      38.434  46.367  25.547 -0.20 +0.01    +0.131 A  ATOM     11  C   UNL     1      37.120  44.464  24.995 -0.31 +0.00    +0.032 A  ATOM     12  N   UNL     1      39.064  46.349  24.351 -0.16 -0.02    -0.254 NA ATOM     13  C   UNL     1      37.749  44.400  23.735 -0.32 +0.00    +0.009 A  BRANCH   9  14ATOM     14  C   UNL     1      36.837  45.533  27.193 -0.33 -0.02    +0.101 C  ATOM     15  N   UNL     1      36.328  45.598  28.233 -0.30 +0.05    -0.192 NA ENDBRANCH   9  14BRANCH  13  16ATOM     16  C   UNL     1      37.318  43.365  22.780 -0.38 -0.00    -0.016 A  ATOM     17  C   UNL     1      36.547  43.702  21.654 -0.34 +0.00    +0.009 A  ATOM     18  C   UNL     1      37.677  42.019  22.957 -0.38 +0.00    +0.009 A  ATOM     19  C   UNL     1      36.140  42.725  20.742 -0.47 +0.00    +0.001 A  ATOM     20  C   UNL     1      37.269  41.041  22.047 -0.51 +0.00    +0.001 A  ATOM     21  C   UNL     1      36.501  41.394  20.940 -0.48 -0.00    +0.000 A  ENDBRANCH  13  16ENDBRANCH   3   8ENDBRANCH   1   2BRANCH   1  22ATOM     22  N   UNL     1      42.474  46.901  18.374 -0.24 -0.00    -0.309 NA ATOM     23  H   UNL     1      43.137  46.826  17.604 -0.51 -0.05    +0.123 HD BRANCH  22  24ATOM     24  C   UNL     1      41.577  48.029  18.119 -0.28 -0.00    +0.117 C  BRANCH  24  25ATOM     25  C   UNL     1      40.608  47.781  16.987 -0.51 +0.01    -0.034 A  ATOM     26  C   UNL     1      39.406  47.097  17.209 -0.43 -0.00    +0.006 A  ATOM     27  C   UNL     1      40.903  48.213  15.689 -0.53 -0.00    +0.006 A  ATOM     28  C   UNL     1      38.514  46.861  16.156 -0.41 -0.00    +0.011 A  ATOM     29  C   UNL     1      40.014  47.976  14.637 -0.49 -0.00    +0.011 A  ATOM     30  C   UNL     1      38.804  47.303  14.857 -0.48 -0.00    +0.003 A  BRANCH  30  31ATOM     31  C   UNL     1      37.895  47.073  13.738 -0.41 -0.04    +0.105 A  ATOM     32  C   UNL     1      37.338  45.848  13.413 -0.38 -0.04    +0.118 A  ATOM     33  N   UNL     1      37.499  48.120  12.907 -0.93 +0.02    -0.138 NA ATOM     34  S   UNL     1      36.337  46.083  12.040 -0.86 +0.01    -0.020 S  ATOM     35  N   UNL     1      36.673  47.718  11.958 -1.11 +0.03    -0.091 NA ENDBRANCH  30  31ENDBRANCH  24  25ENDBRANCH  22  24ENDBRANCH   1  22TORSDOF 8TERENDMDL