MODEL        4USER    Run = 4USERUSER    Estimated Free Energy of Binding    = -12.26 kcal/mol  [=(1)+(2)+(3)-(4)]USERUSER    (1) Final Intermolecular Energy     = -14.05 kcal/molUSER        vdW + Hbond + desolv Energy     = -13.63 kcal/molUSER        Electrostatic Energy            =  -0.43 kcal/molUSER        Moving Ligand-Fixed Receptor    = -14.05 kcal/molUSER        Moving Ligand-Moving Receptor   =  +0.00 kcal/molUSER    (2) Final Total Internal Energy     =  -1.94 kcal/molUSER    (3) Torsional Free Energy           =  +1.79 kcal/molUSER    (4) Unbound System's Energy         =  -1.94 kcal/molUSERUSERREMARK SMILES Oc1nc2ccccc2n1C1CCN(Cc2ccc(-c3cc4ccccc4nc3-c3ccccc3)cc2)CC1REMARK SMILES IDX 11 1 12 2 13 3 14 4 38 5 39 6 10 7 2 8 3 9 4 10 9 11 5 12REMARK SMILES IDX 8 13 6 14 7 15 1 16 15 18 16 19 17 20 37 21 18 22 36 23REMARK SMILES IDX 19 24 20 25 21 26 29 27 22 28 28 29 23 30 27 31 24 32 26 33REMARK SMILES IDX 25 34 30 35 31 36 35 37 32 38 34 39 33 40REMARK H PARENT 1 17USER                              x       y       z     vdW  Elec       q    TypeUSER                           _______ _______ _______ _____ _____    ______ ____ROOTATOM      1  C   UNL     1      26.367  41.411  16.258 -0.28 -0.02    +0.095 C  ATOM      2  C   UNL     1      27.888  41.519  16.441 -0.28 -0.01    +0.041 C  ATOM      3  C   UNL     1      28.346  42.731  17.246 -0.21 -0.02    +0.087 C  ATOM      4  N   UNL     1      27.697  43.987  16.861 -0.10 +0.06    -0.299 NA ATOM      5  C   UNL     1      26.242  43.880  16.998 -0.34 -0.01    +0.087 C  ATOM      6  C   UNL     1      25.613  42.748  16.190 -0.33 -0.01    +0.041 C  ENDROOTBRANCH   1   7ATOM      7  N   UNL     1      25.732  40.403  17.105 -0.17 -0.00    -0.291 N  ATOM      8  C   UNL     1      25.402  39.144  16.662 -0.11 +0.05    +0.295 A  ATOM      9  N   UNL     1      24.819  38.407  17.564 -0.77 +0.03    -0.195 NA ATOM     10  C   UNL     1      24.762  39.212  18.669 -0.31 -0.03    +0.092 A  ATOM     11  C   UNL     1      25.334  40.469  18.424 -0.22 -0.01    +0.072 A  ATOM     12  C   UNL     1      24.225  38.918  19.934 -0.30 -0.02    +0.031 A  ATOM     13  C   UNL     1      25.392  41.443  19.428 -0.31 -0.00    +0.029 A  ATOM     14  C   UNL     1      24.276  39.889  20.936 -0.39 -0.00    +0.002 A  ATOM     15  C   UNL     1      24.853  41.131  20.684 -0.44 -0.00    +0.002 A  BRANCH   8  16ATOM     16  O   UNL     1      25.633  38.684  15.449 -0.61 -0.21    -0.480 OA ATOM     17  H   UNL     1      24.752  38.345  15.207 -0.22 -0.15    +0.296 HD ENDBRANCH   8  16ENDBRANCH   1   7BRANCH   4  18ATOM     18  C   UNL     1      28.140  44.460  15.539 -0.19 -0.07    +0.120 C  BRANCH  18  19ATOM     19  C   UNL     1      29.628  44.722  15.467 -0.30 +0.02    -0.034 A  ATOM     20  C   UNL     1      30.129  46.029  15.435 -0.37 -0.00    +0.006 A  ATOM     21  C   UNL     1      30.533  43.651  15.429 -0.32 -0.00    +0.006 A  ATOM     22  C   UNL     1      31.506  46.260  15.366 -0.30 -0.01    +0.009 A  ATOM     23  C   UNL     1      31.908  43.885  15.351 -0.36 -0.00    +0.009 A  ATOM     24  C   UNL     1      32.414  45.192  15.313 -0.37 +0.01    -0.016 A  BRANCH  24  25ATOM     25  C   UNL     1      33.862  45.435  15.241 -0.29 -0.01    +0.009 A  ATOM     26  C   UNL     1      34.367  46.258  14.223 -0.28 -0.02    +0.021 A  ATOM     27  C   UNL     1      34.790  44.919  16.160 -0.26 -0.05    +0.079 A  ATOM     28  C   UNL     1      35.734  46.553  14.147 -0.45 -0.00    +0.001 A  ATOM     29  N   UNL     1      36.122  45.210  16.106 -0.16 +0.13    -0.247 NA ATOM     30  C   UNL     1      36.260  47.377  13.137 -0.61 -0.01    +0.010 A  ATOM     31  C   UNL     1      36.580  46.001  15.124 -0.33 -0.04    +0.071 A  ATOM     32  C   UNL     1      37.625  47.656  13.093 -0.50 -0.00    +0.001 A  ATOM     33  C   UNL     1      37.937  46.295  15.060 -0.38 -0.01    +0.029 A  ATOM     34  C   UNL     1      38.466  47.113  14.058 -0.47 -0.00    +0.002 A  BRANCH  27  35ATOM     35  C   UNL     1      34.435  44.016  17.272 -0.30 -0.00    +0.001 A  ATOM     36  C   UNL     1      33.922  44.535  18.474 -0.37 -0.00    +0.010 A  ATOM     37  C   UNL     1      34.614  42.625  17.180 -0.41 -0.00    +0.010 A  ATOM     38  C   UNL     1      33.578  43.692  19.535 -0.43 -0.00    +0.001 A  ATOM     39  C   UNL     1      34.271  41.781  18.240 -0.39 -0.00    +0.001 A  ATOM     40  C   UNL     1      33.749  42.316  19.416 -0.38 +0.00    +0.000 A  ENDBRANCH  27  35ENDBRANCH  24  25ENDBRANCH  18  19ENDBRANCH   4  18TORSDOF 6TERENDMDL