MODEL        5USER    Run = 5USERUSER    Estimated Free Energy of Binding    =  -7.37 kcal/mol  [=(1)+(2)+(3)-(4)]USERUSER    (1) Final Intermolecular Energy     = -11.85 kcal/molUSER        vdW + Hbond + desolv Energy     = -12.08 kcal/molUSER        Electrostatic Energy            =  -0.37 kcal/molUSER        Moving Ligand-Fixed Receptor    = -12.44 kcal/molUSER        Moving Ligand-Moving Receptor   =  +0.59 kcal/molUSER    (2) Final Total Internal Energy     =  -3.72 kcal/molUSER    (3) Torsional Free Energy           =  +4.47 kcal/molUSER    (4) Unbound System's Energy         =  -3.72 kcal/molUSERUSERREMARK SMILES COc1ccc(O)c(C(=O)c2ccc(C(=O)O[C@@H]3CCCNC[C@H]3NC(=O)c3ccncc3)cc2)c1FREMARK SMILES IDX 17 1 15 2 16 3 14 4 11 5 12 6 35 7 13 8 34 9 9 10 10 11 8 12REMARK SMILES IDX 3 13 4 14 36 15 5 16 6 17 37 18 2 19 1 20 7 21 18 23 24 25REMARK SMILES IDX 23 26 22 27 21 29 20 30 19 31 25 33 26 34 27 36 28 37 29 38REMARK SMILES IDX 33 39 30 40 32 41 31 42REMARK H PARENT 7 22 22 28 25 35REMARK Flexibility Score:   99.900USER                              x       y       z     vdW  Elec       q    TypeUSER                           _______ _______ _______ _____ _____    ______ ____ROOTATOM      1  O   UNL     1      37.994  45.517  19.401 -0.05 +0.04    -0.457 OA ENDROOTBRANCH   1   2ATOM      2  C   UNL     1      37.222  44.420  19.194 -0.18 -0.04    +0.338 C  ATOM      3  O   UNL     1      37.333  43.332  19.740 -0.22 +0.02    -0.246 OA BRANCH   2   4ATOM      4  C   UNL     1      36.155  44.740  18.213 -0.30 -0.02    +0.060 A  ATOM      5  C   UNL     1      34.175  45.300  16.303 -0.30 -0.02    +0.023 A  ATOM      6  C   UNL     1      34.220  46.022  17.503 -0.37 -0.01    +0.013 A  ATOM      7  C   UNL     1      35.129  44.301  16.063 -0.33 -0.01    +0.013 A  ATOM      8  C   UNL     1      35.207  45.743  18.455 -0.27 -0.01    +0.016 A  ATOM      9  C   UNL     1      36.121  44.028  17.008 -0.33 -0.01    +0.016 A  BRANCH   5  10ATOM     10  C   UNL     1      33.131  45.539  15.270 -0.18 -0.19    +0.199 C  ATOM     11  O   UNL     1      33.381  46.182  14.256 -0.30 +0.30    -0.288 OA BRANCH  10  12ATOM     12  C   UNL     1      31.772  45.012  15.444 -0.32 -0.06    +0.104 A  ATOM     13  C   UNL     1      30.325  43.107  15.842 -0.21 -0.08    +0.155 A  ATOM     14  C   UNL     1      29.211  43.948  15.726 -0.24 -0.03    +0.053 A  ATOM     15  C   UNL     1      31.606  43.652  15.692 -0.23 -0.09    +0.179 A  ATOM     16  C   UNL     1      29.379  45.319  15.492 -0.23 -0.02    +0.051 A  ATOM     17  C   UNL     1      30.660  45.850  15.360 -0.37 -0.05    +0.130 A  ATOM     18  F   UNL     1      32.682  42.862  15.834 -0.08 +0.11    -0.202 F  BRANCH  13  19ATOM     19  O   UNL     1      30.283  41.766  16.120 -0.11 +0.20    -0.494 OA ATOM     20  C   UNL     1      29.092  41.066  15.783 -0.27 -0.08    +0.278 C  ENDBRANCH  13  19BRANCH  17  21ATOM     21  O   UNL     1      30.831  47.189  15.155 -0.65 +0.17    -0.507 OA ATOM     22  H   UNL     1      31.776  47.395  15.071 -0.35 -0.44    +0.293 HD ENDBRANCH  17  21ENDBRANCH  10  12ENDBRANCH   5  10ENDBRANCH   2   4ENDBRANCH   1   2BRANCH   1  23ATOM     23  C   UNL     1      39.431  45.328  19.313 -0.33 -0.01    +0.200 CG0ATOM     24  G   UNL     1      40.001  45.559  20.712 +0.00 +0.00    +0.000 G0 BRANCH  23  25ATOM     25  C   UNL     1      39.953  46.309  18.244 -0.42 -0.01    +0.137 C  BRANCH  25  26ATOM     26  C   UNL     1      41.325  45.937  17.647 -0.36 -0.00    +0.109 C  BRANCH  26  27ATOM     27  N   UNL     1      42.467  46.304  18.486 -0.17 -0.03    -0.315 NA ATOM     28  H   UNL     1      42.988  47.041  18.010 -0.49 -0.01    +0.122 HD BRANCH  27  29ATOM     29  C   UNL     1      42.148  46.759  19.842 -0.44 +0.01    +0.081 C  BRANCH  29  30ATOM     30  C   UNL     1      41.519  45.752  20.814 -0.38 +0.00    +0.019 C  BRANCH  30  31ATOM     31  C   UNL     1      40.001  45.558  20.712 -0.36 +0.00    +0.049 CG0ATOM     32  G   UNL     1      39.440  45.322  19.310 +0.00 +0.00    +0.000 G0 ENDBRANCH  30  31ENDBRANCH  29  30ENDBRANCH  27  29ENDBRANCH  26  27ENDBRANCH  25  26BRANCH  25  33ATOM     33  N   UNL     1      38.953  46.433  17.175 -0.20 +0.09    -0.344 N  ATOM     34  C   UNL     1      39.209  47.103  16.004 -0.34 -0.08    +0.251 C  ATOM     35  H   UNL     1      38.200  45.759  17.197 +0.10 -0.05    +0.164 HD ATOM     36  O   UNL     1      40.256  47.690  15.767 -0.34 +0.05    -0.269 OA BRANCH  34  37ATOM     37  C   UNL     1      38.126  47.076  14.993 -0.41 -0.02    +0.042 A  ATOM     38  C   UNL     1      37.557  48.282  14.590 -0.51 -0.02    +0.034 A  ATOM     39  C   UNL     1      37.647  45.873  14.477 -0.38 -0.01    +0.034 A  ATOM     40  C   UNL     1      36.539  48.236  13.656 -0.39 -0.07    +0.112 A  ATOM     41  C   UNL     1      36.620  45.935  13.552 -0.40 -0.05    +0.112 A  ATOM     42  N   UNL     1      36.062  47.089  13.126 -0.38 +0.15    -0.265 NA ENDBRANCH  34  37ENDBRANCH  25  33ENDBRANCH  23  25ENDBRANCH   1  23TORSDOF 9TERENDMDL