MODEL        2USER    Run = 2USERUSER    Estimated Free Energy of Binding    =  -5.56 kcal/mol  [=(1)+(2)+(3)-(4)]USERUSER    (1) Final Intermolecular Energy     = -10.04 kcal/molUSER        vdW + Hbond + desolv Energy     = -10.19 kcal/molUSER        Electrostatic Energy            =  -0.04 kcal/molUSER        Moving Ligand-Fixed Receptor    = -10.24 kcal/molUSER        Moving Ligand-Moving Receptor   =  +0.20 kcal/molUSER    (2) Final Total Internal Energy     =  -4.12 kcal/molUSER    (3) Torsional Free Energy           =  +4.47 kcal/molUSER    (4) Unbound System's Energy         =  -4.12 kcal/molUSERUSERREMARK SMILES COc1ccc(O)c(C(=O)c2ccc(CO[C@@H]3CCCNC[C@@H]3NC(=O)c3ccncc3)cc2)c1FREMARK SMILES IDX 16 1 15 2 14 3 11 4 12 5 34 6 13 7 33 8 9 9 10 10 8 11 3 12REMARK SMILES IDX 4 13 35 14 5 15 6 16 36 17 2 18 1 19 7 20 17 22 18 23 23 25REMARK SMILES IDX 22 26 21 27 20 29 19 30 24 32 25 33 26 35 27 36 28 37 32 38REMARK SMILES IDX 29 39 31 40 30 41REMARK H PARENT 7 21 21 28 24 34REMARK Flexibility Score:   99.900USER                              x       y       z     vdW  Elec       q    TypeUSER                           _______ _______ _______ _____ _____    ______ ____ROOTATOM      1  O   UNL     1      37.284  46.083  25.478 -0.71 -0.02    -0.371 OA ENDROOTBRANCH   1   2ATOM      2  C   UNL     1      38.348  47.033  25.496 -0.24 +0.01    +0.196 C  BRANCH   2   3ATOM      3  C   UNL     1      39.210  46.799  24.283 -0.28 -0.00    -0.022 A  ATOM      4  C   UNL     1      40.809  46.328  22.021 -0.15 +0.00    +0.023 A  ATOM      5  C   UNL     1      39.468  45.932  22.024 -0.25 +0.00    +0.012 A  ATOM      6  C   UNL     1      41.340  46.988  23.134 -0.23 +0.00    +0.012 A  ATOM      7  C   UNL     1      38.678  46.161  23.152 -0.31 +0.00    +0.007 A  ATOM      8  C   UNL     1      40.547  47.217  24.261 -0.24 +0.00    +0.007 A  BRANCH   4   9ATOM      9  C   UNL     1      41.677  46.137  20.834 -0.27 +0.03    +0.199 C  ATOM     10  O   UNL     1      42.861  45.832  21.001 -0.19 -0.10    -0.288 OA BRANCH   9  11ATOM     11  C   UNL     1      41.215  46.356  19.448 -0.35 +0.00    +0.104 A  ATOM     12  C   UNL     1      39.772  45.808  17.560 -0.33 -0.02    +0.155 A  ATOM     13  C   UNL     1      40.367  46.828  16.812 -0.45 -0.01    +0.053 A  ATOM     14  C   UNL     1      40.210  45.577  18.872 -0.33 -0.01    +0.179 A  ATOM     15  C   UNL     1      41.397  47.592  17.367 -0.37 -0.01    +0.051 A  ATOM     16  C   UNL     1      41.826  47.347  18.669 -0.42 -0.00    +0.130 A  ATOM     17  F   UNL     1      39.656  44.571  19.567 -0.09 +0.00    -0.202 F  BRANCH  12  18ATOM     18  O   UNL     1      38.770  44.987  17.120 -0.06 +0.09    -0.494 OA ATOM     19  C   UNL     1      37.457  45.531  17.061 -0.23 -0.10    +0.278 C  ENDBRANCH  12  18BRANCH  16  20ATOM     20  O   UNL     1      42.860  48.119  19.124 -0.25 +0.00    -0.507 OA ATOM     21  H   UNL     1      43.157  47.748  19.987 -0.13 +0.02    +0.293 HD ENDBRANCH  16  20ENDBRANCH   9  11ENDBRANCH   4   9ENDBRANCH   2   3ENDBRANCH   1   2BRANCH   1  22ATOM     22  C   UNL     1      37.480  44.985  26.395 -0.28 -0.01    +0.142 C  BRANCH  22  23ATOM     23  C   UNL     1      38.993  44.957  26.650 -0.21 -0.00    +0.035 CG0ATOM     24  G   UNL     1      39.876  44.055  25.795 +0.00 +0.00    +0.000 G0 ENDBRANCH  22  23BRANCH  22  25ATOM     25  C   UNL     1      36.870  43.698  25.789 -0.32 -0.01    +0.125 C  BRANCH  25  26ATOM     26  C   UNL     1      37.474  42.433  26.449 -0.34 -0.01    +0.108 C  BRANCH  26  27ATOM     27  N   UNL     1      38.682  41.884  25.837 -0.09 -0.00    -0.315 NA ATOM     28  H   UNL     1      38.551  41.868  24.824 +0.06 +0.01    +0.122 HD BRANCH  27  29ATOM     29  C   UNL     1      39.910  42.585  26.185 -0.20 -0.00    +0.081 C  BRANCH  29  30ATOM     30  C   UNL     1      39.877  44.055  25.796 -0.16 +0.00    +0.018 CG0ATOM     31  G   UNL     1      38.991  44.956  26.650 +0.00 +0.00    +0.000 G0 ENDBRANCH  29  30ENDBRANCH  27  29ENDBRANCH  26  27ENDBRANCH  25  26BRANCH  25  32ATOM     32  N   UNL     1      36.954  43.710  24.321 -0.16 -0.03    -0.345 N  ATOM     33  C   UNL     1      36.711  42.572  23.580 -0.27 +0.02    +0.251 C  ATOM     34  H   UNL     1      36.674  44.584  23.892 +0.07 +0.04    +0.164 HD ATOM     35  O   UNL     1      36.519  41.468  24.072 -0.36 +0.02    -0.269 OA BRANCH  33  36ATOM     36  C   UNL     1      36.649  42.750  22.104 -0.40 +0.00    +0.042 A  ATOM     37  C   UNL     1      37.011  43.988  21.571 -0.38 +0.00    +0.034 A  ATOM     38  C   UNL     1      36.211  41.736  21.254 -0.52 +0.00    +0.034 A  ATOM     39  C   UNL     1      36.934  44.153  20.200 -0.31 -0.01    +0.112 A  ATOM     40  C   UNL     1      36.168  42.002  19.896 -0.27 -0.01    +0.112 A  ATOM     41  N   UNL     1      36.525  43.185  19.353 -0.16 +0.03    -0.265 NA ENDBRANCH  33  36ENDBRANCH  25  32ENDBRANCH  22  25ENDBRANCH   1  22TORSDOF 9TERENDMDL