MODEL        2USER    Run = 2USERUSER    Estimated Free Energy of Binding    =  -9.02 kcal/mol  [=(1)+(2)+(3)-(4)]USERUSER    (1) Final Intermolecular Energy     = -10.51 kcal/molUSER        vdW + Hbond + desolv Energy     = -10.11 kcal/molUSER        Electrostatic Energy            =  -0.39 kcal/molUSER        Moving Ligand-Fixed Receptor    = -10.51 kcal/molUSER        Moving Ligand-Moving Receptor   =  +0.00 kcal/molUSER    (2) Final Total Internal Energy     =  -1.23 kcal/molUSER    (3) Torsional Free Energy           =  +1.49 kcal/molUSER    (4) Unbound System's Energy         =  -1.23 kcal/molUSERUSERREMARK SMILES CCn1c(-c2ccncc2)nc2cc(C(=O)c3ccc(F)cc3O)ccc21REMARK SMILES IDX 15 1 16 2 14 3 3 4 4 5 27 6 11 7 26 8 12 9 25 10 13 11 2 12REMARK SMILES IDX 1 13 5 14 6 15 10 16 7 17 9 18 8 19 17 20 18 21 23 22 19 23REMARK SMILES IDX 22 24 20 25 21 26 24 27REMARK H PARENT 24 28USER                              x       y       z     vdW  Elec       q    TypeUSER                           _______ _______ _______ _____ _____    ______ ____ROOTATOM      1  C   UNL     1      43.046  47.057  19.955 -0.37 +0.05    +0.196 C  ATOM      2  O   UNL     1      44.116  47.372  19.433 -0.34 -0.16    -0.288 OA ENDROOTBRANCH   1   3ATOM      3  C   UNL     1      41.903  46.698  19.083 -0.49 +0.00    +0.025 A  ATOM      4  N   UNL     1      38.742  45.917  16.578 -0.17 +0.08    -0.324 N  ATOM      5  C   UNL     1      38.951  46.944  15.676 -0.35 -0.05    +0.141 A  ATOM      6  C   UNL     1      39.726  45.982  17.542 -0.40 -0.01    +0.068 A  ATOM      7  N   UNL     1      39.992  47.671  16.042 -0.33 +0.06    -0.228 NA ATOM      8  C   UNL     1      40.006  45.217  18.679 -0.43 -0.00    +0.029 A  ATOM      9  C   UNL     1      40.485  47.089  17.178 -0.45 -0.01    +0.090 A  ATOM     10  C   UNL     1      41.112  45.602  19.447 -0.43 +0.00    +0.014 A  ATOM     11  C   UNL     1      41.586  47.470  17.957 -0.47 -0.00    +0.042 A  BRANCH   4  12ATOM     12  C   UNL     1      37.646  44.966  16.570 -0.32 -0.04    +0.121 C  ATOM     13  C   UNL     1      36.320  45.609  16.939 -0.39 -0.01    +0.028 C  ENDBRANCH   4  12BRANCH   5  14ATOM     14  C   UNL     1      38.120  47.233  14.511 -0.46 -0.01    +0.020 A  ATOM     15  C   UNL     1      37.369  48.406  14.428 -0.52 -0.02    +0.032 A  ATOM     16  C   UNL     1      38.038  46.302  13.475 -0.36 -0.01    +0.032 A  ATOM     17  C   UNL     1      36.599  48.613  13.296 -0.27 -0.05    +0.111 A  ATOM     18  C   UNL     1      37.242  46.601  12.385 -0.49 -0.03    +0.111 A  ATOM     19  N   UNL     1      36.530  47.742  12.267 -0.87 +0.11    -0.265 NA ENDBRANCH   5  14ENDBRANCH   1   3BRANCH   1  20ATOM     20  C   UNL     1      42.960  47.039  21.440 -0.33 +0.02    +0.064 A  ATOM     21  C   UNL     1      41.731  46.902  22.103 -0.19 +0.00    +0.019 A  ATOM     22  C   UNL     1      44.131  47.203  22.200 -0.26 +0.05    +0.129 A  ATOM     23  C   UNL     1      41.687  46.887  23.500 -0.19 +0.00    +0.040 A  ATOM     24  C   UNL     1      44.088  47.181  23.592 -0.17 +0.02    +0.086 A  ATOM     25  C   UNL     1      42.865  47.018  24.229 -0.11 +0.02    +0.126 A  ATOM     26  F   UNL     1      42.813  47.002  25.568 +0.00 -0.02    -0.207 F  BRANCH  22  27ATOM     27  O   UNL     1      45.363  47.396  21.634 -0.68 -0.54    -0.507 OA ATOM     28  H   UNL     1      45.294  48.157  21.014 -0.30 +0.16    +0.293 HD ENDBRANCH  22  27ENDBRANCH   1  20TORSDOF 5TERENDMDL