MODEL        8USER    Run = 8USERUSER    Estimated Free Energy of Binding    = -11.93 kcal/mol  [=(1)+(2)+(3)-(4)]USERUSER    (1) Final Intermolecular Energy     = -13.72 kcal/molUSER        vdW + Hbond + desolv Energy     = -13.59 kcal/molUSER        Electrostatic Energy            =  -0.13 kcal/molUSER        Moving Ligand-Fixed Receptor    = -13.72 kcal/molUSER        Moving Ligand-Moving Receptor   =  +0.00 kcal/molUSER    (2) Final Total Internal Energy     =  -1.83 kcal/molUSER    (3) Torsional Free Energy           =  +1.79 kcal/molUSER    (4) Unbound System's Energy         =  -1.83 kcal/molUSERUSERREMARK SMILES Oc1nc2ccccc2n1C1CCN(Cc2ccc(-c3nc4ccccc4nc3-c3ccncc3)cc2)CC1REMARK SMILES IDX 11 1 12 2 13 3 14 4 38 5 39 6 10 7 2 8 3 9 4 10 9 11 5 12REMARK SMILES IDX 8 13 6 14 7 15 1 16 15 18 16 19 17 20 37 21 18 22 36 23REMARK SMILES IDX 19 24 20 25 21 26 29 27 22 28 28 29 23 30 27 31 24 32 26 33REMARK SMILES IDX 25 34 30 35 31 36 35 37 32 38 34 39 33 40REMARK H PARENT 1 17USER                              x       y       z     vdW  Elec       q    TypeUSER                           _______ _______ _______ _____ _____    ______ ____ROOTATOM      1  C   UNL     1      35.836  44.499  28.474 -0.42 -0.03    +0.095 C  ATOM      2  C   UNL     1      37.296  44.022  28.459 -0.29 -0.01    +0.041 C  ATOM      3  C   UNL     1      37.498  42.816  27.544 -0.36 -0.02    +0.087 C  ATOM      4  N   UNL     1      37.033  43.141  26.204 -0.14 +0.03    -0.299 NA ATOM      5  C   UNL     1      35.625  43.523  26.106 -0.27 -0.01    +0.087 C  ATOM      6  C   UNL     1      34.946  43.782  27.450 -0.57 -0.01    +0.041 C  ENDROOTBRANCH   1   7ATOM      7  N   UNL     1      35.667  45.948  28.445 -0.25 +0.08    -0.291 N  ATOM      8  C   UNL     1      34.578  46.603  28.959 -0.15 -0.07    +0.295 A  ATOM      9  N   UNL     1      34.616  47.895  28.786 -0.29 +0.03    -0.195 NA ATOM     10  C   UNL     1      35.794  48.110  28.117 -0.31 -0.02    +0.092 A  ATOM     11  C   UNL     1      36.480  46.912  27.887 -0.27 -0.02    +0.072 A  ATOM     12  C   UNL     1      36.341  49.322  27.671 -0.29 -0.00    +0.031 A  ATOM     13  C   UNL     1      37.713  46.887  27.221 -0.28 -0.00    +0.029 A  ATOM     14  C   UNL     1      37.569  49.308  27.002 -0.28 +0.00    +0.002 A  ATOM     15  C   UNL     1      38.242  48.107  26.784 -0.28 -0.00    +0.002 A  BRANCH   8  16ATOM     16  O   UNL     1      33.564  46.018  29.562 -0.58 +0.08    -0.480 OA ATOM     17  H   UNL     1      33.521  46.524  30.394 -0.24 -0.14    +0.296 HD ENDBRANCH   8  16ENDBRANCH   1   7BRANCH   4  18ATOM     18  C   UNL     1      37.500  42.244  25.143 -0.33 -0.00    +0.120 C  BRANCH  18  19ATOM     19  C   UNL     1      37.559  42.828  23.745 -0.35 -0.00    -0.034 A  ATOM     20  C   UNL     1      38.069  44.115  23.527 -0.31 +0.00    +0.006 A  ATOM     21  C   UNL     1      37.104  42.097  22.641 -0.49 +0.00    +0.006 A  ATOM     22  C   UNL     1      38.126  44.652  22.237 -0.35 +0.00    +0.011 A  ATOM     23  C   UNL     1      37.167  42.634  21.351 -0.41 +0.00    +0.011 A  ATOM     24  C   UNL     1      37.664  43.928  21.126 -0.38 +0.00    +0.002 A  BRANCH  24  25ATOM     25  C   UNL     1      37.727  44.516  19.774 -0.29 -0.01    +0.097 A  ATOM     26  N   UNL     1      38.913  45.127  19.495 -0.24 +0.01    -0.244 NA ATOM     27  C   UNL     1      36.699  44.460  18.819 -0.29 -0.02    +0.097 A  ATOM     28  C   UNL     1      39.074  45.643  18.265 -0.36 -0.01    +0.089 A  ATOM     29  N   UNL     1      36.876  44.972  17.567 -0.18 +0.08    -0.244 NA ATOM     30  C   UNL     1      40.272  46.267  17.935 -0.46 -0.00    +0.030 A  ATOM     31  C   UNL     1      38.053  45.560  17.294 -0.32 -0.02    +0.089 A  ATOM     32  C   UNL     1      40.482  46.812  16.668 -0.48 -0.00    +0.002 A  ATOM     33  C   UNL     1      38.273  46.105  16.034 -0.36 -0.01    +0.030 A  ATOM     34  C   UNL     1      39.478  46.729  15.712 -0.46 -0.00    +0.002 A  BRANCH  27  35ATOM     35  C   UNL     1      35.358  43.892  19.040 -0.37 -0.00    +0.005 A  ATOM     36  C   UNL     1      34.296  44.717  19.437 -0.30 -0.01    +0.030 A  ATOM     37  C   UNL     1      35.094  42.524  18.896 -0.39 -0.00    +0.030 A  ATOM     38  C   UNL     1      33.045  44.160  19.638 -0.36 -0.01    +0.111 A  ATOM     39  C   UNL     1      33.807  42.059  19.117 -0.31 -0.01    +0.111 A  ATOM     40  N   UNL     1      32.775  42.848  19.477 -0.53 -0.01    -0.265 NA ENDBRANCH  27  35ENDBRANCH  24  25ENDBRANCH  18  19ENDBRANCH   4  18TORSDOF 6TERENDMDL