MODEL        8USER    Run = 8USERUSER    Estimated Free Energy of Binding    =  -7.16 kcal/mol  [=(1)+(2)+(3)-(4)]USERUSER    (1) Final Intermolecular Energy     = -11.63 kcal/molUSER        vdW + Hbond + desolv Energy     = -11.71 kcal/molUSER        Electrostatic Energy            =  -0.17 kcal/molUSER        Moving Ligand-Fixed Receptor    = -11.88 kcal/molUSER        Moving Ligand-Moving Receptor   =  +0.24 kcal/molUSER    (2) Final Total Internal Energy     =  -2.80 kcal/molUSER    (3) Torsional Free Energy           =  +4.47 kcal/molUSER    (4) Unbound System's Energy         =  -2.80 kcal/molUSERUSERREMARK SMILES COc1ccc(O)c(C(=O)c2ccc(C(=O)O[C@@H]3CCCNC[C@H]3NC(=O)c3ccncc3)cc2)c1FREMARK SMILES IDX 17 1 15 2 16 3 14 4 11 5 12 6 35 7 13 8 34 9 9 10 10 11 8 12REMARK SMILES IDX 3 13 4 14 36 15 5 16 6 17 37 18 2 19 1 20 7 21 18 23 24 25REMARK SMILES IDX 23 26 22 27 21 29 20 30 19 31 25 33 26 34 27 36 28 37 29 38REMARK SMILES IDX 33 39 30 40 32 41 31 42REMARK H PARENT 7 22 22 28 25 35REMARK Flexibility Score:   99.900USER                              x       y       z     vdW  Elec       q    TypeUSER                           _______ _______ _______ _____ _____    ______ ____ROOTATOM      1  O   UNL     1      37.752  44.390  23.457 -0.13 -0.05    -0.457 OA ENDROOTBRANCH   1   2ATOM      2  C   UNL     1      38.604  43.496  22.895 -0.15 +0.02    +0.338 C  ATOM      3  O   UNL     1      38.761  42.328  23.221 -0.19 -0.03    -0.246 OA BRANCH   2   4ATOM      4  C   UNL     1      39.315  44.131  21.758 -0.26 +0.00    +0.060 A  ATOM      5  C   UNL     1      40.591  45.367  19.584 -0.41 +0.00    +0.023 A  ATOM      6  C   UNL     1      41.256  44.377  20.320 -0.35 +0.00    +0.013 A  ATOM      7  C   UNL     1      39.284  45.731  19.938 -0.31 -0.00    +0.013 A  ATOM      8  C   UNL     1      40.620  43.762  21.404 -0.23 +0.00    +0.016 A  ATOM      9  C   UNL     1      38.644  45.109  21.014 -0.32 +0.00    +0.016 A  BRANCH   5  10ATOM     10  C   UNL     1      41.232  46.072  18.440 -0.41 -0.00    +0.199 C  ATOM     11  O   UNL     1      42.445  46.250  18.408 -0.30 -0.02    -0.288 OA BRANCH  10  12ATOM     12  C   UNL     1      40.423  46.575  17.323 -0.42 -0.01    +0.104 A  ATOM     13  C   UNL     1      38.561  46.248  15.804 -0.29 -0.05    +0.155 A  ATOM     14  C   UNL     1      38.887  47.453  15.169 -0.45 -0.02    +0.053 A  ATOM     15  C   UNL     1      39.344  45.814  16.880 -0.26 -0.03    +0.179 A  ATOM     16  C   UNL     1      39.963  48.226  15.625 -0.52 -0.01    +0.051 A  ATOM     17  C   UNL     1      40.724  47.789  16.707 -0.43 -0.02    +0.130 A  ATOM     18  F   UNL     1      39.021  44.677  17.518 -0.07 +0.03    -0.202 F  BRANCH  13  19ATOM     19  O   UNL     1      37.504  45.440  15.479 -0.05 +0.19    -0.494 OA ATOM     20  C   UNL     1      37.182  45.307  14.100 -0.27 -0.10    +0.278 C  ENDBRANCH  13  19BRANCH  17  21ATOM     21  O   UNL     1      41.760  48.548  17.170 -0.63 -0.03    -0.507 OA ATOM     22  H   UNL     1      42.578  48.025  17.182 -0.32 -0.00    +0.293 HD ENDBRANCH  17  21ENDBRANCH  10  12ENDBRANCH   5  10ENDBRANCH   2   4ENDBRANCH   1   2BRANCH   1  23ATOM     23  C   UNL     1      37.562  44.293  24.893 -0.24 +0.01    +0.200 CG0ATOM     24  G   UNL     1      36.189  43.661  25.122 +0.00 +0.00    +0.000 G0 BRANCH  23  25ATOM     25  C   UNL     1      37.710  45.717  25.468 -0.28 +0.01    +0.137 C  BRANCH  25  26ATOM     26  C   UNL     1      37.814  45.780  27.005 -0.28 -0.01    +0.109 C  BRANCH  26  27ATOM     27  N   UNL     1      36.685  45.171  27.712 -0.22 +0.07    -0.315 NA ATOM     28  H   UNL     1      35.822  45.534  27.306 -0.42 -0.05    +0.122 HD BRANCH  27  29ATOM     29  C   UNL     1      36.630  43.707  27.692 -0.42 -0.02    +0.081 C  BRANCH  29  30ATOM     30  C   UNL     1      35.954  43.024  26.496 -0.50 -0.00    +0.019 C  BRANCH  30  31ATOM     31  C   UNL     1      36.188  43.661  25.121 -0.17 +0.00    +0.049 CG0ATOM     32  G   UNL     1      37.559  44.296  24.893 +0.00 +0.00    +0.000 G0 ENDBRANCH  30  31ENDBRANCH  29  30ENDBRANCH  27  29ENDBRANCH  26  27ENDBRANCH  25  26BRANCH  25  33ATOM     33  N   UNL     1      38.877  46.364  24.854 -0.09 -0.03    -0.344 N  ATOM     34  C   UNL     1      39.531  47.415  25.449 -0.17 +0.02    +0.251 C  ATOM     35  H   UNL     1      39.362  45.822  24.152 +0.08 +0.01    +0.164 HD ATOM     36  O   UNL     1      39.179  47.931  26.502 -0.15 -0.01    -0.269 OA BRANCH  34  37ATOM     37  C   UNL     1      40.735  47.910  24.743 -0.25 +0.00    +0.042 A  ATOM     38  C   UNL     1      41.094  47.315  23.536 -0.24 +0.00    +0.034 A  ATOM     39  C   UNL     1      41.526  48.923  25.283 -0.31 +0.01    +0.034 A  ATOM     40  C   UNL     1      42.228  47.781  22.898 -0.23 +0.02    +0.112 A  ATOM     41  C   UNL     1      42.645  49.312  24.569 -0.26 +0.03    +0.112 A  ATOM     42  N   UNL     1      43.008  48.769  23.386 -0.79 -0.08    -0.265 NA ENDBRANCH  34  37ENDBRANCH  25  33ENDBRANCH  23  25ENDBRANCH   1  23TORSDOF 9TERENDMDL