REMARK SMILES CCn1c(-c2ccncc2)nc2cc(C(=O)c3ccc(F)cc3O)ccc21
REMARK SMILES IDX 15 1 16 2 14 3 3 4 4 5 27 6 11 7 26 8 12 9 25 10 13 11 2 12
REMARK SMILES IDX 1 13 5 14 6 15 10 16 7 17 9 18 8 19 17 20 18 21 23 22 19 23
REMARK SMILES IDX 22 24 20 25 21 26 24 27
REMARK H PARENT 24 28
ROOT
ATOM      1  C   UNL     1       3.288  -1.507   0.517  1.00  0.00     0.196 C 
ATOM      2  O   UNL     1       3.682  -2.578   0.979  1.00  0.00    -0.288 OA
ENDROOT
BRANCH   1   3
ATOM      3  C   UNL     1       1.837  -1.319   0.284  1.00  0.00     0.025 A 
ATOM      4  N   UNL     1      -2.180  -0.618  -0.219  1.00  0.00    -0.324 N 
ATOM      5  C   UNL     1      -2.204   0.693   0.221  1.00  0.00     0.141 A 
ATOM      6  C   UNL     1      -0.881  -1.075  -0.141  1.00  0.00     0.068 A 
ATOM      7  N   UNL     1      -0.998   1.070   0.604  1.00  0.00    -0.228 NA
ATOM      8  C   UNL     1      -0.276  -2.300  -0.444  1.00  0.00     0.029 A 
ATOM      9  C   UNL     1      -0.173   0.002   0.379  1.00  0.00     0.090 A 
ATOM     10  C   UNL     1       1.102  -2.401  -0.216  1.00  0.00     0.014 A 
ATOM     11  C   UNL     1       1.205  -0.111   0.610  1.00  0.00     0.042 A 
BRANCH   4  12
ATOM     12  C   UNL     1      -3.320  -1.415  -0.632  1.00  0.00     0.121 C 
ATOM     13  C   UNL     1      -3.991  -2.114   0.538  1.00  0.00     0.028 C 
ENDBRANCH   4  12
BRANCH   5  14
ATOM     14  C   UNL     1      -3.393   1.537   0.308  1.00  0.00     0.020 A 
ATOM     15  C   UNL     1      -4.063   1.966  -0.838  1.00  0.00     0.032 A 
ATOM     16  C   UNL     1      -3.848   1.959   1.557  1.00  0.00     0.032 A 
ATOM     17  C   UNL     1      -5.181   2.768  -0.682  1.00  0.00     0.111 A 
ATOM     18  C   UNL     1      -4.975   2.759   1.609  1.00  0.00     0.111 A 
ATOM     19  N   UNL     1      -5.659   3.162   0.517  1.00  0.00    -0.265 NA
ENDBRANCH   5  14
ENDBRANCH   1   3
BRANCH   1  20
ATOM     20  C   UNL     1       4.292  -0.448   0.227  1.00  0.00     0.064 A 
ATOM     21  C   UNL     1       4.060   0.538  -0.744  1.00  0.00     0.019 A 
ATOM     22  C   UNL     1       5.519  -0.456   0.912  1.00  0.00     0.129 A 
ATOM     23  C   UNL     1       5.024   1.520  -0.988  1.00  0.00     0.040 A 
ATOM     24  C   UNL     1       6.477   0.527   0.673  1.00  0.00     0.086 A 
ATOM     25  C   UNL     1       6.218   1.509  -0.273  1.00  0.00     0.126 A 
ATOM     26  F   UNL     1       7.136   2.454  -0.514  1.00  0.00    -0.207 F 
BRANCH  22  27
ATOM     27  O   UNL     1       5.848  -1.412   1.836  1.00  0.00    -0.507 OA
ATOM     28  H   UNL     1       5.178  -2.131   1.777  1.00  0.00     0.293 HD
ENDBRANCH  22  27
ENDBRANCH   1  20
TORSDOF 5
