REMARK SMILES Cc1ccc(-c2nc(-c3ccc(CNC(=O)[C@H](C)NCC(F)F)cc3F)cnc2O)cc1C
REMARK SMILES IDX 14 1 15 2 16 3 13 5 12 6 9 7 10 8 25 9 11 10 24 11 26 12
REMARK SMILES IDX 8 13 6 14 7 15 29 16 28 17 27 18 5 19 2 20 3 21 32 22 4 23
REMARK SMILES IDX 31 24 1 25 33 26 30 27 17 29 18 30 19 31 20 33 21 34 22 35
REMARK SMILES IDX 23 36
REMARK H PARENT 14 4 30 28 19 32
ROOT
ATOM      1  N   UNL     1       4.398  -1.058  -0.249  1.00  0.00    -0.351 N 
ATOM      2  C   UNL     1       4.677   0.044  -1.027  1.00  0.00     0.237 C 
ATOM      3  O   UNL     1       4.236   0.196  -2.165  1.00  0.00    -0.273 OA
ATOM      4  H   UNL     1       4.713  -1.079   0.713  1.00  0.00     0.163 HD
ENDROOT
BRANCH   1   5
ATOM      5  C   UNL     1       3.477  -2.084  -0.680  1.00  0.00     0.151 C 
BRANCH   5   6
ATOM      6  C   UNL     1       2.136  -1.898  -0.021  1.00  0.00    -0.026 A 
ATOM      7  C   UNL     1      -0.383  -1.487   1.262  1.00  0.00     0.038 A 
ATOM      8  C   UNL     1      -0.011  -0.763   0.110  1.00  0.00     0.014 A 
ATOM      9  C   UNL     1       0.546  -2.425   1.735  1.00  0.00     0.132 A 
ATOM     10  C   UNL     1       1.225  -0.959  -0.519  1.00  0.00     0.006 A 
ATOM     11  C   UNL     1       1.784  -2.628   1.117  1.00  0.00     0.045 A 
ATOM     12  F   UNL     1       0.270  -3.179   2.811  1.00  0.00    -0.206 F 
BRANCH   7  13
ATOM     13  C   UNL     1      -1.690  -1.251   1.908  1.00  0.00     0.092 A 
ATOM     14  C   UNL     1      -3.877  -0.451   1.669  1.00  0.00     0.133 A 
ATOM     15  N   UNL     1      -2.657  -0.713   1.113  1.00  0.00    -0.240 NA
ATOM     16  C   UNL     1      -4.097  -0.750   3.014  1.00  0.00     0.238 A 
ATOM     17  N   UNL     1      -3.168  -1.278   3.833  1.00  0.00    -0.218 NA
ATOM     18  C   UNL     1      -1.966  -1.513   3.250  1.00  0.00     0.144 A 
BRANCH  14  19
ATOM     19  C   UNL     1      -4.875   0.141   0.755  1.00  0.00     0.006 A 
ATOM     20  C   UNL     1      -6.776   1.260  -1.048  1.00  0.00    -0.048 A 
ATOM     21  C   UNL     1      -6.725   1.667   0.291  1.00  0.00     0.004 A 
ATOM     22  C   UNL     1      -5.861   0.293  -1.501  1.00  0.00    -0.048 A 
ATOM     23  C   UNL     1      -5.789   1.119   1.174  1.00  0.00     0.011 A 
ATOM     24  C   UNL     1      -4.928  -0.249  -0.597  1.00  0.00     0.014 A 
ATOM     25  C   UNL     1      -7.803   1.864  -1.964  1.00  0.00     0.044 C 
ATOM     26  C   UNL     1      -5.869  -0.190  -2.926  1.00  0.00     0.044 C 
ENDBRANCH  14  19
BRANCH  16  27
ATOM     27  O   UNL     1      -5.282  -0.563   3.644  1.00  0.00    -0.492 OA
ATOM     28  H   UNL     1      -5.057  -0.913   4.525  1.00  0.00     0.295 HD
ENDBRANCH  16  27
ENDBRANCH   7  13
ENDBRANCH   5   6
ENDBRANCH   1   5
BRANCH   2  29
ATOM     29  C   UNL     1       5.584   1.091  -0.342  1.00  0.00     0.140 C 
ATOM     30  C   UNL     1       4.730   1.948   0.592  1.00  0.00     0.035 C 
BRANCH  29  31
ATOM     31  N   UNL     1       6.217   1.974  -1.348  1.00  0.00    -0.301 NA
ATOM     32  H   UNL     1       5.484   2.208  -2.026  1.00  0.00     0.123 HD
BRANCH  31  33
ATOM     33  C   UNL     1       7.307   1.307  -2.095  1.00  0.00     0.155 C 
BRANCH  33  34
ATOM     34  C   UNL     1       8.610   1.062  -1.319  1.00  0.00     0.356 C 
ATOM     35  F   UNL     1       8.445   0.054  -0.423  1.00  0.00    -0.209 F 
ATOM     36  F   UNL     1       9.573   0.643  -2.183  1.00  0.00    -0.209 F 
ENDBRANCH  33  34
ENDBRANCH  31  33
ENDBRANCH  29  31
ENDBRANCH   2  29
TORSDOF 9
