MODEL        2USER    Run = 2USERUSER    Estimated Free Energy of Binding    =  -9.05 kcal/mol  [=(1)+(2)+(3)-(4)]USERUSER    (1) Final Intermolecular Energy     = -11.73 kcal/molUSER        vdW + Hbond + desolv Energy     = -11.56 kcal/molUSER        Electrostatic Energy            =  -0.17 kcal/molUSER        Moving Ligand-Fixed Receptor    = -11.73 kcal/molUSER        Moving Ligand-Moving Receptor   =  +0.00 kcal/molUSER    (2) Final Total Internal Energy     =  -1.48 kcal/molUSER    (3) Torsional Free Energy           =  +2.68 kcal/molUSER    (4) Unbound System's Energy         =  -1.48 kcal/molUSERUSERREMARK SMILES Cc1ccc(-c2nc(-c3ccc(CNC(=O)[C@H](C)NCC(F)F)cc3F)cnc2O)cc1CREMARK SMILES IDX 14 1 15 2 16 3 13 5 12 6 9 7 10 8 25 9 11 10 24 11 26 12REMARK SMILES IDX 8 13 6 14 7 15 29 16 28 17 27 18 5 19 2 20 3 21 32 22 4 23REMARK SMILES IDX 31 24 1 25 33 26 30 27 17 29 18 30 19 31 20 33 21 34 22 35REMARK SMILES IDX 23 36REMARK H PARENT 14 4 30 28 19 32USER                              x       y       z     vdW  Elec       q    TypeUSER                           _______ _______ _______ _____ _____    ______ ____ROOTATOM      1  N   UNL     1      38.887  48.591  14.516 -0.23 +0.16    -0.351 N  ATOM      2  C   UNL     1      40.048  48.181  15.132 -0.43 -0.06    +0.237 C  ATOM      3  O   UNL     1      40.545  47.068  14.965 -0.34 +0.02    -0.273 OA ATOM      4  H   UNL     1      38.582  49.550  14.620 -0.39 -0.14    +0.163 HD ENDROOTBRANCH   1   5ATOM      5  C   UNL     1      38.210  47.770  13.539 -0.41 -0.04    +0.151 C  BRANCH   5   6ATOM      6  C   UNL     1      37.322  46.763  14.222 -0.43 +0.01    -0.026 A  ATOM      7  C   UNL     1      35.655  44.806  15.468 -0.32 -0.02    +0.038 A  ATOM      8  C   UNL     1      37.054  44.813  15.651 -0.35 -0.01    +0.014 A  ATOM      9  C   UNL     1      35.129  45.817  14.651 -0.28 -0.10    +0.132 A  ATOM     10  C   UNL     1      37.875  45.769  15.038 -0.38 -0.00    +0.006 A  ATOM     11  C   UNL     1      35.938  46.775  14.032 -0.43 -0.03    +0.045 A  ATOM     12  F   UNL     1      33.806  45.906  14.438 -0.09 +0.20    -0.206 F  BRANCH   7  13ATOM     13  C   UNL     1      34.818  43.779  16.120 -0.30 -0.04    +0.092 A  ATOM     14  C   UNL     1      32.654  42.982  16.520 -0.23 -0.06    +0.133 A  ATOM     15  N   UNL     1      33.475  43.892  15.917 -0.18 +0.12    -0.240 NA ATOM     16  C   UNL     1      33.208  41.971  17.306 -0.16 -0.10    +0.238 A  ATOM     17  N   UNL     1      34.527  41.828  17.534 -0.31 +0.09    -0.218 NA ATOM     18  C   UNL     1      35.311  42.756  16.929 -0.33 -0.05    +0.144 A  BRANCH  14  19ATOM     19  C   UNL     1      31.210  43.167  16.268 -0.32 -0.00    +0.006 A  ATOM     20  C   UNL     1      28.422  43.474  15.768 -0.21 +0.03    -0.048 A  ATOM     21  C   UNL     1      29.249  44.589  15.955 -0.31 -0.00    +0.004 A  ATOM     22  C   UNL     1      28.991  42.189  15.817 -0.24 +0.02    -0.048 A  ATOM     23  C   UNL     1      30.618  44.437  16.197 -0.31 -0.00    +0.011 A  ATOM     24  C   UNL     1      30.370  42.055  16.065 -0.34 -0.01    +0.014 A  ATOM     25  C   UNL     1      26.954  43.678  15.521 -0.27 -0.02    +0.044 C  ATOM     26  C   UNL     1      28.155  40.952  15.631 -0.38 -0.01    +0.044 C  ENDBRANCH  14  19BRANCH  16  27ATOM     27  O   UNL     1      32.481  41.001  17.911 -0.13 +0.12    -0.492 OA ATOM     28  H   UNL     1      32.139  40.537  17.126 -0.05 -0.14    +0.295 HD ENDBRANCH  16  27ENDBRANCH   7  13ENDBRANCH   5   6ENDBRANCH   1   5BRANCH   2  29ATOM     29  C   UNL     1      40.691  49.247  16.047 -0.55 -0.03    +0.140 C  ATOM     30  C   UNL     1      41.418  50.271  15.176 -0.73 -0.01    +0.035 C  BRANCH  29  31ATOM     31  N   UNL     1      41.672  48.626  16.966 -0.72 -0.02    -0.301 NA ATOM     32  H   UNL     1      42.273  48.031  16.386 -0.39 -0.00    +0.123 HD BRANCH  31  33ATOM     33  C   UNL     1      41.039  47.752  17.980 -0.39 -0.01    +0.155 C  BRANCH  33  34ATOM     34  C   UNL     1      41.978  46.803  18.739 -0.33 +0.01    +0.356 C  ATOM     35  F   UNL     1      43.159  47.418  19.005 -0.22 -0.03    -0.209 F  ATOM     36  F   UNL     1      41.430  46.502  19.946 -0.11 -0.02    -0.209 F  ENDBRANCH  33  34ENDBRANCH  31  33ENDBRANCH  29  31ENDBRANCH   2  29TORSDOF 9TERENDMDL