MODEL        7USER    Run = 7USERUSER    Estimated Free Energy of Binding    =  -9.42 kcal/mol  [=(1)+(2)+(3)-(4)]USERUSER    (1) Final Intermolecular Energy     = -10.91 kcal/molUSER        vdW + Hbond + desolv Energy     = -10.75 kcal/molUSER        Electrostatic Energy            =  -0.17 kcal/molUSER        Moving Ligand-Fixed Receptor    = -10.91 kcal/molUSER        Moving Ligand-Moving Receptor   =  +0.00 kcal/molUSER    (2) Final Total Internal Energy     =  -0.96 kcal/molUSER    (3) Torsional Free Energy           =  +1.49 kcal/molUSER    (4) Unbound System's Energy         =  -0.96 kcal/molUSERUSERREMARK SMILES CC(C)Cc1nnc2ccc(-c3ccnc(NC4COC4)c3)cn12REMARK SMILES IDX 5 1 6 2 7 3 8 4 9 5 10 6 11 7 23 8 24 9 4 10 2 11 1 12 3 13REMARK SMILES IDX 12 14 13 15 22 16 14 17 16 18 15 19 17 20 18 22 19 23 21 24REMARK SMILES IDX 20 25REMARK H PARENT 17 21USER                              x       y       z     vdW  Elec       q    TypeUSER                           _______ _______ _______ _____ _____    ______ ____ROOTATOM      1  C   UNL     1      38.490  47.219  14.202 -0.37 -0.04    +0.137 A  ATOM      2  N   UNL     1      38.331  47.916  13.092 -0.67 +0.02    -0.135 NA ATOM      3  N   UNL     1      37.020  47.805  12.691 -1.08 +0.04    -0.130 NA ATOM      4  C   UNL     1      36.396  47.055  13.568 -0.41 -0.09    +0.160 A  ATOM      5  C   UNL     1      35.051  46.611  13.671 -0.41 -0.04    +0.050 A  ATOM      6  C   UNL     1      34.684  45.842  14.714 -0.33 -0.01    +0.014 A  ATOM      7  C   UNL     1      35.632  45.446  15.758 -0.34 +0.00    -0.001 A  ATOM      8  C   UNL     1      36.909  45.869  15.648 -0.30 -0.05    +0.103 A  ATOM      9  N   UNL     1      37.280  46.661  14.560 -0.19 +0.14    -0.286 N  ENDROOTBRANCH   1  10ATOM     10  C   UNL     1      39.751  47.064  14.986 -0.48 -0.02    +0.081 C  BRANCH  10  11ATOM     11  C   UNL     1      40.035  48.244  15.934 -0.62 +0.00    -0.010 C  ATOM     12  C   UNL     1      40.693  47.734  17.219 -0.60 -0.00    +0.008 C  ATOM     13  C   UNL     1      40.936  49.296  15.279 -0.73 -0.00    +0.008 C  ENDBRANCH  10  11ENDBRANCH   1  10BRANCH   7  14ATOM     14  C   UNL     1      35.256  44.605  16.905 -0.30 +0.01    -0.012 A  ATOM     15  C   UNL     1      35.454  45.050  18.210 -0.34 -0.01    +0.029 A  ATOM     16  C   UNL     1      34.673  43.353  16.698 -0.34 -0.02    +0.055 A  ATOM     17  C   UNL     1      35.062  44.220  19.243 -0.31 -0.02    +0.114 A  ATOM     18  C   UNL     1      34.320  42.575  17.796 -0.31 -0.04    +0.126 A  ATOM     19  N   UNL     1      34.505  43.004  19.061 -0.23 +0.03    -0.240 NA BRANCH  18  20ATOM     20  N   UNL     1      33.709  41.323  17.570 -0.17 +0.16    -0.363 N  ATOM     21  H   UNL     1      34.311  40.593  17.950 -0.46 -0.07    +0.162 HD BRANCH  20  22ATOM     22  C   UNL     1      32.326  41.098  17.937 -0.37 -0.03    +0.132 C  ATOM     23  C   UNL     1      32.047  39.636  18.314 -0.38 -0.01    +0.187 C  ATOM     24  C   UNL     1      32.030  41.369  19.420 -0.20 +0.01    +0.187 C  ATOM     25  O   UNL     1      32.140  39.951  19.730 -0.81 -0.11    -0.377 OA ENDBRANCH  20  22ENDBRANCH  18  20ENDBRANCH   7  14TORSDOF 5TERENDMDL