MODEL        3USER    Run = 3USERUSER    Estimated Free Energy of Binding    =  -9.79 kcal/mol  [=(1)+(2)+(3)-(4)]USERUSER    (1) Final Intermolecular Energy     = -11.29 kcal/molUSER        vdW + Hbond + desolv Energy     = -11.11 kcal/molUSER        Electrostatic Energy            =  -0.17 kcal/molUSER        Moving Ligand-Fixed Receptor    = -11.29 kcal/molUSER        Moving Ligand-Moving Receptor   =  +0.00 kcal/molUSER    (2) Final Total Internal Energy     =  -1.36 kcal/molUSER    (3) Torsional Free Energy           =  +1.49 kcal/molUSER    (4) Unbound System's Energy         =  -1.36 kcal/molUSERUSERREMARK SMILES CC(C)Cc1nnc2ccc(-c3ccnc(NC4CCN(F)CC4)c3)cn12REMARK SMILES IDX 5 1 6 2 7 3 8 4 9 5 10 6 11 7 26 8 27 9 4 10 2 11 1 12 3 13REMARK SMILES IDX 12 14 13 15 25 16 14 17 16 18 15 19 17 20 18 22 19 23 24 24REMARK SMILES IDX 20 25 23 26 21 27 22 28REMARK H PARENT 17 21USER                              x       y       z     vdW  Elec       q    TypeUSER                           _______ _______ _______ _____ _____    ______ ____ROOTATOM      1  C   UNL     1      40.926  46.703  18.125 -0.41 -0.01    +0.137 A  ATOM      2  N   UNL     1      41.970  47.437  18.462 -0.49 +0.00    -0.135 NA ATOM      3  N   UNL     1      42.039  48.513  17.610 -0.62 -0.01    -0.130 NA ATOM      4  C   UNL     1      41.047  48.413  16.756 -0.40 -0.02    +0.160 A  ATOM      5  C   UNL     1      40.630  49.221  15.666 -0.60 -0.01    +0.050 A  ATOM      6  C   UNL     1      39.554  48.854  14.942 -0.48 -0.01    +0.014 A  ATOM      7  C   UNL     1      38.794  47.637  15.242 -0.50 +0.00    -0.001 A  ATOM      8  C   UNL     1      39.197  46.880  16.283 -0.38 -0.03    +0.103 A  ATOM      9  N   UNL     1      40.309  47.271  17.030 -0.30 +0.05    -0.286 N  ENDROOTBRANCH   1  10ATOM     10  C   UNL     1      40.475  45.437  18.778 -0.46 -0.00    +0.081 C  BRANCH  10  11ATOM     11  C   UNL     1      39.016  45.483  19.268 -0.45 +0.00    -0.010 C  ATOM     12  C   UNL     1      38.928  44.932  20.694 -0.41 +0.00    +0.008 C  ATOM     13  C   UNL     1      38.083  44.686  18.351 -0.43 -0.00    +0.008 C  ENDBRANCH  10  11ENDBRANCH   1  10BRANCH   7  14ATOM     14  C   UNL     1      37.614  47.220  14.468 -0.46 +0.01    -0.012 A  ATOM     15  C   UNL     1      37.585  47.354  13.084 -0.53 -0.01    +0.029 A  ATOM     16  C   UNL     1      36.493  46.702  15.121 -0.35 -0.04    +0.055 A  ATOM     17  C   UNL     1      36.438  46.962  12.422 -0.58 -0.05    +0.114 A  ATOM     18  C   UNL     1      35.380  46.314  14.379 -0.32 -0.10    +0.126 A  ATOM     19  N   UNL     1      35.351  46.452  13.040 -0.35 +0.16    -0.240 NA BRANCH  18  20ATOM     20  N   UNL     1      34.262  45.829  15.073 -0.11 +0.37    -0.367 N  ATOM     21  H   UNL     1      33.558  46.557  15.144 -0.26 -0.32    +0.162 HD BRANCH  20  22ATOM     22  C   UNL     1      34.522  45.162  16.356 -0.32 -0.06    +0.083 C  ATOM     23  C   UNL     1      34.341  46.125  17.543 -0.42 -0.04    +0.043 C  ATOM     24  C   UNL     1      33.563  43.976  16.479 -0.35 -0.02    +0.043 C  ATOM     25  C   UNL     1      33.620  45.479  18.726 -0.43 -0.06    +0.123 C  ATOM     26  C   UNL     1      33.778  43.238  17.801 -0.30 -0.04    +0.123 C  ATOM     27  N   UNL     1      34.058  44.105  18.951 -0.29 +0.03    -0.146 NA ATOM     28  F   UNL     1      35.402  44.074  19.271 -0.13 +0.02    -0.135 F  ENDBRANCH  20  22ENDBRANCH  18  20ENDBRANCH   7  14TORSDOF 5TERENDMDL