MODEL        5USER    Run = 5USERUSER    Estimated Free Energy of Binding    =  -9.20 kcal/mol  [=(1)+(2)+(3)-(4)]USERUSER    (1) Final Intermolecular Energy     = -10.69 kcal/molUSER        vdW + Hbond + desolv Energy     = -10.29 kcal/molUSER        Electrostatic Energy            =  -0.41 kcal/molUSER        Moving Ligand-Fixed Receptor    = -10.69 kcal/molUSER        Moving Ligand-Moving Receptor   =  +0.00 kcal/molUSER    (2) Final Total Internal Energy     =  -0.88 kcal/molUSER    (3) Torsional Free Energy           =  +1.49 kcal/molUSER    (4) Unbound System's Energy         =  -0.88 kcal/molUSERUSERREMARK SMILES CC(C)Cc1nnc2ccc(-c3ccnc(N[C@@H]4CCO4)c3)cn12REMARK SMILES IDX 5 1 6 2 7 3 8 4 9 5 10 6 11 7 23 8 24 9 4 10 2 11 1 12 3 13REMARK SMILES IDX 12 14 13 15 22 16 14 17 16 18 15 19 17 20 18 22 19 23 21 24REMARK SMILES IDX 20 25REMARK H PARENT 17 21USER                              x       y       z     vdW  Elec       q    TypeUSER                           _______ _______ _______ _____ _____    ______ ____ROOTATOM      1  C   UNL     1      37.531  46.322  13.798 -0.35 -0.05    +0.137 A  ATOM      2  N   UNL     1      37.254  47.231  12.881 -0.74 +0.04    -0.135 NA ATOM      3  N   UNL     1      38.027  48.342  13.119 -0.58 +0.02    -0.130 NA ATOM      4  C   UNL     1      38.754  48.103  14.187 -0.38 -0.06    +0.160 A  ATOM      5  C   UNL     1      39.714  48.876  14.889 -0.46 -0.02    +0.050 A  ATOM      6  C   UNL     1      40.303  48.364  15.988 -0.56 -0.00    +0.014 A  ATOM      7  C   UNL     1      39.981  47.026  16.489 -0.50 +0.00    -0.001 A  ATOM      8  C   UNL     1      39.070  46.296  15.809 -0.35 -0.03    +0.103 A  ATOM      9  N   UNL     1      38.471  46.834  14.669 -0.22 +0.10    -0.286 N  ENDROOTBRANCH   1  10ATOM     10  C   UNL     1      36.921  44.965  13.924 -0.43 -0.03    +0.081 C  BRANCH  10  11ATOM     11  C   UNL     1      35.964  44.831  15.124 -0.41 +0.00    -0.010 C  ATOM     12  C   UNL     1      35.665  46.213  15.709 -0.41 -0.01    +0.008 C  ATOM     13  C   UNL     1      36.544  43.926  16.215 -0.43 -0.00    +0.008 C  ENDBRANCH  10  11ENDBRANCH   1  10BRANCH   7  14ATOM     14  C   UNL     1      40.611  46.445  17.685 -0.49 +0.00    -0.012 A  ATOM     15  C   UNL     1      40.310  45.149  18.091 -0.40 -0.00    +0.029 A  ATOM     16  C   UNL     1      41.508  47.201  18.443 -0.48 -0.00    +0.055 A  ATOM     17  C   UNL     1      40.920  44.671  19.235 -0.33 +0.01    +0.114 A  ATOM     18  C   UNL     1      42.092  46.637  19.573 -0.38 +0.02    +0.128 A  ATOM     19  N   UNL     1      41.794  45.385  19.976 -0.22 -0.04    -0.239 NA BRANCH  18  20ATOM     20  N   UNL     1      42.965  47.425  20.347 -0.22 -0.06    -0.345 N  ATOM     21  H   UNL     1      43.605  47.931  19.745 -0.42 +0.01    +0.164 HD BRANCH  20  22ATOM     22  C   UNL     1      43.684  46.882  21.452 -0.27 +0.10    +0.215 C  ATOM     23  C   UNL     1      43.631  47.775  22.694 -0.33 +0.02    +0.083 C  ATOM     24  O   UNL     1      45.118  47.056  21.345 -0.70 -0.50    -0.358 OA ATOM     25  C   UNL     1      45.152  47.692  22.645 -0.23 +0.08    +0.167 C  ENDBRANCH  20  22ENDBRANCH  18  20ENDBRANCH   7  14TORSDOF 5TERENDMDL