MODEL        5USER    Run = 5USERUSER    Estimated Free Energy of Binding    =  -9.91 kcal/mol  [=(1)+(2)+(3)-(4)]USERUSER    (1) Final Intermolecular Energy     = -11.40 kcal/molUSER        vdW + Hbond + desolv Energy     = -11.25 kcal/molUSER        Electrostatic Energy            =  -0.15 kcal/molUSER        Moving Ligand-Fixed Receptor    = -11.40 kcal/molUSER        Moving Ligand-Moving Receptor   =  +0.00 kcal/molUSER    (2) Final Total Internal Energy     =  -1.09 kcal/molUSER    (3) Torsional Free Energy           =  +1.49 kcal/molUSER    (4) Unbound System's Energy         =  -1.09 kcal/molUSERUSERREMARK SMILES CC(C)Cc1nnc2ccc(-c3ccnc(N[C@@H]4CCNC[C@@H]4C)c3)cn12REMARK SMILES IDX 5 1 6 2 7 3 8 4 9 5 10 6 11 7 26 8 27 9 4 10 2 11 1 12 3 13REMARK SMILES IDX 12 14 13 15 25 16 14 17 16 18 15 19 17 20 18 22 19 23 23 24REMARK SMILES IDX 20 25 22 26 21 27 24 28REMARK H PARENT 17 21 21 29USER                              x       y       z     vdW  Elec       q    TypeUSER                           _______ _______ _______ _____ _____    ______ ____ROOTATOM      1  C   UNL     1      38.155  48.216  14.654 -0.42 -0.07    +0.137 A  ATOM      2  N   UNL     1      38.195  48.500  13.366 -0.51 +0.03    -0.135 NA ATOM      3  N   UNL     1      37.322  47.663  12.709 -1.06 +0.03    -0.130 NA ATOM      4  C   UNL     1      36.769  46.879  13.605 -0.40 -0.08    +0.160 A  ATOM      5  C   UNL     1      35.808  45.837  13.511 -0.40 -0.03    +0.050 A  ATOM      6  C   UNL     1      35.421  45.190  14.626 -0.27 -0.01    +0.014 A  ATOM      7  C   UNL     1      35.964  45.525  15.945 -0.35 +0.00    -0.001 A  ATOM      8  C   UNL     1      36.877  46.516  16.024 -0.31 -0.07    +0.103 A  ATOM      9  N   UNL     1      37.267  47.182  14.863 -0.21 +0.17    -0.286 N  ENDROOTBRANCH   1  10ATOM     10  C   UNL     1      38.941  48.895  15.724 -0.44 -0.05    +0.081 C  BRANCH  10  11ATOM     11  C   UNL     1      40.438  48.541  15.682 -0.66 +0.00    -0.010 C  ATOM     12  C   UNL     1      41.198  49.377  14.646 -0.73 -0.00    +0.008 C  ATOM     13  C   UNL     1      40.614  47.053  15.369 -0.52 -0.00    +0.008 C  ENDBRANCH  10  11ENDBRANCH   1  10BRANCH   7  14ATOM     14  C   UNL     1      35.568  44.830  17.177 -0.31 +0.01    -0.012 A  ATOM     15  C   UNL     1      35.797  45.410  18.420 -0.25 -0.01    +0.029 A  ATOM     16  C   UNL     1      34.953  43.578  17.113 -0.30 -0.02    +0.055 A  ATOM     17  C   UNL     1      35.409  44.700  19.540 -0.25 -0.02    +0.114 A  ATOM     18  C   UNL     1      34.586  42.930  18.290 -0.28 -0.03    +0.126 A  ATOM     19  N   UNL     1      34.817  43.486  19.496 -0.26 +0.03    -0.240 NA BRANCH  18  20ATOM     20  N   UNL     1      33.983  41.663  18.178 -0.17 +0.09    -0.367 N  ATOM     21  H   UNL     1      34.720  41.015  17.910 -0.42 -0.07    +0.162 HD BRANCH  20  22ATOM     22  C   UNL     1      32.824  41.568  17.277 -0.17 -0.04    +0.086 C  ATOM     23  C   UNL     1      31.986  42.851  17.298 -0.34 -0.01    +0.040 C  ATOM     24  C   UNL     1      31.914  40.355  17.635 -0.43 -0.01    +0.022 C  ATOM     25  C   UNL     1      30.890  42.775  16.229 -0.33 -0.04    +0.083 C  ATOM     26  C   UNL     1      30.451  40.613  17.210 -0.36 -0.01    +0.086 C  ATOM     27  N   UNL     1      30.354  41.426  16.001 -0.19 +0.13    -0.316 NA ATOM     28  C   UNL     1      31.919  39.951  19.116 -0.40 +0.00    +0.011 C  ATOM     29  H   UNL     1      30.877  40.979  15.246 -0.52 -0.08    +0.122 HD ENDBRANCH  20  22ENDBRANCH  18  20ENDBRANCH   7  14TORSDOF 5TERENDMDL