REMARK SMILES CC(C)Cc1nnc2ccc(-c3ccnc(N[C@H]4CCN[C@H](O)C4)c3)cn12
REMARK SMILES IDX 12 1 13 2 14 3 15 4 16 5 25 6 11 7 5 8 6 9 27 10 7 11 26 12
REMARK SMILES IDX 8 13 9 14 10 15 4 16 2 17 1 18 3 19 17 20 18 22 19 23 24 24
REMARK SMILES IDX 20 25 22 26 21 27 23 29
REMARK H PARENT 17 21 21 28 23 30
ROOT
ATOM      1  C   UNL     1      -0.099   1.195  -0.157  1.00  0.00    -0.012 A 
ATOM      2  C   UNL     1      -0.279   1.707  -1.438  1.00  0.00     0.029 A 
ATOM      3  C   UNL     1      -1.438   1.370  -2.110  1.00  0.00     0.114 A 
ATOM      4  N   UNL     1      -2.400   0.572  -1.599  1.00  0.00    -0.240 NA
ATOM      5  C   UNL     1      -2.223   0.070  -0.361  1.00  0.00     0.126 A 
ATOM      6  C   UNL     1      -1.089   0.374   0.388  1.00  0.00     0.055 A 
ENDROOT
BRANCH   1   7
ATOM      7  C   UNL     1       1.101   1.528   0.628  1.00  0.00    -0.001 A 
ATOM      8  C   UNL     1       4.756   0.952   0.835  1.00  0.00     0.137 A 
ATOM      9  N   UNL     1       5.479   1.524   1.780  1.00  0.00    -0.135 NA
ATOM     10  N   UNL     1       3.437   1.326   0.989  1.00  0.00    -0.286 N 
ATOM     11  N   UNL     1       4.642   2.260   2.585  1.00  0.00    -0.130 NA
ATOM     12  C   UNL     1       2.294   1.022   0.249  1.00  0.00     0.103 A 
ATOM     13  C   UNL     1       3.423   2.140   2.111  1.00  0.00     0.160 A 
ATOM     14  C   UNL     1       2.174   2.673   2.524  1.00  0.00     0.050 A 
ATOM     15  C   UNL     1       1.064   2.382   1.819  1.00  0.00     0.014 A 
BRANCH   8  16
ATOM     16  C   UNL     1       5.254   0.067  -0.261  1.00  0.00     0.081 C 
BRANCH  16  17
ATOM     17  C   UNL     1       6.596  -0.616   0.062  1.00  0.00    -0.010 C 
ATOM     18  C   UNL     1       6.446  -1.670   1.164  1.00  0.00     0.008 C 
ATOM     19  C   UNL     1       7.164  -1.271  -1.199  1.00  0.00     0.008 C 
ENDBRANCH  16  17
ENDBRANCH   8  16
ENDBRANCH   1   7
BRANCH   5  20
ATOM     20  N   UNL     1      -3.208  -0.737   0.236  1.00  0.00    -0.367 N 
ATOM     21  H   UNL     1      -2.751  -1.574   0.591  1.00  0.00     0.162 HD
BRANCH  20  22
ATOM     22  C   UNL     1      -4.378  -1.065  -0.600  1.00  0.00     0.085 C 
ATOM     23  C   UNL     1      -5.053  -2.327  -0.031  1.00  0.00     0.040 C 
ATOM     24  C   UNL     1      -5.360   0.112  -0.669  1.00  0.00     0.073 C 
ATOM     25  C   UNL     1      -6.554  -2.306  -0.289  1.00  0.00     0.085 C 
ATOM     26  C   UNL     1      -6.424   0.026   0.421  1.00  0.00     0.184 C 
ATOM     27  N   UNL     1      -7.192  -1.201   0.413  1.00  0.00    -0.292 NA
ATOM     28  H   UNL     1      -8.095  -0.982  -0.006  1.00  0.00     0.125 HD
BRANCH  26  29
ATOM     29  O   UNL     1      -7.349   1.084   0.248  1.00  0.00    -0.379 OA
ATOM     30  H   UNL     1      -6.855   1.905   0.407  1.00  0.00     0.212 HD
ENDBRANCH  26  29
ENDBRANCH  20  22
ENDBRANCH   5  20
TORSDOF 6
