MODEL        2USER    Run = 2USERUSER    Estimated Free Energy of Binding    = -10.77 kcal/mol  [=(1)+(2)+(3)-(4)]USERUSER    (1) Final Intermolecular Energy     = -12.86 kcal/molUSER        vdW + Hbond + desolv Energy     = -12.72 kcal/molUSER        Electrostatic Energy            =  -0.14 kcal/molUSER        Moving Ligand-Fixed Receptor    = -12.86 kcal/molUSER        Moving Ligand-Moving Receptor   =  +0.00 kcal/molUSER    (2) Final Total Internal Energy     =  -1.90 kcal/molUSER    (3) Torsional Free Energy           =  +2.09 kcal/molUSER    (4) Unbound System's Energy         =  -1.90 kcal/molUSERUSERREMARK SMILES CC(C)Cc1nnc2ccc(-c3ccnc(NC4CCN(CC5CC5)CC4)c3)cn12REMARK SMILES IDX 12 1 13 2 14 3 15 4 16 5 28 6 11 7 5 8 6 9 30 10 7 11 29 12REMARK SMILES IDX 8 13 9 14 10 15 4 16 2 17 1 18 3 19 17 20 18 22 19 23 27 24REMARK SMILES IDX 20 25 26 26 21 27 22 28 23 29 24 30 25 31REMARK H PARENT 17 21USER                              x       y       z     vdW  Elec       q    TypeUSER                           _______ _______ _______ _____ _____    ______ ____ROOTATOM      1  C   UNL     1      37.348  47.139  14.460 -0.45 +0.01    -0.012 A  ATOM      2  C   UNL     1      37.337  47.208  13.072 -0.56 -0.01    +0.029 A  ATOM      3  C   UNL     1      36.205  46.764  12.417 -0.57 -0.06    +0.114 A  ATOM      4  N   UNL     1      35.112  46.283  13.049 -0.29 +0.16    -0.240 NA ATOM      5  C   UNL     1      35.121  46.243  14.396 -0.31 -0.11    +0.126 A  ATOM      6  C   UNL     1      36.224  46.648  15.130 -0.35 -0.04    +0.055 A  ENDROOTBRANCH   1   7ATOM      7  C   UNL     1      38.525  47.585  15.216 -0.49 +0.00    -0.001 A  ATOM      8  C   UNL     1      40.808  46.607  17.962 -0.41 -0.01    +0.137 A  ATOM      9  N   UNL     1      41.810  47.387  18.324 -0.48 +0.00    -0.135 NA ATOM     10  N   UNL     1      40.119  47.203  16.927 -0.29 +0.06    -0.286 N  ATOM     11  N   UNL     1      41.797  48.508  17.526 -0.78 -0.01    -0.130 NA ATOM     12  C   UNL     1      39.001  46.795  16.201 -0.36 -0.03    +0.103 A  ATOM     13  C   UNL     1      40.786  48.396  16.695 -0.38 -0.02    +0.160 A  ATOM     14  C   UNL     1      40.290  49.237  15.664 -0.57 -0.02    +0.050 A  ATOM     15  C   UNL     1      39.209  48.854  14.956 -0.43 -0.01    +0.014 A  BRANCH   8  16ATOM     16  C   UNL     1      40.461  45.291  18.569 -0.46 -0.00    +0.081 C  BRANCH  16  17ATOM     17  C   UNL     1      40.357  45.350  20.104 -0.44 -0.00    -0.010 C  ATOM     18  C   UNL     1      38.903  45.334  20.582 -0.37 +0.00    +0.008 C  ATOM     19  C   UNL     1      41.116  44.174  20.722 -0.38 +0.00    +0.008 C  ENDBRANCH  16  17ENDBRANCH   8  16ENDBRANCH   1   7BRANCH   5  20ATOM     20  N   UNL     1      33.963  45.732  14.961 -0.10 +0.36    -0.367 N  ATOM     21  H   UNL     1      33.399  46.574  15.104 -0.29 -0.32    +0.162 HD BRANCH  20  22ATOM     22  C   UNL     1      34.007  44.945  16.207 -0.32 -0.06    +0.083 C  ATOM     23  C   UNL     1      35.157  43.936  16.212 -0.39 -0.02    +0.040 C  ATOM     24  C   UNL     1      33.895  45.760  17.504 -0.42 -0.03    +0.040 C  ATOM     25  C   UNL     1      35.345  43.373  17.618 -0.34 -0.03    +0.086 C  ATOM     26  C   UNL     1      35.197  45.752  18.303 -0.36 -0.04    +0.086 C  ATOM     27  N   UNL     1      35.716  44.414  18.574 -0.14 +0.08    -0.303 NA BRANCH  27  28ATOM     28  C   UNL     1      35.672  43.995  19.971 -0.41 -0.01    +0.088 C  BRANCH  28  29ATOM     29  C   UNL     1      36.526  42.800  20.285 -0.49 -0.00    +0.003 C  ATOM     30  C   UNL     1      37.198  42.704  21.634 -0.49 +0.00    +0.005 C  ATOM     31  C   UNL     1      36.084  41.758  21.284 -0.59 +0.00    +0.005 C  ENDBRANCH  28  29ENDBRANCH  27  28ENDBRANCH  20  22ENDBRANCH   5  20TORSDOF 7TERENDMDL