MODEL        8USER    Run = 8USERUSER    Estimated Free Energy of Binding    = -10.59 kcal/mol  [=(1)+(2)+(3)-(4)]USERUSER    (1) Final Intermolecular Energy     = -12.38 kcal/molUSER        vdW + Hbond + desolv Energy     = -11.94 kcal/molUSER        Electrostatic Energy            =  -0.44 kcal/molUSER        Moving Ligand-Fixed Receptor    = -12.38 kcal/molUSER        Moving Ligand-Moving Receptor   =  +0.00 kcal/molUSER    (2) Final Total Internal Energy     =  -0.80 kcal/molUSER    (3) Torsional Free Energy           =  +1.79 kcal/molUSER    (4) Unbound System's Energy         =  -0.80 kcal/molUSERUSERREMARK SMILES CC(C)Cc1nnc2ccc(-c3ccnc(N[C@H]4CCN[C@H](O)C4)c3)cn12REMARK SMILES IDX 12 1 13 2 14 3 15 4 16 5 25 6 11 7 5 8 6 9 27 10 7 11 26 12REMARK SMILES IDX 8 13 9 14 10 15 4 16 2 17 1 18 3 19 17 20 18 22 19 23 24 24REMARK SMILES IDX 20 25 22 26 21 27 23 29REMARK H PARENT 17 21 21 28 23 30USER                              x       y       z     vdW  Elec       q    TypeUSER                           _______ _______ _______ _____ _____    ______ ____ROOTATOM      1  C   UNL     1      39.124  45.503  19.125 -0.40 +0.00    -0.012 A  ATOM      2  C   UNL     1      39.647  44.968  20.298 -0.35 +0.00    +0.029 A  ATOM      3  C   UNL     1      38.890  44.030  20.972 -0.21 +0.00    +0.114 A  ATOM      4  N   UNL     1      37.674  43.608  20.563 -0.20 +0.00    -0.240 NA ATOM      5  C   UNL     1      37.164  44.131  19.431 -0.27 -0.01    +0.126 A  ATOM      6  C   UNL     1      37.871  45.070  18.685 -0.33 -0.01    +0.055 A  ENDROOTBRANCH   1   7ATOM      7  C   UNL     1      39.883  46.491  18.341 -0.42 +0.00    -0.001 A  ATOM      8  C   UNL     1      39.698  48.666  15.346 -0.44 -0.05    +0.137 A  ATOM      9  N   UNL     1      40.702  49.461  15.023 -0.54 +0.04    -0.135 NA ATOM     10  N   UNL     1      40.027  47.968  16.490 -0.30 +0.08    -0.286 N  ATOM     11  N   UNL     1      41.715  49.277  15.935 -0.98 -0.01    -0.130 NA ATOM     12  C   UNL     1      39.314  47.035  17.244 -0.35 -0.03    +0.103 A  ATOM     13  C   UNL     1      41.310  48.385  16.809 -0.33 -0.01    +0.160 A  ATOM     14  C   UNL     1      41.922  47.815  17.956 -0.41 -0.00    +0.050 A  ATOM     15  C   UNL     1      41.244  46.910  18.688 -0.48 -0.00    +0.014 A  BRANCH   8  16ATOM     16  C   UNL     1      38.391  48.541  14.634 -0.51 -0.04    +0.081 C  BRANCH  16  17ATOM     17  C   UNL     1      38.325  47.338  13.675 -0.53 +0.00    -0.010 C  ATOM     18  C   UNL     1      38.349  46.006  14.433 -0.47 -0.00    +0.008 C  ATOM     19  C   UNL     1      37.056  47.419  12.824 -0.69 -0.00    +0.008 C  ENDBRANCH  16  17ENDBRANCH   8  16ENDBRANCH   1   7BRANCH   5  20ATOM     20  N   UNL     1      35.919  43.702  18.937 -0.10 +0.06    -0.367 N  ATOM     21  H   UNL     1      35.960  42.692  18.823 +0.11 -0.03    +0.162 HD BRANCH  20  22ATOM     22  C   UNL     1      35.435  44.372  17.715 -0.31 -0.03    +0.085 C  ATOM     23  C   UNL     1      34.108  43.718  17.287 -0.35 -0.02    +0.040 C  ATOM     24  C   UNL     1      35.269  45.881  17.936 -0.40 -0.04    +0.073 C  ATOM     25  C   UNL     1      33.204  44.725  16.588 -0.32 -0.05    +0.085 C  ATOM     26  C   UNL     1      33.857  46.235  18.392 -0.45 -0.13    +0.184 C  ATOM     27  N   UNL     1      32.810  45.794  17.496 -0.13 +0.18    -0.292 NA ATOM     28  H   UNL     1      32.503  46.614  16.974 -0.46 -0.17    +0.125 HD BRANCH  26  29ATOM     29  O   UNL     1      33.742  47.643  18.489 -0.92 +0.39    -0.379 OA ATOM     30  H   UNL     1      33.857  47.987  17.588 -0.39 -0.58    +0.212 HD ENDBRANCH  26  29ENDBRANCH  20  22ENDBRANCH   5  20TORSDOF 6TERENDMDL