REMARK SMILES CC(C)Cc1nnc2ccc(-c3ccnc(N[C@@H]4CCO4)c3)cn12
REMARK SMILES IDX 5 1 6 2 7 3 8 4 9 5 10 6 11 7 23 8 24 9 4 10 2 11 1 12 3 13
REMARK SMILES IDX 12 14 13 15 22 16 14 17 16 18 15 19 17 20 18 22 19 23 21 24
REMARK SMILES IDX 20 25
REMARK H PARENT 17 21
ROOT
ATOM      1  C   UNL     1      -3.691  -0.806  -0.295  1.00  0.00     0.137 A 
ATOM      2  N   UNL     1      -4.491  -1.845  -0.143  1.00  0.00    -0.135 NA
ATOM      3  N   UNL     1      -3.729  -2.989  -0.149  1.00  0.00    -0.130 NA
ATOM      4  C   UNL     1      -2.476  -2.634  -0.321  1.00  0.00     0.160 A 
ATOM      5  C   UNL     1      -1.270  -3.376  -0.413  1.00  0.00     0.050 A 
ATOM      6  C   UNL     1      -0.105  -2.728  -0.610  1.00  0.00     0.014 A 
ATOM      7  C   UNL     1      -0.040  -1.270  -0.737  1.00  0.00    -0.001 A 
ATOM      8  C   UNL     1      -1.193  -0.573  -0.642  1.00  0.00     0.103 A 
ATOM      9  N   UNL     1      -2.393  -1.254  -0.432  1.00  0.00    -0.286 N 
ENDROOT
BRANCH   1  10
ATOM     10  C   UNL     1      -4.093   0.631  -0.351  1.00  0.00     0.081 C 
BRANCH  10  11
ATOM     11  C   UNL     1      -5.421   0.926   0.370  1.00  0.00    -0.010 C 
ATOM     12  C   UNL     1      -5.889   2.346   0.041  1.00  0.00     0.008 C 
ATOM     13  C   UNL     1      -5.292   0.767   1.888  1.00  0.00     0.008 C 
ENDBRANCH  10  11
ENDBRANCH   1  10
BRANCH   7  14
ATOM     14  C   UNL     1       1.219  -0.540  -0.951  1.00  0.00    -0.012 A 
ATOM     15  C   UNL     1       1.497   0.059  -2.176  1.00  0.00     0.029 A 
ATOM     16  C   UNL     1       2.166  -0.458   0.073  1.00  0.00     0.055 A 
ATOM     17  C   UNL     1       2.707   0.711  -2.318  1.00  0.00     0.114 A 
ATOM     18  C   UNL     1       3.353   0.234  -0.148  1.00  0.00     0.128 A 
ATOM     19  N   UNL     1       3.630   0.806  -1.337  1.00  0.00    -0.239 NA
BRANCH  18  20
ATOM     20  N   UNL     1       4.312   0.275   0.882  1.00  0.00    -0.345 N 
ATOM     21  H   UNL     1       3.871   0.525   1.760  1.00  0.00     0.164 HD
BRANCH  20  22
ATOM     22  C   UNL     1       5.531   1.000   0.741  1.00  0.00     0.215 C 
ATOM     23  C   UNL     1       6.602   0.221  -0.026  1.00  0.00     0.083 C 
ATOM     24  O   UNL     1       6.341   1.000   1.942  1.00  0.00    -0.358 OA
ATOM     25  C   UNL     1       7.472   0.491   1.196  1.00  0.00     0.167 C 
ENDBRANCH  20  22
ENDBRANCH  18  20
ENDBRANCH   7  14
TORSDOF 5
