MODEL        7USER    Run = 7USERUSER    Estimated Free Energy of Binding    =  -9.71 kcal/mol  [=(1)+(2)+(3)-(4)]USERUSER    (1) Final Intermolecular Energy     = -12.70 kcal/molUSER        vdW + Hbond + desolv Energy     = -12.57 kcal/molUSER        Electrostatic Energy            =  -0.13 kcal/molUSER        Moving Ligand-Fixed Receptor    = -12.70 kcal/molUSER        Moving Ligand-Moving Receptor   =  +0.00 kcal/molUSER    (2) Final Total Internal Energy     =  -1.51 kcal/molUSER    (3) Torsional Free Energy           =  +2.98 kcal/molUSER    (4) Unbound System's Energy         =  -1.51 kcal/molUSERUSERREMARK SMILES COc1ncc(C2CC2)c(N(C)CCN2CCN(c3nc4ccccc4[nH]3)CC2)c1C(=O)n1sc(=N)[nH]c1=OREMARK SMILES IDX 11 1 12 2 10 3 3 4 4 5 30 6 5 7 6 8 2 9 1 10 31 11 32 12REMARK SMILES IDX 33 13 34 14 38 15 35 16 37 17 39 18 36 20 7 22 8 23 9 24REMARK SMILES IDX 13 25 14 26 15 27 16 28 29 29 17 30 28 31 18 32 19 33 20 34REMARK SMILES IDX 27 35 21 36 26 37 22 38 25 39 23 40 24 41REMARK H PARENT 37 19 36 21 27 42USER                              x       y       z     vdW  Elec       q    TypeUSER                           _______ _______ _______ _____ _____    ______ ____ROOTATOM      1  N   UNL     1      39.619  45.797  17.047 -0.14 +0.06    -0.372 N  ATOM      2  C   UNL     1      41.048  45.525  17.021 -0.11 -0.00    +0.143 C  ENDROOTBRANCH   1   3ATOM      3  C   UNL     1      38.931  46.157  15.878 -0.36 -0.02    +0.060 A  ATOM      4  C   UNL     1      37.081  46.022  14.293 -0.25 -0.10    +0.228 A  ATOM      5  N   UNL     1      37.646  46.895  13.438 -0.37 +0.07    -0.221 NA ATOM      6  C   UNL     1      37.663  45.644  15.506 -0.28 -0.05    +0.127 A  ATOM      7  C   UNL     1      38.831  47.412  13.818 -0.28 -0.03    +0.121 A  ATOM      8  C   UNL     1      39.521  47.115  15.001 -0.48 +0.00    -0.002 A  BRANCH   4   9ATOM      9  O   UNL     1      35.856  45.471  13.960 -0.11 +0.25    -0.480 OA ATOM     10  C   UNL     1      34.824  46.447  13.826 -0.21 -0.23    +0.280 C  ENDBRANCH   4   9BRANCH   6  11ATOM     11  C   UNL     1      36.968  44.594  16.262 -0.21 -0.10    +0.283 C  ATOM     12  O   UNL     1      37.223  43.423  15.974 -0.24 +0.08    -0.267 OA BRANCH  11  13ATOM     13  N   UNL     1      36.066  44.995  17.254 -0.21 +0.07    -0.176 N  ATOM     14  S   UNL     1      35.469  46.614  17.256 -0.48 +0.01    -0.008 S  ATOM     15  C   UNL     1      35.363  44.201  18.180 -0.09 -0.10    +0.344 A  ATOM     16  C   UNL     1      34.315  46.235  18.492 -0.33 -0.13    +0.200 A  ATOM     17  N   UNL     1      34.408  44.937  18.845 -0.22 +0.10    -0.281 N  ATOM     18  O   UNL     1      35.518  43.009  18.414 -0.23 +0.05    -0.246 OA ATOM     19  H   UNL     1      33.855  44.504  19.561 +0.04 -0.04    +0.174 HD BRANCH  16  20ATOM     20  N   UNL     1      33.489  47.064  19.000 -0.61 +0.18    -0.274 NA ATOM     21  H   UNL     1      33.094  46.706  19.868 -0.42 -0.13    +0.190 HD ENDBRANCH  16  20ENDBRANCH  11  13ENDBRANCH   6  11BRANCH   8  22ATOM     22  C   UNL     1      40.839  47.830  15.274 -0.53 -0.00    +0.023 C  ATOM     23  C   UNL     1      40.870  49.105  16.087 -0.68 -0.00    +0.009 C  ATOM     24  C   UNL     1      41.129  49.163  14.611 -0.71 -0.00    +0.009 C  ENDBRANCH   8  22ENDBRANCH   1   3BRANCH   1  25ATOM     25  C   UNL     1      39.072  46.275  18.332 -0.32 -0.02    +0.131 C  BRANCH  25  26ATOM     26  C   UNL     1      39.963  45.965  19.561 -0.33 -0.00    +0.106 C  BRANCH  26  27ATOM     27  N   UNL     1      39.516  44.876  20.458 -0.18 -0.00    -0.298 NA ATOM     28  C   UNL     1      40.281  44.820  21.717 -0.27 +0.01    +0.106 C  ATOM     29  C   UNL     1      38.062  44.913  20.733 -0.24 +0.00    +0.106 C  ATOM     30  C   UNL     1      39.817  43.705  22.680 -0.23 +0.01    +0.135 C  ATOM     31  C   UNL     1      37.601  43.768  21.661 -0.35 +0.01    +0.135 C  ATOM     32  N   UNL     1      38.367  43.821  22.928 -0.11 -0.02    -0.340 N  BRANCH  32  33ATOM     33  C   UNL     1      37.833  43.131  23.969 -0.21 +0.01    +0.203 A  ATOM     34  N   UNL     1      36.580  42.796  24.171 -0.27 -0.02    -0.213 NA ATOM     35  N   UNL     1      38.603  42.798  25.051 -0.09 -0.01    -0.324 N  ATOM     36  C   UNL     1      36.554  42.170  25.394 -0.36 -0.01    +0.091 A  ATOM     37  C   UNL     1      37.818  42.150  25.968 -0.29 -0.00    +0.067 A  ATOM     38  C   UNL     1      35.480  41.595  26.089 -0.39 -0.01    +0.030 A  ATOM     39  C   UNL     1      38.093  41.575  27.215 -0.41 -0.00    +0.028 A  ATOM     40  C   UNL     1      35.724  41.004  27.341 -0.65 -0.00    +0.002 A  ATOM     41  C   UNL     1      37.012  40.997  27.888 -0.48 -0.00    +0.002 A  ATOM     42  H   UNL     1      39.580  43.013  25.155 +0.08 +0.00    +0.170 HD ENDBRANCH  32  33ENDBRANCH  26  27ENDBRANCH  25  26ENDBRANCH   1  25TORSDOF 10TERENDMDL