REMARK SMILES COc1ncc(C2CC2)c(N(C)CCN2CCN(c3nc4ccccc4[nH]3)CC2)c1C(=O)n1sc(=N)[nH]c1=O
REMARK SMILES IDX 11 1 12 2 10 3 3 4 4 5 30 6 5 7 6 8 2 9 1 10 31 11 32 12
REMARK SMILES IDX 33 13 34 14 38 15 35 16 37 17 39 18 36 20 7 22 8 23 9 24
REMARK SMILES IDX 13 25 14 26 15 27 16 28 29 29 17 30 28 31 18 32 19 33 20 34
REMARK SMILES IDX 27 35 21 36 26 37 22 38 25 39 23 40 24 41
REMARK H PARENT 37 19 36 21 27 42
ROOT
ATOM      1  N   UNL     1      -1.947  -0.867   0.929  1.00  0.00    -0.372 N 
ATOM      2  C   UNL     1      -2.464  -2.224   0.844  1.00  0.00     0.143 C 
ENDROOT
BRANCH   1   3
ATOM      3  C   UNL     1      -2.790   0.240   0.744  1.00  0.00     0.060 A 
ATOM      4  C   UNL     1      -4.551   1.488  -0.392  1.00  0.00     0.228 A 
ATOM      5  N   UNL     1      -4.404   2.568   0.398  1.00  0.00    -0.221 NA
ATOM      6  C   UNL     1      -3.797   0.320  -0.250  1.00  0.00     0.127 A 
ATOM      7  C   UNL     1      -3.474   2.469   1.369  1.00  0.00     0.121 A 
ATOM      8  C   UNL     1      -2.652   1.361   1.615  1.00  0.00    -0.002 A 
BRANCH   4   9
ATOM      9  O   UNL     1      -5.503   1.530  -1.396  1.00  0.00    -0.480 OA
ATOM     10  C   UNL     1      -6.020   2.841  -1.620  1.00  0.00     0.280 C 
ENDBRANCH   4   9
BRANCH   6  11
ATOM     11  C   UNL     1      -4.006  -0.717  -1.269  1.00  0.00     0.283 C 
ATOM     12  O   UNL     1      -3.156  -0.820  -2.156  1.00  0.00    -0.267 OA
BRANCH  11  13
ATOM     13  N   UNL     1      -5.151  -1.513  -1.162  1.00  0.00    -0.176 N 
ATOM     14  S   UNL     1      -5.459  -2.724  -2.352  1.00  0.00    -0.008 S 
ATOM     15  C   UNL     1      -6.037  -1.643  -0.075  1.00  0.00     0.344 A 
ATOM     16  C   UNL     1      -6.765  -3.375  -1.417  1.00  0.00     0.200 A 
ATOM     17  N   UNL     1      -6.916  -2.685  -0.269  1.00  0.00    -0.281 N 
ATOM     18  O   UNL     1      -6.078  -0.963   0.942  1.00  0.00    -0.246 OA
ATOM     19  H   UNL     1      -7.628  -2.869   0.413  1.00  0.00     0.174 HD
BRANCH  16  20
ATOM     20  N   UNL     1      -7.487  -4.369  -1.762  1.00  0.00    -0.274 NA
ATOM     21  H   UNL     1      -8.197  -4.570  -1.061  1.00  0.00     0.190 HD
ENDBRANCH  16  20
ENDBRANCH  11  13
ENDBRANCH   6  11
BRANCH   8  22
ATOM     22  C   UNL     1      -1.679   1.423   2.786  1.00  0.00     0.023 C 
ATOM     23  C   UNL     1      -1.720   0.377   3.878  1.00  0.00     0.009 C 
ATOM     24  C   UNL     1      -2.184   1.772   4.173  1.00  0.00     0.009 C 
ENDBRANCH   8  22
ENDBRANCH   1   3
BRANCH   1  25
ATOM     25  C   UNL     1      -0.517  -0.695   0.603  1.00  0.00     0.131 C 
BRANCH  25  26
ATOM     26  C   UNL     1      -0.225  -0.495  -0.905  1.00  0.00     0.106 C 
BRANCH  26  27
ATOM     27  N   UNL     1       1.187  -0.283  -1.294  1.00  0.00    -0.298 NA
ATOM     28  C   UNL     1       1.767   0.938  -0.705  1.00  0.00     0.106 C 
ATOM     29  C   UNL     1       2.047  -1.455  -1.014  1.00  0.00     0.106 C 
ATOM     30  C   UNL     1       3.248   1.168  -1.079  1.00  0.00     0.135 C 
ATOM     31  C   UNL     1       3.516  -1.231  -1.432  1.00  0.00     0.135 C 
ATOM     32  N   UNL     1       4.046  -0.028  -0.748  1.00  0.00    -0.340 N 
BRANCH  32  33
ATOM     33  C   UNL     1       5.399   0.086  -0.719  1.00  0.00     0.203 A 
ATOM     34  N   UNL     1       6.298  -0.698  -1.268  1.00  0.00    -0.213 NA
ATOM     35  N   UNL     1       6.000   1.046   0.050  1.00  0.00    -0.324 N 
ATOM     36  C   UNL     1       7.517  -0.187  -0.892  1.00  0.00     0.091 A 
ATOM     37  C   UNL     1       7.359   0.917  -0.066  1.00  0.00     0.067 A 
ATOM     38  C   UNL     1       8.812  -0.621  -1.211  1.00  0.00     0.030 A 
ATOM     39  C   UNL     1       8.430   1.642   0.470  1.00  0.00     0.028 A 
ATOM     40  C   UNL     1       9.909   0.089  -0.694  1.00  0.00     0.002 A 
ATOM     41  C   UNL     1       9.714   1.202   0.132  1.00  0.00     0.002 A 
ATOM     42  H   UNL     1       5.516   1.720   0.619  1.00  0.00     0.170 HD
ENDBRANCH  32  33
ENDBRANCH  26  27
ENDBRANCH  25  26
ENDBRANCH   1  25
TORSDOF 10
