MODEL        9USER    Run = 9USERUSER    Estimated Free Energy of Binding    =  -9.37 kcal/mol  [=(1)+(2)+(3)-(4)]USERUSER    (1) Final Intermolecular Energy     = -10.57 kcal/molUSER        vdW + Hbond + desolv Energy     = -10.38 kcal/molUSER        Electrostatic Energy            =  -0.19 kcal/molUSER        Moving Ligand-Fixed Receptor    = -10.57 kcal/molUSER        Moving Ligand-Moving Receptor   =  +0.00 kcal/molUSER    (2) Final Total Internal Energy     =  -0.94 kcal/molUSER    (3) Torsional Free Energy           =  +1.19 kcal/molUSER    (4) Unbound System's Energy         =  -0.94 kcal/molUSERUSERREMARK SMILES O=S(=O)(Nc1cccc(-c2nc3ccccc3[nH]2)c1)c1cccnc1REMARK SMILES IDX 5 1 6 2 7 3 8 4 9 5 19 6 4 7 2 9 1 10 3 11 20 12 21 13 25 14REMARK SMILES IDX 22 15 24 16 23 17 10 18 11 19 18 20 12 21 17 22 13 23 16 24REMARK SMILES IDX 14 25 15 26REMARK H PARENT 4 8 18 27USER                              x       y       z     vdW  Elec       q    TypeUSER                           _______ _______ _______ _____ _____    ______ ____ROOTATOM      1  C   UNL     1      38.104  48.317  14.957 -0.50 -0.03    +0.050 A  ATOM      2  C   UNL     1      38.032  47.963  13.612 -0.46 -0.01    +0.027 A  ATOM      3  C   UNL     1      37.158  46.955  13.203 -0.56 -0.00    +0.003 A  ATOM      4  C   UNL     1      36.402  46.262  14.150 -0.43 -0.01    +0.012 A  ATOM      5  C   UNL     1      36.511  46.582  15.507 -0.37 -0.01    +0.019 A  ATOM      6  C   UNL     1      37.325  47.649  15.902 -0.32 -0.03    +0.038 A  ENDROOTBRANCH   1   7ATOM      7  N   UNL     1      39.080  49.260  15.385 -0.22 +0.18    -0.280 N  ATOM      8  H   UNL     1      38.825  49.895  16.142 -0.01 -0.13    +0.180 HD BRANCH   7   9ATOM      9  S   UNL     1      40.695  48.741  15.486 -0.61 -0.05    +0.263 S  ATOM     10  O   UNL     1      41.440  49.859  16.024 -1.13 +0.01    -0.201 OA ATOM     11  O   UNL     1      41.077  48.103  14.244 -0.36 +0.01    -0.201 OA BRANCH   9  12ATOM     12  C   UNL     1      40.656  47.495  16.741 -0.45 -0.02    +0.106 A  ATOM     13  C   UNL     1      41.310  47.667  17.963 -0.50 -0.00    +0.025 A  ATOM     14  C   UNL     1      39.972  46.318  16.509 -0.35 -0.02    +0.133 A  ATOM     15  C   UNL     1      41.232  46.657  18.924 -0.46 +0.00    +0.021 A  ATOM     16  N   UNL     1      39.824  45.353  17.458 -0.17 +0.03    -0.263 NA ATOM     17  C   UNL     1      40.485  45.529  18.630 -0.39 -0.00    +0.111 A  ENDBRANCH   9  12ENDBRANCH   7   9ENDBRANCH   1   7BRANCH   5  18ATOM     18  C   UNL     1      35.844  45.768  16.512 -0.25 -0.09    +0.138 A  ATOM     19  N   UNL     1      36.212  44.578  16.939 -0.17 +0.09    -0.229 NA ATOM     20  N   UNL     1      34.715  46.196  17.178 -0.16 +0.34    -0.338 N  ATOM     21  C   UNL     1      35.247  44.195  17.842 -0.25 -0.03    +0.089 A  ATOM     22  C   UNL     1      34.288  45.190  18.005 -0.35 -0.03    +0.066 A  ATOM     23  C   UNL     1      35.119  43.001  18.564 -0.35 -0.01    +0.030 A  ATOM     24  C   UNL     1      33.184  45.068  18.860 -0.37 -0.01    +0.028 A  ATOM     25  C   UNL     1      34.020  42.847  19.423 -0.41 -0.00    +0.002 A  ATOM     26  C   UNL     1      33.069  43.865  19.566 -0.45 -0.00    +0.002 A  ATOM     27  H   UNL     1      34.290  47.106  17.077 -0.32 -0.37    +0.168 HD ENDBRANCH   5  18TORSDOF 4TERENDMDL