REMARK SMILES CC[C@H](O)[C@@H](N)c1ccc(C(=O)Nc2nc(-c3cccc(F)c3)cs2)cc1N
REMARK SMILES IDX 7 1 8 2 9 3 10 4 26 5 27 6 5 7 3 8 2 9 1 10 4 11 6 13 28 16
REMARK SMILES IDX 11 19 13 20 12 21 14 23 15 24 25 25 16 26 24 27 17 28 18 29
REMARK SMILES IDX 23 30 19 31 21 32 20 33 22 34
REMARK H PARENT 4 12 6 14 6 15 28 17 28 18 13 22
ROOT
ATOM      1  C   UNL     1      -3.353  -0.771   1.109  1.00  0.00    -0.006 A 
ATOM      2  C   UNL     1      -2.941  -0.079   2.264  1.00  0.00     0.008 A 
ATOM      3  C   UNL     1      -1.590   0.009   2.603  1.00  0.00     0.014 A 
ATOM      4  C   UNL     1      -0.625  -0.572   1.778  1.00  0.00     0.042 A 
ATOM      5  C   UNL     1      -1.023  -1.289   0.643  1.00  0.00     0.039 A 
ATOM      6  C   UNL     1      -2.381  -1.433   0.330  1.00  0.00     0.037 A 
ENDROOT
BRANCH   1   7
ATOM      7  C   UNL     1      -4.830  -0.765   0.749  1.00  0.00     0.112 C 
BRANCH   7   8
ATOM      8  C   UNL     1      -5.187   0.138  -0.475  1.00  0.00     0.135 C 
BRANCH   8   9
ATOM      9  C   UNL     1      -4.776   1.606  -0.285  1.00  0.00     0.030 C 
ATOM     10  C   UNL     1      -5.155   2.473  -1.479  1.00  0.00     0.007 C 
ENDBRANCH   8   9
BRANCH   8  11
ATOM     11  O   UNL     1      -6.614   0.073  -0.683  1.00  0.00    -0.391 OA
ATOM     12  H   UNL     1      -7.039   0.593   0.020  1.00  0.00     0.211 HD
ENDBRANCH   8  11
ENDBRANCH   7   8
BRANCH   7  13
ATOM     13  N   UNL     1      -5.327  -2.141   0.512  1.00  0.00    -0.322 NA
ATOM     14  H   UNL     1      -6.274  -2.054   0.134  1.00  0.00     0.119 HD
ATOM     15  H   UNL     1      -5.407  -2.616   1.409  1.00  0.00     0.119 HD
ENDBRANCH   7  13
ENDBRANCH   1   7
BRANCH   6  16
ATOM     16  N   UNL     1      -2.736  -2.074  -0.872  1.00  0.00    -0.398 N 
ATOM     17  H   UNL     1      -3.704  -2.415  -0.808  1.00  0.00     0.156 HD
ATOM     18  H   UNL     1      -2.109  -2.827  -1.136  1.00  0.00     0.156 HD
ENDBRANCH   6  16
BRANCH   4  19
ATOM     19  C   UNL     1       0.811  -0.420   2.148  1.00  0.00     0.257 C 
ATOM     20  N   UNL     1       1.667  -0.302   1.078  1.00  0.00    -0.298 N 
ATOM     21  O   UNL     1       1.094  -0.378   3.338  1.00  0.00    -0.269 OA
ATOM     22  H   UNL     1       1.301  -0.222   0.141  1.00  0.00     0.172 HD
BRANCH  20  23
ATOM     23  C   UNL     1       3.032  -0.179   1.121  1.00  0.00     0.190 A 
ATOM     24  N   UNL     1       3.723  -0.003   0.020  1.00  0.00    -0.220 NA
ATOM     25  S   UNL     1       3.935  -0.270   2.559  1.00  0.00    -0.105 S 
ATOM     26  C   UNL     1       5.080   0.072   0.314  1.00  0.00     0.084 A 
ATOM     27  C   UNL     1       5.377  -0.044   1.659  1.00  0.00     0.097 A 
BRANCH  26  28
ATOM     28  C   UNL     1       6.067   0.274  -0.745  1.00  0.00     0.004 A 
ATOM     29  C   UNL     1       5.642   0.734  -2.004  1.00  0.00     0.010 A 
ATOM     30  C   UNL     1       7.430   0.015  -0.556  1.00  0.00     0.049 A 
ATOM     31  C   UNL     1       6.554   0.940  -3.044  1.00  0.00     0.004 A 
ATOM     32  C   UNL     1       8.330   0.222  -1.599  1.00  0.00     0.123 A 
ATOM     33  C   UNL     1       7.906   0.683  -2.839  1.00  0.00     0.039 A 
ATOM     34  F   UNL     1       9.630  -0.031  -1.401  1.00  0.00    -0.207 F 
ENDBRANCH  26  28
ENDBRANCH  20  23
ENDBRANCH   4  19
TORSDOF 9
