REMARK SMILES NS(=O)(=O)c1ccc(C(=O)c2c[nH]c3ncc(F)cc23)cc1
REMARK SMILES IDX 5 1 6 2 7 3 8 4 21 5 22 6 2 7 3 8 4 9 1 10 9 13 10 14 11 15
REMARK SMILES IDX 12 16 20 17 13 18 19 19 14 20 17 21 15 22 16 23 18 25
REMARK H PARENT 1 11 1 12 13 24
ROOT
ATOM      1  C   UNL     1       3.245  -0.966   0.928  1.00  0.00     0.082 A 
ATOM      2  C   UNL     1       2.611   0.279   0.977  1.00  0.00     0.022 A 
ATOM      3  C   UNL     1       1.228   0.356   0.787  1.00  0.00     0.013 A 
ATOM      4  C   UNL     1       0.487  -0.808   0.540  1.00  0.00     0.023 A 
ATOM      5  C   UNL     1       1.129  -2.055   0.525  1.00  0.00     0.013 A 
ATOM      6  C   UNL     1       2.510  -2.136   0.716  1.00  0.00     0.022 A 
ENDROOT
BRANCH   1   7
ATOM      7  S   UNL     1       4.997  -1.081   1.192  1.00  0.00     0.238 S 
ATOM      8  O   UNL     1       5.272  -2.323   1.873  1.00  0.00    -0.207 OA
ATOM      9  O   UNL     1       5.471   0.196   1.672  1.00  0.00    -0.207 OA
BRANCH   7  10
ATOM     10  N   UNL     1       5.569  -1.210  -0.385  1.00  0.00    -0.225 NA
ATOM     11  H   UNL     1       4.837  -1.353  -1.078  1.00  0.00     0.137 HD
ATOM     12  H   UNL     1       6.148  -0.395  -0.597  1.00  0.00     0.137 HD
ENDBRANCH   7  10
ENDBRANCH   1   7
BRANCH   4  13
ATOM     13  C   UNL     1      -0.989  -0.772   0.364  1.00  0.00     0.195 C 
ATOM     14  O   UNL     1      -1.655  -1.653   0.904  1.00  0.00    -0.289 OA
BRANCH  13  15
ATOM     15  C   UNL     1      -1.608   0.280  -0.442  1.00  0.00     0.050 A 
ATOM     16  C   UNL     1      -1.005   1.054  -1.426  1.00  0.00     0.097 A 
ATOM     17  C   UNL     1      -2.986   0.679  -0.404  1.00  0.00     0.033 A 
ATOM     18  N   UNL     1      -1.945   1.905  -1.950  1.00  0.00    -0.345 N 
ATOM     19  C   UNL     1      -4.125   0.297   0.330  1.00  0.00     0.053 A 
ATOM     20  C   UNL     1      -3.150   1.693  -1.344  1.00  0.00     0.138 A 
ATOM     21  C   UNL     1      -5.314   0.963   0.055  1.00  0.00     0.142 A 
ATOM     22  N   UNL     1      -4.275   2.369  -1.645  1.00  0.00    -0.235 NA
ATOM     23  C   UNL     1      -5.338   1.960  -0.908  1.00  0.00     0.152 A 
ATOM     24  H   UNL     1      -1.803   2.584  -2.684  1.00  0.00     0.167 HD
ATOM     25  F   UNL     1      -6.430   0.643   0.722  1.00  0.00    -0.205 F 
ENDBRANCH  13  15
ENDBRANCH   4  13
TORSDOF 4
