REMARK SMILES O=S(=O)(Nc1cccc(-c2nc3ccccc3[nH]2)c1)c1cccnc1
REMARK SMILES IDX 5 1 6 2 7 3 8 4 9 5 19 6 4 7 2 9 1 10 3 11 20 12 21 13 25 14
REMARK SMILES IDX 22 15 24 16 23 17 10 18 11 19 18 20 12 21 17 22 13 23 16 24
REMARK SMILES IDX 14 25 15 26
REMARK H PARENT 4 8 18 27
ROOT
ATOM      1  C   UNL     1      -1.323   2.413  -1.124  1.00  0.00     0.050 A 
ATOM      2  C   UNL     1      -1.651   3.467  -0.274  1.00  0.00     0.027 A 
ATOM      3  C   UNL     1      -0.885   3.704   0.868  1.00  0.00     0.003 A 
ATOM      4  C   UNL     1       0.171   2.849   1.188  1.00  0.00     0.012 A 
ATOM      5  C   UNL     1       0.469   1.760   0.363  1.00  0.00     0.019 A 
ATOM      6  C   UNL     1      -0.248   1.577  -0.824  1.00  0.00     0.038 A 
ENDROOT
BRANCH   1   7
ATOM      7  N   UNL     1      -2.176   2.103  -2.221  1.00  0.00    -0.280 N 
ATOM      8  H   UNL     1      -1.736   1.895  -3.118  1.00  0.00     0.180 HD
BRANCH   7   9
ATOM      9  S   UNL     1      -3.534   1.127  -1.919  1.00  0.00     0.263 S 
ATOM     10  O   UNL     1      -4.117   0.844  -3.213  1.00  0.00    -0.201 OA
ATOM     11  O   UNL     1      -4.316   1.704  -0.846  1.00  0.00    -0.201 OA
BRANCH   9  12
ATOM     12  C   UNL     1      -2.838  -0.386  -1.323  1.00  0.00     0.106 A 
ATOM     13  C   UNL     1      -2.581  -1.460  -2.179  1.00  0.00     0.025 A 
ATOM     14  C   UNL     1      -2.548  -0.518   0.021  1.00  0.00     0.133 A 
ATOM     15  C   UNL     1      -2.015  -2.624  -1.657  1.00  0.00     0.021 A 
ATOM     16  N   UNL     1      -1.931  -1.617   0.536  1.00  0.00    -0.263 NA
ATOM     17  C   UNL     1      -1.710  -2.657  -0.307  1.00  0.00     0.111 A 
ENDBRANCH   9  12
ENDBRANCH   7   9
ENDBRANCH   1   7
BRANCH   5  18
ATOM     18  C   UNL     1       1.466   0.781   0.767  1.00  0.00     0.138 A 
ATOM     19  N   UNL     1       2.727   1.013   1.069  1.00  0.00    -0.229 NA
ATOM     20  N   UNL     1       1.169  -0.558   0.914  1.00  0.00    -0.338 N 
ATOM     21  C   UNL     1       3.276  -0.221   1.335  1.00  0.00     0.089 A 
ATOM     22  C   UNL     1       2.321  -1.228   1.236  1.00  0.00     0.066 A 
ATOM     23  C   UNL     1       4.594  -0.562   1.665  1.00  0.00     0.030 A 
ATOM     24  C   UNL     1       2.602  -2.584   1.449  1.00  0.00     0.028 A 
ATOM     25  C   UNL     1       4.908  -1.913   1.877  1.00  0.00     0.002 A 
ATOM     26  C   UNL     1       3.926  -2.906   1.769  1.00  0.00     0.002 A 
ATOM     27  H   UNL     1       0.251  -0.964   0.813  1.00  0.00     0.168 HD
ENDBRANCH   5  18
TORSDOF 4
