MODEL        10USER    Run = 10USERUSER    Estimated Free Energy of Binding    =  -9.24 kcal/mol  [=(1)+(2)+(3)-(4)]USERUSER    (1) Final Intermolecular Energy     = -10.43 kcal/molUSER        vdW + Hbond + desolv Energy     = -10.38 kcal/molUSER        Electrostatic Energy            =  -0.05 kcal/molUSER        Moving Ligand-Fixed Receptor    = -10.43 kcal/molUSER        Moving Ligand-Moving Receptor   =  +0.00 kcal/molUSER    (2) Final Total Internal Energy     =  -0.67 kcal/molUSER    (3) Torsional Free Energy           =  +1.19 kcal/molUSER    (4) Unbound System's Energy         =  -0.67 kcal/molUSERUSERREMARK SMILES NS(=O)(=O)c1ccc(C(=O)c2c[nH]c3ncc(F)cc23)cc1REMARK SMILES IDX 5 1 6 2 7 3 8 4 21 5 22 6 2 7 3 8 4 9 1 10 9 13 10 14 11 15REMARK SMILES IDX 12 16 20 17 13 18 19 19 14 20 17 21 15 22 16 23 18 25REMARK H PARENT 1 11 1 12 13 24USER                              x       y       z     vdW  Elec       q    TypeUSER                           _______ _______ _______ _____ _____    ______ ____ROOTATOM      1  C   UNL     1      37.899  47.287  14.138 -0.43 -0.03    +0.082 A  ATOM      2  C   UNL     1      37.776  48.476  14.862 -0.53 -0.01    +0.022 A  ATOM      3  C   UNL     1      38.805  48.869  15.723 -0.41 -0.01    +0.013 A  ATOM      4  C   UNL     1      39.947  48.067  15.863 -0.53 -0.01    +0.023 A  ATOM      5  C   UNL     1      40.074  46.893  15.107 -0.46 -0.00    +0.013 A  ATOM      6  C   UNL     1      39.048  46.498  14.245 -0.39 -0.00    +0.022 A  ENDROOTBRANCH   1   7ATOM      7  S   UNL     1      36.609  46.789  13.023 -0.63 -0.11    +0.238 S  ATOM      8  O   UNL     1      35.368  46.743  13.757 -0.42 +0.16    -0.207 OA ATOM      9  O   UNL     1      37.093  45.682  12.232 -0.46 +0.07    -0.207 OA BRANCH   7  10ATOM     10  N   UNL     1      36.547  48.101  11.971 -0.89 +0.08    -0.225 NA ATOM     11  H   UNL     1      37.217  48.047  11.206 -0.30 -0.02    +0.137 HD ATOM     12  H   UNL     1      35.588  48.215  11.637 -0.28 -0.10    +0.137 HD ENDBRANCH   7  10ENDBRANCH   1   7BRANCH   4  13ATOM     13  C   UNL     1      41.077  48.465  16.744 -0.44 -0.02    +0.195 C  ATOM     14  O   UNL     1      41.709  49.478  16.448 -1.03 -0.04    -0.289 OA BRANCH  13  15ATOM     15  C   UNL     1      41.419  47.655  17.912 -0.49 -0.00    +0.050 A  ATOM     16  C   UNL     1      42.557  47.753  18.704 -0.46 +0.00    +0.097 A  ATOM     17  C   UNL     1      40.607  46.628  18.501 -0.45 -0.00    +0.033 A  ATOM     18  N   UNL     1      42.473  46.823  19.709 -0.26 -0.06    -0.345 N  ATOM     19  C   UNL     1      39.354  46.052  18.221 -0.39 -0.01    +0.053 A  ATOM     20  C   UNL     1      41.300  46.132  19.602 -0.34 +0.01    +0.138 A  ATOM     21  C   UNL     1      38.915  45.039  19.066 -0.31 -0.01    +0.142 A  ATOM     22  N   UNL     1      40.921  45.154  20.447 -0.22 -0.02    -0.235 NA ATOM     23  C   UNL     1      39.708  44.637  20.129 -0.26 +0.00    +0.152 A  ATOM     24  H   UNL     1      43.150  46.661  20.440 +0.07 +0.07    +0.167 HD ATOM     25  F   UNL     1      37.730  44.452  18.849 -0.08 +0.03    -0.205 F  ENDBRANCH  13  15ENDBRANCH   4  13TORSDOF 4TERENDMDL