MODEL        7USER    Run = 7USERUSER    Estimated Free Energy of Binding    =  -8.84 kcal/mol  [=(1)+(2)+(3)-(4)]USERUSER    (1) Final Intermolecular Energy     = -10.33 kcal/molUSER        vdW + Hbond + desolv Energy     = -10.25 kcal/molUSER        Electrostatic Energy            =  -0.08 kcal/molUSER        Moving Ligand-Fixed Receptor    = -10.33 kcal/molUSER        Moving Ligand-Moving Receptor   =  +0.00 kcal/molUSER    (2) Final Total Internal Energy     =  -0.89 kcal/molUSER    (3) Torsional Free Energy           =  +1.49 kcal/molUSER    (4) Unbound System's Energy         =  -0.89 kcal/molUSERUSERREMARK SMILES Cc1cc(CN2C=C(F)[C@@H]3NC(C4CC4)=C[C@@H]32)ccc1C(=O)OREMARK SMILES IDX 1 1 2 2 3 3 4 4 18 5 19 6 20 7 21 8 22 9 23 10 5 12 6 13REMARK SMILES IDX 7 14 17 15 8 16 16 17 10 18 12 19 11 20 9 21 13 23 14 24REMARK SMILES IDX 15 25REMARK H PARENT 23 11 11 22USER                              x       y       z     vdW  Elec       q    TypeUSER                           _______ _______ _______ _____ _____    ______ ____ROOTATOM      1  C   UNL     1      37.243  44.536  12.541 -0.40 -0.01    +0.045 C  ATOM      2  C   UNL     1      37.163  45.489  13.702 -0.43 +0.01    -0.036 A  ATOM      3  C   UNL     1      37.337  44.975  15.001 -0.35 -0.00    +0.009 A  ATOM      4  C   UNL     1      37.255  45.796  16.137 -0.34 +0.01    -0.028 A  ATOM      5  C   UNL     1      36.996  47.159  15.967 -0.38 -0.00    +0.006 A  ATOM      6  C   UNL     1      36.833  47.690  14.686 -0.45 -0.01    +0.016 A  ATOM      7  C   UNL     1      36.931  46.869  13.550 -0.48 -0.03    +0.062 A  ENDROOTBRANCH   7   8ATOM      8  C   UNL     1      36.756  47.554  12.245 -0.38 -0.12    +0.335 C  ATOM      9  O   UNL     1      37.349  47.277  11.217 -0.93 +0.06    -0.246 OA BRANCH   8  10ATOM     10  O   UNL     1      35.793  48.489  12.257 -0.37 +0.26    -0.478 OA ATOM     11  H   UNL     1      35.800  48.846  11.344 -0.26 -0.22    +0.297 HD ENDBRANCH   8  10ENDBRANCH   7   8BRANCH   4  12ATOM     12  C   UNL     1      37.451  45.216  17.521 -0.31 -0.04    +0.152 C  BRANCH  12  13ATOM     13  N   UNL     1      38.756  45.544  18.055 -0.17 +0.06    -0.362 N  ATOM     14  C   UNL     1      39.141  45.537  19.381 -0.37 -0.01    +0.119 C  ATOM     15  C   UNL     1      39.941  45.620  17.186 -0.29 -0.02    +0.136 C  ATOM     16  C   UNL     1      40.463  45.679  19.522 -0.39 +0.00    +0.140 C  ATOM     17  C   UNL     1      39.990  46.913  16.424 -0.54 -0.00    +0.021 C  ATOM     18  C   UNL     1      41.151  45.780  18.193 -0.42 -0.00    +0.167 C  ATOM     19  C   UNL     1      40.982  47.702  16.863 -0.57 -0.00    +0.013 C  ATOM     20  N   UNL     1      41.638  47.140  17.946 -0.25 +0.03    -0.377 N  ATOM     21  F   UNL     1      41.091  45.678  20.710 -0.08 -0.02    -0.208 F  ATOM     22  H   UNL     1      42.634  47.312  17.999 -0.34 -0.01    +0.161 HD BRANCH  19  23ATOM     23  C   UNL     1      41.413  48.989  16.330 -0.46 -0.00    +0.035 C  ATOM     24  C   UNL     1      41.388  49.207  14.838 -0.70 -0.00    +0.010 C  ATOM     25  C   UNL     1      40.395  49.914  15.712 -0.60 -0.00    +0.010 C  ENDBRANCH  19  23ENDBRANCH  12  13ENDBRANCH   4  12TORSDOF 5TERENDMDL