MODEL        8USER    Run = 8USERUSER    Estimated Free Energy of Binding    =  -9.78 kcal/mol  [=(1)+(2)+(3)-(4)]USERUSER    (1) Final Intermolecular Energy     = -10.97 kcal/molUSER        vdW + Hbond + desolv Energy     = -10.86 kcal/molUSER        Electrostatic Energy            =  -0.12 kcal/molUSER        Moving Ligand-Fixed Receptor    = -10.97 kcal/molUSER        Moving Ligand-Moving Receptor   =  +0.00 kcal/molUSER    (2) Final Total Internal Energy     =  -1.67 kcal/molUSER    (3) Torsional Free Energy           =  +1.19 kcal/molUSER    (4) Unbound System's Energy         =  -1.67 kcal/molUSERUSERREMARK SMILES C[C@H]1C(=Cc2cccn2C)C=Nc2[nH]cc(-c3cccc(C(=O)N(C)C)c3)c21REMARK SMILES IDX 1 1 2 2 3 3 11 4 12 5 13 6 14 7 15 8 16 9 28 10 4 12 5 13REMARK SMILES IDX 6 14 9 15 7 16 8 17 10 18 17 19 18 20 27 21 19 22 21 23REMARK SMILES IDX 20 24 22 25 24 26 23 27 25 28 26 29REMARK H PARENT 14 11USER                              x       y       z     vdW  Elec       q    TypeUSER                           _______ _______ _______ _____ _____    ______ ____ROOTATOM      1  C   UNL     1      37.671  44.574  15.577 -0.28 -0.01    +0.018 C  ATOM      2  C   UNL     1      36.816  45.443  16.506 -0.37 -0.02    +0.052 C  ATOM      3  C   UNL     1      35.359  45.436  16.045 -0.38 +0.01    -0.020 C  ATOM      4  C   UNL     1      34.414  44.564  16.835 -0.29 -0.06    +0.118 C  ATOM      5  N   UNL     1      34.632  44.025  17.999 -0.14 +0.08    -0.239 NA ATOM      6  C   UNL     1      35.849  44.309  18.507 -0.25 -0.03    +0.134 A  ATOM      7  N   UNL     1      36.217  43.952  19.771 -0.17 +0.03    -0.346 N  ATOM      8  C   UNL     1      37.496  44.384  20.014 -0.31 -0.00    +0.093 A  ATOM      9  C   UNL     1      37.959  45.031  18.882 -0.36 -0.00    +0.005 A  ATOM     10  C   UNL     1      36.908  44.969  17.922 -0.34 -0.00    +0.011 A  ATOM     11  H   UNL     1      35.621  43.448  20.413 +0.11 -0.00    +0.167 HD ENDROOTBRANCH   3  12ATOM     12  C   UNL     1      34.936  46.188  15.012 -0.32 -0.03    +0.032 C  BRANCH  12  13ATOM     13  C   UNL     1      35.730  46.503  13.886 -0.45 -0.03    +0.041 A  ATOM     14  C   UNL     1      35.801  45.933  12.628 -0.46 -0.01    +0.028 A  ATOM     15  N   UNL     1      36.667  47.514  13.933 -0.23 +0.21    -0.351 N  ATOM     16  C   UNL     1      36.783  46.633  11.890 -0.67 -0.01    +0.020 A  ATOM     17  C   UNL     1      37.300  47.604  12.717 -0.43 -0.02    +0.086 A  ATOM     18  C   UNL     1      36.967  48.367  15.065 -0.38 -0.14    +0.149 C  ENDBRANCH  12  13ENDBRANCH   3  12BRANCH   9  19ATOM     19  C   UNL     1      39.284  45.615  18.792 -0.41 +0.00    -0.016 A  ATOM     20  C   UNL     1      40.311  45.168  19.634 -0.41 +0.00    +0.009 A  ATOM     21  C   UNL     1      39.549  46.627  17.863 -0.42 -0.00    +0.022 A  ATOM     22  C   UNL     1      41.591  45.721  19.552 -0.41 +0.00    +0.001 A  ATOM     23  C   UNL     1      40.825  47.195  17.799 -0.49 -0.00    +0.040 A  ATOM     24  C   UNL     1      41.853  46.733  18.629 -0.52 +0.00    +0.014 A  BRANCH  23  25ATOM     25  C   UNL     1      41.088  48.247  16.792 -0.38 -0.03    +0.253 C  ATOM     26  N   UNL     1      40.544  48.111  15.515 -0.26 +0.06    -0.345 N  ATOM     27  O   UNL     1      41.766  49.209  17.143 -0.93 -0.05    -0.269 OA ATOM     28  C   UNL     1      40.097  46.850  14.939 -0.40 -0.02    +0.146 C  ATOM     29  C   UNL     1      40.702  49.215  14.586 -0.54 -0.04    +0.146 C  ENDBRANCH  23  25ENDBRANCH   9  19TORSDOF 4TERENDMDL