REMARK SMILES Cc1cc(CN2C=C(F)[C@@H]3NC(C4CC4)=C[C@@H]32)ccc1C(=O)O
REMARK SMILES IDX 1 1 2 2 3 3 4 4 18 5 19 6 20 7 21 8 22 9 23 10 5 12 6 13
REMARK SMILES IDX 7 14 17 15 8 16 16 17 10 18 12 19 11 20 9 21 13 23 14 24
REMARK SMILES IDX 15 25
REMARK H PARENT 23 11 11 22
ROOT
ATOM      1  C   UNL     1       4.787   1.325  -0.644  1.00  0.00     0.045 C 
ATOM      2  C   UNL     1       3.809   0.528   0.174  1.00  0.00    -0.036 A 
ATOM      3  C   UNL     1       2.529   1.069   0.398  1.00  0.00     0.009 A 
ATOM      4  C   UNL     1       1.567   0.397   1.169  1.00  0.00    -0.028 A 
ATOM      5  C   UNL     1       1.895  -0.844   1.724  1.00  0.00     0.006 A 
ATOM      6  C   UNL     1       3.155  -1.403   1.503  1.00  0.00     0.016 A 
ATOM      7  C   UNL     1       4.110  -0.735   0.718  1.00  0.00     0.062 A 
ENDROOT
BRANCH   7   8
ATOM      8  C   UNL     1       5.405  -1.439   0.542  1.00  0.00     0.335 C 
ATOM      9  O   UNL     1       5.901  -2.216   1.339  1.00  0.00    -0.246 OA
BRANCH   8  10
ATOM     10  O   UNL     1       5.979  -1.211  -0.650  1.00  0.00    -0.478 OA
ATOM     11  H   UNL     1       6.783  -1.771  -0.635  1.00  0.00     0.297 HD
ENDBRANCH   8  10
ENDBRANCH   7   8
BRANCH   4  12
ATOM     12  C   UNL     1       0.198   1.001   1.389  1.00  0.00     0.152 C 
BRANCH  12  13
ATOM     13  N   UNL     1      -0.588   0.995   0.173  1.00  0.00    -0.362 N 
ATOM     14  C   UNL     1      -0.755   2.036  -0.718  1.00  0.00     0.119 C 
ATOM     15  C   UNL     1      -1.058  -0.263  -0.427  1.00  0.00     0.136 C 
ATOM     16  C   UNL     1      -1.363   1.644  -1.842  1.00  0.00     0.140 C 
ATOM     17  C   UNL     1      -2.262  -0.805   0.288  1.00  0.00     0.021 C 
ATOM     18  C   UNL     1      -1.666   0.175  -1.821  1.00  0.00     0.167 C 
ATOM     19  C   UNL     1      -3.365  -0.710  -0.471  1.00  0.00     0.013 C 
ATOM     20  N   UNL     1      -3.103  -0.071  -1.671  1.00  0.00    -0.377 N 
ATOM     21  F   UNL     1      -1.618   2.462  -2.877  1.00  0.00    -0.208 F 
ATOM     22  H   UNL     1      -3.621  -0.406  -2.474  1.00  0.00     0.161 HD
BRANCH  19  23
ATOM     23  C   UNL     1      -4.706  -1.201  -0.176  1.00  0.00     0.035 C 
ATOM     24  C   UNL     1      -5.460  -0.612   0.990  1.00  0.00     0.010 C 
ATOM     25  C   UNL     1      -5.894  -0.303  -0.412  1.00  0.00     0.010 C 
ENDBRANCH  19  23
ENDBRANCH  12  13
ENDBRANCH   4  12
TORSDOF 5
