REMARK SMILES CN(C)c1c2ccsc2c2c3c(cccc13)N[C@@H]2CCCCN
REMARK SMILES IDX 20 1 19 2 18 3 4 4 5 5 16 6 6 7 9 8 15 9 11 10 7 11 8 12
REMARK SMILES IDX 10 13 14 14 12 15 13 16 17 17 2 19 1 20 3 21 21 22 22 23
REMARK SMILES IDX 23 24
REMARK H PARENT 17 18 23 25 23 26
ROOT
ATOM      1  C   UNL     1       3.651   1.011  -0.336  1.00  0.00     0.004 C 
ENDROOT
BRANCH   1   2
ATOM      2  C   UNL     1       2.163   1.103   0.028  1.00  0.00     0.030 C 
BRANCH   2   3
ATOM      3  C   UNL     1       1.345  -0.142  -0.356  1.00  0.00     0.111 C 
ATOM      4  C   UNL     1      -2.969   0.299  -0.183  1.00  0.00     0.053 A 
ATOM      5  C   UNL     1      -2.295   1.017  -1.244  1.00  0.00     0.017 A 
ATOM      6  C   UNL     1      -2.187  -0.519   0.695  1.00  0.00     0.008 A 
ATOM      7  C   UNL     1      -2.816   1.879  -2.281  1.00  0.00     0.022 A 
ATOM      8  C   UNL     1      -0.893   0.919  -1.370  1.00  0.00     0.042 A 
ATOM      9  C   UNL     1      -2.631  -1.316   1.776  1.00  0.00     0.011 A 
ATOM     10  C   UNL     1      -0.816  -0.549   0.476  1.00  0.00     0.014 A 
ATOM     11  C   UNL     1      -1.854   2.377  -3.126  1.00  0.00     0.066 A 
ATOM     12  S   UNL     1      -0.302   1.831  -2.709  1.00  0.00    -0.143 S 
ATOM     13  C   UNL     1      -0.140   0.145  -0.479  1.00  0.00     0.002 A 
ATOM     14  C   UNL     1      -1.722  -2.078   2.538  1.00  0.00     0.003 A 
ATOM     15  C   UNL     1       0.090  -1.279   1.195  1.00  0.00     0.043 A 
ATOM     16  C   UNL     1      -0.351  -2.065   2.242  1.00  0.00     0.026 A 
ATOM     17  N   UNL     1       1.425  -1.178   0.720  1.00  0.00    -0.378 N 
ATOM     18  H   UNL     1       2.043  -0.942   1.493  1.00  0.00     0.161 HD
BRANCH   4  19
ATOM     19  N   UNL     1      -4.375   0.325   0.055  1.00  0.00    -0.377 N 
ATOM     20  C   UNL     1      -4.863   1.637   0.466  1.00  0.00     0.143 C 
ATOM     21  C   UNL     1      -5.138  -0.342  -0.996  1.00  0.00     0.143 C 
ENDBRANCH   4  19
ENDBRANCH   2   3
ENDBRANCH   1   2
BRANCH   1  22
ATOM     22  C   UNL     1       4.426  -0.057   0.437  1.00  0.00     0.015 C 
BRANCH  22  23
ATOM     23  C   UNL     1       5.922   0.014   0.128  1.00  0.00     0.077 C 
BRANCH  23  24
ATOM     24  N   UNL     1       6.641  -0.999   0.891  1.00  0.00    -0.330 NA
ATOM     25  H   UNL     1       6.296  -1.925   0.642  1.00  0.00     0.118 HD
ATOM     26  H   UNL     1       7.626  -0.983   0.629  1.00  0.00     0.118 HD
ENDBRANCH  23  24
ENDBRANCH  22  23
ENDBRANCH   1  22
TORSDOF 6
