MODEL        8USER    Run = 8USERUSER    Estimated Free Energy of Binding    =  -9.64 kcal/mol  [=(1)+(2)+(3)-(4)]USERUSER    (1) Final Intermolecular Energy     = -12.02 kcal/molUSER        vdW + Hbond + desolv Energy     = -11.85 kcal/molUSER        Electrostatic Energy            =  -0.17 kcal/molUSER        Moving Ligand-Fixed Receptor    = -12.02 kcal/molUSER        Moving Ligand-Moving Receptor   =  +0.00 kcal/molUSER    (2) Final Total Internal Energy     =  -2.83 kcal/molUSER    (3) Torsional Free Energy           =  +2.39 kcal/molUSER    (4) Unbound System's Energy         =  -2.83 kcal/molUSERUSERREMARK SMILES CN(C)CCn1cnc2c(-c3ccc(Oc4ccccc4)cc3)nc(-c3cncnc3N)nc21REMARK SMILES IDX 6 1 7 2 8 3 9 4 10 5 24 6 25 7 33 8 34 9 5 10 4 11 2 12 1 13REMARK SMILES IDX 3 14 26 15 27 16 31 17 28 18 30 19 29 20 32 21 11 24 12 25REMARK SMILES IDX 23 26 13 27 22 28 14 29 15 30 16 31 17 32 21 33 18 34 20 35REMARK SMILES IDX 19 36REMARK H PARENT 32 22 32 23USER                              x       y       z     vdW  Elec       q    TypeUSER                           _______ _______ _______ _____ _____    ______ ____ROOTATOM      1  N   UNL     1      38.346  47.663  15.008 -0.23 +0.15    -0.314 N  ATOM      2  C   UNL     1      37.061  47.366  14.651 -0.30 -0.13    +0.202 A  ATOM      3  N   UNL     1      36.458  46.638  15.567 -0.23 +0.18    -0.233 NA ATOM      4  C   UNL     1      37.388  46.473  16.574 -0.28 -0.07    +0.134 A  ATOM      5  C   UNL     1      37.370  45.823  17.816 -0.25 -0.03    +0.102 A  ATOM      6  N   UNL     1      38.502  45.874  18.589 -0.25 +0.03    -0.225 NA ATOM      7  C   UNL     1      39.602  46.527  18.138 -0.29 -0.03    +0.167 A  ATOM      8  N   UNL     1      39.704  47.172  16.957 -0.33 +0.05    -0.208 NA ATOM      9  C   UNL     1      38.574  47.108  16.238 -0.31 -0.07    +0.164 A  ENDROOTBRANCH   1  10ATOM     10  C   UNL     1      39.304  48.408  14.218 -0.41 -0.05    +0.141 C  BRANCH  10  11ATOM     11  C   UNL     1      40.759  48.129  14.624 -0.45 -0.01    +0.105 C  BRANCH  11  12ATOM     12  N   UNL     1      41.383  49.216  15.405 -0.67 +0.03    -0.308 NA ATOM     13  C   UNL     1      40.383  50.093  16.021 -0.24 -0.04    +0.105 C  ATOM     14  C   UNL     1      42.268  50.010  14.547 -0.57 -0.01    +0.105 C  ENDBRANCH  11  12ENDBRANCH  10  11ENDBRANCH   1  10BRANCH   7  15ATOM     15  C   UNL     1      40.798  46.525  18.993 -0.37 -0.00    +0.080 A  ATOM     16  C   UNL     1      40.869  45.714  20.120 -0.31 +0.01    +0.128 A  ATOM     17  C   UNL     1      41.941  47.303  18.797 -0.41 +0.00    +0.137 A  ATOM     18  N   UNL     1      41.914  45.645  20.974 -0.19 -0.04    -0.244 NA ATOM     19  N   UNL     1      43.010  47.260  19.617 -0.39 -0.05    -0.219 NA ATOM     20  C   UNL     1      42.944  46.438  20.669 -0.16 +0.08    +0.224 A  BRANCH  17  21ATOM     21  N   UNL     1      42.095  48.153  17.688 -0.15 -0.00    -0.383 N  ATOM     22  H   UNL     1      41.237  48.695  17.583 +0.08 -0.01    +0.158 HD ATOM     23  H   UNL     1      42.149  47.580  16.849 -0.45 -0.04    +0.158 HD ENDBRANCH  17  21ENDBRANCH   7  15BRANCH   5  24ATOM     24  C   UNL     1      36.207  45.094  18.343 -0.33 -0.00    +0.003 A  ATOM     25  C   UNL     1      36.355  43.802  18.888 -0.33 -0.00    +0.014 A  ATOM     26  C   UNL     1      34.904  45.627  18.313 -0.41 -0.01    +0.014 A  ATOM     27  C   UNL     1      35.264  43.085  19.389 -0.38 -0.01    +0.048 A  ATOM     28  C   UNL     1      33.806  44.914  18.814 -0.39 -0.02    +0.048 A  ATOM     29  C   UNL     1      33.993  43.651  19.370 -0.32 -0.02    +0.127 A  BRANCH  29  30ATOM     30  O   UNL     1      32.957  42.882  19.848 -0.63 -0.05    -0.457 OA BRANCH  30  31ATOM     31  C   UNL     1      32.235  42.152  18.931 -0.27 -0.01    +0.127 A  ATOM     32  C   UNL     1      32.057  40.795  19.203 -0.33 +0.00    +0.047 A  ATOM     33  C   UNL     1      31.630  42.729  17.812 -0.27 -0.01    +0.047 A  ATOM     34  C   UNL     1      31.307  40.003  18.333 -0.39 -0.00    +0.004 A  ATOM     35  C   UNL     1      30.880  41.936  16.943 -0.31 -0.00    +0.004 A  ATOM     36  C   UNL     1      30.722  40.573  17.201 -0.36 -0.00    +0.000 A  ENDBRANCH  30  31ENDBRANCH  29  30ENDBRANCH   5  24TORSDOF 8TERENDMDL