REMARK SMILES C[C@H]1C(=Cc2cccn2C)C=Nc2[nH]cc(-c3cccc(C(=O)N(C)C)c3)c21
REMARK SMILES IDX 1 1 2 2 3 3 11 4 12 5 13 6 14 7 15 8 16 9 28 10 4 12 5 13
REMARK SMILES IDX 6 14 9 15 7 16 8 17 10 18 17 19 18 20 27 21 19 22 21 23
REMARK SMILES IDX 20 24 22 25 24 26 23 27 25 28 26 29
REMARK H PARENT 14 11
ROOT
ATOM      1  C   UNL     1      -0.491   1.774  -0.199  1.00  0.00     0.018 C 
ATOM      2  C   UNL     1      -1.226   0.431  -0.122  1.00  0.00     0.052 C 
ATOM      3  C   UNL     1      -2.724   0.635  -0.344  1.00  0.00    -0.020 C 
ATOM      4  C   UNL     1      -3.253   0.262  -1.708  1.00  0.00     0.118 C 
ATOM      5  N   UNL     1      -2.645  -0.441  -2.619  1.00  0.00    -0.239 NA
ATOM      6  C   UNL     1      -1.414  -0.854  -2.252  1.00  0.00     0.134 A 
ATOM      7  N   UNL     1      -0.673  -1.712  -3.011  1.00  0.00    -0.346 N 
ATOM      8  C   UNL     1       0.521  -1.962  -2.382  1.00  0.00     0.093 A 
ATOM      9  C   UNL     1       0.546  -1.249  -1.197  1.00  0.00     0.005 A 
ATOM     10  C   UNL     1      -0.685  -0.536  -1.126  1.00  0.00     0.011 A 
ATOM     11  H   UNL     1      -0.978  -2.093  -3.895  1.00  0.00     0.167 HD
ENDROOT
BRANCH   3  12
ATOM     12  C   UNL     1      -3.533   1.091   0.630  1.00  0.00     0.032 C 
BRANCH  12  13
ATOM     13  C   UNL     1      -4.927   1.272   0.478  1.00  0.00     0.041 A 
ATOM     14  C   UNL     1      -5.680   2.403   0.223  1.00  0.00     0.028 A 
ATOM     15  N   UNL     1      -5.804   0.217   0.622  1.00  0.00    -0.351 N 
ATOM     16  C   UNL     1      -7.040   2.018   0.185  1.00  0.00     0.020 A 
ATOM     17  C   UNL     1      -7.089   0.665   0.432  1.00  0.00     0.086 A 
ATOM     18  C   UNL     1      -5.464  -1.158   0.926  1.00  0.00     0.149 C 
ENDBRANCH  12  13
ENDBRANCH   3  12
BRANCH   9  19
ATOM     19  C   UNL     1       1.669  -1.283  -0.279  1.00  0.00    -0.016 A 
ATOM     20  C   UNL     1       1.467  -1.591   1.073  1.00  0.00     0.009 A 
ATOM     21  C   UNL     1       2.964  -1.010  -0.735  1.00  0.00     0.022 A 
ATOM     22  C   UNL     1       2.543  -1.631   1.963  1.00  0.00     0.001 A 
ATOM     23  C   UNL     1       4.035  -1.027   0.163  1.00  0.00     0.040 A 
ATOM     24  C   UNL     1       3.832  -1.354   1.509  1.00  0.00     0.014 A 
BRANCH  23  25
ATOM     25  C   UNL     1       5.398  -0.760  -0.347  1.00  0.00     0.253 C 
ATOM     26  N   UNL     1       6.169   0.226   0.269  1.00  0.00    -0.345 N 
ATOM     27  O   UNL     1       5.794  -1.444  -1.288  1.00  0.00    -0.269 OA
ATOM     28  C   UNL     1       5.629   1.305   1.084  1.00  0.00     0.146 C 
ATOM     29  C   UNL     1       7.548   0.379  -0.159  1.00  0.00     0.146 C 
ENDBRANCH  23  25
ENDBRANCH   9  19
TORSDOF 4
