MODEL        4USER    Run = 4USERUSER    Estimated Free Energy of Binding    =  -8.54 kcal/mol  [=(1)+(2)+(3)-(4)]USERUSER    (1) Final Intermolecular Energy     = -10.63 kcal/molUSER        vdW + Hbond + desolv Energy     = -10.28 kcal/molUSER        Electrostatic Energy            =  -0.34 kcal/molUSER        Moving Ligand-Fixed Receptor    = -10.63 kcal/molUSER        Moving Ligand-Moving Receptor   =  +0.00 kcal/molUSER    (2) Final Total Internal Energy     =  -1.93 kcal/molUSER    (3) Torsional Free Energy           =  +2.09 kcal/molUSER    (4) Unbound System's Energy         =  -1.93 kcal/molUSERUSERREMARK SMILES CC=C1C=C(O)C(C(=O)/C=C/c2ccc(-c3ccccc3)cc2)=N1REMARK SMILES IDX 8 1 9 2 7 3 3 4 4 5 24 6 5 7 2 8 1 9 6 10 10 12 11 13 12 14REMARK SMILES IDX 13 15 23 16 14 17 22 18 15 19 16 20 17 21 21 22 18 23 20 24REMARK SMILES IDX 19 25REMARK H PARENT 6 11USER                              x       y       z     vdW  Elec       q    TypeUSER                           _______ _______ _______ _____ _____    ______ ____ROOTATOM      1  C   UNL     1      36.927  47.527  12.899 -0.52 -0.08    +0.208 C  ATOM      2  O   UNL     1      37.290  47.732  11.749 -1.04 +0.04    -0.287 OA ENDROOTBRANCH   1   3ATOM      3  C   UNL     1      37.886  47.722  14.031 -0.47 -0.06    +0.153 C  ATOM      4  C   UNL     1      39.487  47.422  15.395 -0.52 -0.02    +0.063 C  ATOM      5  C   UNL     1      38.832  48.659  15.752 -0.45 -0.04    +0.076 C  ATOM      6  N   UNL     1      38.840  46.872  14.310 -0.27 +0.06    -0.241 NA ATOM      7  C   UNL     1      37.810  48.881  14.923 -0.43 -0.11    +0.147 C  BRANCH   4   8ATOM      8  C   UNL     1      40.544  46.848  15.977 -0.51 +0.00    -0.002 C  ATOM      9  C   UNL     1      40.795  46.666  17.437 -0.53 -0.00    +0.038 C  ENDBRANCH   4   8BRANCH   7  10ATOM     10  O   UNL     1      36.902  49.886  14.891 -0.24 +0.57    -0.505 OA ATOM     11  H   UNL     1      36.309  49.785  15.654 -0.07 -0.66    +0.293 HD ENDBRANCH   7  10ENDBRANCH   1   3BRANCH   1  12ATOM     12  C   UNL     1      35.566  47.072  13.277 -0.53 -0.04    +0.055 C  BRANCH  12  13ATOM     13  C   UNL     1      35.401  45.871  13.852 -0.43 -0.01    +0.012 C  BRANCH  13  14ATOM     14  C   UNL     1      35.910  45.519  15.183 -0.35 +0.01    -0.025 A  ATOM     15  C   UNL     1      35.473  46.257  16.288 -0.34 -0.01    +0.009 A  ATOM     16  C   UNL     1      36.857  44.510  15.386 -0.36 -0.00    +0.009 A  ATOM     17  C   UNL     1      35.953  45.975  17.573 -0.34 -0.01    +0.009 A  ATOM     18  C   UNL     1      37.336  44.229  16.672 -0.32 -0.00    +0.009 A  ATOM     19  C   UNL     1      36.891  44.954  17.789 -0.33 +0.01    -0.018 A  BRANCH  19  20ATOM     20  C   UNL     1      37.395  44.657  19.140 -0.34 +0.00    -0.018 A  ATOM     21  C   UNL     1      38.697  45.021  19.527 -0.38 -0.00    +0.009 A  ATOM     22  C   UNL     1      36.589  43.998  20.086 -0.40 -0.00    +0.009 A  ATOM     23  C   UNL     1      39.175  44.737  20.808 -0.35 +0.00    +0.001 A  ATOM     24  C   UNL     1      37.067  43.713  21.368 -0.41 +0.00    +0.001 A  ATOM     25  C   UNL     1      38.360  44.082  21.728 -0.34 +0.00    +0.000 A  ENDBRANCH  19  20ENDBRANCH  13  14ENDBRANCH  12  13ENDBRANCH   1  12TORSDOF 7TERENDMDL