REMARK SMILES CC=C1C=C(O)C(C(=O)/C=C/c2ccc(-c3ccccc3)cc2)=N1
REMARK SMILES IDX 8 1 9 2 7 3 3 4 4 5 24 6 5 7 2 8 1 9 6 10 10 12 11 13 12 14
REMARK SMILES IDX 13 15 23 16 14 17 22 18 15 19 16 20 17 21 21 22 18 23 20 24
REMARK SMILES IDX 19 25
REMARK H PARENT 6 11
ROOT
ATOM      1  C   UNL     1      -2.760   1.211  -1.534  1.00  0.00     0.208 C 
ATOM      2  O   UNL     1      -2.853   2.094  -2.375  1.00  0.00    -0.287 OA
ENDROOT
BRANCH   1   3
ATOM      3  C   UNL     1      -3.992   0.525  -1.032  1.00  0.00     0.153 C 
ATOM      4  C   UNL     1      -5.516  -0.197   0.259  1.00  0.00     0.063 C 
ATOM      5  C   UNL     1      -5.833  -0.633  -1.081  1.00  0.00     0.076 C 
ATOM      6  N   UNL     1      -4.340   0.519   0.229  1.00  0.00    -0.241 NA
ATOM      7  C   UNL     1      -4.892  -0.207  -1.926  1.00  0.00     0.147 C 
BRANCH   4   8
ATOM      8  C   UNL     1      -6.202  -0.418   1.385  1.00  0.00    -0.002 C 
ATOM      9  C   UNL     1      -7.481  -1.171   1.541  1.00  0.00     0.038 C 
ENDBRANCH   4   8
BRANCH   7  10
ATOM     10  O   UNL     1      -4.752  -0.397  -3.260  1.00  0.00    -0.505 OA
ATOM     11  H   UNL     1      -5.539  -0.866  -3.585  1.00  0.00     0.293 HD
ENDBRANCH   7  10
ENDBRANCH   1   3
BRANCH   1  12
ATOM     12  C   UNL     1      -1.480   0.755  -0.938  1.00  0.00     0.055 C 
BRANCH  12  13
ATOM     13  C   UNL     1      -0.322   1.291  -1.354  1.00  0.00     0.012 C 
BRANCH  13  14
ATOM     14  C   UNL     1       0.994   0.927  -0.814  1.00  0.00    -0.025 A 
ATOM     15  C   UNL     1       1.980   1.915  -0.722  1.00  0.00     0.009 A 
ATOM     16  C   UNL     1       1.320  -0.380  -0.438  1.00  0.00     0.009 A 
ATOM     17  C   UNL     1       3.258   1.608  -0.239  1.00  0.00     0.009 A 
ATOM     18  C   UNL     1       2.599  -0.685   0.045  1.00  0.00     0.009 A 
ATOM     19  C   UNL     1       3.590   0.303   0.155  1.00  0.00    -0.018 A 
BRANCH  19  20
ATOM     20  C   UNL     1       4.934  -0.019   0.664  1.00  0.00    -0.018 A 
ATOM     21  C   UNL     1       5.106  -0.687   1.889  1.00  0.00     0.009 A 
ATOM     22  C   UNL     1       6.087   0.334  -0.059  1.00  0.00     0.009 A 
ATOM     23  C   UNL     1       6.381  -0.990   2.373  1.00  0.00     0.001 A 
ATOM     24  C   UNL     1       7.363   0.032   0.424  1.00  0.00     0.001 A 
ATOM     25  C   UNL     1       7.509  -0.630   1.641  1.00  0.00     0.000 A 
ENDBRANCH  19  20
ENDBRANCH  13  14
ENDBRANCH  12  13
ENDBRANCH   1  12
TORSDOF 7
