MODEL        8USER    Run = 8USERUSER    Estimated Free Energy of Binding    =  -9.18 kcal/mol  [=(1)+(2)+(3)-(4)]USERUSER    (1) Final Intermolecular Energy     = -10.97 kcal/molUSER        vdW + Hbond + desolv Energy     = -10.80 kcal/molUSER        Electrostatic Energy            =  -0.17 kcal/molUSER        Moving Ligand-Fixed Receptor    = -10.97 kcal/molUSER        Moving Ligand-Moving Receptor   =  +0.00 kcal/molUSER    (2) Final Total Internal Energy     =  -0.60 kcal/molUSER    (3) Torsional Free Energy           =  +1.79 kcal/molUSER    (4) Unbound System's Energy         =  -0.60 kcal/molUSERUSERREMARK SMILES CN(C)c1c2ccsc2c2c3c(cccc13)N[C@@H]2CCCCNREMARK SMILES IDX 20 1 19 2 18 3 4 4 5 5 16 6 6 7 9 8 15 9 11 10 7 11 8 12REMARK SMILES IDX 10 13 14 14 12 15 13 16 17 17 2 19 1 20 3 21 21 22 22 23REMARK SMILES IDX 23 24REMARK H PARENT 17 18 23 25 23 26USER                              x       y       z     vdW  Elec       q    TypeUSER                           _______ _______ _______ _____ _____    ______ ____ROOTATOM      1  C   UNL     1      41.616  49.405  15.135 -0.61 -0.00    +0.004 C  ENDROOTBRANCH   1   2ATOM      2  C   UNL     1      40.244  48.798  14.813 -0.62 -0.01    +0.030 C  BRANCH   2   3ATOM      3  C   UNL     1      40.185  47.268  14.960 -0.46 -0.02    +0.111 C  ATOM      4  C   UNL     1      36.486  45.662  16.566 -0.32 -0.03    +0.053 A  ATOM      5  C   UNL     1      36.416  46.215  15.230 -0.37 -0.01    +0.017 A  ATOM      6  C   UNL     1      37.751  45.650  17.237 -0.37 -0.00    +0.008 A  ATOM      7  C   UNL     1      35.305  46.332  14.313 -0.40 -0.02    +0.022 A  ATOM      8  C   UNL     1      37.579  46.750  14.636 -0.40 -0.02    +0.042 A  ATOM      9  C   UNL     1      38.055  45.148  18.524 -0.37 -0.00    +0.011 A  ATOM     10  C   UNL     1      38.832  46.196  16.557 -0.40 -0.00    +0.014 A  ATOM     11  C   UNL     1      35.634  46.911  13.111 -0.51 -0.04    +0.066 A  ATOM     12  S   UNL     1      37.277  47.331  13.040 -0.70 +0.05    -0.143 S  ATOM     13  C   UNL     1      38.799  46.765  15.322 -0.44 -0.00    +0.002 A  ATOM     14  C   UNL     1      39.368  45.203  19.034 -0.41 -0.00    +0.003 A  ATOM     15  C   UNL     1      40.116  46.262  17.024 -0.44 -0.01    +0.043 A  ATOM     16  C   UNL     1      40.409  45.759  18.276 -0.45 -0.00    +0.026 A  ATOM     17  N   UNL     1      41.042  46.814  16.098 -0.02 +0.02    -0.378 N  ATOM     18  H   UNL     1      41.575  47.553  16.552 -0.27 -0.02    +0.161 HD BRANCH   4  19ATOM     19  N   UNL     1      35.383  45.103  17.277 -0.07 +0.19    -0.377 N  ATOM     20  C   UNL     1      34.455  46.109  17.779 -0.40 -0.12    +0.143 C  ATOM     21  C   UNL     1      34.783  43.967  16.583 -0.29 -0.06    +0.143 C  ENDBRANCH   4  19ENDBRANCH   2   3ENDBRANCH   1   2BRANCH   1  22ATOM     22  C   UNL     1      41.900  50.734  14.433 -0.61 -0.00    +0.015 C  BRANCH  22  23ATOM     23  C   UNL     1      42.213  50.520  12.952 -0.62 -0.03    +0.077 C  BRANCH  23  24ATOM     24  N   UNL     1      43.312  49.574  12.801 -0.38 +0.10    -0.330 NA ATOM     25  H   UNL     1      43.877  49.831  11.993 -0.51 -0.08    +0.118 HD ATOM     26  H   UNL     1      43.927  49.641  13.611 -0.36 -0.05    +0.118 HD ENDBRANCH  23  24ENDBRANCH  22  23ENDBRANCH   1  22TORSDOF 6TERENDMDL