MODEL        6USER    Run = 6USERUSER    Estimated Free Energy of Binding    =  -9.26 kcal/mol  [=(1)+(2)+(3)-(4)]USERUSER    (1) Final Intermolecular Energy     = -11.95 kcal/molUSER        vdW + Hbond + desolv Energy     = -11.83 kcal/molUSER        Electrostatic Energy            =  -0.11 kcal/molUSER        Moving Ligand-Fixed Receptor    = -11.95 kcal/molUSER        Moving Ligand-Moving Receptor   =  +0.00 kcal/molUSER    (2) Final Total Internal Energy     =  -2.74 kcal/molUSER    (3) Torsional Free Energy           =  +2.68 kcal/molUSER    (4) Unbound System's Energy         =  -2.74 kcal/molUSERUSERREMARK SMILES CC[C@H](O)[C@@H](N)c1ccc(C(=O)Nc2nc(-c3cccc(F)c3)cs2)cc1NREMARK SMILES IDX 7 1 8 2 9 3 10 4 26 5 27 6 5 7 3 8 2 9 1 10 4 11 6 13 28 16REMARK SMILES IDX 11 19 13 20 12 21 14 23 15 24 25 25 16 26 24 27 17 28 18 29REMARK SMILES IDX 23 30 19 31 21 32 20 33 22 34REMARK H PARENT 4 12 6 14 6 15 28 17 28 18 13 22USER                              x       y       z     vdW  Elec       q    TypeUSER                           _______ _______ _______ _____ _____    ______ ____ROOTATOM      1  C   UNL     1      38.878  46.966  16.329 -0.43 +0.00    -0.006 A  ATOM      2  C   UNL     1      37.766  46.154  16.624 -0.38 -0.00    +0.008 A  ATOM      3  C   UNL     1      37.703  45.432  17.817 -0.36 -0.00    +0.014 A  ATOM      4  C   UNL     1      38.741  45.529  18.746 -0.37 -0.00    +0.042 A  ATOM      5  C   UNL     1      39.866  46.308  18.451 -0.41 -0.00    +0.039 A  ATOM      6  C   UNL     1      39.963  46.988  17.230 -0.46 -0.01    +0.037 A  ENDROOTBRANCH   1   7ATOM      7  C   UNL     1      38.854  47.791  15.052 -0.49 -0.04    +0.112 C  BRANCH   7   8ATOM      8  C   UNL     1      37.533  47.657  14.228 -0.48 -0.07    +0.135 C  BRANCH   8   9ATOM      9  C   UNL     1      37.566  46.503  13.214 -0.53 -0.01    +0.030 C  ATOM     10  C   UNL     1      36.648  46.752  12.024 -0.76 -0.00    +0.007 C  ENDBRANCH   8   9BRANCH   8  11ATOM     11  O   UNL     1      37.314  48.897  13.522 -0.54 +0.17    -0.391 OA ATOM     12  H   UNL     1      37.882  49.573  13.929 -0.38 -0.15    +0.211 HD ENDBRANCH   8  11ENDBRANCH   7   8BRANCH   7  13ATOM     13  N   UNL     1      39.119  49.221  15.335 -0.18 +0.20    -0.322 NA ATOM     14  H   UNL     1      38.213  49.696  15.342 -0.38 -0.11    +0.119 HD ATOM     15  H   UNL     1      39.654  49.612  14.562 -0.23 -0.08    +0.119 HD ENDBRANCH   7  13ENDBRANCH   1   7BRANCH   6  16ATOM     16  N   UNL     1      41.062  47.840  17.013 -0.24 +0.05    -0.398 N  ATOM     17  H   UNL     1      40.837  48.510  16.266 +0.11 -0.02    +0.156 HD ATOM     18  H   UNL     1      41.926  47.350  16.805 -0.43 -0.04    +0.156 HD ENDBRANCH   6  16BRANCH   4  19ATOM     19  C   UNL     1      38.619  44.778  20.028 -0.26 -0.01    +0.257 C  ATOM     20  N   UNL     1      37.559  43.902  20.078 -0.17 +0.01    -0.298 N  ATOM     21  O   UNL     1      39.468  44.971  20.888 -0.23 -0.01    -0.269 OA ATOM     22  H   UNL     1      36.999  43.734  19.256 +0.12 -0.02    +0.172 HD BRANCH  20  23ATOM     23  C   UNL     1      37.192  43.108  21.134 -0.27 +0.00    +0.190 A  ATOM     24  N   UNL     1      37.156  43.591  22.353 -0.25 -0.02    -0.220 NA ATOM     25  S   UNL     1      36.791  41.464  20.974 -0.60 +0.00    -0.105 S  ATOM     26  C   UNL     1      36.778  42.597  23.250 -0.35 +0.01    +0.084 A  ATOM     27  C   UNL     1      36.529  41.370  22.665 -0.45 +0.00    +0.097 A  BRANCH  26  28ATOM     28  C   UNL     1      36.655  42.883  24.678 -0.37 +0.00    +0.004 A  ATOM     29  C   UNL     1      36.970  44.168  25.153 -0.33 +0.00    +0.010 A  ATOM     30  C   UNL     1      36.243  41.914  25.602 -0.37 -0.01    +0.049 A  ATOM     31  C   UNL     1      36.866  44.483  26.512 -0.36 -0.00    +0.004 A  ATOM     32  C   UNL     1      36.144  42.237  26.953 -0.40 -0.03    +0.123 A  ATOM     33  C   UNL     1      36.449  43.511  27.416 -0.40 -0.01    +0.039 A  ATOM     34  F   UNL     1      35.748  41.299  27.822 -0.19 +0.09    -0.207 F  ENDBRANCH  26  28ENDBRANCH  20  23ENDBRANCH   4  19TORSDOF 9TERENDMDL