
     RDKit          3D

 87 91  0  0  0  0  0  0  0  0999 V2000
   -7.0108    5.9037    2.2756 C   0  0  0  0  0  0  0  0  0  0  0  0
   -6.4358    4.6182    2.0795 O   0  0  0  0  0  0  0  0  0  0  0  0
   -7.2082    3.5311    2.3905 C   0  0  0  0  0  0  0  0  0  0  0  0
   -8.5375    3.5792    2.8177 C   0  0  0  0  0  0  0  0  0  0  0  0
   -9.2191    2.3970    3.1185 C   0  0  0  0  0  0  0  0  0  0  0  0
   -8.5795    1.1676    2.9822 C   0  0  0  0  0  0  0  0  0  0  0  0
   -9.3086    0.0613    3.3292 O   0  0  0  0  0  0  0  0  0  0  0  0
   -7.2611    1.0959    2.5156 C   0  0  0  0  0  0  0  0  0  0  0  0
   -6.6194   -0.2270    2.3573 C   0  0  0  0  0  0  0  0  0  0  0  0
   -6.9834   -1.1326    3.1106 O   0  0  0  0  0  0  0  0  0  0  0  0
   -5.6168   -0.5314    1.3068 C   0  0  0  0  0  0  0  0  0  0  0  0
   -5.6779    0.0449    0.0339 C   0  0  0  0  0  0  0  0  0  0  0  0
   -4.7379   -0.3115   -0.9391 C   0  0  0  0  0  0  0  0  0  0  0  0
   -3.7388   -1.2543   -0.6566 C   0  0  0  0  0  0  0  0  0  0  0  0
   -2.7850   -1.6221   -1.7439 C   0  0  0  0  0  0  0  0  0  0  0  0
   -3.0633   -1.3785   -2.9132 O   0  0  0  0  0  0  0  0  0  0  0  0
   -1.5992   -2.2117   -1.3568 N   0  0  0  0  0  0  0  0  0  0  0  0
   -0.5523   -2.5738   -2.3283 C   0  0  2  0  0  0  0  0  0  0  0  0
   -1.0134   -3.7781   -3.1755 C   0  0  0  0  0  0  0  0  0  0  0  0
    0.0013   -4.4355   -4.1181 C   0  0  0  0  0  0  0  0  0  0  0  0
    1.0132   -3.5078   -4.7991 C   0  0  0  0  0  0  0  0  0  0  0  0
    1.7371   -2.6215   -3.8519 N   0  0  0  0  0  0  0  0  0  0  0  0
    3.0266   -1.7017   -4.4446 S   0  0  0  0  0  0  0  0  0  0  0  0
    2.2866   -0.7853   -5.7816 C   0  0  0  0  0  0  0  0  0  0  0  0
    4.0039   -2.6188   -4.9862 O   0  0  0  0  0  0  0  0  0  0  0  0
    3.3708   -0.7561   -3.4022 O   0  0  0  0  0  0  0  0  0  0  0  0
    1.9581   -3.2138   -2.5024 C   0  0  0  0  0  0  0  0  0  0  0  0
    0.8010   -2.7681   -1.5848 C   0  0  1  0  0  0  0  0  0  0  0  0
    1.1669   -1.5008   -0.9170 N   0  0  0  0  0  0  0  0  0  0  0  0
    1.9918   -1.5197    0.1921 C   0  0  0  0  0  0  0  0  0  0  0  0
    2.2806   -2.5545    0.7831 O   0  0  0  0  0  0  0  0  0  0  0  0
    2.5621   -0.2240    0.6264 C   0  0  0  0  0  0  0  0  0  0  0  0
    1.9327    0.9838    0.3798 C   0  0  0  0  0  0  0  0  0  0  0  0
    2.4252    2.1758    0.7799 N   0  0  0  0  0  0  0  0  0  0  0  0
    3.6040    2.1469    1.4581 C   0  0  0  0  0  0  0  0  0  0  0  0
    4.3449    1.0001    1.7699 C   0  0  0  0  0  0  0  0  0  0  0  0
    5.5422    0.9945    2.4894 N   0  0  0  0  0  0  0  0  0  0  0  0
    6.0115    2.2187    3.1726 C   0  0  0  0  0  0  0  0  0  0  0  0
    6.9298    3.0694    2.2601 C   0  0  0  0  0  0  0  0  0  0  0  0
    8.0630    2.3407    1.6457 N   0  0  0  0  0  0  0  0  0  0  0  0
    9.1152    2.0606    2.6206 C   0  0  0  0  0  0  0  0  0  0  0  0
    7.5594    1.0980    1.0144 C   0  0  0  0  0  0  0  0  0  0  0  0
    6.6632    0.2096    1.9149 C   0  0  0  0  0  0  0  0  0  0  0  0
    3.7639   -0.2043    1.3446 C   0  0  0  0  0  0  0  0  0  0  0  0
   -3.7007   -1.8536    0.6090 C   0  0  0  0  0  0  0  0  0  0  0  0
   -4.6371   -1.4933    1.5842 C   0  0  0  0  0  0  0  0  0  0  0  0
   -6.5793    2.2847    2.2505 C   0  0  0  0  0  0  0  0  0  0  0  0
   -5.2891    2.2521    1.8773 F   0  0  0  0  0  0  0  0  0  0  0  0
   -7.8786    6.0505    1.6239 H   0  0  0  0  0  0  0  0  0  0  0  0
   -7.2736    6.0625    3.3269 H   0  0  0  0  0  0  0  0  0  0  0  0
   -6.2597    6.6523    2.0026 H   0  0  0  0  0  0  0  0  0  0  0  0
   -9.0704    4.5173    2.9380 H   0  0  0  0  0  0  0  0  0  0  0  0
  -10.2482    2.4333    3.4695 H   0  0  0  0  0  0  0  0  0  0  0  0
   -8.6865   -0.6986    3.4007 H   0  0  0  0  0  0  0  0  0  0  0  0
   -6.4528    0.7600   -0.2279 H   0  0  0  0  0  0  0  0  0  0  0  0
   -4.7942    0.1416   -1.9279 H   0  0  0  0  0  0  0  0  0  0  0  0
   -1.2999   -2.1026   -0.3949 H   0  0  0  0  0  0  0  0  0  0  0  0
   -0.4685   -1.7043   -2.9953 H   0  0  0  0  0  0  0  0  0  0  0  0
   -1.8675   -3.4623   -3.7885 H   0  0  0  0  0  0  0  0  0  0  0  0
   -1.4119   -4.5575   -2.5115 H   0  0  0  0  0  0  0  0  0  0  0  0
    0.5247   -5.2298   -3.5732 H   0  0  0  0  0  0  0  0  0  0  0  0
   -0.5549   -4.9689   -4.9006 H   0  0  0  0  0  0  0  0  0  0  0  0
    0.4696   -2.8809   -5.5137 H   0  0  0  0  0  0  0  0  0  0  0  0
    1.7309   -4.1189   -5.3568 H   0  0  0  0  0  0  0  0  0  0  0  0
    3.0335   -0.0785   -6.1511 H   0  0  0  0  0  0  0  0  0  0  0  0
    2.0078   -1.4705   -6.5831 H   0  0  0  0  0  0  0  0  0  0  0  0
    1.4202   -0.2416   -5.4011 H   0  0  0  0  0  0  0  0  0  0  0  0
    2.9216   -2.9011   -2.0827 H   0  0  0  0  0  0  0  0  0  0  0  0
    2.0320   -4.3035   -2.5558 H   0  0  0  0  0  0  0  0  0  0  0  0
    0.6758   -3.5243   -0.7994 H   0  0  0  0  0  0  0  0  0  0  0  0
    1.2702   -0.7090   -1.5452 H   0  0  0  0  0  0  0  0  0  0  0  0
    0.9811    1.0452   -0.1383 H   0  0  0  0  0  0  0  0  0  0  0  0
    3.9460    3.1376    1.7398 H   0  0  0  0  0  0  0  0  0  0  0  0
    6.5746    1.9120    4.0628 H   0  0  0  0  0  0  0  0  0  0  0  0
    5.1788    2.8201    3.5542 H   0  0  0  0  0  0  0  0  0  0  0  0
    7.3016    3.9349    2.8220 H   0  0  0  0  0  0  0  0  0  0  0  0
    6.3298    3.4879    1.4425 H   0  0  0  0  0  0  0  0  0  0  0  0
    8.7851    1.4239    3.4480 H   0  0  0  0  0  0  0  0  0  0  0  0
    9.9649    1.5690    2.1331 H   0  0  0  0  0  0  0  0  0  0  0  0
    9.4985    2.9962    3.0450 H   0  0  0  0  0  0  0  0  0  0  0  0
    6.9820    1.3882    0.1268 H   0  0  0  0  0  0  0  0  0  0  0  0
    8.4015    0.5042    0.6377 H   0  0  0  0  0  0  0  0  0  0  0  0
    7.2575   -0.1932    2.7440 H   0  0  0  0  0  0  0  0  0  0  0  0
    6.3305   -0.6589    1.3375 H   0  0  0  0  0  0  0  0  0  0  0  0
    4.2334   -1.1533    1.5942 H   0  0  0  0  0  0  0  0  0  0  0  0
   -2.9775   -2.6274    0.8496 H   0  0  0  0  0  0  0  0  0  0  0  0
   -4.6083   -1.9768    2.5598 H   0  0  0  0  0  0  0  0  0  0  0  0
  1  2  1  0
  2  3  1  0
  3  4  2  0
  4  5  1  0
  5  6  2  0
  6  7  1  0
  6  8  1  0
  8  9  1  0
  9 10  2  0
  9 11  1  0
 11 12  2  0
 12 13  1  0
 13 14  2  0
 14 15  1  0
 15 16  2  0
 15 17  1  0
 17 18  1  0
 18 19  1  0
 19 20  1  0
 20 21  1  0
 21 22  1  0
 22 23  1  0
 23 24  1  0
 23 25  2  0
 23 26  2  0
 22 27  1  0
 27 28  1  0
 28 29  1  0
 29 30  1  0
 30 31  2  0
 30 32  1  0
 32 33  2  0
 33 34  1  0
 34 35  2  0
 35 36  1  0
 36 37  1  0
 37 38  1  0
 38 39  1  0
 39 40  1  0
 40 41  1  0
 40 42  1  0
 42 43  1  0
 36 44  2  0
 14 45  1  0
 45 46  2  0
  8 47  2  0
 47 48  1  0
 47  3  1  0
 46 11  1  0
 28 18  1  0
 44 32  1  0
 43 37  1  0
  1 49  1  0
  1 50  1  0
  1 51  1  0
  4 52  1  0
  5 53  1  0
  7 54  1  0
 12 55  1  0
 13 56  1  0
 17 57  1  0
 18 58  1  6
 19 59  1  0
 19 60  1  0
 20 61  1  0
 20 62  1  0
 21 63  1  0
 21 64  1  0
 24 65  1  0
 24 66  1  0
 24 67  1  0
 27 68  1  0
 27 69  1  0
 28 70  1  1
 29 71  1  0
 33 72  1  0
 35 73  1  0
 38 74  1  0
 38 75  1  0
 39 76  1  0
 39 77  1  0
 41 78  1  0
 41 79  1  0
 41 80  1  0
 42 81  1  0
 42 82  1  0
 43 83  1  0
 43 84  1  0
 44 85  1  0
 45 86  1  0
 46 87  1  0
M  END
$$$$
