
     RDKit          3D

 61 63  0  0  0  0  0  0  0  0999 V2000
   -5.3327   -0.2226    1.8706 C   0  0  0  0  0  0  0  0  0  0  0  0
   -4.1208    0.2891    1.3163 O   0  0  0  0  0  0  0  0  0  0  0  0
   -3.4593    1.1779    2.1444 C   0  0  0  0  0  0  0  0  0  0  0  0
   -3.9855    1.4000    3.3771 N   0  0  0  0  0  0  0  0  0  0  0  0
   -3.3283    2.2661    4.1794 C   0  0  0  0  0  0  0  0  0  0  0  0
   -2.1701    2.9199    3.8075 C   0  0  0  0  0  0  0  0  0  0  0  0
   -1.5655    3.7660    4.6506 F   0  0  0  0  0  0  0  0  0  0  0  0
   -1.6401    2.6831    2.5499 C   0  0  0  0  0  0  0  0  0  0  0  0
   -2.2903    1.7917    1.6825 C   0  0  0  0  0  0  0  0  0  0  0  0
   -1.6787    1.5727    0.3411 C   0  0  0  0  0  0  0  0  0  0  0  0
   -0.6082    2.1123    0.0654 O   0  0  0  0  0  0  0  0  0  0  0  0
   -2.3290    0.7515   -0.5467 N   0  0  0  0  0  0  0  0  0  0  0  0
   -1.8215    0.4139   -1.8901 C   0  0  2  0  0  0  0  0  0  0  0  0
   -3.0101    0.0769   -2.7937 C   0  0  0  0  0  0  0  0  0  0  0  0
   -3.5676   -1.3379   -2.6388 C   0  0  0  0  0  0  0  0  0  0  0  0
   -2.5998   -2.4837   -2.9605 C   0  0  0  0  0  0  0  0  0  0  0  0
   -1.5273   -2.0537   -3.8485 N   0  0  0  0  0  0  0  0  0  0  0  0
   -1.0252   -3.1741   -4.6423 C   0  0  0  0  0  0  0  0  0  0  0  0
   -0.4053   -1.3812   -3.1518 C   0  0  0  0  0  0  0  0  0  0  0  0
   -0.6939   -0.6590   -1.8023 C   0  0  1  0  0  0  0  0  0  0  0  0
    0.5265   -0.0400   -1.2380 N   0  0  0  0  0  0  0  0  0  0  0  0
    1.6044   -0.7757   -0.7981 C   0  0  0  0  0  0  0  0  0  0  0  0
    1.7320   -1.9727   -1.0122 O   0  0  0  0  0  0  0  0  0  0  0  0
    2.6407   -0.0651   -0.0024 C   0  0  0  0  0  0  0  0  0  0  0  0
    3.6132   -0.8301    0.6420 C   0  0  0  0  0  0  0  0  0  0  0  0
    4.6005   -0.3201    1.4293 N   0  0  0  0  0  0  0  0  0  0  0  0
    4.6067    1.0216    1.5818 C   0  0  0  0  0  0  0  0  0  0  0  0
    5.5731    1.6088    2.3639 O   0  0  0  0  0  0  0  0  0  0  0  0
    6.2755    0.7250    3.2515 C   0  0  0  0  0  0  0  0  0  0  0  0
    7.4991    0.1086    2.5771 C   0  0  0  0  0  0  0  0  0  0  0  0
    7.1850   -1.1233    1.9315 O   0  0  0  0  0  0  0  0  0  0  0  0
    3.7015    1.8640    0.9470 C   0  0  0  0  0  0  0  0  0  0  0  0
    3.7624    3.1957    1.1055 F   0  0  0  0  0  0  0  0  0  0  0  0
    2.7055    1.3207    0.1466 C   0  0  0  0  0  0  0  0  0  0  0  0
   -5.1371   -0.8239    2.7649 H   0  0  0  0  0  0  0  0  0  0  0  0
   -5.7871   -0.8810    1.1215 H   0  0  0  0  0  0  0  0  0  0  0  0
   -6.0460    0.5803    2.0802 H   0  0  0  0  0  0  0  0  0  0  0  0
   -3.7649    2.4308    5.1583 H   0  0  0  0  0  0  0  0  0  0  0  0
   -0.7288    3.1950    2.2566 H   0  0  0  0  0  0  0  0  0  0  0  0
   -3.1569    0.2623   -0.2167 H   0  0  0  0  0  0  0  0  0  0  0  0
   -1.3762    1.3356   -2.2801 H   0  0  0  0  0  0  0  0  0  0  0  0
   -3.8217    0.7917   -2.6099 H   0  0  0  0  0  0  0  0  0  0  0  0
   -2.7261    0.2393   -3.8380 H   0  0  0  0  0  0  0  0  0  0  0  0
   -3.9591   -1.4763   -1.6258 H   0  0  0  0  0  0  0  0  0  0  0  0
   -4.4309   -1.4199   -3.3099 H   0  0  0  0  0  0  0  0  0  0  0  0
   -2.2104   -2.9376   -2.0446 H   0  0  0  0  0  0  0  0  0  0  0  0
   -3.2038   -3.2716   -3.4289 H   0  0  0  0  0  0  0  0  0  0  0  0
   -0.2558   -2.8452   -5.3432 H   0  0  0  0  0  0  0  0  0  0  0  0
   -0.6018   -3.9644   -4.0148 H   0  0  0  0  0  0  0  0  0  0  0  0
   -1.8323   -3.6039   -5.2454 H   0  0  0  0  0  0  0  0  0  0  0  0
    0.3813   -2.1188   -2.9638 H   0  0  0  0  0  0  0  0  0  0  0  0
    0.0304   -0.6588   -3.8527 H   0  0  0  0  0  0  0  0  0  0  0  0
   -0.9839   -1.4158   -1.0621 H   0  0  0  0  0  0  0  0  0  0  0  0
    0.3762    0.8805   -0.8272 H   0  0  0  0  0  0  0  0  0  0  0  0
    3.6278   -1.9109    0.5454 H   0  0  0  0  0  0  0  0  0  0  0  0
    6.6229    1.3594    4.0763 H   0  0  0  0  0  0  0  0  0  0  0  0
    5.6117   -0.0276    3.6899 H   0  0  0  0  0  0  0  0  0  0  0  0
    7.9272    0.7831    1.8285 H   0  0  0  0  0  0  0  0  0  0  0  0
    8.2604   -0.1138    3.3313 H   0  0  0  0  0  0  0  0  0  0  0  0
    6.3021   -1.0115    1.5191 H   0  0  0  0  0  0  0  0  0  0  0  0
    2.0162    1.9966   -0.3444 H   0  0  0  0  0  0  0  0  0  0  0  0
  1  2  1  0
  2  3  1  0
  3  4  2  0
  4  5  1  0
  5  6  2  0
  6  7  1  0
  6  8  1  0
  8  9  2  0
  9 10  1  0
 10 11  2  0
 10 12  1  0
 12 13  1  0
 13 14  1  0
 14 15  1  0
 15 16  1  0
 16 17  1  0
 17 18  1  0
 17 19  1  0
 19 20  1  0
 20 21  1  0
 21 22  1  0
 22 23  2  0
 22 24  1  0
 24 25  2  0
 25 26  1  0
 26 27  2  0
 27 28  1  0
 28 29  1  0
 29 30  1  0
 30 31  1  0
 27 32  1  0
 32 33  1  0
 32 34  2  0
  9  3  1  0
 20 13  1  0
 34 24  1  0
  1 35  1  0
  1 36  1  0
  1 37  1  0
  5 38  1  0
  8 39  1  0
 12 40  1  0
 13 41  1  6
 14 42  1  0
 14 43  1  0
 15 44  1  0
 15 45  1  0
 16 46  1  0
 16 47  1  0
 18 48  1  0
 18 49  1  0
 18 50  1  0
 19 51  1  0
 19 52  1  0
 20 53  1  1
 21 54  1  0
 25 55  1  0
 29 56  1  0
 29 57  1  0
 30 58  1  0
 30 59  1  0
 31 60  1  0
 34 61  1  0
M  END
$$$$
