
     RDKit          3D

 83 90  0  0  0  0  0  0  0  0999 V2000
   -7.7998    2.6722    1.3507 C   0  0  0  0  0  0  0  0  0  0  0  0
   -6.3463    2.5230    1.3322 N   0  0  0  0  0  0  0  0  0  0  0  0
   -5.9168    1.7637    0.1390 C   0  0  0  0  0  0  0  0  0  0  0  0
   -4.4917    1.1891    0.2767 C   0  0  0  0  0  0  0  0  0  0  0  0
   -4.4280    0.2132    1.3844 N   0  0  0  0  0  0  0  0  0  0  0  0
   -3.1227   -0.1542    1.7525 C   0  0  0  0  0  0  0  0  0  0  0  0
   -2.4108    0.5137    2.7512 C   0  0  0  0  0  0  0  0  0  0  0  0
   -1.1505    0.2050    3.1353 N   0  0  0  0  0  0  0  0  0  0  0  0
   -0.5194   -0.8230    2.5365 N   0  0  0  0  0  0  0  0  0  0  0  0
   -1.1619   -1.5060    1.5620 C   0  0  0  0  0  0  0  0  0  0  0  0
   -2.4499   -1.2127    1.1132 C   0  0  0  0  0  0  0  0  0  0  0  0
   -3.0497   -2.0182    0.0382 C   0  0  0  0  0  0  0  0  0  0  0  0
   -4.1517   -2.7296    0.4099 N   0  0  0  0  0  0  0  0  0  0  0  0
   -4.7469   -3.4937   -0.5196 C   0  0  0  0  0  0  0  0  0  0  0  0
   -5.8892   -4.2045   -0.1852 C   0  0  0  0  0  0  0  0  0  0  0  0
   -6.5227   -5.0028   -1.1275 C   0  0  0  0  0  0  0  0  0  0  0  0
   -7.6270   -5.6790   -0.7869 F   0  0  0  0  0  0  0  0  0  0  0  0
   -6.0272   -5.1064   -2.4171 C   0  0  0  0  0  0  0  0  0  0  0  0
   -4.8776   -4.3953   -2.7601 C   0  0  0  0  0  0  0  0  0  0  0  0
   -4.2286   -3.5885   -1.8319 C   0  0  0  0  0  0  0  0  0  0  0  0
   -3.1219   -2.9187   -2.1958 N   0  0  0  0  0  0  0  0  0  0  0  0
   -2.5301   -2.1192   -1.2633 C   0  0  0  0  0  0  0  0  0  0  0  0
   -1.3126   -1.4372   -1.7440 C   0  0  0  0  0  0  0  0  0  0  0  0
   -1.1320   -0.0508   -1.6225 C   0  0  0  0  0  0  0  0  0  0  0  0
    0.0483    0.5668   -2.0497 C   0  0  0  0  0  0  0  0  0  0  0  0
    1.0847   -0.1834   -2.6198 C   0  0  0  0  0  0  0  0  0  0  0  0
    2.3652    0.4877   -3.0728 C   0  0  0  0  0  0  0  0  0  0  0  0
    3.4145    0.6680   -2.0609 N   0  0  0  0  0  0  0  0  0  0  0  0
    4.0631   -0.5801   -1.6488 C   0  0  0  0  0  0  0  0  0  0  0  0
    4.9351   -0.4207   -0.3957 C   0  0  0  0  0  0  0  0  0  0  0  0
    5.4530    1.0162   -0.2660 C   0  0  0  0  0  0  0  0  0  0  0  0
    6.3825    1.1948    0.8404 N   0  0  0  0  0  0  0  0  0  0  0  0
    6.1286    0.9549    2.1618 C   0  0  0  0  0  0  0  0  0  0  0  0
    4.9767    0.5357    2.6400 O   0  0  0  0  0  0  0  0  0  0  0  0
    7.1486    1.1969    2.9385 N   0  0  0  0  0  0  0  0  0  0  0  0
    8.1315    1.6330    2.0831 C   0  0  0  0  0  0  0  0  0  0  0  0
    9.4403    2.0398    2.3773 C   0  0  0  0  0  0  0  0  0  0  0  0
   10.2519    2.4536    1.3227 C   0  0  0  0  0  0  0  0  0  0  0  0
   11.5065    2.8499    1.5823 F   0  0  0  0  0  0  0  0  0  0  0  0
    9.7964    2.4690    0.0074 C   0  0  0  0  0  0  0  0  0  0  0  0
    8.4950    2.0627   -0.3074 C   0  0  0  0  0  0  0  0  0  0  0  0
    7.6831    1.6484    0.7584 C   0  0  0  0  0  0  0  0  0  0  0  0
    4.2951    2.0290   -0.2304 C   0  0  0  0  0  0  0  0  0  0  0  0
    3.0358    1.5024   -0.9260 C   0  0  0  0  0  0  0  0  0  0  0  0
    0.9011   -1.5626   -2.7772 C   0  0  0  0  0  0  0  0  0  0  0  0
   -0.2812   -2.1768   -2.3491 C   0  0  0  0  0  0  0  0  0  0  0  0
   -5.4031    0.4354    2.4746 C   0  0  0  0  0  0  0  0  0  0  0  0
   -5.8355    1.9155    2.5802 C   0  0  0  0  0  0  0  0  0  0  0  0
   -8.3140    1.7105    1.4641 H   0  0  0  0  0  0  0  0  0  0  0  0
   -8.1529    3.1436    0.4267 H   0  0  0  0  0  0  0  0  0  0  0  0
   -8.1071    3.3282    2.1734 H   0  0  0  0  0  0  0  0  0  0  0  0
   -5.9558    2.4248   -0.7349 H   0  0  0  0  0  0  0  0  0  0  0  0
   -6.6030    0.9286   -0.0547 H   0  0  0  0  0  0  0  0  0  0  0  0
   -4.2292    0.6896   -0.6631 H   0  0  0  0  0  0  0  0  0  0  0  0
   -3.7805    2.0104    0.4338 H   0  0  0  0  0  0  0  0  0  0  0  0
   -2.8371    1.3569    3.2830 H   0  0  0  0  0  0  0  0  0  0  0  0
   -0.5840   -2.3255    1.1430 H   0  0  0  0  0  0  0  0  0  0  0  0
   -6.2928   -4.1368    0.8197 H   0  0  0  0  0  0  0  0  0  0  0  0
   -6.5329   -5.7345   -3.1442 H   0  0  0  0  0  0  0  0  0  0  0  0
   -4.4768   -4.4675   -3.7685 H   0  0  0  0  0  0  0  0  0  0  0  0
   -1.9099    0.5737   -1.1921 H   0  0  0  0  0  0  0  0  0  0  0  0
    0.1518    1.6436   -1.9313 H   0  0  0  0  0  0  0  0  0  0  0  0
    2.7788   -0.0675   -3.9265 H   0  0  0  0  0  0  0  0  0  0  0  0
    2.1121    1.4692   -3.4957 H   0  0  0  0  0  0  0  0  0  0  0  0
    3.3384   -1.3769   -1.4425 H   0  0  0  0  0  0  0  0  0  0  0  0
    4.6920   -0.9318   -2.4761 H   0  0  0  0  0  0  0  0  0  0  0  0
    4.3354   -0.6878    0.4822 H   0  0  0  0  0  0  0  0  0  0  0  0
    5.7688   -1.1332   -0.4304 H   0  0  0  0  0  0  0  0  0  0  0  0
    6.0292    1.2191   -1.1785 H   0  0  0  0  0  0  0  0  0  0  0  0
    5.1681    0.4778    3.5945 H   0  0  0  0  0  0  0  0  0  0  0  0
    9.8083    2.0373    3.3961 H   0  0  0  0  0  0  0  0  0  0  0  0
   10.4699    2.8012   -0.7786 H   0  0  0  0  0  0  0  0  0  0  0  0
    8.1429    2.0730   -1.3340 H   0  0  0  0  0  0  0  0  0  0  0  0
    4.6302    2.9529   -0.7211 H   0  0  0  0  0  0  0  0  0  0  0  0
    4.0287    2.3116    0.7954 H   0  0  0  0  0  0  0  0  0  0  0  0
    2.4174    0.9426   -0.2124 H   0  0  0  0  0  0  0  0  0  0  0  0
    2.4498    2.3711   -1.2499 H   0  0  0  0  0  0  0  0  0  0  0  0
    1.6773   -2.1717   -3.2363 H   0  0  0  0  0  0  0  0  0  0  0  0
   -0.3961   -3.2516   -2.4867 H   0  0  0  0  0  0  0  0  0  0  0  0
   -5.0227    0.0897    3.4438 H   0  0  0  0  0  0  0  0  0  0  0  0
   -6.2867   -0.1778    2.2586 H   0  0  0  0  0  0  0  0  0  0  0  0
   -6.5570    2.0227    3.4005 H   0  0  0  0  0  0  0  0  0  0  0  0
   -4.9624    2.5082    2.8806 H   0  0  0  0  0  0  0  0  0  0  0  0
  1  2  1  0
  2  3  1  0
  3  4  1  0
  4  5  1  0
  5  6  1  0
  6  7  2  0
  7  8  1  0
  8  9  2  0
  9 10  1  0
 10 11  2  0
 11 12  1  0
 12 13  2  0
 13 14  1  0
 14 15  2  0
 15 16  1  0
 16 17  1  0
 16 18  2  0
 18 19  1  0
 19 20  2  0
 20 21  1  0
 21 22  2  0
 22 23  1  0
 23 24  2  0
 24 25  1  0
 25 26  2  0
 26 27  1  0
 27 28  1  0
 28 29  1  0
 29 30  1  0
 30 31  1  0
 31 32  1  0
 32 33  1  0
 33 34  1  0
 33 35  2  0
 35 36  1  0
 36 37  2  0
 37 38  1  0
 38 39  1  0
 38 40  2  0
 40 41  1  0
 41 42  2  0
 31 43  1  0
 43 44  1  0
 26 45  1  0
 45 46  2  0
  5 47  1  0
 47 48  1  0
 48  2  1  0
 11  6  1  0
 22 12  1  0
 46 23  1  0
 20 14  1  0
 44 28  1  0
 42 32  1  0
 42 36  1  0
  1 49  1  0
  1 50  1  0
  1 51  1  0
  3 52  1  0
  3 53  1  0
  4 54  1  0
  4 55  1  0
  7 56  1  0
 10 57  1  0
 15 58  1  0
 18 59  1  0
 19 60  1  0
 24 61  1  0
 25 62  1  0
 27 63  1  0
 27 64  1  0
 29 65  1  0
 29 66  1  0
 30 67  1  0
 30 68  1  0
 31 69  1  0
 34 70  1  0
 37 71  1  0
 40 72  1  0
 41 73  1  0
 43 74  1  0
 43 75  1  0
 44 76  1  0
 44 77  1  0
 45 78  1  0
 46 79  1  0
 47 80  1  0
 47 81  1  0
 48 82  1  0
 48 83  1  0
M  END
$$$$
