
     RDKit          3D

 84 89  0  0  0  0  0  0  0  0999 V2000
   -3.1819    0.7731   -3.7937 C   0  0  0  0  0  0  0  0  0  0  0  0
   -3.9031    0.4587   -2.6039 O   0  0  0  0  0  0  0  0  0  0  0  0
   -4.9448   -0.4290   -2.7975 C   0  0  0  0  0  0  0  0  0  0  0  0
   -5.2068   -0.8270   -4.0710 N   0  0  0  0  0  0  0  0  0  0  0  0
   -6.2270   -1.7001   -4.2440 C   0  0  0  0  0  0  0  0  0  0  0  0
   -6.9913   -2.1947   -3.2051 C   0  0  0  0  0  0  0  0  0  0  0  0
   -7.9838   -3.0621   -3.4405 F   0  0  0  0  0  0  0  0  0  0  0  0
   -6.7136   -1.7820   -1.9124 C   0  0  0  0  0  0  0  0  0  0  0  0
   -5.6719   -0.8704   -1.6857 C   0  0  0  0  0  0  0  0  0  0  0  0
   -5.4118   -0.4673   -0.2747 C   0  0  0  0  0  0  0  0  0  0  0  0
   -5.9812   -1.0590    0.6383 O   0  0  0  0  0  0  0  0  0  0  0  0
   -4.5270    0.5625   -0.0517 N   0  0  0  0  0  0  0  0  0  0  0  0
   -4.1286    1.0021    1.2922 C   0  0  2  0  0  0  0  0  0  0  0  0
   -5.0896    2.0797    1.8086 C   0  0  0  0  0  0  0  0  0  0  0  0
   -4.9296    2.4738    3.2885 C   0  0  0  0  0  0  0  0  0  0  0  0
   -3.9980    1.5868    4.1246 C   0  0  0  0  0  0  0  0  0  0  0  0
   -2.5650    1.7291    3.8527 N   0  0  0  0  0  0  0  0  0  0  0  0
   -1.8129    0.5519    4.2715 C   0  0  0  0  0  0  0  0  0  0  0  0
   -2.1816    2.2178    2.5253 C   0  0  0  0  0  0  0  0  0  0  0  0
   -2.6441    1.4377    1.2731 C   0  0  1  0  0  0  0  0  0  0  0  0
   -1.8018    0.2730    0.9922 N   0  0  0  0  0  0  0  0  0  0  0  0
   -0.5535    0.3469    0.4133 C   0  0  0  0  0  0  0  0  0  0  0  0
   -0.0283    1.4063    0.1015 O   0  0  0  0  0  0  0  0  0  0  0  0
    0.0839   -0.9953    0.1932 C   0  0  0  0  0  0  0  0  0  0  0  0
   -0.6336   -2.0373    0.7290 N   0  0  0  0  0  0  0  0  0  0  0  0
   -0.1244   -3.2712    0.5756 C   0  0  0  0  0  0  0  0  0  0  0  0
   -0.8105   -4.3612    1.0894 C   0  0  0  0  0  0  0  0  0  0  0  0
   -0.3073   -5.6469    0.9348 C   0  0  0  0  0  0  0  0  0  0  0  0
   -0.9868   -6.6873    1.4340 F   0  0  0  0  0  0  0  0  0  0  0  0
    0.8872   -5.8669    0.2683 C   0  0  0  0  0  0  0  0  0  0  0  0
    1.5849   -4.7750   -0.2478 C   0  0  0  0  0  0  0  0  0  0  0  0
    1.1000   -3.4796   -0.1030 C   0  0  0  0  0  0  0  0  0  0  0  0
    1.7961   -2.4504   -0.6174 N   0  0  0  0  0  0  0  0  0  0  0  0
    1.2853   -1.1884   -0.4854 C   0  0  0  0  0  0  0  0  0  0  0  0
    2.1132   -0.1686   -1.1358 C   0  0  0  0  0  0  0  0  0  0  0  0
    1.6465    0.6217   -2.1810 C   0  0  0  0  0  0  0  0  0  0  0  0
    2.3954    1.5270   -2.8474 N   0  0  0  0  0  0  0  0  0  0  0  0
    3.6845    1.6556   -2.4402 C   0  0  0  0  0  0  0  0  0  0  0  0
    4.3021    0.9313   -1.4130 C   0  0  0  0  0  0  0  0  0  0  0  0
    5.6278    1.1026   -1.0530 N   0  0  0  0  0  0  0  0  0  0  0  0
    6.3837    2.3058   -1.4403 C   0  0  0  0  0  0  0  0  0  0  0  0
    7.5326    2.5945   -0.4426 C   0  0  0  0  0  0  0  0  0  0  0  0
    8.4825    1.4875   -0.2102 N   0  0  0  0  0  0  0  0  0  0  0  0
    9.7255    1.6654   -0.9548 C   0  0  0  0  0  0  0  0  0  0  0  0
    7.8709    0.1777   -0.5186 C   0  0  0  0  0  0  0  0  0  0  0  0
    6.3516    0.1076   -0.2423 C   0  0  0  0  0  0  0  0  0  0  0  0
    3.4649    0.0024   -0.7765 C   0  0  0  0  0  0  0  0  0  0  0  0
   -2.7149   -0.1229   -4.2205 H   0  0  0  0  0  0  0  0  0  0  0  0
   -3.8239    1.2760   -4.5280 H   0  0  0  0  0  0  0  0  0  0  0  0
   -2.3822    1.4705   -3.5214 H   0  0  0  0  0  0  0  0  0  0  0  0
   -6.4200   -2.0055   -5.2673 H   0  0  0  0  0  0  0  0  0  0  0  0
   -7.3090   -2.1712   -1.0908 H   0  0  0  0  0  0  0  0  0  0  0  0
   -4.0822    1.0055   -0.8507 H   0  0  0  0  0  0  0  0  0  0  0  0
   -4.2275    0.1133    1.9274 H   0  0  0  0  0  0  0  0  0  0  0  0
   -5.0088    2.9810    1.1847 H   0  0  0  0  0  0  0  0  0  0  0  0
   -6.1214    1.7264    1.6692 H   0  0  0  0  0  0  0  0  0  0  0  0
   -5.9270    2.4572    3.7514 H   0  0  0  0  0  0  0  0  0  0  0  0
   -4.6067    3.5202    3.3548 H   0  0  0  0  0  0  0  0  0  0  0  0
   -4.3237    0.5442    4.0248 H   0  0  0  0  0  0  0  0  0  0  0  0
   -4.1501    1.8417    5.1801 H   0  0  0  0  0  0  0  0  0  0  0  0
   -1.9750    0.3518    5.3355 H   0  0  0  0  0  0  0  0  0  0  0  0
   -2.0953   -0.3447    3.7098 H   0  0  0  0  0  0  0  0  0  0  0  0
   -0.7364    0.7114    4.1454 H   0  0  0  0  0  0  0  0  0  0  0  0
   -2.5458    3.2495    2.4324 H   0  0  0  0  0  0  0  0  0  0  0  0
   -1.0899    2.3325    2.4970 H   0  0  0  0  0  0  0  0  0  0  0  0
   -2.4995    2.1214    0.4236 H   0  0  0  0  0  0  0  0  0  0  0  0
   -2.1285   -0.6564    1.2513 H   0  0  0  0  0  0  0  0  0  0  0  0
   -1.7504   -4.2184    1.6133 H   0  0  0  0  0  0  0  0  0  0  0  0
    1.2660   -6.8785    0.1498 H   0  0  0  0  0  0  0  0  0  0  0  0
    2.5211   -4.9363   -0.7779 H   0  0  0  0  0  0  0  0  0  0  0  0
    0.6217    0.5476   -2.5357 H   0  0  0  0  0  0  0  0  0  0  0  0
    4.2401    2.3885   -3.0185 H   0  0  0  0  0  0  0  0  0  0  0  0
    6.7892    2.1725   -2.4510 H   0  0  0  0  0  0  0  0  0  0  0  0
    5.7322    3.1877   -1.4455 H   0  0  0  0  0  0  0  0  0  0  0  0
    8.0553    3.5103   -0.7448 H   0  0  0  0  0  0  0  0  0  0  0  0
    7.0782    2.8255    0.5308 H   0  0  0  0  0  0  0  0  0  0  0  0
   10.2297    2.5894   -0.6471 H   0  0  0  0  0  0  0  0  0  0  0  0
   10.4216    0.8458   -0.7451 H   0  0  0  0  0  0  0  0  0  0  0  0
    9.5564    1.7078   -2.0367 H   0  0  0  0  0  0  0  0  0  0  0  0
    8.0258   -0.0743   -1.5774 H   0  0  0  0  0  0  0  0  0  0  0  0
    8.3763   -0.5937    0.0741 H   0  0  0  0  0  0  0  0  0  0  0  0
    6.1507    0.2829    0.8224 H   0  0  0  0  0  0  0  0  0  0  0  0
    6.0247   -0.9095   -0.4914 H   0  0  0  0  0  0  0  0  0  0  0  0
    3.8503   -0.6085    0.0371 H   0  0  0  0  0  0  0  0  0  0  0  0
  1  2  1  0
  2  3  1  0
  3  4  2  0
  4  5  1  0
  5  6  2  0
  6  7  1  0
  6  8  1  0
  8  9  2  0
  9 10  1  0
 10 11  2  0
 10 12  1  0
 12 13  1  0
 13 14  1  0
 14 15  1  0
 15 16  1  0
 16 17  1  0
 17 18  1  0
 17 19  1  0
 19 20  1  0
 20 21  1  0
 21 22  1  0
 22 23  2  0
 22 24  1  0
 24 25  2  0
 25 26  1  0
 26 27  2  0
 27 28  1  0
 28 29  1  0
 28 30  2  0
 30 31  1  0
 31 32  2  0
 32 33  1  0
 33 34  2  0
 34 35  1  0
 35 36  2  0
 36 37  1  0
 37 38  2  0
 38 39  1  0
 39 40  1  0
 40 41  1  0
 41 42  1  0
 42 43  1  0
 43 44  1  0
 43 45  1  0
 45 46  1  0
 39 47  2  0
  9  3  1  0
 20 13  1  0
 34 24  1  0
 47 35  1  0
 32 26  1  0
 46 40  1  0
  1 48  1  0
  1 49  1  0
  1 50  1  0
  5 51  1  0
  8 52  1  0
 12 53  1  0
 13 54  1  1
 14 55  1  0
 14 56  1  0
 15 57  1  0
 15 58  1  0
 16 59  1  0
 16 60  1  0
 18 61  1  0
 18 62  1  0
 18 63  1  0
 19 64  1  0
 19 65  1  0
 20 66  1  6
 21 67  1  0
 27 68  1  0
 30 69  1  0
 31 70  1  0
 36 71  1  0
 38 72  1  0
 41 73  1  0
 41 74  1  0
 42 75  1  0
 42 76  1  0
 44 77  1  0
 44 78  1  0
 44 79  1  0
 45 80  1  0
 45 81  1  0
 46 82  1  0
 46 83  1  0
 47 84  1  0
M  END
$$$$
