MODEL        8USER    Run = 8USERUSER    Estimated Free Energy of Binding    = -10.23 kcal/mol  [=(1)+(2)+(3)-(4)]USERUSER    (1) Final Intermolecular Energy     = -12.02 kcal/molUSER        vdW + Hbond + desolv Energy     = -11.80 kcal/molUSER        Electrostatic Energy            =  -0.22 kcal/molUSER        Moving Ligand-Fixed Receptor    = -12.02 kcal/molUSER        Moving Ligand-Moving Receptor   =  +0.00 kcal/molUSER    (2) Final Total Internal Energy     =  -1.70 kcal/molUSER    (3) Torsional Free Energy           =  +1.79 kcal/molUSER    (4) Unbound System's Energy         =  -1.70 kcal/molUSERUSERREMARK SMILES CC(=O)N[C@H]1C[C@H]1S(=O)(=O)Nc1cc(-c2ccnc(C)c2)cc(-c2nccs2)c1REMARK SMILES IDX 8 1 9 2 10 3 7 4 5 5 6 6 4 7 2 8 1 9 3 10 11 12 12 14 13 15REMARK SMILES IDX 29 16 14 17 23 18 22 19 15 20 16 21 21 22 17 23 19 24 18 25REMARK SMILES IDX 20 26 24 27 25 28 28 29 26 30 27 31REMARK H PARENT 4 11 11 13USER                              x       y       z     vdW  Elec       q    TypeUSER                           _______ _______ _______ _____ _____    ______ ____ROOTATOM      1  S   UNL     1      33.723  43.220  19.442 -0.43 -0.01    +0.237 S  ATOM      2  O   UNL     1      32.396  43.244  20.030 -0.84 -0.02    -0.206 OA ATOM      3  O   UNL     1      34.852  42.761  20.221 -0.53 -0.01    -0.206 OA ENDROOTBRANCH   1   4ATOM      4  C   UNL     1      33.673  42.196  17.958 -0.35 -0.04    +0.154 C  ATOM      5  C   UNL     1      32.805  40.967  17.982 -0.41 -0.03    +0.103 C  ATOM      6  C   UNL     1      32.348  42.199  17.245 -0.34 -0.02    +0.050 C  BRANCH   5   7ATOM      7  N   UNL     1      32.058  40.502  19.112 -0.17 -0.03    -0.352 N  ATOM      8  C   UNL     1      31.639  39.194  19.243 -0.34 +0.03    +0.217 C  ATOM      9  C   UNL     1      30.796  38.948  20.465 -0.38 +0.01    +0.114 C  ATOM     10  O   UNL     1      31.903  38.303  18.442 -0.39 -0.04    -0.275 OA ATOM     11  H   UNL     1      31.701  41.199  19.767 +0.09 +0.02    +0.163 HD ENDBRANCH   5   7ENDBRANCH   1   4BRANCH   1  12ATOM     12  N   UNL     1      34.041  44.824  18.963 -0.23 +0.09    -0.283 N  ATOM     13  H   UNL     1      33.845  45.428  19.764 -0.24 -0.09    +0.180 HD BRANCH  12  14ATOM     14  C   UNL     1      35.330  45.050  18.388 -0.33 -0.02    +0.050 A  ATOM     15  C   UNL     1      35.448  45.640  17.132 -0.33 -0.02    +0.035 A  ATOM     16  C   UNL     1      36.466  44.756  19.136 -0.29 -0.01    +0.038 A  ATOM     17  C   UNL     1      36.711  45.934  16.598 -0.35 +0.01    -0.015 A  ATOM     18  C   UNL     1      37.748  45.030  18.638 -0.35 -0.00    +0.013 A  ATOM     19  C   UNL     1      37.850  45.621  17.366 -0.36 -0.01    +0.020 A  BRANCH  17  20ATOM     20  C   UNL     1      36.841  46.575  15.280 -0.38 +0.01    -0.015 A  ATOM     21  C   UNL     1      37.155  47.933  15.161 -0.44 -0.02    +0.029 A  ATOM     22  C   UNL     1      36.656  45.844  14.099 -0.41 -0.02    +0.032 A  ATOM     23  C   UNL     1      37.267  48.486  13.896 -0.47 -0.06    +0.112 A  ATOM     24  C   UNL     1      36.785  46.480  12.867 -0.57 -0.02    +0.038 A  ATOM     25  N   UNL     1      37.089  47.792  12.754 -0.94 +0.08    -0.262 NA ATOM     26  C   UNL     1      36.583  45.708  11.597 -0.51 -0.02    +0.067 C  ENDBRANCH  17  20BRANCH  18  27ATOM     27  C   UNL     1      38.915  44.713  19.484 -0.30 -0.01    +0.123 A  ATOM     28  N   UNL     1      40.157  44.687  19.033 -0.26 +0.00    -0.245 NA ATOM     29  S   UNL     1      38.764  44.376  21.171 -0.42 -0.00    -0.122 S  ATOM     30  C   UNL     1      41.033  44.373  20.054 -0.29 +0.01    +0.123 A  ATOM     31  C   UNL     1      40.458  44.166  21.286 -0.24 +0.00    +0.087 A  ENDBRANCH  18  27ENDBRANCH  12  14ENDBRANCH   1  12TORSDOF 6TERENDMDL