REMARK SMILES CC(=O)N[C@H]1C[C@H]1S(=O)(=O)Nc1cc(-c2ccnc(C)c2)cc(-c2nccs2)c1
REMARK SMILES IDX 8 1 9 2 10 3 7 4 5 5 6 6 4 7 2 8 1 9 3 10 11 12 12 14 13 15
REMARK SMILES IDX 29 16 14 17 23 18 22 19 15 20 16 21 21 22 17 23 19 24 18 25
REMARK SMILES IDX 20 26 24 27 25 28 28 29 26 30 27 31
REMARK H PARENT 4 11 11 13
ROOT
ATOM      1  S   UNL     1       2.223   0.867   0.172  1.00  0.00     0.237 S 
ATOM      2  O   UNL     1       3.504   1.329   0.674  1.00  0.00    -0.206 OA
ATOM      3  O   UNL     1       1.560   1.587  -0.894  1.00  0.00    -0.206 OA
ENDROOT
BRANCH   1   4
ATOM      4  C   UNL     1       2.411  -0.834  -0.398  1.00  0.00     0.154 C 
ATOM      5  C   UNL     1       3.805  -1.339  -0.653  1.00  0.00     0.103 C 
ATOM      6  C   UNL     1       3.069  -1.753   0.595  1.00  0.00     0.050 C 
BRANCH   5   7
ATOM      7  N   UNL     1       5.002  -0.560  -0.542  1.00  0.00    -0.352 N 
ATOM      8  C   UNL     1       6.245  -1.046  -0.890  1.00  0.00     0.217 C 
ATOM      9  C   UNL     1       7.371  -0.088  -0.610  1.00  0.00     0.114 C 
ATOM     10  O   UNL     1       6.439  -2.159  -1.369  1.00  0.00    -0.275 OA
ATOM     11  H   UNL     1       4.946   0.333  -0.049  1.00  0.00     0.163 HD
ENDBRANCH   5   7
ENDBRANCH   1   4
BRANCH   1  12
ATOM     12  N   UNL     1       1.179   0.858   1.518  1.00  0.00    -0.283 N 
ATOM     13  H   UNL     1       1.219   1.786   1.944  1.00  0.00     0.180 HD
BRANCH  12  14
ATOM     14  C   UNL     1      -0.154   0.412   1.260  1.00  0.00     0.050 A 
ATOM     15  C   UNL     1      -1.113   1.298   0.775  1.00  0.00     0.035 A 
ATOM     16  C   UNL     1      -0.458  -0.938   1.414  1.00  0.00     0.038 A 
ATOM     17  C   UNL     1      -2.400   0.847   0.447  1.00  0.00    -0.015 A 
ATOM     18  C   UNL     1      -1.734  -1.429   1.102  1.00  0.00     0.013 A 
ATOM     19  C   UNL     1      -2.692  -0.521   0.618  1.00  0.00     0.020 A 
BRANCH  17  20
ATOM     20  C   UNL     1      -3.411   1.775  -0.084  1.00  0.00    -0.015 A 
ATOM     21  C   UNL     1      -4.676   1.883   0.502  1.00  0.00     0.029 A 
ATOM     22  C   UNL     1      -3.138   2.583  -1.196  1.00  0.00     0.032 A 
ATOM     23  C   UNL     1      -5.590   2.773  -0.036  1.00  0.00     0.112 A 
ATOM     24  C   UNL     1      -4.116   3.450  -1.675  1.00  0.00     0.038 A 
ATOM     25  N   UNL     1      -5.338   3.554  -1.106  1.00  0.00    -0.262 NA
ATOM     26  C   UNL     1      -3.836   4.315  -2.868  1.00  0.00     0.067 C 
ENDBRANCH  17  20
BRANCH  18  27
ATOM     27  C   UNL     1      -1.992  -2.873   1.268  1.00  0.00     0.123 A 
ATOM     28  N   UNL     1      -1.034  -3.774   1.402  1.00  0.00    -0.245 NA
ATOM     29  S   UNL     1      -3.591  -3.520   1.337  1.00  0.00    -0.122 S 
ATOM     30  C   UNL     1      -1.577  -5.035   1.550  1.00  0.00     0.123 A 
ATOM     31  C   UNL     1      -2.951  -5.094   1.537  1.00  0.00     0.087 A 
ENDBRANCH  18  27
ENDBRANCH  12  14
ENDBRANCH   1  12
TORSDOF 6
