MODEL        10USER    Run = 10USERUSER    Estimated Free Energy of Binding    = -10.51 kcal/mol  [=(1)+(2)+(3)-(4)]USERUSER    (1) Final Intermolecular Energy     = -12.89 kcal/molUSER        vdW + Hbond + desolv Energy     = -12.70 kcal/molUSER        Electrostatic Energy            =  -0.19 kcal/molUSER        Moving Ligand-Fixed Receptor    = -12.89 kcal/molUSER        Moving Ligand-Moving Receptor   =  +0.00 kcal/molUSER    (2) Final Total Internal Energy     =  -1.63 kcal/molUSER    (3) Torsional Free Energy           =  +2.39 kcal/molUSER    (4) Unbound System's Energy         =  -1.63 kcal/molUSERUSERREMARK SMILES N#Cc1ccc(C2=C(Nc3ccc(OCCN4CCOCC4)c(Cl)c3)C(=O)NC2=O)c(F)c1REMARK SMILES IDX 10 1 11 2 12 3 13 4 23 5 24 6 25 7 9 8 8 10 7 11 29 12 26 13REMARK SMILES IDX 28 14 30 15 27 16 6 18 3 19 4 20 33 21 5 22 31 23 32 24 2 25REMARK SMILES IDX 1 26 14 27 15 28 16 29 17 30 18 31 22 32 19 33 21 34 20 35REMARK H PARENT 9 9 28 17USER                              x       y       z     vdW  Elec       q    TypeUSER                           _______ _______ _______ _____ _____    ______ ____ROOTATOM      1  C   UNL     1      39.530  44.734  19.946 -0.35 -0.00    +0.040 A  ATOM      2  C   UNL     1      39.878  44.994  21.272 -0.30 +0.00    +0.030 A  ATOM      3  C   UNL     1      39.006  44.697  22.331 -0.28 +0.00    +0.050 A  ATOM      4  C   UNL     1      37.754  44.134  22.084 -0.28 +0.01    +0.138 A  ATOM      5  C   UNL     1      37.392  43.879  20.755 -0.33 -0.00    +0.085 A  ATOM      6  Cl  UNL     1      35.856  43.187  20.356 -0.62 +0.00    -0.080 Cl ATOM      7  C   UNL     1      38.266  44.179  19.703 -0.29 -0.00    +0.050 A  ENDROOTBRANCH   1   8ATOM      8  N   UNL     1      40.342  45.040  18.835 -0.20 +0.00    -0.350 N  ATOM      9  H   UNL     1      40.740  44.202  18.418 +0.10 +0.00    +0.167 HD BRANCH   8  10ATOM     10  C   UNL     1      41.027  46.198  18.538 -0.47 -0.00    +0.118 C  ATOM     11  C   UNL     1      40.796  47.095  17.563 -0.52 -0.01    +0.079 C  ATOM     12  C   UNL     1      41.779  48.186  17.692 -0.23 -0.00    +0.261 C  ATOM     13  C   UNL     1      42.135  46.780  19.363 -0.35 +0.03    +0.275 C  ATOM     14  N   UNL     1      42.602  47.863  18.706 -0.39 -0.01    -0.287 N  ATOM     15  O   UNL     1      41.794  49.212  17.039 -0.95 -0.05    -0.269 OA ATOM     16  O   UNL     1      42.518  46.401  20.454 -0.29 -0.07    -0.267 OA ATOM     17  H   UNL     1      43.283  48.495  19.094 -0.52 -0.02    +0.173 HD BRANCH  11  18ATOM     18  C   UNL     1      39.778  47.032  16.520 -0.47 -0.01    +0.025 A  ATOM     19  C   UNL     1      37.791  46.879  14.538 -0.40 -0.02    +0.055 A  ATOM     20  C   UNL     1      39.106  47.222  14.196 -0.42 -0.00    +0.020 A  ATOM     21  C   UNL     1      37.469  46.614  15.871 -0.35 -0.03    +0.059 A  ATOM     22  C   UNL     1      40.096  47.298  15.183 -0.49 -0.00    +0.013 A  ATOM     23  C   UNL     1      38.461  46.691  16.846 -0.31 -0.05    +0.132 A  ATOM     24  F   UNL     1      38.124  46.456  18.122 -0.05 +0.06    -0.206 F  BRANCH  19  25ATOM     25  C   UNL     1      36.780  46.802  13.525 -0.52 -0.05    +0.099 C  ATOM     26  N   UNL     1      35.965  46.734  12.703 -0.47 +0.10    -0.192 NA ENDBRANCH  19  25ENDBRANCH  11  18ENDBRANCH   8  10ENDBRANCH   1   8BRANCH   4  27ATOM     27  O   UNL     1      36.839  43.808  23.049 -0.11 -0.07    -0.491 OA BRANCH  27  28ATOM     28  C   UNL     1      36.931  42.513  23.648 -0.31 +0.02    +0.245 C  BRANCH  28  29ATOM     29  C   UNL     1      37.947  42.598  24.800 -0.28 +0.00    +0.126 C  BRANCH  29  30ATOM     30  N   UNL     1      37.320  42.804  26.115 -0.13 +0.02    -0.295 NA ATOM     31  C   UNL     1      36.869  41.544  26.748 -0.43 -0.03    +0.113 C  ATOM     32  C   UNL     1      36.193  43.759  26.005 -0.37 -0.01    +0.113 C  ATOM     33  C   UNL     1      35.352  41.312  26.657 -0.51 -0.06    +0.175 C  ATOM     34  C   UNL     1      35.229  43.639  27.194 -0.45 -0.04    +0.175 C  ATOM     35  O   UNL     1      34.583  42.360  27.260 -0.33 +0.08    -0.379 OA ENDBRANCH  29  30ENDBRANCH  28  29ENDBRANCH  27  28ENDBRANCH   4  27TORSDOF 8TERENDMDL