MODEL        3USER    Run = 3USERUSER    Estimated Free Energy of Binding    =  -9.47 kcal/mol  [=(1)+(2)+(3)-(4)]USERUSER    (1) Final Intermolecular Energy     = -10.96 kcal/molUSER        vdW + Hbond + desolv Energy     = -10.71 kcal/molUSER        Electrostatic Energy            =  -0.25 kcal/molUSER        Moving Ligand-Fixed Receptor    = -10.96 kcal/molUSER        Moving Ligand-Moving Receptor   =  +0.00 kcal/molUSER    (2) Final Total Internal Energy     =  -1.21 kcal/molUSER    (3) Torsional Free Energy           =  +1.49 kcal/molUSER    (4) Unbound System's Energy         =  -1.21 kcal/molUSERUSERREMARK SMILES N#Cc1ccc(C2=C(Nc3ccc(O)c(Cl)c3)C(=O)NC2=O)c(F)c1REMARK SMILES IDX 7 1 8 2 18 3 19 4 20 5 21 6 22 7 6 9 3 10 4 11 25 12 5 13REMARK SMILES IDX 23 14 24 15 2 16 1 17 9 18 10 20 11 21 17 22 12 23 15 24REMARK SMILES IDX 13 25 16 26 14 27REMARK H PARENT 20 8 9 19 14 28USER                              x       y       z     vdW  Elec       q    TypeUSER                           _______ _______ _______ _____ _____    ______ ____ROOTATOM      1  C   UNL     1      36.031  45.674  14.903 -0.38 -0.05    +0.079 C  ATOM      2  C   UNL     1      37.080  46.122  14.187 -0.40 -0.05    +0.118 C  ATOM      3  C   UNL     1      36.500  46.908  13.051 -0.45 -0.13    +0.275 C  ATOM      4  O   UNL     1      37.094  47.629  12.270 -1.08 +0.06    -0.267 OA ATOM      5  N   UNL     1      35.164  46.732  13.077 -0.31 +0.21    -0.287 N  ATOM      6  C   UNL     1      34.797  46.110  14.212 -0.20 -0.22    +0.261 C  ATOM      7  O   UNL     1      33.660  45.961  14.619 -0.28 +0.28    -0.269 OA ATOM      8  H   UNL     1      34.526  47.227  12.477 -0.20 -0.18    +0.173 HD ENDROOTBRANCH   1   9ATOM      9  C   UNL     1      36.044  44.924  16.162 -0.32 -0.01    +0.025 A  ATOM     10  C   UNL     1      36.095  43.453  18.572 -0.28 -0.01    +0.055 A  ATOM     11  C   UNL     1      35.470  42.927  17.436 -0.37 -0.01    +0.020 A  ATOM     12  C   UNL     1      36.697  44.710  18.506 -0.31 -0.01    +0.059 A  ATOM     13  C   UNL     1      35.448  43.657  16.241 -0.38 -0.01    +0.013 A  ATOM     14  C   UNL     1      36.669  45.426  17.310 -0.25 -0.05    +0.132 A  ATOM     15  F   UNL     1      37.268  46.626  17.283 -0.09 +0.10    -0.206 F  BRANCH  10  16ATOM     16  C   UNL     1      36.119  42.706  19.795 -0.40 -0.01    +0.099 C  ATOM     17  N   UNL     1      36.134  42.101  20.784 -0.35 -0.00    -0.192 NA ENDBRANCH  10  16ENDBRANCH   1   9BRANCH   2  18ATOM     18  N   UNL     1      38.429  46.048  14.468 -0.16 +0.10    -0.350 N  ATOM     19  H   UNL     1      38.938  45.393  13.881 +0.11 -0.04    +0.167 HD BRANCH  18  20ATOM     20  C   UNL     1      39.288  47.035  14.995 -0.44 -0.01    +0.040 A  ATOM     21  C   UNL     1      39.513  48.282  14.401 -0.46 -0.01    +0.030 A  ATOM     22  C   UNL     1      39.916  46.768  16.223 -0.44 -0.01    +0.050 A  ATOM     23  C   UNL     1      40.351  49.231  14.999 -0.52 -0.02    +0.050 A  ATOM     24  C   UNL     1      40.756  47.710  16.824 -0.47 -0.01    +0.084 A  ATOM     25  C   UNL     1      40.972  48.943  16.211 -0.46 -0.02    +0.134 A  ATOM     26  Cl  UNL     1      41.500  47.309  18.329 -0.72 +0.00    -0.080 Cl BRANCH  25  27ATOM     27  O   UNL     1      41.791  49.868  16.794 -0.74 -0.08    -0.506 OA ATOM     28  H   UNL     1      41.437  50.758  16.633 -0.34 -0.08    +0.293 HD ENDBRANCH  25  27ENDBRANCH  18  20ENDBRANCH   2  18TORSDOF 5TERENDMDL