REMARK SMILES N#Cc1ccc(C2=C(Nc3ccc(OCCN4CCOCC4)c(Cl)c3)C(=O)NC2=O)c(F)c1
REMARK SMILES IDX 10 1 11 2 12 3 13 4 23 5 24 6 25 7 9 8 8 10 7 11 29 12 26 13
REMARK SMILES IDX 28 14 30 15 27 16 6 18 3 19 4 20 33 21 5 22 31 23 32 24 2 25
REMARK SMILES IDX 1 26 14 27 15 28 16 29 17 30 18 31 22 32 19 33 21 34 20 35
REMARK H PARENT 9 9 28 17
ROOT
ATOM      1  C   UNL     1       1.609  -0.094   1.010  1.00  0.00     0.040 A 
ATOM      2  C   UNL     1       0.678  -0.868   0.315  1.00  0.00     0.030 A 
ATOM      3  C   UNL     1      -0.693  -0.567   0.344  1.00  0.00     0.050 A 
ATOM      4  C   UNL     1      -1.167   0.519   1.080  1.00  0.00     0.138 A 
ATOM      5  C   UNL     1      -0.241   1.294   1.789  1.00  0.00     0.085 A 
ATOM      6  Cl  UNL     1      -0.741   2.657   2.732  1.00  0.00    -0.080 Cl
ATOM      7  C   UNL     1       1.125   0.988   1.757  1.00  0.00     0.050 A 
ENDROOT
BRANCH   1   8
ATOM      8  N   UNL     1       2.992  -0.361   1.052  1.00  0.00    -0.350 N 
ATOM      9  H   UNL     1       3.540   0.495   1.059  1.00  0.00     0.167 HD
BRANCH   8  10
ATOM     10  C   UNL     1       3.687  -1.473   0.628  1.00  0.00     0.118 C 
ATOM     11  C   UNL     1       4.940  -1.559   0.147  1.00  0.00     0.079 C 
ATOM     12  C   UNL     1       5.238  -2.978  -0.123  1.00  0.00     0.261 C 
ATOM     13  C   UNL     1       3.206  -2.887   0.747  1.00  0.00     0.275 C 
ATOM     14  N   UNL     1       4.122  -3.678   0.149  1.00  0.00    -0.287 N 
ATOM     15  O   UNL     1       6.316  -3.426  -0.466  1.00  0.00    -0.269 OA
ATOM     16  O   UNL     1       2.209  -3.280   1.325  1.00  0.00    -0.267 OA
ATOM     17  H   UNL     1       4.089  -4.684   0.177  1.00  0.00     0.173 HD
BRANCH  11  18
ATOM     18  C   UNL     1       5.873  -0.467  -0.104  1.00  0.00     0.025 A 
ATOM     19  C   UNL     1       7.687   1.615  -0.629  1.00  0.00     0.055 A 
ATOM     20  C   UNL     1       7.302   1.328   0.687  1.00  0.00     0.020 A 
ATOM     21  C   UNL     1       7.164   0.863  -1.683  1.00  0.00     0.059 A 
ATOM     22  C   UNL     1       6.399   0.291   0.949  1.00  0.00     0.013 A 
ATOM     23  C   UNL     1       6.267  -0.168  -1.413  1.00  0.00     0.132 A 
ATOM     24  F   UNL     1       5.760  -0.862  -2.442  1.00  0.00    -0.206 F 
BRANCH  19  25
ATOM     25  C   UNL     1       8.612   2.678  -0.894  1.00  0.00     0.099 C 
ATOM     26  N   UNL     1       9.356   3.542  -1.105  1.00  0.00    -0.192 NA
ENDBRANCH  19  25
ENDBRANCH  11  18
ENDBRANCH   8  10
ENDBRANCH   1   8
BRANCH   4  27
ATOM     27  O   UNL     1      -2.482   0.890   1.166  1.00  0.00    -0.491 OA
BRANCH  27  28
ATOM     28  C   UNL     1      -3.446   0.106   0.458  1.00  0.00     0.245 C 
BRANCH  28  29
ATOM     29  C   UNL     1      -4.836   0.699   0.743  1.00  0.00     0.126 C 
BRANCH  29  30
ATOM     30  N   UNL     1      -5.926  -0.023   0.068  1.00  0.00    -0.295 NA
ATOM     31  C   UNL     1      -6.005   0.266  -1.382  1.00  0.00     0.113 C 
ATOM     32  C   UNL     1      -7.221   0.268   0.724  1.00  0.00     0.113 C 
ATOM     33  C   UNL     1      -7.134   1.239  -1.760  1.00  0.00     0.175 C 
ATOM     34  C   UNL     1      -8.408  -0.048  -0.197  1.00  0.00     0.175 C 
ATOM     35  O   UNL     1      -8.433   0.773  -1.373  1.00  0.00    -0.379 OA
ENDBRANCH  29  30
ENDBRANCH  28  29
ENDBRANCH  27  28
ENDBRANCH   4  27
TORSDOF 8
