REMARK SMILES N#Cc1ccc(C2=C(Nc3ccc(O)c(Cl)c3)C(=O)NC2=O)c(F)c1
REMARK SMILES IDX 7 1 8 2 18 3 19 4 20 5 21 6 22 7 6 9 3 10 4 11 25 12 5 13
REMARK SMILES IDX 23 14 24 15 2 16 1 17 9 18 10 20 11 21 17 22 12 23 15 24
REMARK SMILES IDX 13 25 16 26 14 27
REMARK H PARENT 20 8 9 19 14 28
ROOT
ATOM      1  C   UNL     1      -1.315   1.119   0.701  1.00  0.00     0.079 C 
ATOM      2  C   UNL     1       0.030   1.075   0.645  1.00  0.00     0.118 C 
ATOM      3  C   UNL     1       0.504   2.442   1.034  1.00  0.00     0.275 C 
ATOM      4  O   UNL     1       1.645   2.786   1.284  1.00  0.00    -0.267 OA
ATOM      5  N   UNL     1      -0.581   3.236   1.127  1.00  0.00    -0.287 N 
ATOM      6  C   UNL     1      -1.705   2.501   1.059  1.00  0.00     0.261 C 
ATOM      7  O   UNL     1      -2.836   2.888   1.285  1.00  0.00    -0.269 OA
ATOM      8  H   UNL     1      -0.549   4.183   1.465  1.00  0.00     0.173 HD
ENDROOT
BRANCH   1   9
ATOM      9  C   UNL     1      -2.269   0.025   0.495  1.00  0.00     0.025 A 
ATOM     10  C   UNL     1      -4.135  -2.055   0.091  1.00  0.00     0.055 A 
ATOM     11  C   UNL     1      -4.231  -1.229   1.216  1.00  0.00     0.020 A 
ATOM     12  C   UNL     1      -3.112  -1.843  -0.833  1.00  0.00     0.059 A 
ATOM     13  C   UNL     1      -3.306  -0.196   1.414  1.00  0.00     0.013 A 
ATOM     14  C   UNL     1      -2.198  -0.811  -0.626  1.00  0.00     0.132 A 
ATOM     15  F   UNL     1      -1.235  -0.631  -1.542  1.00  0.00    -0.206 F 
BRANCH  10  16
ATOM     16  C   UNL     1      -5.082  -3.112  -0.112  1.00  0.00     0.099 C 
ATOM     17  N   UNL     1      -5.845  -3.970  -0.276  1.00  0.00    -0.192 NA
ENDBRANCH  10  16
ENDBRANCH   1   9
BRANCH   2  18
ATOM     18  N   UNL     1       0.864  -0.004   0.439  1.00  0.00    -0.350 N 
ATOM     19  H   UNL     1       0.379  -0.895   0.372  1.00  0.00     0.167 HD
BRANCH  18  20
ATOM     20  C   UNL     1       2.117  -0.055  -0.208  1.00  0.00     0.040 A 
ATOM     21  C   UNL     1       2.669   1.002  -0.940  1.00  0.00     0.030 A 
ATOM     22  C   UNL     1       2.881  -1.225  -0.063  1.00  0.00     0.050 A 
ATOM     23  C   UNL     1       3.936   0.896  -1.526  1.00  0.00     0.050 A 
ATOM     24  C   UNL     1       4.146  -1.338  -0.648  1.00  0.00     0.084 A 
ATOM     25  C   UNL     1       4.673  -0.275  -1.380  1.00  0.00     0.134 A 
ATOM     26  Cl  UNL     1       5.024  -2.809  -0.435  1.00  0.00    -0.080 Cl
BRANCH  25  27
ATOM     27  O   UNL     1       5.909  -0.379  -1.953  1.00  0.00    -0.506 OA
ATOM     28  H   UNL     1       6.141   0.465  -2.372  1.00  0.00     0.293 HD
ENDBRANCH  25  27
ENDBRANCH  18  20
ENDBRANCH   2  18
TORSDOF 5
