MODEL        10USER    Run = 10USERUSER    Estimated Free Energy of Binding    = -10.78 kcal/mol  [=(1)+(2)+(3)-(4)]USERUSER    (1) Final Intermolecular Energy     = -12.57 kcal/molUSER        vdW + Hbond + desolv Energy     = -12.34 kcal/molUSER        Electrostatic Energy            =  -0.23 kcal/molUSER        Moving Ligand-Fixed Receptor    = -12.57 kcal/molUSER        Moving Ligand-Moving Receptor   =  +0.00 kcal/molUSER    (2) Final Total Internal Energy     =  -1.66 kcal/molUSER    (3) Torsional Free Energy           =  +1.79 kcal/molUSER    (4) Unbound System's Energy         =  -1.66 kcal/molUSERUSERREMARK SMILES Nc1nonc1-n1nnc(-c2n[nH]c(-c3cncc(Cl)c3)n2)c1CN1CCOCC1REMARK SMILES IDX 7 1 8 2 9 3 10 4 23 5 6 6 2 7 3 8 4 9 5 10 1 11 24 14 25 15REMARK SMILES IDX 26 16 30 17 27 18 29 19 28 20 11 21 12 22 22 23 13 24 14 25REMARK SMILES IDX 15 27 16 28 21 29 17 30 19 31 18 32 20 33REMARK H PARENT 1 12 1 13 13 26USER                              x       y       z     vdW  Elec       q    TypeUSER                           _______ _______ _______ _____ _____    ______ ____ROOTATOM      1  N   UNL     1      39.495  48.168  15.107 -0.38 +0.07    -0.190 N  ATOM      2  N   UNL     1      40.604  48.944  14.918 -0.56 +0.02    -0.060 NA ATOM      3  N   UNL     1      41.423  48.788  15.944 -0.94 +0.00    -0.126 NA ATOM      4  C   UNL     1      40.846  47.911  16.813 -0.40 -0.02    +0.157 A  ATOM      5  C   UNL     1      39.624  47.486  16.316 -0.43 -0.03    +0.092 A  ENDROOTBRANCH   1   6ATOM      6  C   UNL     1      38.450  48.162  14.147 -0.31 -0.10    +0.243 A  ATOM      7  C   UNL     1      37.284  48.953  14.131 -0.26 -0.14    +0.215 A  ATOM      8  N   UNL     1      36.557  48.613  13.068 -0.84 +0.01    -0.030 NA ATOM      9  O   UNL     1      37.284  47.622  12.421 -1.10 +0.05    -0.240 OA ATOM     10  N   UNL     1      38.469  47.341  13.098 -0.64 +0.00    -0.027 NA BRANCH   7  11ATOM     11  N   UNL     1      36.932  49.900  15.020 -0.09 +0.44    -0.378 N  ATOM     12  H   UNL     1      37.628  50.556  15.356 -0.43 -0.17    +0.158 HD ATOM     13  H   UNL     1      35.968  50.224  15.095 -0.23 -0.31    +0.158 HD ENDBRANCH   7  11ENDBRANCH   1   6BRANCH   5  14ATOM     14  C   UNL     1      38.651  46.526  16.897 -0.37 -0.05    +0.143 C  BRANCH  14  15ATOM     15  N   UNL     1      37.521  46.308  15.983 -0.17 +0.14    -0.293 NA ATOM     16  C   UNL     1      37.720  45.066  15.206 -0.32 -0.04    +0.113 C  ATOM     17  C   UNL     1      36.228  46.214  16.694 -0.35 -0.08    +0.113 C  ATOM     18  C   UNL     1      36.537  44.802  14.262 -0.32 -0.07    +0.175 C  ATOM     19  C   UNL     1      35.075  45.922  15.718 -0.26 -0.16    +0.175 C  ATOM     20  O   UNL     1      35.306  44.709  14.990 -0.13 +0.19    -0.379 OA ENDBRANCH  14  15ENDBRANCH   5  14BRANCH   4  21ATOM     21  C   UNL     1      41.527  47.555  18.062 -0.34 -0.01    +0.204 A  ATOM     22  N   UNL     1      42.570  48.218  18.578 -0.44 -0.00    -0.151 NA ATOM     23  N   UNL     1      41.101  46.500  18.831 -0.34 +0.00    -0.205 NA ATOM     24  N   UNL     1      42.816  47.518  19.692 -0.33 -0.03    -0.259 N  ATOM     25  C   UNL     1      41.938  46.479  19.852 -0.32 +0.02    +0.157 A  ATOM     26  H   UNL     1      43.586  47.806  20.286 -0.41 +0.02    +0.192 HD BRANCH  25  27ATOM     27  C   UNL     1      41.930  45.524  20.956 -0.30 +0.01    +0.039 A  ATOM     28  C   UNL     1      43.045  45.260  21.751 -0.15 +0.04    +0.123 A  ATOM     29  C   UNL     1      40.759  44.815  21.255 -0.29 +0.00    +0.035 A  ATOM     30  N   UNL     1      43.063  44.377  22.780 -0.10 -0.04    -0.262 NA ATOM     31  C   UNL     1      40.745  43.898  22.300 -0.24 +0.00    +0.060 A  ATOM     32  C   UNL     1      41.908  43.714  23.031 -0.19 +0.01    +0.131 A  ATOM     33  Cl  UNL     1      39.321  43.018  22.672 -0.38 -0.01    -0.083 Cl ENDBRANCH  25  27ENDBRANCH   4  21TORSDOF 6TERENDMDL