
     RDKit          3D

 65 66  0  0  0  0  0  0  0  0999 V2000
   -6.5638   -2.1904    0.1843 C   0  0  0  0  0  0  0  0  0  0  0  0
   -5.3256   -1.3740   -0.2128 C   0  0  0  0  0  0  0  0  0  0  0  0
   -4.7610   -1.9572   -1.5108 C   0  0  0  0  0  0  0  0  0  0  0  0
   -5.7050    0.1222   -0.3518 C   0  0  0  0  0  0  0  0  0  0  0  0
   -4.6269    1.1756    0.0762 C   0  0  0  0  0  0  0  0  0  0  0  0
   -5.3241    2.5476   -0.0005 C   0  0  0  0  0  0  0  0  0  0  0  0
   -3.4094    1.1596   -0.8832 C   0  0  0  0  0  0  0  0  0  0  0  0
   -2.2025    0.3887   -0.3519 C   0  0  0  0  0  0  0  0  0  0  0  0
   -1.3635    1.1812    0.6724 C   0  0  0  0  0  0  0  0  0  0  0  0
   -0.5327    0.2273    1.5519 C   0  0  0  0  0  0  0  0  0  0  0  0
    0.5489   -0.3287    0.7817 O   0  0  0  0  0  0  0  0  0  0  0  0
    0.3992   -1.5933    0.3239 C   0  0  0  0  0  0  0  0  0  0  0  0
   -0.5607   -2.3262    0.5033 O   0  0  0  0  0  0  0  0  0  0  0  0
    1.5424   -2.0037   -0.5129 C   0  0  0  0  0  0  0  0  0  0  0  0
    2.7471   -1.4168   -0.4820 C   0  0  0  0  0  0  0  0  0  0  0  0
    3.8313   -1.7540   -1.2512 N   0  0  0  0  0  0  0  0  0  0  0  0
    5.1742   -1.3722   -1.0895 C   0  0  0  0  0  0  0  0  0  0  0  0
    6.0858   -1.6731   -2.1108 C   0  0  0  0  0  0  0  0  0  0  0  0
    7.4301   -1.2890   -2.0227 C   0  0  0  0  0  0  0  0  0  0  0  0
    7.8965   -0.5828   -0.9112 C   0  0  0  0  0  0  0  0  0  0  0  0
    9.2596   -0.2326   -0.8865 N   0  0  0  0  0  0  0  0  0  0  0  0
    9.8936    0.5746    0.0186 C   0  0  0  0  0  0  0  0  0  0  0  0
   11.2343    0.6571   -0.2331 N   0  0  0  0  0  0  0  0  0  0  0  0
    9.4151    1.1920    0.9595 O   0  0  0  0  0  0  0  0  0  0  0  0
    6.9968   -0.2723    0.1061 C   0  0  0  0  0  0  0  0  0  0  0  0
    5.6500   -0.6517    0.0114 C   0  0  0  0  0  0  0  0  0  0  0  0
   -2.1806    2.1713    1.5209 C   0  0  0  0  0  0  0  0  0  0  0  0
   -3.3951    1.5719    2.2289 C   0  0  0  0  0  0  0  0  0  0  0  0
   -4.1489    2.6180    3.0486 C   0  0  0  0  0  0  0  0  0  0  0  0
   -4.2951    0.8202    1.4237 O   0  0  0  0  0  0  0  0  0  0  0  0
   -6.9543   -1.8561    1.1510 H   0  0  0  0  0  0  0  0  0  0  0  0
   -6.3196   -3.2538    0.2804 H   0  0  0  0  0  0  0  0  0  0  0  0
   -7.3615   -2.0903   -0.5593 H   0  0  0  0  0  0  0  0  0  0  0  0
   -4.5850   -1.5069    0.5835 H   0  0  0  0  0  0  0  0  0  0  0  0
   -4.5371   -3.0222   -1.3885 H   0  0  0  0  0  0  0  0  0  0  0  0
   -3.8317   -1.4713   -1.8129 H   0  0  0  0  0  0  0  0  0  0  0  0
   -5.4776   -1.8594   -2.3326 H   0  0  0  0  0  0  0  0  0  0  0  0
   -6.0459    0.3259   -1.3760 H   0  0  0  0  0  0  0  0  0  0  0  0
   -6.5772    0.2953    0.2949 H   0  0  0  0  0  0  0  0  0  0  0  0
   -5.7394    2.7276   -0.9998 H   0  0  0  0  0  0  0  0  0  0  0  0
   -6.1389    2.6163    0.7311 H   0  0  0  0  0  0  0  0  0  0  0  0
   -4.6346    3.3707    0.2120 H   0  0  0  0  0  0  0  0  0  0  0  0
   -3.7133    0.7516   -1.8550 H   0  0  0  0  0  0  0  0  0  0  0  0
   -3.0903    2.1827   -1.1211 H   0  0  0  0  0  0  0  0  0  0  0  0
   -2.5339   -0.5624    0.0803 H   0  0  0  0  0  0  0  0  0  0  0  0
   -1.5546    0.1243   -1.1986 H   0  0  0  0  0  0  0  0  0  0  0  0
   -0.6533    1.7885    0.0909 H   0  0  0  0  0  0  0  0  0  0  0  0
   -0.0625    0.7829    2.3699 H   0  0  0  0  0  0  0  0  0  0  0  0
   -1.1509   -0.5508    2.0140 H   0  0  0  0  0  0  0  0  0  0  0  0
    1.3418   -2.8530   -1.1523 H   0  0  0  0  0  0  0  0  0  0  0  0
    2.9227   -0.5817    0.1914 H   0  0  0  0  0  0  0  0  0  0  0  0
    3.6786   -2.4886   -1.9344 H   0  0  0  0  0  0  0  0  0  0  0  0
    5.7562   -2.2083   -2.9985 H   0  0  0  0  0  0  0  0  0  0  0  0
    8.0979   -1.5463   -2.8402 H   0  0  0  0  0  0  0  0  0  0  0  0
    9.8106   -0.4695   -1.6995 H   0  0  0  0  0  0  0  0  0  0  0  0
   11.7113    1.1829    0.4900 H   0  0  0  0  0  0  0  0  0  0  0  0
   11.6968   -0.2190   -0.4425 H   0  0  0  0  0  0  0  0  0  0  0  0
    7.3121    0.2484    1.0081 H   0  0  0  0  0  0  0  0  0  0  0  0
    4.9964   -0.3862    0.8373 H   0  0  0  0  0  0  0  0  0  0  0  0
   -2.4972    3.0022    0.8792 H   0  0  0  0  0  0  0  0  0  0  0  0
   -1.5202    2.6310    2.2682 H   0  0  0  0  0  0  0  0  0  0  0  0
   -3.0174    0.8467    2.9610 H   0  0  0  0  0  0  0  0  0  0  0  0
   -4.4866    3.4553    2.4341 H   0  0  0  0  0  0  0  0  0  0  0  0
   -5.0383    2.1776    3.5114 H   0  0  0  0  0  0  0  0  0  0  0  0
   -3.5131    3.0267    3.8409 H   0  0  0  0  0  0  0  0  0  0  0  0
  1  2  1  0
  2  3  1  0
  2  4  1  0
  4  5  1  0
  5  6  1  0
  5  7  1  0
  7  8  1  0
  8  9  1  0
  9 10  1  0
 10 11  1  0
 11 12  1  0
 12 13  2  0
 12 14  1  0
 14 15  2  3
 15 16  1  0
 16 17  1  0
 17 18  2  0
 18 19  1  0
 19 20  2  0
 20 21  1  0
 21 22  1  0
 22 23  1  0
 22 24  2  0
 20 25  1  0
 25 26  2  0
  9 27  1  0
 27 28  1  0
 28 29  1  0
 28 30  1  0
 30  5  1  0
 26 17  1  0
  1 31  1  0
  1 32  1  0
  1 33  1  0
  2 34  1  0
  3 35  1  0
  3 36  1  0
  3 37  1  0
  4 38  1  0
  4 39  1  0
  6 40  1  0
  6 41  1  0
  6 42  1  0
  7 43  1  0
  7 44  1  0
  8 45  1  0
  8 46  1  0
  9 47  1  0
 10 48  1  0
 10 49  1  0
 14 50  1  0
 15 51  1  0
 16 52  1  0
 18 53  1  0
 19 54  1  0
 21 55  1  0
 23 56  1  0
 23 57  1  0
 25 58  1  0
 26 59  1  0
 27 60  1  0
 27 61  1  0
 28 62  1  0
 29 63  1  0
 29 64  1  0
 29 65  1  0
M  END
$$$$
