REMARK SMILES Cc1cc(O)ccc1C(=O)/C=C\C=C/c1cccnc1C
REMARK SMILES IDX 11 1 9 2 10 3 8 4 2 5 3 6 4 7 7 8 6 9 1 10 5 11 12 13 13 14
REMARK SMILES IDX 14 15 15 16 16 17 20 18 17 19 19 20 18 21 21 22
REMARK H PARENT 5 12
ROOT
ATOM      1  C   UNL     1      -0.488   0.283   0.224  1.00  0.00     0.052 C 
ENDROOT
BRANCH   1   2
ATOM      2  C   UNL     1      -1.539  -0.136  -0.750  1.00  0.00     0.186 C 
ATOM      3  O   UNL     1      -1.320  -0.811  -1.746  1.00  0.00    -0.289 OA
BRANCH   2   4
ATOM      4  C   UNL     1      -2.925   0.293  -0.430  1.00  0.00     0.025 A 
ATOM      5  C   UNL     1      -3.978  -0.641  -0.382  1.00  0.00    -0.036 A 
ATOM      6  C   UNL     1      -5.273  -0.177  -0.101  1.00  0.00     0.050 A 
ATOM      7  C   UNL     1      -5.505   1.176   0.131  1.00  0.00     0.115 A 
ATOM      8  C   UNL     1      -3.174   1.657  -0.203  1.00  0.00     0.016 A 
ATOM      9  C   UNL     1      -4.467   2.099   0.082  1.00  0.00     0.047 A 
ATOM     10  C   UNL     1      -3.763  -2.105  -0.647  1.00  0.00     0.045 C 
BRANCH   7  11
ATOM     11  O   UNL     1      -6.784   1.560   0.402  1.00  0.00    -0.508 OA
ATOM     12  H   UNL     1      -6.808   2.525   0.509  1.00  0.00     0.293 HD
ENDBRANCH   7  11
ENDBRANCH   2   4
ENDBRANCH   1   2
BRANCH   1  13
ATOM     13  C   UNL     1       0.843   0.180   0.079  1.00  0.00     0.004 C 
BRANCH  13  14
ATOM     14  C   UNL     1       1.576  -0.340  -1.056  1.00  0.00     0.001 C 
BRANCH  14  15
ATOM     15  C   UNL     1       2.912  -0.433  -1.158  1.00  0.00     0.010 C 
BRANCH  15  16
ATOM     16  C   UNL     1       3.882  -0.018  -0.139  1.00  0.00    -0.004 A 
ATOM     17  C   UNL     1       4.366   1.294  -0.163  1.00  0.00     0.011 A 
ATOM     18  C   UNL     1       4.344  -0.873   0.871  1.00  0.00     0.044 A 
ATOM     19  C   UNL     1       5.279   1.713   0.799  1.00  0.00     0.021 A 
ATOM     20  N   UNL     1       5.233  -0.471   1.818  1.00  0.00    -0.261 NA
ATOM     21  C   UNL     1       5.678   0.802   1.759  1.00  0.00     0.111 A 
ATOM     22  C   UNL     1       3.875  -2.296   0.972  1.00  0.00     0.067 C 
ENDBRANCH  15  16
ENDBRANCH  14  15
ENDBRANCH  13  14
ENDBRANCH   1  13
TORSDOF 7
