MODEL        9USER    Run = 9USERUSER    Estimated Free Energy of Binding    =  -7.44 kcal/mol  [=(1)+(2)+(3)-(4)]USERUSER    (1) Final Intermolecular Energy     =  -9.23 kcal/molUSER        vdW + Hbond + desolv Energy     =  -9.17 kcal/molUSER        Electrostatic Energy            =  -0.05 kcal/molUSER        Moving Ligand-Fixed Receptor    =  -9.23 kcal/molUSER        Moving Ligand-Moving Receptor   =  +0.00 kcal/molUSER    (2) Final Total Internal Energy     =  -0.60 kcal/molUSER    (3) Torsional Free Energy           =  +1.79 kcal/molUSER    (4) Unbound System's Energy         =  -0.60 kcal/molUSERUSERREMARK SMILES CCCCC[C@@H]1NC(c2ccc(C(F)(F)F)cc2)=CC1=OREMARK SMILES IDX 5 1 4 2 3 3 2 4 1 5 6 6 7 7 20 8 8 9 19 10 21 12 9 13 10 14REMARK SMILES IDX 18 15 11 16 17 17 12 18 13 19 14 20 15 21 16 22REMARK H PARENT 7 11USER                              x       y       z     vdW  Elec       q    TypeUSER                           _______ _______ _______ _____ _____    ______ ____ROOTATOM      1  C   UNL     1      39.069  48.416  14.463 -0.56 -0.01    +0.033 C  ENDROOTBRANCH   1   2ATOM      2  C   UNL     1      39.742  49.003  15.710 -0.62 -0.00    +0.003 C  BRANCH   2   3ATOM      3  C   UNL     1      41.061  49.744  15.470 -0.76 +0.00    -0.000 C  BRANCH   3   4ATOM      4  C   UNL     1      41.572  49.627  14.035 -0.72 +0.00    -0.003 C  ATOM      5  C   UNL     1      42.555  50.739  13.704 -0.72 -0.00    +0.004 C  ENDBRANCH   3   4ENDBRANCH   2   3ENDBRANCH   1   2BRANCH   1   6ATOM      6  C   UNL     1      37.545  48.462  14.480 -0.49 -0.10    +0.150 C  ATOM      7  N   UNL     1      36.976  47.790  15.659 -0.17 +0.34    -0.374 N  ATOM      8  C   UNL     1      36.955  47.595  13.365 -0.51 -0.08    +0.179 C  ATOM      9  C   UNL     1      36.272  46.654  15.269 -0.41 -0.04    +0.046 C  ATOM     10  C   UNL     1      36.165  46.488  13.943 -0.48 -0.05    +0.075 C  ATOM     11  H   UNL     1      37.593  47.633  16.453 +0.10 -0.12    +0.161 HD ATOM     12  O   UNL     1      37.114  47.743  12.163 -1.09 +0.06    -0.292 OA BRANCH   9  13ATOM     13  C   UNL     1      35.713  45.749  16.283 -0.35 +0.00    -0.002 A  ATOM     14  C   UNL     1      35.803  44.360  16.114 -0.34 -0.00    +0.011 A  ATOM     15  C   UNL     1      35.061  46.239  17.424 -0.40 -0.01    +0.011 A  ATOM     16  C   UNL     1      35.265  43.482  17.061 -0.35 -0.01    +0.014 A  ATOM     17  C   UNL     1      34.520  45.364  18.372 -0.42 -0.01    +0.014 A  ATOM     18  C   UNL     1      34.611  43.976  18.197 -0.28 -0.02    +0.056 A  BRANCH  18  19ATOM     19  C   UNL     1      34.049  43.032  19.232 -0.16 -0.04    +0.416 C  ATOM     20  F   UNL     1      34.917  42.777  20.250 -0.15 -0.01    -0.166 F  ATOM     21  F   UNL     1      33.723  41.819  18.705 -0.13 +0.02    -0.166 F  ATOM     22  F   UNL     1      32.913  43.501  19.823 -0.17 -0.00    -0.166 F  ENDBRANCH  18  19ENDBRANCH   9  13ENDBRANCH   1   6TORSDOF 6TERENDMDL