MODEL        8USER    Run = 8USERUSER    Estimated Free Energy of Binding    =  -9.74 kcal/mol  [=(1)+(2)+(3)-(4)]USERUSER    (1) Final Intermolecular Energy     = -12.72 kcal/molUSER        vdW + Hbond + desolv Energy     = -12.52 kcal/molUSER        Electrostatic Energy            =  -0.20 kcal/molUSER        Moving Ligand-Fixed Receptor    = -12.72 kcal/molUSER        Moving Ligand-Moving Receptor   =  +0.00 kcal/molUSER    (2) Final Total Internal Energy     =  -1.63 kcal/molUSER    (3) Torsional Free Energy           =  +2.98 kcal/molUSER    (4) Unbound System's Energy         =  -1.63 kcal/molUSERUSERREMARK SMILES Cc1cccc(O)cc(O)ncc1N(Cc1cccc(C(=O)O)c1)C(=O)CC(C)CREMARK SMILES IDX 14 1 13 2 2 3 3 4 4 5 12 6 5 7 11 8 6 9 9 10 8 11 1 12 7 13REMARK SMILES IDX 10 15 15 17 16 18 17 19 24 20 18 21 20 22 19 23 21 24 22 25REMARK SMILES IDX 23 26 25 28 26 29 27 30 28 31 29 32 30 33REMARK H PARENT 7 14 10 16 23 27USER                              x       y       z     vdW  Elec       q    TypeUSER                           _______ _______ _______ _____ _____    ______ ____ROOTATOM      1  N   UNL     1      37.063  46.112  15.402 -0.15 +0.16    -0.306 N  ENDROOTBRANCH   1   2ATOM      2  C   UNL     1      36.152  45.451  16.270 -0.30 -0.04    +0.065 A  ATOM      3  C   UNL     1      36.608  44.525  17.165 -0.32 +0.01    -0.026 A  ATOM      4  C   UNL     1      35.793  43.612  17.733 -0.32 -0.00    +0.006 A  ATOM      5  C   UNL     1      34.724  43.039  17.135 -0.38 -0.00    +0.004 A  ATOM      6  C   UNL     1      34.839  45.863  16.238 -0.20 -0.14    +0.141 A  ATOM      7  C   UNL     1      33.639  42.656  17.835 -0.33 -0.01    +0.046 A  ATOM      8  N   UNL     1      33.688  45.745  16.979 -0.18 +0.21    -0.220 NA ATOM      9  C   UNL     1      33.198  43.302  18.937 -0.31 -0.02    +0.120 A  ATOM     10  C   UNL     1      33.751  45.606  18.331 -0.30 -0.11    +0.214 A  ATOM     11  C   UNL     1      33.422  44.613  19.199 -0.33 -0.03    +0.114 A  ATOM     12  C   UNL     1      38.009  44.633  17.728 -0.38 -0.01    +0.046 C  BRANCH   9  13ATOM     13  O   UNL     1      32.393  42.608  19.848 -0.44 -0.06    -0.508 OA ATOM     14  H   UNL     1      31.883  41.967  19.330 +0.19 +0.00    +0.293 HD ENDBRANCH   9  13BRANCH  10  15ATOM     15  O   UNL     1      33.942  46.863  18.878 -0.77 +0.32    -0.493 OA ATOM     16  H   UNL     1      33.749  46.631  19.808 -0.35 -0.20    +0.295 HD ENDBRANCH  10  15ENDBRANCH   1   2BRANCH   1  17ATOM     17  C   UNL     1      37.315  47.548  15.653 -0.37 -0.12    +0.161 C  BRANCH  17  18ATOM     18  C   UNL     1      38.761  47.838  16.006 -0.44 +0.01    -0.027 A  ATOM     19  C   UNL     1      39.358  47.307  17.161 -0.40 -0.00    +0.005 A  ATOM     20  C   UNL     1      39.518  48.696  15.196 -0.52 -0.01    +0.021 A  ATOM     21  C   UNL     1      40.674  47.626  17.499 -0.50 -0.00    +0.001 A  ATOM     22  C   UNL     1      40.832  49.024  15.538 -0.58 -0.01    +0.060 A  ATOM     23  C   UNL     1      41.411  48.488  16.692 -0.44 -0.00    +0.015 A  BRANCH  22  24ATOM     24  C   UNL     1      41.584  49.932  14.647 -0.44 -0.07    +0.335 C  ATOM     25  O   UNL     1      41.507  49.987  13.437 -0.53 +0.07    -0.246 OA BRANCH  24  26ATOM     26  O   UNL     1      42.404  50.753  15.329 -0.44 +0.03    -0.478 OA ATOM     27  H   UNL     1      41.793  51.184  15.961 -0.29 -0.11    +0.297 HD ENDBRANCH  24  26ENDBRANCH  22  24ENDBRANCH  17  18ENDBRANCH   1  17BRANCH   1  28ATOM     28  C   UNL     1      37.632  45.404  14.326 -0.29 -0.08    +0.227 C  ATOM     29  O   UNL     1      38.828  45.124  14.224 -0.24 +0.06    -0.275 OA BRANCH  28  30ATOM     30  C   UNL     1      36.666  44.900  13.250 -0.39 -0.04    +0.103 C  BRANCH  30  31ATOM     31  C   UNL     1      36.110  46.010  12.336 -0.67 +0.00    -0.008 C  ATOM     32  C   UNL     1      35.120  46.881  13.112 -0.43 -0.01    +0.008 C  ATOM     33  C   UNL     1      37.228  46.883  11.766 -0.69 -0.00    +0.008 C  ENDBRANCH  30  31ENDBRANCH  28  30ENDBRANCH   1  28TORSDOF 10TERENDMDL