MODEL        4USER    Run = 4USERUSER    Estimated Free Energy of Binding    =  -8.20 kcal/mol  [=(1)+(2)+(3)-(4)]USERUSER    (1) Final Intermolecular Energy     =  -9.39 kcal/molUSER        vdW + Hbond + desolv Energy     =  -8.98 kcal/molUSER        Electrostatic Energy            =  -0.41 kcal/molUSER        Moving Ligand-Fixed Receptor    =  -9.39 kcal/molUSER        Moving Ligand-Moving Receptor   =  +0.00 kcal/molUSER    (2) Final Total Internal Energy     =  -1.15 kcal/molUSER    (3) Torsional Free Energy           =  +1.19 kcal/molUSER    (4) Unbound System's Energy         =  -1.15 kcal/molUSERUSERREMARK SMILES Nc1cc([C@@H]2NC=C(c3ccco3)c3nccn32)ccc1OREMARK SMILES IDX 2 1 3 2 4 3 19 4 20 5 21 6 1 7 22 10 5 12 6 13 18 14 7 15REMARK SMILES IDX 17 16 14 17 8 18 16 19 15 20 9 22 10 23 13 24 11 25 12 26REMARK H PARENT 1 8 1 9 22 11 6 21USER                              x       y       z     vdW  Elec       q    TypeUSER                           _______ _______ _______ _____ _____    ______ ____ROOTATOM      1  C   UNL     1      34.397  46.214  17.717 -0.38 -0.07    +0.074 A  ATOM      2  C   UNL     1      35.452  46.247  16.805 -0.34 -0.03    +0.037 A  ATOM      3  C   UNL     1      36.011  45.051  16.309 -0.33 +0.00    -0.003 A  ATOM      4  C   UNL     1      35.505  43.819  16.773 -0.34 -0.00    +0.012 A  ATOM      5  C   UNL     1      34.483  43.781  17.720 -0.28 -0.02    +0.049 A  ATOM      6  C   UNL     1      33.952  44.973  18.187 -0.29 -0.06    +0.138 A  ENDROOTBRANCH   1   7ATOM      7  N   UNL     1      33.922  47.389  18.340 -0.30 +0.43    -0.396 N  ATOM      8  H   UNL     1      33.089  47.211  18.899 -0.38 -0.12    +0.156 HD ATOM      9  H   UNL     1      33.691  48.084  17.627 -0.44 -0.43    +0.156 HD ENDBRANCH   1   7BRANCH   6  10ATOM     10  O   UNL     1      32.953  44.940  19.119 -0.12 +0.13    -0.506 OA ATOM     11  H   UNL     1      33.275  45.533  19.827 -0.26 -0.15    +0.293 HD ENDBRANCH   6  10BRANCH   3  12ATOM     12  C   UNL     1      37.131  45.108  15.280 -0.27 -0.08    +0.213 C  ATOM     13  N   UNL     1      38.423  45.167  15.961 -0.06 +0.09    -0.366 N  ATOM     14  N   UNL     1      36.938  46.212  14.334 -0.17 +0.15    -0.306 N  ATOM     15  C   UNL     1      39.210  46.300  15.860 -0.42 -0.02    +0.095 C  ATOM     16  C   UNL     1      35.928  46.358  13.422 -0.43 -0.06    +0.110 A  ATOM     17  C   UNL     1      37.816  47.272  14.192 -0.37 -0.06    +0.147 A  ATOM     18  C   UNL     1      38.984  47.341  15.027 -0.49 -0.03    +0.076 C  ATOM     19  C   UNL     1      36.213  47.532  12.770 -0.54 -0.07    +0.131 A  ATOM     20  N   UNL     1      37.371  48.087  13.249 -0.80 +0.08    -0.237 NA ATOM     21  H   UNL     1      38.472  44.685  16.855 +0.10 -0.03    +0.162 HD BRANCH  18  22ATOM     22  C   UNL     1      39.916  48.436  15.053 -0.45 -0.04    +0.139 A  ATOM     23  C   UNL     1      39.937  49.571  15.862 -0.36 -0.02    +0.051 A  ATOM     24  O   UNL     1      41.016  48.530  14.214 -0.19 +0.06    -0.464 OA ATOM     25  C   UNL     1      41.058  50.356  15.506 -0.59 -0.01    +0.043 A  ATOM     26  C   UNL     1      41.682  49.674  14.496 -0.48 -0.03    +0.196 A  ENDBRANCH  18  22ENDBRANCH   3  12TORSDOF 4TERENDMDL