MODEL        1USER    Run = 1USERUSER    Estimated Free Energy of Binding    =  -9.83 kcal/mol  [=(1)+(2)+(3)-(4)]USERUSER    (1) Final Intermolecular Energy     = -11.62 kcal/molUSER        vdW + Hbond + desolv Energy     = -11.46 kcal/molUSER        Electrostatic Energy            =  -0.16 kcal/molUSER        Moving Ligand-Fixed Receptor    = -11.62 kcal/molUSER        Moving Ligand-Moving Receptor   =  +0.00 kcal/molUSER    (2) Final Total Internal Energy     =  -0.90 kcal/molUSER    (3) Torsional Free Energy           =  +1.79 kcal/molUSER    (4) Unbound System's Energy         =  -0.90 kcal/molUSERUSERREMARK SMILES C=CC(=O)NC=C(CC)c1ccc2nc(N3CCN(C)CC3)cc(C)c2c1REMARK SMILES IDX 6 1 5 2 3 3 4 4 2 6 1 7 7 8 8 9 9 10 10 11 11 12 27 13 12 14REMARK SMILES IDX 26 15 13 16 24 17 14 18 23 19 15 20 25 21 16 22 17 23 22 24REMARK SMILES IDX 18 25 21 26 19 27 20 28REMARK H PARENT 5 5USER                              x       y       z     vdW  Elec       q    TypeUSER                           _______ _______ _______ _____ _____    ______ ____ROOTATOM      1  C   UNL     1      39.259  48.310  14.197 -0.45 -0.03    +0.090 C  ENDROOTBRANCH   1   2ATOM      2  N   UNL     1      37.912  48.043  14.183 -0.27 +0.15    -0.329 N  ATOM      3  C   UNL     1      37.246  47.572  13.072 -0.44 -0.08    +0.247 C  ATOM      4  O   UNL     1      37.750  47.374  11.972 -0.99 +0.02    -0.270 OA ATOM      5  H   UNL     1      37.371  48.254  15.009 +0.12 -0.13    +0.169 HD BRANCH   3   6ATOM      6  C   UNL     1      35.786  47.357  13.256 -0.55 -0.04    +0.063 C  ATOM      7  C   UNL     1      35.223  46.275  13.809 -0.50 -0.01    +0.014 C  ENDBRANCH   3   6ENDBRANCH   1   2BRANCH   1   8ATOM      8  C   UNL     1      39.983  48.491  15.316 -0.63 +0.01    -0.025 C  BRANCH   8   9ATOM      9  C   UNL     1      41.029  49.561  15.532 -0.72 -0.01    +0.034 C  ATOM     10  C   UNL     1      41.773  49.894  14.245 -0.77 -0.00    +0.009 C  ENDBRANCH   8   9BRANCH   8  11ATOM     11  C   UNL     1      39.716  47.598  16.463 -0.49 +0.01    -0.020 A  ATOM     12  C   UNL     1      40.688  47.386  17.438 -0.52 -0.00    +0.011 A  ATOM     13  C   UNL     1      38.484  46.946  16.590 -0.39 -0.01    +0.019 A  ATOM     14  C   UNL     1      40.421  46.545  18.522 -0.43 -0.00    +0.029 A  ATOM     15  C   UNL     1      38.210  46.090  17.686 -0.35 -0.00    +0.004 A  ATOM     16  C   UNL     1      39.204  45.894  18.665 -0.36 -0.01    +0.073 A  ATOM     17  C   UNL     1      36.988  45.411  17.867 -0.32 +0.01    -0.038 A  ATOM     18  N   UNL     1      39.032  45.105  19.738 -0.25 +0.01    -0.231 NA ATOM     19  C   UNL     1      36.834  44.591  18.992 -0.31 -0.01    +0.051 A  ATOM     20  C   UNL     1      37.872  44.439  19.908 -0.28 -0.01    +0.129 A  ATOM     21  C   UNL     1      35.844  45.546  16.901 -0.37 -0.03    +0.045 C  BRANCH  20  22ATOM     22  N   UNL     1      37.713  43.639  21.038 -0.14 -0.00    -0.354 N  ATOM     23  C   UNL     1      36.546  42.741  21.026 -0.43 +0.00    +0.133 C  ATOM     24  C   UNL     1      38.073  44.203  22.351 -0.32 +0.01    +0.133 C  ATOM     25  C   UNL     1      36.594  41.820  22.265 -0.53 +0.01    +0.105 C  ATOM     26  C   UNL     1      36.982  43.939  23.418 -0.27 +0.02    +0.105 C  ATOM     27  N   UNL     1      36.541  42.536  23.561 -0.23 -0.03    -0.303 NA ATOM     28  C   UNL     1      37.314  41.823  24.574 -0.27 -0.00    +0.105 C  ENDBRANCH  20  22ENDBRANCH   8  11ENDBRANCH   1   8TORSDOF 6TERENDMDL