MODEL        8USER    Run = 8USERUSER    Estimated Free Energy of Binding    =  -7.72 kcal/mol  [=(1)+(2)+(3)-(4)]USERUSER    (1) Final Intermolecular Energy     =  -9.51 kcal/molUSER        vdW + Hbond + desolv Energy     =  -9.27 kcal/molUSER        Electrostatic Energy            =  -0.24 kcal/molUSER        Moving Ligand-Fixed Receptor    =  -9.51 kcal/molUSER        Moving Ligand-Moving Receptor   =  +0.00 kcal/molUSER    (2) Final Total Internal Energy     =  -0.78 kcal/molUSER    (3) Torsional Free Energy           =  +1.79 kcal/molUSER    (4) Unbound System's Energy         =  -0.78 kcal/molUSERUSERREMARK SMILES COCCN(C=O)C(=O)c1ccc2ccccc2c1CREMARK SMILES IDX 4 1 3 2 2 3 1 4 5 5 6 6 7 7 8 8 9 9 10 10 11 11 19 12 12 13REMARK SMILES IDX 18 14 13 15 17 16 14 17 16 18 15 19 20 20REMARK H PARENTUSER                              x       y       z     vdW  Elec       q    TypeUSER                           _______ _______ _______ _____ _____    ______ ____ROOTATOM      1  C   UNL     1      38.361  48.450  14.850 -0.47 -0.09    +0.157 C  ENDROOTBRANCH   1   2ATOM      2  C   UNL     1      38.069  47.372  13.799 -0.43 -0.06    +0.181 C  BRANCH   2   3ATOM      3  O   UNL     1      37.301  47.898  12.718 -0.93 +0.08    -0.383 OA ATOM      4  C   UNL     1      36.282  47.014  12.269 -0.59 -0.09    +0.194 C  ENDBRANCH   2   3ENDBRANCH   1   2BRANCH   1   5ATOM      5  N   UNL     1      39.663  48.252  15.487 -0.31 +0.10    -0.279 N  BRANCH   5   6ATOM      6  C   UNL     1      40.473  49.362  15.656 -0.38 -0.11    +0.347 C  ATOM      7  O   UNL     1      41.463  49.469  16.366 -1.08 -0.00    -0.278 OA ENDBRANCH   5   6BRANCH   5   8ATOM      8  C   UNL     1      40.170  46.989  15.775 -0.35 -0.04    +0.260 C  ATOM      9  O   UNL     1      40.653  46.217  14.952 -0.39 +0.00    -0.269 OA BRANCH   8  10ATOM     10  C   UNL     1      40.009  46.483  17.159 -0.45 -0.01    +0.044 A  ATOM     11  C   UNL     1      41.065  46.718  18.040 -0.51 -0.00    +0.015 A  ATOM     12  C   UNL     1      38.844  45.802  17.576 -0.39 +0.01    -0.030 A  ATOM     13  C   UNL     1      41.004  46.224  19.339 -0.44 +0.00    +0.009 A  ATOM     14  C   UNL     1      38.797  45.268  18.898 -0.39 +0.00    -0.015 A  ATOM     15  C   UNL     1      39.893  45.491  19.774 -0.39 +0.00    -0.018 A  ATOM     16  C   UNL     1      37.709  44.513  19.398 -0.35 -0.00    +0.009 A  ATOM     17  C   UNL     1      39.865  44.982  21.083 -0.33 +0.00    +0.009 A  ATOM     18  C   UNL     1      37.698  44.011  20.702 -0.38 -0.00    +0.001 A  ATOM     19  C   UNL     1      38.776  44.247  21.545 -0.33 +0.00    +0.001 A  ATOM     20  C   UNL     1      37.675  45.632  16.636 -0.39 -0.02    +0.046 C  ENDBRANCH   8  10ENDBRANCH   5   8ENDBRANCH   1   5TORSDOF 6TERENDMDL