REMARK SMILES CCCCC[C@@H]1NC(c2ccc(C(F)(F)F)cc2)=CC1=O
REMARK SMILES IDX 5 1 4 2 3 3 2 4 1 5 6 6 7 7 20 8 8 9 19 10 21 12 9 13 10 14
REMARK SMILES IDX 18 15 11 16 17 17 12 18 13 19 14 20 15 21 16 22
REMARK H PARENT 7 11
ROOT
ATOM      1  C   UNL     1       2.133  -1.074  -0.373  1.00  0.00     0.033 C 
ENDROOT
BRANCH   1   2
ATOM      2  C   UNL     1       1.556  -2.490  -0.497  1.00  0.00     0.003 C 
BRANCH   2   3
ATOM      3  C   UNL     1       1.553  -3.323   0.788  1.00  0.00    -0.000 C 
BRANCH   3   4
ATOM      4  C   UNL     1       2.945  -3.529   1.384  1.00  0.00    -0.003 C 
ATOM      5  C   UNL     1       2.900  -4.452   2.592  1.00  0.00     0.004 C 
ENDBRANCH   3   4
ENDBRANCH   2   3
ENDBRANCH   1   2
BRANCH   1   6
ATOM      6  C   UNL     1       1.459  -0.202   0.681  1.00  0.00     0.150 C 
ATOM      7  N   UNL     1       0.073   0.140   0.325  1.00  0.00    -0.374 N 
ATOM      8  C   UNL     1       2.081   1.196   0.719  1.00  0.00     0.179 C 
ATOM      9  C   UNL     1      -0.036   1.507   0.086  1.00  0.00     0.046 C 
ATOM     10  C   UNL     1       1.076   2.212   0.340  1.00  0.00     0.075 C 
ATOM     11  H   UNL     1      -0.386  -0.433  -0.380  1.00  0.00     0.161 HD
ATOM     12  O   UNL     1       3.240   1.474   0.987  1.00  0.00    -0.292 OA
BRANCH   9  13
ATOM     13  C   UNL     1      -1.302   2.072  -0.404  1.00  0.00    -0.002 A 
ATOM     14  C   UNL     1      -2.524   1.529   0.016  1.00  0.00     0.011 A 
ATOM     15  C   UNL     1      -1.325   3.141  -1.310  1.00  0.00     0.011 A 
ATOM     16  C   UNL     1      -3.739   2.044  -0.449  1.00  0.00     0.014 A 
ATOM     17  C   UNL     1      -2.538   3.658  -1.779  1.00  0.00     0.014 A 
ATOM     18  C   UNL     1      -3.758   3.110  -1.358  1.00  0.00     0.056 A 
BRANCH  18  19
ATOM     19  C   UNL     1      -5.067   3.683  -1.845  1.00  0.00     0.416 C 
ATOM     20  F   UNL     1      -4.986   4.208  -3.099  1.00  0.00    -0.166 F 
ATOM     21  F   UNL     1      -5.521   4.688  -1.047  1.00  0.00    -0.166 F 
ATOM     22  F   UNL     1      -6.069   2.760  -1.893  1.00  0.00    -0.166 F 
ENDBRANCH  18  19
ENDBRANCH   9  13
ENDBRANCH   1   6
TORSDOF 6
