REMARK SMILES COCCN(C=O)C(=O)c1ccc2ccccc2c1C
REMARK SMILES IDX 4 1 3 2 2 3 1 4 5 5 6 6 7 7 8 8 9 9 10 10 11 11 19 12 12 13
REMARK SMILES IDX 18 14 13 15 17 16 14 17 16 18 15 19 20 20
REMARK H PARENT
ROOT
ATOM      1  C   UNL     1      -2.077  -0.436  -0.116  1.00  0.00     0.157 C 
ENDROOT
BRANCH   1   2
ATOM      2  C   UNL     1      -2.800   0.037   1.152  1.00  0.00     0.181 C 
BRANCH   2   3
ATOM      3  O   UNL     1      -3.249   1.385   1.019  1.00  0.00    -0.383 OA
ATOM      4  C   UNL     1      -4.516   1.496   0.385  1.00  0.00     0.194 C 
ENDBRANCH   2   3
ENDBRANCH   1   2
BRANCH   1   5
ATOM      5  N   UNL     1      -1.567  -1.800   0.025  1.00  0.00    -0.279 N 
BRANCH   5   6
ATOM      6  C   UNL     1      -2.402  -2.841  -0.341  1.00  0.00     0.347 C 
ATOM      7  O   UNL     1      -2.100  -4.006  -0.560  1.00  0.00    -0.278 OA
ENDBRANCH   5   6
BRANCH   5   8
ATOM      8  C   UNL     1      -0.357  -2.085   0.651  1.00  0.00     0.260 C 
ATOM      9  O   UNL     1      -0.125  -3.092   1.314  1.00  0.00    -0.269 OA
BRANCH   8  10
ATOM     10  C   UNL     1       0.696  -1.043   0.619  1.00  0.00     0.044 A 
ATOM     11  C   UNL     1       1.017  -0.438   1.835  1.00  0.00     0.015 A 
ATOM     12  C   UNL     1       1.354  -0.679  -0.576  1.00  0.00    -0.030 A 
ATOM     13  C   UNL     1       1.958   0.586   1.870  1.00  0.00     0.009 A 
ATOM     14  C   UNL     1       2.294   0.393  -0.544  1.00  0.00    -0.015 A 
ATOM     15  C   UNL     1       2.589   1.018   0.697  1.00  0.00    -0.018 A 
ATOM     16  C   UNL     1       2.961   0.883  -1.692  1.00  0.00     0.009 A 
ATOM     17  C   UNL     1       3.518   2.070   0.754  1.00  0.00     0.009 A 
ATOM     18  C   UNL     1       3.881   1.932  -1.619  1.00  0.00     0.001 A 
ATOM     19  C   UNL     1       4.160   2.525  -0.395  1.00  0.00     0.001 A 
ATOM     20  C   UNL     1       1.057  -1.403  -1.867  1.00  0.00     0.046 C 
ENDBRANCH   8  10
ENDBRANCH   5   8
ENDBRANCH   1   5
TORSDOF 6
