REMARK SMILES C=CC(=O)NC=C(CC)c1ccc2nc(N3CCN(C)CC3)cc(C)c2c1
REMARK SMILES IDX 6 1 5 2 3 3 4 4 2 6 1 7 7 8 8 9 9 10 10 11 11 12 27 13 12 14
REMARK SMILES IDX 26 15 13 16 24 17 14 18 23 19 15 20 25 21 16 22 17 23 22 24
REMARK SMILES IDX 18 25 21 26 19 27 20 28
REMARK H PARENT 5 5
ROOT
ATOM      1  C   UNL     1       4.354   0.214  -1.265  1.00  0.00     0.090 C 
ENDROOT
BRANCH   1   2
ATOM      2  N   UNL     1       5.700   0.436  -1.422  1.00  0.00    -0.329 N 
ATOM      3  C   UNL     1       6.309   0.548  -2.653  1.00  0.00     0.247 C 
ATOM      4  O   UNL     1       5.749   0.428  -3.737  1.00  0.00    -0.270 OA
ATOM      5  H   UNL     1       6.283   0.463  -0.598  1.00  0.00     0.169 HD
BRANCH   3   6
ATOM      6  C   UNL     1       7.778   0.776  -2.612  1.00  0.00     0.063 C 
ATOM      7  C   UNL     1       8.437   1.434  -1.649  1.00  0.00     0.014 C 
ENDBRANCH   3   6
ENDBRANCH   1   2
BRANCH   1   8
ATOM      8  C   UNL     1       3.743   0.077  -0.074  1.00  0.00    -0.025 C 
BRANCH   8   9
ATOM      9  C   UNL     1       4.404   0.198   1.280  1.00  0.00     0.034 C 
ATOM     10  C   UNL     1       4.817  -1.160   1.833  1.00  0.00     0.009 C 
ENDBRANCH   8   9
BRANCH   8  11
ATOM     11  C   UNL     1       2.287  -0.173  -0.071  1.00  0.00    -0.020 A 
ATOM     12  C   UNL     1       1.772  -1.366  -0.573  1.00  0.00     0.011 A 
ATOM     13  C   UNL     1       1.397   0.783   0.433  1.00  0.00     0.019 A 
ATOM     14  C   UNL     1       0.393  -1.595  -0.558  1.00  0.00     0.029 A 
ATOM     15  C   UNL     1      -0.001   0.556   0.447  1.00  0.00     0.004 A 
ATOM     16  C   UNL     1      -0.502  -0.660  -0.059  1.00  0.00     0.073 A 
ATOM     17  C   UNL     1      -0.943   1.480   0.945  1.00  0.00    -0.038 A 
ATOM     18  N   UNL     1      -1.810  -0.962  -0.082  1.00  0.00    -0.231 NA
ATOM     19  C   UNL     1      -2.302   1.143   0.906  1.00  0.00     0.051 A 
ATOM     20  C   UNL     1      -2.717  -0.076   0.376  1.00  0.00     0.129 A 
ATOM     21  C   UNL     1      -0.537   2.807   1.523  1.00  0.00     0.045 C 
BRANCH  20  22
ATOM     22  N   UNL     1      -4.067  -0.420   0.355  1.00  0.00    -0.354 N 
ATOM     23  C   UNL     1      -4.370  -1.795  -0.077  1.00  0.00     0.133 C 
ATOM     24  C   UNL     1      -5.044   0.607  -0.048  1.00  0.00     0.133 C 
ATOM     25  C   UNL     1      -5.880  -2.068   0.099  1.00  0.00     0.105 C 
ATOM     26  C   UNL     1      -6.068   0.066  -1.076  1.00  0.00     0.105 C 
ATOM     27  N   UNL     1      -6.758  -1.187  -0.707  1.00  0.00    -0.303 NA
ATOM     28  C   UNL     1      -8.013  -0.932  -0.006  1.00  0.00     0.105 C 
ENDBRANCH  20  22
ENDBRANCH   8  11
ENDBRANCH   1   8
TORSDOF 6
