MODEL        5USER    Run = 5USERUSER    Estimated Free Energy of Binding    =  -8.51 kcal/mol  [=(1)+(2)+(3)-(4)]USERUSER    (1) Final Intermolecular Energy     = -10.60 kcal/molUSER        vdW + Hbond + desolv Energy     = -10.36 kcal/molUSER        Electrostatic Energy            =  -0.23 kcal/molUSER        Moving Ligand-Fixed Receptor    = -10.60 kcal/molUSER        Moving Ligand-Moving Receptor   =  +0.00 kcal/molUSER    (2) Final Total Internal Energy     =  -1.16 kcal/molUSER    (3) Torsional Free Energy           =  +2.09 kcal/molUSER    (4) Unbound System's Energy         =  -1.16 kcal/molUSERUSERREMARK SMILES Cc1cc(O)ccc1C(=O)/C=C\C=C/c1cccnc1CREMARK SMILES IDX 11 1 9 2 10 3 8 4 2 5 3 6 4 7 7 8 6 9 1 10 5 11 12 13 13 14REMARK SMILES IDX 14 15 15 16 16 17 20 18 17 19 19 20 18 21 21 22REMARK H PARENT 5 12USER                              x       y       z     vdW  Elec       q    TypeUSER                           _______ _______ _______ _____ _____    ______ ____ROOTATOM      1  C   UNL     1      38.076  44.688  16.897 -0.32 -0.01    +0.052 C  ENDROOTBRANCH   1   2ATOM      2  C   UNL     1      38.663  45.589  17.933 -0.33 -0.03    +0.186 C  ATOM      3  O   UNL     1      38.526  45.429  19.137 -0.27 +0.03    -0.289 OA BRANCH   2   4ATOM      4  C   UNL     1      39.481  46.718  17.419 -0.43 -0.01    +0.025 A  ATOM      5  C   UNL     1      40.722  47.037  18.004 -0.48 +0.00    -0.036 A  ATOM      6  C   UNL     1      41.441  48.130  17.496 -0.45 -0.00    +0.050 A  ATOM      7  C   UNL     1      40.939  48.875  16.432 -0.45 -0.02    +0.115 A  ATOM      8  C   UNL     1      38.981  47.483  16.352 -0.44 -0.01    +0.016 A  ATOM      9  C   UNL     1      39.714  48.562  15.855 -0.50 -0.02    +0.047 A  ATOM     10  C   UNL     1      41.282  46.264  19.165 -0.50 +0.00    +0.045 C  BRANCH   7  11ATOM     11  O   UNL     1      41.688  49.921  15.984 -0.79 -0.01    -0.508 OA ATOM     12  H   UNL     1      41.437  50.722  16.473 -0.30 -0.08    +0.293 HD ENDBRANCH   7  11ENDBRANCH   2   4ENDBRANCH   1   2BRANCH   1  13ATOM     13  C   UNL     1      36.777  44.532  16.597 -0.39 -0.00    +0.004 C  BRANCH  13  14ATOM     14  C   UNL     1      35.780  45.563  16.401 -0.40 -0.00    +0.001 C  BRANCH  14  15ATOM     15  C   UNL     1      35.913  46.655  15.630 -0.39 -0.01    +0.010 C  BRANCH  15  16ATOM     16  C   UNL     1      36.295  46.664  14.213 -0.45 +0.00    -0.004 A  ATOM     17  C   UNL     1      36.160  45.486  13.471 -0.43 -0.01    +0.011 A  ATOM     18  C   UNL     1      36.782  47.804  13.559 -0.55 -0.02    +0.044 A  ATOM     19  C   UNL     1      36.506  45.473  12.124 -0.56 -0.01    +0.021 A  ATOM     20  N   UNL     1      37.119  47.802  12.242 -0.98 +0.05    -0.261 NA ATOM     21  C   UNL     1      36.977  46.645  11.561 -0.53 -0.04    +0.111 A  ATOM     22  C   UNL     1      36.956  49.109  14.280 -0.42 -0.05    +0.067 C  ENDBRANCH  15  16ENDBRANCH  14  15ENDBRANCH  13  14ENDBRANCH   1  13TORSDOF 7TERENDMDL