REMARK SMILES C=CC(=O)N[C@@H](C)c1cc(-c2c[nH]c3ccc(O)cc23)ccc1SC
REMARK SMILES IDX 8 1 9 2 10 3 21 4 22 5 23 6 6 7 7 8 5 9 3 10 4 11 2 13 1 14
REMARK SMILES IDX 24 15 25 16 11 17 12 18 20 19 13 20 19 21 14 22 17 23 15 24
REMARK SMILES IDX 16 25 18 27
REMARK H PARENT 5 12 13 26 18 28
ROOT
ATOM      1  C   UNL     1      -1.509   0.991   1.024  1.00  0.00    -0.012 A 
ATOM      2  C   UNL     1      -0.541  -0.036   0.925  1.00  0.00     0.015 A 
ATOM      3  C   UNL     1       0.833   0.236   0.977  1.00  0.00    -0.016 A 
ATOM      4  C   UNL     1       1.258   1.553   1.142  1.00  0.00     0.010 A 
ATOM      5  C   UNL     1       0.321   2.580   1.263  1.00  0.00     0.016 A 
ATOM      6  C   UNL     1      -1.057   2.314   1.206  1.00  0.00     0.012 A 
ENDROOT
BRANCH   1   7
ATOM      7  C   UNL     1      -2.990   0.629   0.975  1.00  0.00     0.110 C 
ATOM      8  C   UNL     1      -3.456   0.109   2.336  1.00  0.00     0.036 C 
BRANCH   7   9
ATOM      9  N   UNL     1      -3.264  -0.364  -0.058  1.00  0.00    -0.346 N 
ATOM     10  C   UNL     1      -3.582  -0.009  -1.342  1.00  0.00     0.243 C 
ATOM     11  O   UNL     1      -3.827   1.130  -1.717  1.00  0.00    -0.270 OA
ATOM     12  H   UNL     1      -3.094  -1.333   0.157  1.00  0.00     0.164 HD
BRANCH  10  13
ATOM     13  C   UNL     1      -3.683  -1.138  -2.301  1.00  0.00     0.063 C 
ATOM     14  C   UNL     1      -2.930  -2.245  -2.265  1.00  0.00     0.014 C 
ENDBRANCH  10  13
ENDBRANCH   7   9
ENDBRANCH   1   7
BRANCH   6  15
ATOM     15  S   UNL     1      -2.152   3.715   1.419  1.00  0.00    -0.129 SA
ATOM     16  C   UNL     1      -2.273   4.226  -0.317  1.00  0.00     0.091 C 
ENDBRANCH   6  15
BRANCH   3  17
ATOM     17  C   UNL     1       1.804  -0.839   0.863  1.00  0.00     0.007 A 
ATOM     18  C   UNL     1       1.769  -1.968   1.657  1.00  0.00     0.092 A 
ATOM     19  C   UNL     1       2.940  -0.961   0.001  1.00  0.00     0.011 A 
ATOM     20  N   UNL     1       2.833  -2.760   1.317  1.00  0.00    -0.361 N 
ATOM     21  C   UNL     1       3.495  -0.162  -1.020  1.00  0.00     0.057 A 
ATOM     22  C   UNL     1       3.563  -2.173   0.309  1.00  0.00     0.046 A 
ATOM     23  C   UNL     1       4.646  -0.600  -1.675  1.00  0.00     0.116 A 
ATOM     24  C   UNL     1       4.720  -2.619  -0.344  1.00  0.00     0.030 A 
ATOM     25  C   UNL     1       5.255  -1.806  -1.348  1.00  0.00     0.048 A 
ATOM     26  H   UNL     1       3.060  -3.646   1.746  1.00  0.00     0.166 HD
BRANCH  23  27
ATOM     27  O   UNL     1       5.154   0.204  -2.655  1.00  0.00    -0.508 OA
ATOM     28  H   UNL     1       5.944  -0.222  -3.027  1.00  0.00     0.293 HD
ENDBRANCH  23  27
ENDBRANCH   3  17
TORSDOF 6
