MODEL        4USER    Run = 4USERUSER    Estimated Free Energy of Binding    =  -9.31 kcal/mol  [=(1)+(2)+(3)-(4)]USERUSER    (1) Final Intermolecular Energy     = -11.10 kcal/molUSER        vdW + Hbond + desolv Energy     = -10.98 kcal/molUSER        Electrostatic Energy            =  -0.12 kcal/molUSER        Moving Ligand-Fixed Receptor    = -11.10 kcal/molUSER        Moving Ligand-Moving Receptor   =  +0.00 kcal/molUSER    (2) Final Total Internal Energy     =  -0.98 kcal/molUSER    (3) Torsional Free Energy           =  +1.79 kcal/molUSER    (4) Unbound System's Energy         =  -0.98 kcal/molUSERUSERREMARK SMILES C=CC(=O)N[C@@H](C)c1cc(-c2c[nH]c3ccc(O)cc23)ccc1SCREMARK SMILES IDX 8 1 9 2 10 3 21 4 22 5 23 6 6 7 7 8 5 9 3 10 4 11 2 13 1 14REMARK SMILES IDX 24 15 25 16 11 17 12 18 20 19 13 20 19 21 14 22 17 23 15 24REMARK SMILES IDX 16 25 18 27REMARK H PARENT 5 12 13 26 18 28USER                              x       y       z     vdW  Elec       q    TypeUSER                           _______ _______ _______ _____ _____    ______ ____ROOTATOM      1  C   UNL     1      38.940  47.306  15.732 -0.46 +0.00    -0.012 A  ATOM      2  C   UNL     1      38.257  46.494  16.669 -0.38 -0.01    +0.015 A  ATOM      3  C   UNL     1      38.899  45.971  17.800 -0.40 +0.00    -0.016 A  ATOM      4  C   UNL     1      40.243  46.266  18.014 -0.47 -0.00    +0.010 A  ATOM      5  C   UNL     1      40.932  47.082  17.116 -0.45 -0.00    +0.016 A  ATOM      6  C   UNL     1      40.296  47.605  15.978 -0.52 -0.00    +0.012 A  ENDROOTBRANCH   1   7ATOM      7  C   UNL     1      38.182  47.857  14.529 -0.50 -0.05    +0.110 C  ATOM      8  C   UNL     1      37.214  48.958  14.968 -0.52 -0.03    +0.036 C  BRANCH   7   9ATOM      9  N   UNL     1      37.455  46.806  13.827 -0.19 +0.14    -0.346 N  ATOM     10  C   UNL     1      36.925  46.997  12.578 -0.51 -0.09    +0.243 C  ATOM     11  O   UNL     1      36.856  48.074  12.000 -1.05 +0.06    -0.270 OA ATOM     12  H   UNL     1      37.453  45.881  14.226 +0.12 -0.06    +0.164 HD BRANCH  10  13ATOM     13  C   UNL     1      36.349  45.783  11.946 -0.61 -0.03    +0.063 C  ATOM     14  C   UNL     1      36.921  44.572  11.948 -0.59 -0.00    +0.014 C  ENDBRANCH  10  13ENDBRANCH   7   9ENDBRANCH   1   7BRANCH   6  15ATOM     15  S   UNL     1      41.280  48.673  14.930 -0.63 +0.01    -0.129 SA ATOM     16  C   UNL     1      40.889  50.257  15.720 -0.59 -0.03    +0.091 C  ENDBRANCH   6  15BRANCH   3  17ATOM     17  C   UNL     1      38.173  45.132  18.739 -0.38 -0.00    +0.007 A  ATOM     18  C   UNL     1      38.427  45.134  20.096 -0.25 -0.00    +0.092 A  ATOM     19  C   UNL     1      37.139  44.172  18.501 -0.31 -0.00    +0.011 A  ATOM     20  N   UNL     1      37.598  44.217  20.685 -0.16 +0.00    -0.361 N  ATOM     21  C   UNL     1      36.449  43.727  17.354 -0.26 -0.02    +0.057 A  ATOM     22  C   UNL     1      36.800  43.616  19.738 -0.34 -0.00    +0.046 A  ATOM     23  C   UNL     1      35.467  42.745  17.491 -0.29 -0.04    +0.116 A  ATOM     24  C   UNL     1      35.815  42.629  19.882 -0.43 -0.00    +0.030 A  ATOM     25  C   UNL     1      35.151  42.200  18.729 -0.37 -0.01    +0.048 A  ATOM     26  H   UNL     1      37.575  44.001  21.671 +0.10 +0.01    +0.166 HD BRANCH  23  27ATOM     27  O   UNL     1      34.825  42.339  16.356 -0.18 +0.23    -0.508 OA ATOM     28  H   UNL     1      34.744  41.371  16.375 -0.35 -0.20    +0.293 HD ENDBRANCH  23  27ENDBRANCH   3  17TORSDOF 6TERENDMDL