REMARK SMILES CNc1nccc(-c2cc3c(cn2)-c2ccccc2CC3=O)n1
REMARK SMILES IDX 3 1 4 2 5 3 6 4 7 5 23 6 2 7 1 8 8 10 9 11 13 12 10 13 12 14
REMARK SMILES IDX 11 15 21 16 14 17 20 18 15 19 19 20 16 21 18 22 17 23 22 24
REMARK H PARENT 2 9
ROOT
ATOM      1  C   UNL     1       4.542   0.608   0.242  1.00  0.00     0.222 A 
ATOM      2  N   UNL     1       5.207  -0.553   0.296  1.00  0.00    -0.222 NA
ATOM      3  C   UNL     1       4.474  -1.677   0.249  1.00  0.00     0.117 A 
ATOM      4  C   UNL     1       3.106  -1.684   0.147  1.00  0.00     0.051 A 
ATOM      5  C   UNL     1       2.496  -0.446   0.089  1.00  0.00     0.094 A 
ATOM      6  N   UNL     1       3.213   0.701   0.137  1.00  0.00    -0.211 NA
ENDROOT
BRANCH   1   7
ATOM      7  N   UNL     1       5.222   1.817   0.295  1.00  0.00    -0.357 N 
ATOM      8  C   UNL     1       6.500   1.805  -0.378  1.00  0.00     0.143 C 
ATOM      9  H   UNL     1       4.559   2.507  -0.046  1.00  0.00     0.163 HD
ENDBRANCH   1   7
BRANCH   5  10
ATOM     10  C   UNL     1       1.031  -0.294  -0.022  1.00  0.00     0.090 A 
ATOM     11  C   UNL     1       0.143  -1.071   0.704  1.00  0.00     0.043 A 
ATOM     12  N   UNL     1       0.580   0.649  -0.883  1.00  0.00    -0.254 NA
ATOM     13  C   UNL     1      -1.236  -0.868   0.540  1.00  0.00     0.029 A 
ATOM     14  C   UNL     1      -0.760   0.822  -1.013  1.00  0.00     0.121 A 
ATOM     15  C   UNL     1      -1.738   0.095  -0.339  1.00  0.00     0.011 A 
ATOM     16  C   UNL     1      -2.157  -1.710   1.337  1.00  0.00     0.168 C 
ATOM     17  C   UNL     1      -3.190   0.298  -0.517  1.00  0.00    -0.012 A 
ATOM     18  C   UNL     1      -3.632  -1.410   1.318  1.00  0.00     0.117 C 
ATOM     19  C   UNL     1      -3.729   1.194  -1.462  1.00  0.00     0.009 A 
ATOM     20  C   UNL     1      -4.099  -0.429   0.275  1.00  0.00    -0.032 A 
ATOM     21  C   UNL     1      -5.109   1.369  -1.607  1.00  0.00     0.001 A 
ATOM     22  C   UNL     1      -5.487  -0.243   0.128  1.00  0.00     0.005 A 
ATOM     23  C   UNL     1      -5.989   0.651  -0.810  1.00  0.00     0.000 A 
ATOM     24  O   UNL     1      -1.701  -2.623   2.024  1.00  0.00    -0.294 OA
ENDBRANCH   5  10
TORSDOF 2
