REMARK SMILES Cc1cccc(O)cc(O)ncc1N(Cc1cccc(C(=O)O)c1)C(=O)CC(C)C
REMARK SMILES IDX 14 1 13 2 2 3 3 4 4 5 12 6 5 7 11 8 6 9 9 10 8 11 1 12 7 13
REMARK SMILES IDX 10 15 15 17 16 18 17 19 24 20 18 21 20 22 19 23 21 24 22 25
REMARK SMILES IDX 23 26 25 28 26 29 27 30 28 31 29 32 30 33
REMARK H PARENT 7 14 10 16 23 27
ROOT
ATOM      1  N   UNL     1      -0.296   0.766  -0.846  1.00  0.00    -0.306 N 
ENDROOT
BRANCH   1   2
ATOM      2  C   UNL     1       0.995   0.214  -0.627  1.00  0.00     0.065 A 
ATOM      3  C   UNL     1       1.587   0.322   0.600  1.00  0.00    -0.026 A 
ATOM      4  C   UNL     1       2.916   0.169   0.774  1.00  0.00     0.006 A 
ATOM      5  C   UNL     1       3.867   0.529  -0.118  1.00  0.00     0.004 A 
ATOM      6  C   UNL     1       1.554  -0.510  -1.655  1.00  0.00     0.141 A 
ATOM      7  C   UNL     1       5.031  -0.139  -0.224  1.00  0.00     0.046 A 
ATOM      8  N   UNL     1       2.584  -1.394  -1.872  1.00  0.00    -0.220 NA
ATOM      9  C   UNL     1       5.148  -1.469  -0.011  1.00  0.00     0.120 A 
ATOM     10  C   UNL     1       2.993  -2.231  -0.881  1.00  0.00     0.214 A 
ATOM     11  C   UNL     1       4.139  -2.361  -0.162  1.00  0.00     0.114 A 
ATOM     12  C   UNL     1       0.739   0.393   1.852  1.00  0.00     0.046 C 
BRANCH   9  13
ATOM     13  O   UNL     1       6.404  -1.990   0.318  1.00  0.00    -0.508 OA
ATOM     14  H   UNL     1       7.007  -1.234   0.381  1.00  0.00     0.293 HD
ENDBRANCH   9  13
BRANCH  10  15
ATOM     15  O   UNL     1       2.119  -3.303  -0.844  1.00  0.00    -0.493 OA
ATOM     16  H   UNL     1       1.528  -3.015  -1.567  1.00  0.00     0.295 HD
ENDBRANCH  10  15
ENDBRANCH   1   2
BRANCH   1  17
ATOM     17  C   UNL     1      -1.333  -0.136  -1.394  1.00  0.00     0.161 C 
BRANCH  17  18
ATOM     18  C   UNL     1      -1.866  -1.113  -0.363  1.00  0.00    -0.027 A 
ATOM     19  C   UNL     1      -2.671  -0.689   0.707  1.00  0.00     0.005 A 
ATOM     20  C   UNL     1      -1.513  -2.467  -0.439  1.00  0.00     0.021 A 
ATOM     21  C   UNL     1      -3.110  -1.593   1.676  1.00  0.00     0.001 A 
ATOM     22  C   UNL     1      -1.943  -3.372   0.535  1.00  0.00     0.060 A 
ATOM     23  C   UNL     1      -2.743  -2.933   1.594  1.00  0.00     0.015 A 
BRANCH  22  24
ATOM     24  C   UNL     1      -1.543  -4.788   0.405  1.00  0.00     0.335 C 
ATOM     25  O   UNL     1      -1.222  -5.359  -0.617  1.00  0.00    -0.246 OA
BRANCH  24  26
ATOM     26  O   UNL     1      -1.551  -5.432   1.587  1.00  0.00    -0.478 OA
ATOM     27  H   UNL     1      -1.155  -6.298   1.358  1.00  0.00     0.297 HD
ENDBRANCH  24  26
ENDBRANCH  22  24
ENDBRANCH  17  18
ENDBRANCH   1  17
BRANCH   1  28
ATOM     28  C   UNL     1      -0.516   2.134  -0.595  1.00  0.00     0.227 C 
ATOM     29  O   UNL     1       0.328   2.908  -0.137  1.00  0.00    -0.275 OA
BRANCH  28  30
ATOM     30  C   UNL     1      -1.887   2.691  -0.987  1.00  0.00     0.103 C 
BRANCH  30  31
ATOM     31  C   UNL     1      -2.111   4.159  -0.571  1.00  0.00    -0.008 C 
ATOM     32  C   UNL     1      -3.332   4.728  -1.297  1.00  0.00     0.008 C 
ATOM     33  C   UNL     1      -2.301   4.293   0.940  1.00  0.00     0.008 C 
ENDBRANCH  30  31
ENDBRANCH  28  30
ENDBRANCH   1  28
TORSDOF 10
