MODEL        10USER    Run = 10USERUSER    Estimated Free Energy of Binding    =  -8.12 kcal/mol  [=(1)+(2)+(3)-(4)]USERUSER    (1) Final Intermolecular Energy     =  -9.01 kcal/molUSER        vdW + Hbond + desolv Energy     =  -8.78 kcal/molUSER        Electrostatic Energy            =  -0.23 kcal/molUSER        Moving Ligand-Fixed Receptor    =  -9.01 kcal/molUSER        Moving Ligand-Moving Receptor   =  +0.00 kcal/molUSER    (2) Final Total Internal Energy     =  -0.33 kcal/molUSER    (3) Torsional Free Energy           =  +0.89 kcal/molUSER    (4) Unbound System's Energy         =  -0.33 kcal/molUSERUSERREMARK SMILES Nc1n[nH]c2cc(-c3ccc([N+](=O)[O-])cc3)ccc12REMARK SMILES IDX 2 1 3 2 4 3 5 4 6 5 7 6 17 7 18 8 19 9 1 11 8 14 9 15 16 16REMARK SMILES IDX 10 17 15 18 11 19 12 20 13 21 14 22REMARK H PARENT 4 10 1 12 1 13USER                              x       y       z     vdW  Elec       q    TypeUSER                           _______ _______ _______ _____ _____    ______ ____ROOTATOM      1  C   UNL     1      34.098  42.959  17.691 -0.25 -0.05    +0.153 A  ATOM      2  N   UNL     1      33.508  43.640  18.668 -0.25 +0.03    -0.157 NA ATOM      3  N   UNL     1      34.236  44.765  18.757 -0.21 +0.09    -0.276 N  ATOM      4  C   UNL     1      35.264  44.845  17.856 -0.29 -0.03    +0.068 A  ATOM      5  C   UNL     1      36.225  45.836  17.622 -0.32 -0.02    +0.037 A  ATOM      6  C   UNL     1      37.176  45.611  16.607 -0.35 +0.01    -0.016 A  ATOM      7  C   UNL     1      37.126  44.411  15.875 -0.34 -0.00    +0.009 A  ATOM      8  C   UNL     1      36.153  43.431  16.124 -0.42 -0.01    +0.015 A  ATOM      9  C   UNL     1      35.203  43.659  17.136 -0.31 -0.02    +0.044 A  ATOM     10  H   UNL     1      33.975  45.448  19.459 -0.16 -0.08    +0.190 HD ENDROOTBRANCH   1  11ATOM     11  N   UNL     1      33.671  41.756  17.278 -0.16 +0.17    -0.382 N  ATOM     12  H   UNL     1      33.085  41.767  16.450 -0.47 -0.11    +0.158 HD ATOM     13  H   UNL     1      34.302  40.967  17.309 -0.49 -0.10    +0.158 HD ENDBRANCH   1  11BRANCH   6  14ATOM     14  C   UNL     1      38.212  46.619  16.321 -0.39 +0.01    -0.018 A  ATOM     15  C   UNL     1      39.370  46.707  17.112 -0.44 -0.00    +0.016 A  ATOM     16  C   UNL     1      38.066  47.519  15.250 -0.46 -0.01    +0.016 A  ATOM     17  C   UNL     1      40.357  47.662  16.846 -0.46 -0.02    +0.086 A  ATOM     18  C   UNL     1      39.045  48.478  14.973 -0.47 -0.04    +0.086 A  ATOM     19  C   UNL     1      40.189  48.545  15.775 -0.35 -0.08    +0.269 A  BRANCH  19  20ATOM     20  N   UNL     1      41.221  49.551  15.489 -0.63 -0.01    +0.062 N  ATOM     21  O   UNL     1      41.788  50.085  16.453 -1.01 -0.02    -0.258 OA ATOM     22  O   UNL     1      41.463  49.807  14.301 -0.55 +0.06    -0.258 OA ENDBRANCH  19  20ENDBRANCH   6  14TORSDOF 3TERENDMDL