REMARK SMILES Nc1cc([C@@H]2NC=C(c3ccco3)c3nccn32)ccc1O
REMARK SMILES IDX 2 1 3 2 4 3 19 4 20 5 21 6 1 7 22 10 5 12 6 13 18 14 7 15
REMARK SMILES IDX 17 16 14 17 8 18 16 19 15 20 9 22 10 23 13 24 11 25 12 26
REMARK H PARENT 1 8 1 9 22 11 6 21
ROOT
ATOM      1  C   UNL     1      -4.089   0.364   0.333  1.00  0.00     0.074 A 
ATOM      2  C   UNL     1      -2.989  -0.311   0.862  1.00  0.00     0.037 A 
ATOM      3  C   UNL     1      -1.681   0.004   0.440  1.00  0.00    -0.003 A 
ATOM      4  C   UNL     1      -1.505   0.994  -0.549  1.00  0.00     0.012 A 
ATOM      5  C   UNL     1      -2.604   1.638  -1.115  1.00  0.00     0.049 A 
ATOM      6  C   UNL     1      -3.877   1.308  -0.678  1.00  0.00     0.138 A 
ENDROOT
BRANCH   1   7
ATOM      7  N   UNL     1      -5.412  -0.035   0.627  1.00  0.00    -0.396 N 
ATOM      8  H   UNL     1      -5.476  -0.494   1.534  1.00  0.00     0.156 HD
ATOM      9  H   UNL     1      -5.739  -0.686  -0.089  1.00  0.00     0.156 HD
ENDBRANCH   1   7
BRANCH   6  10
ATOM     10  O   UNL     1      -4.958   1.934  -1.234  1.00  0.00    -0.506 OA
ATOM     11  H   UNL     1      -5.710   1.627  -0.689  1.00  0.00     0.293 HD
ENDBRANCH   6  10
BRANCH   3  12
ATOM     12  C   UNL     1      -0.491  -0.711   1.062  1.00  0.00     0.213 C 
ATOM     13  N   UNL     1       0.304   0.239   1.839  1.00  0.00    -0.366 N 
ATOM     14  N   UNL     1       0.301  -1.419   0.051  1.00  0.00    -0.306 N 
ATOM     15  C   UNL     1       1.588   0.561   1.438  1.00  0.00     0.095 C 
ATOM     16  C   UNL     1      -0.090  -2.482  -0.717  1.00  0.00     0.110 A 
ATOM     17  C   UNL     1       1.624  -1.131  -0.237  1.00  0.00     0.147 A 
ATOM     18  C   UNL     1       2.284  -0.060   0.459  1.00  0.00     0.076 C 
ATOM     19  C   UNL     1       1.011  -2.788  -1.478  1.00  0.00     0.131 A 
ATOM     20  N   UNL     1       2.057  -1.954  -1.179  1.00  0.00    -0.237 NA
ATOM     21  H   UNL     1      -0.217   0.997   2.272  1.00  0.00     0.162 HD
BRANCH  18  22
ATOM     22  C   UNL     1       3.615   0.407   0.182  1.00  0.00     0.139 A 
ATOM     23  C   UNL     1       4.548  -0.055  -0.745  1.00  0.00     0.051 A 
ATOM     24  O   UNL     1       4.212   1.468   0.846  1.00  0.00    -0.464 OA
ATOM     25  C   UNL     1       5.717   0.734  -0.637  1.00  0.00     0.043 A 
ATOM     26  C   UNL     1       5.458   1.648   0.348  1.00  0.00     0.196 A 
ENDBRANCH  18  22
ENDBRANCH   3  12
TORSDOF 4
