MODEL        4USER    Run = 4USERUSER    Estimated Free Energy of Binding    =  -9.20 kcal/mol  [=(1)+(2)+(3)-(4)]USERUSER    (1) Final Intermolecular Energy     =  -9.80 kcal/molUSER        vdW + Hbond + desolv Energy     =  -9.68 kcal/molUSER        Electrostatic Energy            =  -0.12 kcal/molUSER        Moving Ligand-Fixed Receptor    =  -9.80 kcal/molUSER        Moving Ligand-Moving Receptor   =  +0.00 kcal/molUSER    (2) Final Total Internal Energy     =  -0.26 kcal/molUSER    (3) Torsional Free Energy           =  +0.60 kcal/molUSER    (4) Unbound System's Energy         =  -0.26 kcal/molUSERUSERREMARK SMILES CNc1nccc(-c2cc3c(cn2)-c2ccccc2CC3=O)n1REMARK SMILES IDX 3 1 4 2 5 3 6 4 7 5 23 6 2 7 1 8 8 10 9 11 13 12 10 13 12 14REMARK SMILES IDX 11 15 21 16 14 17 20 18 15 19 19 20 16 21 18 22 17 23 22 24REMARK H PARENT 2 9USER                              x       y       z     vdW  Elec       q    TypeUSER                           _______ _______ _______ _____ _____    ______ ____ROOTATOM      1  C   UNL     1      43.091  46.626  21.608 -0.21 +0.07    +0.222 A  ATOM      2  N   UNL     1      43.173  45.439  22.222 -0.13 -0.07    -0.222 NA ATOM      3  C   UNL     1      42.431  44.440  21.718 -0.22 +0.02    +0.117 A  ATOM      4  C   UNL     1      41.615  44.582  20.625 -0.29 +0.01    +0.051 A  ATOM      5  C   UNL     1      41.591  45.835  20.044 -0.33 +0.01    +0.094 A  ATOM      6  N   UNL     1      42.329  46.858  20.535 -0.27 -0.04    -0.211 NA ENDROOTBRANCH   1   7ATOM      7  N   UNL     1      43.817  47.715  22.070 -0.17 -0.09    -0.357 N  ATOM      8  C   UNL     1      45.168  47.397  22.468 -0.25 +0.08    +0.143 C  ATOM      9  H   UNL     1      43.734  48.416  21.340 -0.52 -0.03    +0.163 HD ENDBRANCH   1   7BRANCH   5  10ATOM     10  C   UNL     1      40.761  46.139  18.860 -0.41 -0.00    +0.090 A  ATOM     11  C   UNL     1      41.036  47.196  18.008 -0.50 -0.00    +0.043 A  ATOM     12  N   UNL     1      39.696  45.333  18.640 -0.26 +0.02    -0.254 NA ATOM     13  C   UNL     1      40.197  47.422  16.906 -0.49 -0.01    +0.029 A  ATOM     14  C   UNL     1      38.909  45.577  17.562 -0.33 -0.02    +0.121 A  ATOM     15  C   UNL     1      39.089  46.612  16.647 -0.43 -0.00    +0.011 A  ATOM     16  C   UNL     1      40.525  48.555  16.010 -0.52 -0.04    +0.168 C  ATOM     17  C   UNL     1      38.202  46.860  15.492 -0.41 +0.01    -0.012 A  ATOM     18  C   UNL     1      39.754  48.728  14.729 -0.48 -0.04    +0.117 C  ATOM     19  C   UNL     1      37.026  46.120  15.256 -0.37 -0.00    +0.009 A  ATOM     20  C   UNL     1      38.519  47.879  14.575 -0.50 +0.01    -0.032 A  ATOM     21  C   UNL     1      36.206  46.374  14.152 -0.45 -0.00    +0.001 A  ATOM     22  C   UNL     1      37.692  48.126  13.462 -0.48 -0.00    +0.005 A  ATOM     23  C   UNL     1      36.540  47.377  13.253 -0.61 -0.00    +0.000 A  ATOM     24  O   UNL     1      41.439  49.321  16.312 -1.05 -0.00    -0.294 OA ENDBRANCH   5  10TORSDOF 2TERENDMDL