REMARK SMILES Nc1n[nH]c2cc(-c3ccc([N+](=O)[O-])cc3)ccc12
REMARK SMILES IDX 2 1 3 2 4 3 5 4 6 5 7 6 17 7 18 8 19 9 1 11 8 14 9 15 16 16
REMARK SMILES IDX 10 17 15 18 11 19 12 20 13 21 14 22
REMARK H PARENT 4 10 1 12 1 13
ROOT
ATOM      1  C   UNL     1       4.359  -0.051  -0.264  1.00  0.00     0.153 A 
ATOM      2  N   UNL     1       4.625   1.004   0.500  1.00  0.00    -0.157 NA
ATOM      3  N   UNL     1       3.410   1.456   0.852  1.00  0.00    -0.276 N 
ATOM      4  C   UNL     1       2.368   0.717   0.360  1.00  0.00     0.068 A 
ATOM      5  C   UNL     1       0.981   0.848   0.503  1.00  0.00     0.037 A 
ATOM      6  C   UNL     1       0.156  -0.087  -0.151  1.00  0.00    -0.016 A 
ATOM      7  C   UNL     1       0.749  -1.107  -0.917  1.00  0.00     0.009 A 
ATOM      8  C   UNL     1       2.142  -1.222  -1.046  1.00  0.00     0.015 A 
ATOM      9  C   UNL     1       2.964  -0.289  -0.390  1.00  0.00     0.044 A 
ATOM     10  H   UNL     1       3.360   2.281   1.439  1.00  0.00     0.190 HD
ENDROOT
BRANCH   1  11
ATOM     11  N   UNL     1       5.316  -0.803  -0.828  1.00  0.00    -0.382 N 
ATOM     12  H   UNL     1       6.251  -0.657  -0.462  1.00  0.00     0.158 HD
ATOM     13  H   UNL     1       5.122  -1.771  -1.050  1.00  0.00     0.158 HD
ENDBRANCH   1  11
BRANCH   6  14
ATOM     14  C   UNL     1      -1.310   0.006  -0.038  1.00  0.00    -0.018 A 
ATOM     15  C   UNL     1      -2.117   0.111  -1.184  1.00  0.00     0.016 A 
ATOM     16  C   UNL     1      -1.938  -0.006   1.221  1.00  0.00     0.016 A 
ATOM     17  C   UNL     1      -3.509   0.201  -1.083  1.00  0.00     0.086 A 
ATOM     18  C   UNL     1      -3.329   0.083   1.336  1.00  0.00     0.086 A 
ATOM     19  C   UNL     1      -4.110   0.186   0.180  1.00  0.00     0.269 A 
BRANCH  19  20
ATOM     20  N   UNL     1      -5.571   0.280   0.294  1.00  0.00     0.062 N 
ATOM     21  O   UNL     1      -6.228   0.349  -0.755  1.00  0.00    -0.258 OA
ATOM     22  O   UNL     1      -6.062   0.286   1.432  1.00  0.00    -0.258 OA
ENDBRANCH  19  20
ENDBRANCH   6  14
TORSDOF 3
