
     RDKit          3D

 35 37  0  0  0  0  0  0  0  0999 V2000
   -2.0599   -0.3954    2.1580 C   0  0  0  0  0  0  0  0  0  0  0  0
   -2.3632    0.9105    1.4358 C   0  0  0  0  0  0  0  0  0  0  0  0
   -2.8517    0.7043    0.0226 C   0  0  0  0  0  0  0  0  0  0  0  0
   -2.0011    0.8159   -1.0901 C   0  0  0  0  0  0  0  0  0  0  0  0
   -0.5553    1.0863   -0.9502 C   0  0  0  0  0  0  0  0  0  0  0  0
   -0.1579    2.2115   -1.2116 O   0  0  0  0  0  0  0  0  0  0  0  0
    0.1607   -0.0190   -0.5686 N   0  0  0  0  0  0  0  0  0  0  0  0
    1.5096   -0.0904   -0.3351 C   0  0  0  0  0  0  0  0  0  0  0  0
    2.0656   -1.2258    0.0115 N   0  0  0  0  0  0  0  0  0  0  0  0
    3.4262   -1.0381    0.1958 C   0  0  0  0  0  0  0  0  0  0  0  0
    4.3566   -2.0291    0.5695 C   0  0  0  0  0  0  0  0  0  0  0  0
    5.7065   -1.6940    0.7200 C   0  0  0  0  0  0  0  0  0  0  0  0
    6.1374   -0.3887    0.5035 C   0  0  0  0  0  0  0  0  0  0  0  0
    5.2346    0.6126    0.1323 C   0  0  0  0  0  0  0  0  0  0  0  0
    3.8821    0.2646   -0.0159 C   0  0  0  0  0  0  0  0  0  0  0  0
    2.5439    1.2520   -0.4557 S   0  0  0  0  0  0  0  0  0  0  0  0
   -2.4872    0.6999   -2.3903 C   0  0  0  0  0  0  0  0  0  0  0  0
   -3.8300    0.4431   -2.5408 C   0  0  0  0  0  0  0  0  0  0  0  0
   -4.6793    0.2984   -1.5035 N   0  0  0  0  0  0  0  0  0  0  0  0
   -4.1927    0.4357   -0.2550 C   0  0  0  0  0  0  0  0  0  0  0  0
   -5.1510    0.3298    0.7478 N   0  0  0  0  0  0  0  0  0  0  0  0
   -2.9465   -1.0321    2.2353 H   0  0  0  0  0  0  0  0  0  0  0  0
   -1.2849   -0.9714    1.6447 H   0  0  0  0  0  0  0  0  0  0  0  0
   -1.7070   -0.1887    3.1735 H   0  0  0  0  0  0  0  0  0  0  0  0
   -1.4695    1.5450    1.4446 H   0  0  0  0  0  0  0  0  0  0  0  0
   -3.1113    1.4773    2.0039 H   0  0  0  0  0  0  0  0  0  0  0  0
   -0.3091   -0.9053   -0.4465 H   0  0  0  0  0  0  0  0  0  0  0  0
    4.0176   -3.0464    0.7376 H   0  0  0  0  0  0  0  0  0  0  0  0
    6.4218   -2.4609    1.0082 H   0  0  0  0  0  0  0  0  0  0  0  0
    7.1903   -0.1415    0.6240 H   0  0  0  0  0  0  0  0  0  0  0  0
    5.5709    1.6312   -0.0365 H   0  0  0  0  0  0  0  0  0  0  0  0
   -1.8405    0.8180   -3.2528 H   0  0  0  0  0  0  0  0  0  0  0  0
   -4.2787    0.3454   -3.5252 H   0  0  0  0  0  0  0  0  0  0  0  0
   -6.0329    0.1157    0.2871 H   0  0  0  0  0  0  0  0  0  0  0  0
   -4.9142   -0.3706    1.4382 H   0  0  0  0  0  0  0  0  0  0  0  0
  1  2  1  0
  2  3  1  0
  3  4  2  0
  4  5  1  0
  5  6  2  0
  5  7  1  0
  7  8  1  0
  8  9  2  0
  9 10  1  0
 10 11  2  0
 11 12  1  0
 12 13  2  0
 13 14  1  0
 14 15  2  0
 15 16  1  0
  4 17  1  0
 17 18  2  0
 18 19  1  0
 19 20  2  0
 20 21  1  0
 20  3  1  0
 16  8  1  0
 15 10  1  0
  1 22  1  0
  1 23  1  0
  1 24  1  0
  2 25  1  0
  2 26  1  0
  7 27  1  0
 11 28  1  0
 12 29  1  0
 13 30  1  0
 14 31  1  0
 17 32  1  0
 18 33  1  0
 21 34  1  0
 21 35  1  0
M  END
$$$$
