
     RDKit          3D

 32 34  0  0  0  0  0  0  0  0999 V2000
    5.1897   -1.0358   -1.5341 N   0  0  0  0  0  0  0  0  0  0  0  0
    4.5741   -0.0508   -0.7675 C   0  0  0  0  0  0  0  0  0  0  0  0
    3.2014   -0.0534   -0.5929 C   0  0  0  0  0  0  0  0  0  0  0  0
    2.6378    0.9385    0.2102 C   0  0  0  0  0  0  0  0  0  0  0  0
    1.1742    0.9966    0.4546 C   0  0  0  0  0  0  0  0  0  0  0  0
    0.6552    2.0907    0.6353 O   0  0  0  0  0  0  0  0  0  0  0  0
    0.5579   -0.2376    0.6067 N   0  0  0  0  0  0  0  0  0  0  0  0
   -0.7868   -0.5096    0.4074 C   0  0  0  0  0  0  0  0  0  0  0  0
   -1.5966    0.4050   -0.0145 N   0  0  0  0  0  0  0  0  0  0  0  0
   -2.9467    0.0976   -0.2694 C   0  0  0  0  0  0  0  0  0  0  0  0
   -3.8485    1.1654   -0.3155 C   0  0  0  0  0  0  0  0  0  0  0  0
   -5.1950    0.9557   -0.6204 C   0  0  0  0  0  0  0  0  0  0  0  0
   -5.6534   -0.3306   -0.8953 C   0  0  0  0  0  0  0  0  0  0  0  0
   -4.7672   -1.4077   -0.8611 C   0  0  0  0  0  0  0  0  0  0  0  0
   -3.4199   -1.1995   -0.5435 C   0  0  0  0  0  0  0  0  0  0  0  0
   -2.3134   -2.6002   -0.4902 S   0  0  0  0  0  0  0  0  0  0  0  0
   -1.1916   -1.9301    0.7562 C   0  0  0  0  0  0  0  0  0  0  0  0
    3.4515    1.9140    0.7800 C   0  0  0  0  0  0  0  0  0  0  0  0
    4.8093    1.8257    0.5520 C   0  0  0  0  0  0  0  0  0  0  0  0
    5.3813    0.8561   -0.1959 N   0  0  0  0  0  0  0  0  0  0  0  0
    6.1844   -0.8164   -1.5470 H   0  0  0  0  0  0  0  0  0  0  0  0
    4.8122   -1.0713   -2.4745 H   0  0  0  0  0  0  0  0  0  0  0  0
    2.5967   -0.8038   -1.0879 H   0  0  0  0  0  0  0  0  0  0  0  0
    1.1670   -1.0329    0.7332 H   0  0  0  0  0  0  0  0  0  0  0  0
   -3.4866    2.1723   -0.1196 H   0  0  0  0  0  0  0  0  0  0  0  0
   -5.8797    1.7993   -0.6520 H   0  0  0  0  0  0  0  0  0  0  0  0
   -6.6998   -0.4947   -1.1399 H   0  0  0  0  0  0  0  0  0  0  0  0
   -5.1347   -2.4073   -1.0795 H   0  0  0  0  0  0  0  0  0  0  0  0
   -1.6917   -1.9156    1.7306 H   0  0  0  0  0  0  0  0  0  0  0  0
   -0.3182   -2.5837    0.8354 H   0  0  0  0  0  0  0  0  0  0  0  0
    3.0392    2.7134    1.3872 H   0  0  0  0  0  0  0  0  0  0  0  0
    5.4980    2.5509    0.9766 H   0  0  0  0  0  0  0  0  0  0  0  0
  1  2  1  0
  2  3  2  0
  3  4  1  0
  4  5  1  0
  5  6  2  0
  5  7  1  0
  7  8  1  0
  8  9  2  0
  9 10  1  0
 10 11  2  0
 11 12  1  0
 12 13  2  0
 13 14  1  0
 14 15  2  0
 15 16  1  0
 16 17  1  0
  4 18  2  0
 18 19  1  0
 19 20  2  0
 20  2  1  0
 17  8  1  0
 15 10  1  0
  1 21  1  0
  1 22  1  0
  3 23  1  0
  7 24  1  0
 11 25  1  0
 12 26  1  0
 13 27  1  0
 14 28  1  0
 17 29  1  0
 17 30  1  0
 18 31  1  0
 19 32  1  0
M  END
$$$$
