
     RDKit          3D

 54 57  0  0  0  0  0  0  0  0999 V2000
   -6.1051    2.8197    0.8159 C   0  0  0  0  0  0  0  0  0  0  0  0
   -5.4936    1.8797    1.7507 N   0  0  0  0  0  0  0  0  0  0  0  0
   -6.0650    0.5264    1.5822 C   0  0  0  0  0  0  0  0  0  0  0  0
   -5.1287   -0.6020    2.0465 C   0  0  0  0  0  0  0  0  0  0  0  0
   -3.8618   -0.5837    1.3118 N   0  0  0  0  0  0  0  0  0  0  0  0
   -3.1347   -1.7632    1.2145 C   0  0  0  0  0  0  0  0  0  0  0  0
   -3.4773   -2.8224    1.7313 O   0  0  0  0  0  0  0  0  0  0  0  0
   -1.9051   -1.7597    0.4076 C   0  0  0  0  0  0  0  0  0  0  0  0
   -1.9730   -1.5956   -0.9779 C   0  0  0  0  0  0  0  0  0  0  0  0
   -0.7959   -1.6117   -1.7351 C   0  0  0  0  0  0  0  0  0  0  0  0
    0.4580   -1.8150   -1.1265 C   0  0  0  0  0  0  0  0  0  0  0  0
    1.7159   -1.8196   -1.8994 C   0  0  0  0  0  0  0  0  0  0  0  0
    2.6512   -0.9581   -1.4075 N   0  0  0  0  0  0  0  0  0  0  0  0
    3.8431   -0.8707   -2.0351 C   0  0  0  0  0  0  0  0  0  0  0  0
    4.7910    0.0326   -1.5506 N   0  0  0  0  0  0  0  0  0  0  0  0
    4.6339    0.5171   -0.3644 C   0  0  0  0  0  0  0  0  0  0  0  0
    5.5868    1.4557    0.1631 C   0  0  0  0  0  0  0  0  0  0  0  0
    6.7195    1.9818   -0.4303 C   0  0  0  0  0  0  0  0  0  0  0  0
    7.3689    2.8509    0.4079 N   0  0  0  0  0  0  0  0  0  0  0  0
    6.6507    2.8678    1.5058 C   0  0  0  0  0  0  0  0  0  0  0  0
    5.5656    2.0449    1.4067 N   0  0  0  0  0  0  0  0  0  0  0  0
    4.5807    1.8425    2.4404 C   0  0  0  0  0  0  0  0  0  0  0  0
    4.1505   -1.6222   -3.1569 C   0  0  0  0  0  0  0  0  0  0  0  0
    3.2022   -2.5126   -3.6519 C   0  0  0  0  0  0  0  0  0  0  0  0
    1.9620   -2.6219   -3.0173 C   0  0  0  0  0  0  0  0  0  0  0  0
    1.0038   -3.5590   -3.5175 C   0  0  0  0  0  0  0  0  0  0  0  0
    0.2283   -4.3087   -3.9449 N   0  0  0  0  0  0  0  0  0  0  0  0
    0.4935   -1.9800    0.2709 C   0  0  0  0  0  0  0  0  0  0  0  0
   -0.6772   -1.9574    1.0260 C   0  0  0  0  0  0  0  0  0  0  0  0
   -0.5867   -2.0941    2.3562 F   0  0  0  0  0  0  0  0  0  0  0  0
   -3.4036    0.7326    0.8507 C   0  0  0  0  0  0  0  0  0  0  0  0
   -4.0209    1.8864    1.6646 C   0  0  0  0  0  0  0  0  0  0  0  0
   -7.1953    2.8198    0.9266 H   0  0  0  0  0  0  0  0  0  0  0  0
   -5.7692    3.8416    1.0237 H   0  0  0  0  0  0  0  0  0  0  0  0
   -5.8620    2.5820   -0.2259 H   0  0  0  0  0  0  0  0  0  0  0  0
   -7.0065    0.4698    2.1401 H   0  0  0  0  0  0  0  0  0  0  0  0
   -6.3019    0.3438    0.5249 H   0  0  0  0  0  0  0  0  0  0  0  0
   -4.8938   -0.4962    3.1126 H   0  0  0  0  0  0  0  0  0  0  0  0
   -5.6185   -1.5727    1.9111 H   0  0  0  0  0  0  0  0  0  0  0  0
   -2.9345   -1.4629   -1.4683 H   0  0  0  0  0  0  0  0  0  0  0  0
   -0.8734   -1.4578   -2.8107 H   0  0  0  0  0  0  0  0  0  0  0  0
    3.7890    0.2382    0.2905 H   0  0  0  0  0  0  0  0  0  0  0  0
    7.0962    1.7729   -1.4242 H   0  0  0  0  0  0  0  0  0  0  0  0
    6.8719    3.4525    2.3898 H   0  0  0  0  0  0  0  0  0  0  0  0
    3.6022    2.1308    2.0481 H   0  0  0  0  0  0  0  0  0  0  0  0
    4.8260    2.4599    3.3083 H   0  0  0  0  0  0  0  0  0  0  0  0
    4.5877    0.7869    2.7234 H   0  0  0  0  0  0  0  0  0  0  0  0
    5.1195   -1.5141   -3.6338 H   0  0  0  0  0  0  0  0  0  0  0  0
    3.4385   -3.1157   -4.5265 H   0  0  0  0  0  0  0  0  0  0  0  0
    1.4404   -2.1254    0.7857 H   0  0  0  0  0  0  0  0  0  0  0  0
   -2.3122    0.7879    0.9112 H   0  0  0  0  0  0  0  0  0  0  0  0
   -3.6904    0.8239   -0.2033 H   0  0  0  0  0  0  0  0  0  0  0  0
   -3.6458    2.8460    1.2878 H   0  0  0  0  0  0  0  0  0  0  0  0
   -3.6451    1.8084    2.6934 H   0  0  0  0  0  0  0  0  0  0  0  0
  1  2  1  0
  2  3  1  0
  3  4  1  0
  4  5  1  0
  5  6  1  0
  6  7  2  0
  6  8  1  0
  8  9  2  0
  9 10  1  0
 10 11  2  0
 11 12  1  0
 12 13  2  0
 13 14  1  0
 14 15  1  0
 15 16  2  3
 16 17  1  0
 17 18  2  0
 18 19  1  0
 19 20  2  0
 20 21  1  0
 21 22  1  0
 14 23  2  0
 23 24  1  0
 24 25  2  0
 25 26  1  0
 26 27  3  0
 11 28  1  0
 28 29  2  0
 29 30  1  0
  5 31  1  0
 31 32  1  0
 32  2  1  0
 29  8  1  0
 25 12  1  0
 21 17  1  0
  1 33  1  0
  1 34  1  0
  1 35  1  0
  3 36  1  0
  3 37  1  0
  4 38  1  0
  4 39  1  0
  9 40  1  0
 10 41  1  0
 16 42  1  0
 18 43  1  0
 20 44  1  0
 22 45  1  0
 22 46  1  0
 22 47  1  0
 23 48  1  0
 24 49  1  0
 28 50  1  0
 31 51  1  0
 31 52  1  0
 32 53  1  0
 32 54  1  0
M  END
$$$$
