
     RDKit          3D

 51 53  0  0  0  0  0  0  0  0999 V2000
    7.3237   -2.4249   -1.1581 C   0  0  0  0  0  0  0  0  0  0  0  0
    6.0773   -1.9852   -0.6336 O   0  0  0  0  0  0  0  0  0  0  0  0
    6.0825   -0.8509    0.1330 C   0  0  0  0  0  0  0  0  0  0  0  0
    7.2070   -0.0740    0.4203 C   0  0  0  0  0  0  0  0  0  0  0  0
    7.0880    1.0557    1.2342 C   0  0  0  0  0  0  0  0  0  0  0  0
    5.8466    1.4165    1.7517 C   0  0  0  0  0  0  0  0  0  0  0  0
    5.8236    2.5173    2.5660 O   0  0  0  0  0  0  0  0  0  0  0  0
    4.7008    0.6746    1.4415 C   0  0  0  0  0  0  0  0  0  0  0  0
    3.3923    1.0974    1.9861 C   0  0  0  0  0  0  0  0  0  0  0  0
    3.3810    1.6968    3.0627 O   0  0  0  0  0  0  0  0  0  0  0  0
    2.1093    0.8858    1.2754 C   0  0  0  0  0  0  0  0  0  0  0  0
    2.0050    1.0260   -0.1125 C   0  0  0  0  0  0  0  0  0  0  0  0
    0.7662    0.8508   -0.7370 C   0  0  0  0  0  0  0  0  0  0  0  0
   -0.3774    0.5595    0.0199 C   0  0  0  0  0  0  0  0  0  0  0  0
   -1.6693    0.3833   -0.7001 C   0  0  0  0  0  0  0  0  0  0  0  0
   -1.6752    0.0075   -1.8669 O   0  0  0  0  0  0  0  0  0  0  0  0
   -2.8163    0.6861    0.0019 N   0  0  0  0  0  0  0  0  0  0  0  0
   -4.1377    0.5016   -0.5865 C   0  0  2  0  0  0  0  0  0  0  0  0
   -5.1947    1.2756    0.2007 C   0  0  0  0  0  0  0  0  0  0  0  0
   -6.5841    1.1086   -0.4222 C   0  0  0  0  0  0  0  0  0  0  0  0
   -6.7332   -0.1728   -1.2517 C   0  0  0  0  0  0  0  0  0  0  0  0
   -5.9772   -1.2603   -0.6335 N   0  0  0  0  0  0  0  0  0  0  0  0
   -6.2910   -2.5501   -1.2431 C   0  0  0  0  0  0  0  0  0  0  0  0
   -4.5229   -1.0004   -0.6839 C   0  0  0  0  0  0  0  0  0  0  0  0
   -0.2701    0.4241    1.4099 C   0  0  0  0  0  0  0  0  0  0  0  0
    0.9685    0.5988    2.0354 C   0  0  0  0  0  0  0  0  0  0  0  0
    4.8372   -0.4704    0.6549 C   0  0  0  0  0  0  0  0  0  0  0  0
    3.7702   -1.2468    0.4053 F   0  0  0  0  0  0  0  0  0  0  0  0
    8.0273   -2.6662   -0.3544 H   0  0  0  0  0  0  0  0  0  0  0  0
    7.1421   -3.3412   -1.7281 H   0  0  0  0  0  0  0  0  0  0  0  0
    7.7456   -1.6835   -1.8446 H   0  0  0  0  0  0  0  0  0  0  0  0
    8.1921   -0.3240    0.0392 H   0  0  0  0  0  0  0  0  0  0  0  0
    7.9663    1.6507    1.4745 H   0  0  0  0  0  0  0  0  0  0  0  0
    4.9541    2.5322    3.0283 H   0  0  0  0  0  0  0  0  0  0  0  0
    2.8688    1.2752   -0.7228 H   0  0  0  0  0  0  0  0  0  0  0  0
    0.6915    0.9486   -1.8191 H   0  0  0  0  0  0  0  0  0  0  0  0
   -2.7612    1.0362    0.9476 H   0  0  0  0  0  0  0  0  0  0  0  0
   -4.0988    0.9138   -1.6042 H   0  0  0  0  0  0  0  0  0  0  0  0
   -5.2177    0.9124    1.2371 H   0  0  0  0  0  0  0  0  0  0  0  0
   -4.9388    2.3404    0.2591 H   0  0  0  0  0  0  0  0  0  0  0  0
   -7.3314    1.1253    0.3808 H   0  0  0  0  0  0  0  0  0  0  0  0
   -6.8022    1.9683   -1.0673 H   0  0  0  0  0  0  0  0  0  0  0  0
   -7.8009   -0.4192   -1.3047 H   0  0  0  0  0  0  0  0  0  0  0  0
   -6.3967    0.0006   -2.2824 H   0  0  0  0  0  0  0  0  0  0  0  0
   -7.3552   -2.7821   -1.1241 H   0  0  0  0  0  0  0  0  0  0  0  0
   -6.0523   -2.5716   -2.3126 H   0  0  0  0  0  0  0  0  0  0  0  0
   -5.7364   -3.3548   -0.7478 H   0  0  0  0  0  0  0  0  0  0  0  0
   -4.0850   -1.3954   -1.6107 H   0  0  0  0  0  0  0  0  0  0  0  0
   -4.0582   -1.5563    0.1405 H   0  0  0  0  0  0  0  0  0  0  0  0
   -1.1279    0.1595    2.0209 H   0  0  0  0  0  0  0  0  0  0  0  0
    1.0445    0.5008    3.1171 H   0  0  0  0  0  0  0  0  0  0  0  0
  1  2  1  0
  2  3  1  0
  3  4  2  0
  4  5  1  0
  5  6  2  0
  6  7  1  0
  6  8  1  0
  8  9  1  0
  9 10  2  0
  9 11  1  0
 11 12  2  0
 12 13  1  0
 13 14  2  0
 14 15  1  0
 15 16  2  0
 15 17  1  0
 17 18  1  0
 18 19  1  0
 19 20  1  0
 20 21  1  0
 21 22  1  0
 22 23  1  0
 22 24  1  0
 14 25  1  0
 25 26  2  0
  8 27  2  0
 27 28  1  0
 27  3  1  0
 26 11  1  0
 24 18  1  0
  1 29  1  0
  1 30  1  0
  1 31  1  0
  4 32  1  0
  5 33  1  0
  7 34  1  0
 12 35  1  0
 13 36  1  0
 17 37  1  0
 18 38  1  6
 19 39  1  0
 19 40  1  0
 20 41  1  0
 20 42  1  0
 21 43  1  0
 21 44  1  0
 23 45  1  0
 23 46  1  0
 23 47  1  0
 24 48  1  0
 24 49  1  0
 25 50  1  0
 26 51  1  0
M  END
$$$$
