
     RDKit          3D

 32 34  0  0  0  0  0  0  0  0999 V2000
   -3.2547    0.0981   -1.8389 C   0  0  0  0  0  0  0  0  0  0  0  0
   -3.3323    0.0760   -0.3388 C   0  0  0  0  0  0  0  0  0  0  0  0
   -2.2217    0.4011    0.4590 C   0  0  0  0  0  0  0  0  0  0  0  0
   -0.9134    0.7511   -0.1514 C   0  0  0  0  0  0  0  0  0  0  0  0
   -0.8785    1.6573   -0.9708 O   0  0  0  0  0  0  0  0  0  0  0  0
    0.1231   -0.0318    0.2978 N   0  0  0  0  0  0  0  0  0  0  0  0
    1.4423    0.0541   -0.0673 C   0  0  0  0  0  0  0  0  0  0  0  0
    2.3227   -0.7876    0.4178 N   0  0  0  0  0  0  0  0  0  0  0  0
    3.5777   -0.4969   -0.0935 C   0  0  0  0  0  0  0  0  0  0  0  0
    4.7684   -1.1888    0.1977 C   0  0  0  0  0  0  0  0  0  0  0  0
    5.9550   -0.7707   -0.3999 C   0  0  0  0  0  0  0  0  0  0  0  0
    7.0904   -1.4265   -0.1255 F   0  0  0  0  0  0  0  0  0  0  0  0
    5.9905    0.3083   -1.2724 C   0  0  0  0  0  0  0  0  0  0  0  0
    4.8211    1.0104   -1.5762 C   0  0  0  0  0  0  0  0  0  0  0  0
    3.6237    0.5883   -0.9732 C   0  0  0  0  0  0  0  0  0  0  0  0
    2.0370    1.2324   -1.1371 S   0  0  0  0  0  0  0  0  0  0  0  0
   -2.3244    0.4351    1.8504 C   0  0  0  0  0  0  0  0  0  0  0  0
   -3.5491    0.1383    2.4043 C   0  0  0  0  0  0  0  0  0  0  0  0
   -4.6358   -0.1823    1.6754 N   0  0  0  0  0  0  0  0  0  0  0  0
   -4.5217   -0.2013    0.3333 C   0  0  0  0  0  0  0  0  0  0  0  0
   -5.7038   -0.4976   -0.3377 N   0  0  0  0  0  0  0  0  0  0  0  0
   -2.3069   -0.3234   -2.1899 H   0  0  0  0  0  0  0  0  0  0  0  0
   -4.0394   -0.5052   -2.3047 H   0  0  0  0  0  0  0  0  0  0  0  0
   -3.3505    1.1254   -2.2041 H   0  0  0  0  0  0  0  0  0  0  0  0
   -0.0589   -0.7960    0.9334 H   0  0  0  0  0  0  0  0  0  0  0  0
    4.7636   -2.0340    0.8759 H   0  0  0  0  0  0  0  0  0  0  0  0
    6.9369    0.6025   -1.7176 H   0  0  0  0  0  0  0  0  0  0  0  0
    4.8375    1.8561   -2.2574 H   0  0  0  0  0  0  0  0  0  0  0  0
   -1.4900    0.7157    2.4835 H   0  0  0  0  0  0  0  0  0  0  0  0
   -3.7026    0.1584    3.4796 H   0  0  0  0  0  0  0  0  0  0  0  0
   -5.5994   -1.2876   -0.9622 H   0  0  0  0  0  0  0  0  0  0  0  0
   -6.4070   -0.6786    0.3750 H   0  0  0  0  0  0  0  0  0  0  0  0
  1  2  1  0
  2  3  2  0
  3  4  1  0
  4  5  2  0
  4  6  1  0
  6  7  1  0
  7  8  2  0
  8  9  1  0
  9 10  2  0
 10 11  1  0
 11 12  1  0
 11 13  2  0
 13 14  1  0
 14 15  2  0
 15 16  1  0
  3 17  1  0
 17 18  2  0
 18 19  1  0
 19 20  2  0
 20 21  1  0
 20  2  1  0
 16  7  1  0
 15  9  1  0
  1 22  1  0
  1 23  1  0
  1 24  1  0
  6 25  1  0
 10 26  1  0
 13 27  1  0
 14 28  1  0
 17 29  1  0
 18 30  1  0
 21 31  1  0
 21 32  1  0
M  END
$$$$
