
     RDKit          3D

 33 35  0  0  0  0  0  0  0  0999 V2000
   -2.5991   -1.5133    0.0688 C   0  0  0  0  0  0  0  0  0  0  0  0
   -2.2612   -0.4899    1.0146 O   0  0  0  0  0  0  0  0  0  0  0  0
   -2.7677    0.7193    0.6008 C   0  0  0  0  0  0  0  0  0  0  0  0
   -2.0524    1.5719   -0.2474 C   0  0  0  0  0  0  0  0  0  0  0  0
   -0.6810    1.2807   -0.7617 C   0  0  0  0  0  0  0  0  0  0  0  0
   -0.3432    1.8150   -1.8117 O   0  0  0  0  0  0  0  0  0  0  0  0
    0.0783    0.4474    0.0232 N   0  0  0  0  0  0  0  0  0  0  0  0
    1.3574    0.0124   -0.2102 C   0  0  0  0  0  0  0  0  0  0  0  0
    1.9408   -0.8166    0.6215 N   0  0  0  0  0  0  0  0  0  0  0  0
    3.2192   -1.1042    0.1712 C   0  0  0  0  0  0  0  0  0  0  0  0
    4.1487   -1.9554    0.8026 C   0  0  0  0  0  0  0  0  0  0  0  0
    5.4097   -2.1544    0.2304 C   0  0  0  0  0  0  0  0  0  0  0  0
    5.7529   -1.5178   -0.9584 C   0  0  0  0  0  0  0  0  0  0  0  0
    4.8490   -0.6686   -1.6044 C   0  0  0  0  0  0  0  0  0  0  0  0
    3.5862   -0.4763   -1.0205 C   0  0  0  0  0  0  0  0  0  0  0  0
    2.2712    0.4921   -1.5603 S   0  0  0  0  0  0  0  0  0  0  0  0
   -2.6409    2.7749   -0.6445 C   0  0  0  0  0  0  0  0  0  0  0  0
   -3.8892    3.0903   -0.1456 C   0  0  0  0  0  0  0  0  0  0  0  0
   -4.5710    2.3061    0.7146 N   0  0  0  0  0  0  0  0  0  0  0  0
   -4.0102    1.1445    1.0909 C   0  0  0  0  0  0  0  0  0  0  0  0
   -4.7256    0.3626    2.0127 N   0  0  0  0  0  0  0  0  0  0  0  0
   -2.1811   -2.4552    0.4360 H   0  0  0  0  0  0  0  0  0  0  0  0
   -3.6842   -1.6328   -0.0171 H   0  0  0  0  0  0  0  0  0  0  0  0
   -2.1627   -1.3086   -0.9146 H   0  0  0  0  0  0  0  0  0  0  0  0
   -0.3206    0.0623    0.8713 H   0  0  0  0  0  0  0  0  0  0  0  0
    3.8782   -2.4500    1.7302 H   0  0  0  0  0  0  0  0  0  0  0  0
    6.1247   -2.8112    0.7205 H   0  0  0  0  0  0  0  0  0  0  0  0
    6.7373   -1.6809   -1.3926 H   0  0  0  0  0  0  0  0  0  0  0  0
    5.1171   -0.1713   -2.5317 H   0  0  0  0  0  0  0  0  0  0  0  0
   -2.1341    3.4593   -1.3184 H   0  0  0  0  0  0  0  0  0  0  0  0
   -4.3880    4.0153   -0.4222 H   0  0  0  0  0  0  0  0  0  0  0  0
   -4.1298    0.1945    2.8195 H   0  0  0  0  0  0  0  0  0  0  0  0
   -4.9286   -0.5423    1.6030 H   0  0  0  0  0  0  0  0  0  0  0  0
  1  2  1  0
  2  3  1  0
  3  4  2  0
  4  5  1  0
  5  6  2  0
  5  7  1  0
  7  8  1  0
  8  9  2  0
  9 10  1  0
 10 11  2  0
 11 12  1  0
 12 13  2  0
 13 14  1  0
 14 15  2  0
 15 16  1  0
  4 17  1  0
 17 18  2  0
 18 19  1  0
 19 20  2  0
 20 21  1  0
 20  3  1  0
 16  8  1  0
 15 10  1  0
  1 22  1  0
  1 23  1  0
  1 24  1  0
  7 25  1  0
 11 26  1  0
 12 27  1  0
 13 28  1  0
 14 29  1  0
 17 30  1  0
 18 31  1  0
 21 32  1  0
 21 33  1  0
M  END
$$$$
