MODEL        10USER    Run = 10USERUSER    Estimated Free Energy of Binding    =  -8.58 kcal/mol  [=(1)+(2)+(3)-(4)]USERUSER    (1) Final Intermolecular Energy     = -10.67 kcal/molUSER        vdW + Hbond + desolv Energy     = -10.46 kcal/molUSER        Electrostatic Energy            =  -0.21 kcal/molUSER        Moving Ligand-Fixed Receptor    = -10.67 kcal/molUSER        Moving Ligand-Moving Receptor   =  +0.00 kcal/molUSER    (2) Final Total Internal Energy     =  -1.19 kcal/molUSER    (3) Torsional Free Energy           =  +2.09 kcal/molUSER    (4) Unbound System's Energy         =  -1.19 kcal/molUSERUSERREMARK SMILES CCNc1nc2ccccc2nc1NC1=CC(=CS(N)(=O)=O)[C@@H]1ClREMARK SMILES IDX 15 1 16 2 17 3 23 4 24 5 14 6 13 8 4 9 5 10 6 11 12 12 7 13REMARK SMILES IDX 11 14 8 15 10 16 9 17 3 18 2 20 1 21 18 22 19 23 21 24 22 25REMARK SMILES IDX 20 26REMARK H PARENT 14 7 3 19 20 27 20 28USER                              x       y       z     vdW  Elec       q    TypeUSER                           _______ _______ _______ _____ _____    ______ ____ROOTATOM      1  C   UNL     1      35.559  44.888  15.510 -0.38 -0.02    +0.039 C  ATOM      2  C   UNL     1      34.611  45.860  15.381 -0.33 -0.03    +0.030 C  ATOM      3  C   UNL     1      33.514  44.974  15.657 -0.38 +0.01    -0.010 C  ATOM      4  C   UNL     1      34.466  43.811  15.746 -0.19 -0.07    +0.158 C  ATOM      5  Cl  UNL     1      34.538  42.866  17.295 -0.53 +0.04    -0.111 Cl ENDROOTBRANCH   1   6ATOM      6  N   UNL     1      36.865  44.750  15.469 -0.14 +0.13    -0.339 N  ATOM      7  H   UNL     1      37.304  43.858  15.241 +0.11 -0.05    +0.168 HD BRANCH   6   8ATOM      8  C   UNL     1      37.830  45.780  15.280 -0.25 -0.06    +0.174 A  ATOM      9  C   UNL     1      37.919  46.379  13.992 -0.31 -0.06    +0.170 A  ATOM     10  N   UNL     1      38.790  47.380  13.744 -0.32 +0.05    -0.226 NA ATOM     11  C   UNL     1      39.593  47.756  14.756 -0.44 -0.02    +0.091 A  ATOM     12  N   UNL     1      38.659  46.145  16.284 -0.23 +0.07    -0.225 NA ATOM     13  C   UNL     1      40.512  48.779  14.552 -0.53 -0.01    +0.031 A  ATOM     14  C   UNL     1      39.530  47.134  16.027 -0.41 -0.02    +0.091 A  ATOM     15  C   UNL     1      41.370  49.200  15.569 -0.58 -0.00    +0.002 A  ATOM     16  C   UNL     1      40.390  47.560  17.031 -0.49 -0.01    +0.031 A  ATOM     17  C   UNL     1      41.309  48.588  16.814 -0.46 -0.00    +0.002 A  BRANCH   9  18ATOM     18  N   UNL     1      37.045  45.913  12.969 -0.22 +0.13    -0.367 N  ATOM     19  H   UNL     1      37.431  45.025  12.645 +0.12 -0.05    +0.162 HD BRANCH  18  20ATOM     20  C   UNL     1      36.882  46.856  11.865 -0.66 -0.04    +0.111 C  ATOM     21  C   UNL     1      36.140  48.085  12.367 -0.64 -0.01    +0.027 C  ENDBRANCH  18  20ENDBRANCH   9  18ENDBRANCH   6   8ENDBRANCH   1   6BRANCH   3  22ATOM     22  C   UNL     1      32.189  45.090  15.790 -0.33 -0.08    +0.128 C  BRANCH  22  23ATOM     23  S   UNL     1      31.251  46.051  14.716 -0.56 -0.15    +0.231 S  ATOM     24  O   UNL     1      30.757  47.235  15.383 -0.91 +0.05    -0.208 OA ATOM     25  O   UNL     1      31.942  46.151  13.449 -0.56 +0.14    -0.208 OA BRANCH  23  26ATOM     26  N   UNL     1      29.873  45.150  14.365 -0.11 +0.23    -0.225 NA ATOM     27  H   UNL     1      29.396  45.576  13.569 -0.42 -0.19    +0.137 HD ATOM     28  H   UNL     1      30.152  44.187  14.172 -0.32 -0.18    +0.137 HD ENDBRANCH  23  26ENDBRANCH  22  23ENDBRANCH   3  22TORSDOF 7TERENDMDL