REMARK SMILES CCNc1nc2ccccc2nc1NC1=CC(=CS(N)(=O)=O)[C@@H]1Cl
REMARK SMILES IDX 15 1 16 2 17 3 23 4 24 5 14 6 13 8 4 9 5 10 6 11 12 12 7 13
REMARK SMILES IDX 11 14 8 15 10 16 9 17 3 18 2 20 1 21 18 22 19 23 21 24 22 25
REMARK SMILES IDX 20 26
REMARK H PARENT 14 7 3 19 20 27 20 28
ROOT
ATOM      1  C   UNL     1       1.688   0.769  -0.631  1.00  0.00     0.039 C 
ATOM      2  C   UNL     1       2.502  -0.270  -0.287  1.00  0.00     0.030 C 
ATOM      3  C   UNL     1       3.707   0.407  -0.676  1.00  0.00    -0.010 C 
ATOM      4  C   UNL     1       2.900   1.582  -1.161  1.00  0.00     0.158 C 
ATOM      5  Cl  UNL     1       3.207   3.211  -0.419  1.00  0.00    -0.111 Cl
ENDROOT
BRANCH   1   6
ATOM      6  N   UNL     1       0.416   1.096  -0.606  1.00  0.00    -0.339 N 
ATOM      7  H   UNL     1       0.070   1.943  -1.058  1.00  0.00     0.168 HD
BRANCH   6   8
ATOM      8  C   UNL     1      -0.690   0.224  -0.394  1.00  0.00     0.174 A 
ATOM      9  C   UNL     1      -1.970   0.812  -0.191  1.00  0.00     0.170 A 
ATOM     10  N   UNL     1      -3.070   0.050  -0.012  1.00  0.00    -0.226 NA
ATOM     11  C   UNL     1      -2.893  -1.284   0.004  1.00  0.00     0.091 A 
ATOM     12  N   UNL     1      -0.516  -1.116  -0.350  1.00  0.00    -0.225 NA
ATOM     13  C   UNL     1      -3.992  -2.114   0.191  1.00  0.00     0.031 A 
ATOM     14  C   UNL     1      -1.613  -1.867  -0.160  1.00  0.00     0.091 A 
ATOM     15  C   UNL     1      -3.859  -3.503   0.221  1.00  0.00     0.002 A 
ATOM     16  C   UNL     1      -1.492  -3.251  -0.127  1.00  0.00     0.031 A 
ATOM     17  C   UNL     1      -2.603  -4.074   0.062  1.00  0.00     0.002 A 
BRANCH   9  18
ATOM     18  N   UNL     1      -2.071   2.232  -0.205  1.00  0.00    -0.367 N 
ATOM     19  H   UNL     1      -1.411   2.573   0.495  1.00  0.00     0.162 HD
BRANCH  18  20
ATOM     20  C   UNL     1      -3.422   2.725   0.052  1.00  0.00     0.111 C 
ATOM     21  C   UNL     1      -3.415   4.245  -0.000  1.00  0.00     0.027 C 
ENDBRANCH  18  20
ENDBRANCH   9  18
ENDBRANCH   6   8
ENDBRANCH   1   6
BRANCH   3  22
ATOM     22  C   UNL     1       5.018   0.144  -0.640  1.00  0.00     0.128 C 
BRANCH  22  23
ATOM     23  S   UNL     1       5.629  -1.324   0.013  1.00  0.00     0.231 S 
ATOM     24  O   UNL     1       4.944  -2.464  -0.555  1.00  0.00    -0.208 OA
ATOM     25  O   UNL     1       7.074  -1.265   0.033  1.00  0.00    -0.208 OA
BRANCH  23  26
ATOM     26  N   UNL     1       5.193  -1.329   1.639  1.00  0.00    -0.225 NA
ATOM     27  H   UNL     1       4.524  -2.085   1.797  1.00  0.00     0.137 HD
ATOM     28  H   UNL     1       6.036  -1.441   2.204  1.00  0.00     0.137 HD
ENDBRANCH  23  26
ENDBRANCH  22  23
ENDBRANCH   3  22
TORSDOF 7
