REMARK SMILES [CH]c1c(O)ccc(-c2c(O[C@H]3CC[C@H](O)CC3)ccc(O)c2O)c1O
REMARK SMILES IDX 8 1 9 2 18 3 19 4 20 5 22 6 7 7 2 8 3 9 24 10 5 11 6 12 1 13
REMARK SMILES IDX 4 14 25 16 10 18 11 19 17 20 12 21 16 22 13 23 14 24 15 25
REMARK SMILES IDX 23 27 21 29
REMARK H PARENT 4 15 25 17 15 26 23 28 21 30
ROOT
ATOM      1  C   UNL     1       1.428  -1.448  -0.274  1.00  0.00     0.073 A 
ATOM      2  C   UNL     1       0.336  -1.364  -1.171  1.00  0.00     0.131 A 
ATOM      3  C   UNL     1      -0.185  -2.495  -1.821  1.00  0.00     0.051 A 
ATOM      4  C   UNL     1       0.339  -3.756  -1.558  1.00  0.00     0.054 A 
ATOM      5  C   UNL     1       1.378  -3.868  -0.650  1.00  0.00     0.158 A 
ATOM      6  C   UNL     1       1.909  -2.743  -0.008  1.00  0.00     0.169 A 
ENDROOT
BRANCH   1   7
ATOM      7  C   UNL     1       2.042  -0.224   0.306  1.00  0.00     0.032 A 
ATOM      8  C   UNL     1       2.723   1.184   2.212  1.00  0.00     0.041 A 
ATOM      9  C   UNL     1       3.155   2.170   1.319  1.00  0.00     0.122 A 
ATOM     10  C   UNL     1       2.174  -0.006   1.694  1.00  0.00     0.130 A 
ATOM     11  C   UNL     1       3.053   1.976  -0.054  1.00  0.00     0.047 A 
ATOM     12  C   UNL     1       2.506   0.791  -0.552  1.00  0.00     0.017 A 
ATOM     13  C   UNL     1       2.853   1.376   3.629  1.00  0.00     0.044 C 
BRANCH   9  14
ATOM     14  O   UNL     1       3.701   3.359   1.720  1.00  0.00    -0.508 OA
ATOM     15  H   UNL     1       3.727   3.380   2.690  1.00  0.00     0.293 HD
ENDBRANCH   9  14
BRANCH  10  16
ATOM     16  O   UNL     1       1.774  -1.021   2.537  1.00  0.00    -0.507 OA
ATOM     17  H   UNL     1       1.670  -0.652   3.432  1.00  0.00     0.293 HD
ENDBRANCH  10  16
ENDBRANCH   1   7
BRANCH   2  18
ATOM     18  O   UNL     1      -0.197  -0.135  -1.483  1.00  0.00    -0.490 OA
BRANCH  18  19
ATOM     19  C   UNL     1      -1.516   0.046  -0.941  1.00  0.00     0.173 C 
ATOM     20  C   UNL     1      -1.437   1.040   0.224  1.00  0.00     0.048 C 
ATOM     21  C   UNL     1      -2.404   0.595  -2.063  1.00  0.00     0.048 C 
ATOM     22  C   UNL     1      -2.820   1.426   0.733  1.00  0.00     0.035 C 
ATOM     23  C   UNL     1      -3.788   0.977  -1.555  1.00  0.00     0.035 C 
ATOM     24  C   UNL     1      -3.706   1.962  -0.390  1.00  0.00     0.114 C 
BRANCH  24  25
ATOM     25  O   UNL     1      -5.009   2.192   0.133  1.00  0.00    -0.393 OA
ATOM     26  H   UNL     1      -5.555   2.554  -0.586  1.00  0.00     0.210 HD
ENDBRANCH  24  25
ENDBRANCH  18  19
ENDBRANCH   2  18
BRANCH   6  27
ATOM     27  O   UNL     1       2.914  -3.004   0.894  1.00  0.00    -0.504 OA
ATOM     28  H   UNL     1       2.852  -2.297   1.568  1.00  0.00     0.293 HD
ENDBRANCH   6  27
BRANCH   5  29
ATOM     29  O   UNL     1       1.889  -5.107  -0.377  1.00  0.00    -0.504 OA
ATOM     30  H   UNL     1       2.617  -4.930   0.253  1.00  0.00     0.293 HD
ENDBRANCH   5  29
TORSDOF 8
