REMARK SMILES C[C@H](NC(=O)Nc1ccc(-c2ccncc2)cc1)c1ccccc1O
REMARK SMILES IDX 1 1 2 2 3 3 4 4 6 5 5 7 7 9 8 10 18 11 9 12 17 13 10 14
REMARK SMILES IDX 11 15 12 16 16 17 13 18 15 19 14 20 19 21 20 22 24 23 21 24
REMARK SMILES IDX 23 25 22 26 25 27
REMARK H PARENT 3 6 6 8 25 28
ROOT
ATOM      1  C   UNL     1      -3.368  -2.149   1.167  1.00  0.00     0.036 C 
ATOM      2  C   UNL     1      -3.366  -1.092   0.056  1.00  0.00     0.115 C 
ENDROOT
BRANCH   2   3
ATOM      3  N   UNL     1      -2.211  -0.206   0.161  1.00  0.00    -0.331 N 
ATOM      4  C   UNL     1      -0.942  -0.635  -0.165  1.00  0.00     0.319 C 
ATOM      5  N   UNL     1      -0.027   0.379   0.022  1.00  0.00    -0.308 N 
ATOM      6  H   UNL     1      -2.276   0.546   0.828  1.00  0.00     0.166 HD
ATOM      7  O   UNL     1      -0.708  -1.765  -0.573  1.00  0.00    -0.248 OA
ATOM      8  H   UNL     1      -0.426   1.301   0.107  1.00  0.00     0.171 HD
BRANCH   5   9
ATOM      9  C   UNL     1       1.373   0.307  -0.112  1.00  0.00     0.042 A 
ATOM     10  C   UNL     1       2.077  -0.884  -0.283  1.00  0.00     0.027 A 
ATOM     11  C   UNL     1       2.088   1.507  -0.047  1.00  0.00     0.027 A 
ATOM     12  C   UNL     1       3.474  -0.874  -0.401  1.00  0.00     0.011 A 
ATOM     13  C   UNL     1       3.484   1.515  -0.163  1.00  0.00     0.011 A 
ATOM     14  C   UNL     1       4.202   0.324  -0.344  1.00  0.00    -0.018 A 
BRANCH  14  15
ATOM     15  C   UNL     1       5.667   0.330  -0.472  1.00  0.00    -0.015 A 
ATOM     16  C   UNL     1       6.477   0.951   0.487  1.00  0.00     0.029 A 
ATOM     17  C   UNL     1       6.302  -0.286  -1.557  1.00  0.00     0.029 A 
ATOM     18  C   UNL     1       7.853   0.930   0.322  1.00  0.00     0.111 A 
ATOM     19  C   UNL     1       7.685  -0.252  -1.637  1.00  0.00     0.111 A 
ATOM     20  N   UNL     1       8.476   0.343  -0.720  1.00  0.00    -0.265 NA
ENDBRANCH  14  15
ENDBRANCH   5   9
ENDBRANCH   2   3
BRANCH   2  21
ATOM     21  C   UNL     1      -4.647  -0.271   0.074  1.00  0.00     0.016 A 
ATOM     22  C   UNL     1      -5.014   0.467   1.217  1.00  0.00     0.010 A 
ATOM     23  C   UNL     1      -5.495  -0.215  -1.040  1.00  0.00     0.120 A 
ATOM     24  C   UNL     1      -6.184   1.230   1.236  1.00  0.00     0.001 A 
ATOM     25  C   UNL     1      -6.665   0.546  -1.025  1.00  0.00     0.046 A 
ATOM     26  C   UNL     1      -7.008   1.270   0.116  1.00  0.00     0.004 A 
BRANCH  23  27
ATOM     27  O   UNL     1      -5.171  -0.927  -2.160  1.00  0.00    -0.508 OA
ATOM     28  H   UNL     1      -5.838  -0.764  -2.847  1.00  0.00     0.293 HD
ENDBRANCH  23  27
ENDBRANCH   2  21
TORSDOF 5
