MODEL        8USER    Run = 8USERUSER    Estimated Free Energy of Binding    =  -8.64 kcal/mol  [=(1)+(2)+(3)-(4)]USERUSER    (1) Final Intermolecular Energy     = -10.43 kcal/molUSER        vdW + Hbond + desolv Energy     = -10.27 kcal/molUSER        Electrostatic Energy            =  -0.15 kcal/molUSER        Moving Ligand-Fixed Receptor    = -10.43 kcal/molUSER        Moving Ligand-Moving Receptor   =  +0.00 kcal/molUSER    (2) Final Total Internal Energy     =  -1.56 kcal/molUSER    (3) Torsional Free Energy           =  +1.79 kcal/molUSER    (4) Unbound System's Energy         =  -1.56 kcal/molUSERUSERREMARK SMILES CNCNc1[nH]c(-c2ccncc2Cl)nc1C(=O)NC1CCN(C)CC1REMARK SMILES IDX 5 1 6 2 7 3 15 4 16 5 4 7 3 9 2 10 1 11 17 13 19 14 18 15REMARK SMILES IDX 20 17 21 18 26 19 22 20 25 21 23 22 24 23 8 24 9 25 13 26REMARK SMILES IDX 10 27 12 28 11 29 14 30REMARK H PARENT 6 6 4 8 2 12 19 16USER                              x       y       z     vdW  Elec       q    TypeUSER                           _______ _______ _______ _____ _____    ______ ____ROOTATOM      1  C   UNL     1      40.634  49.026  16.064 -0.47 -0.03    +0.138 A  ATOM      2  N   UNL     1      39.599  48.963  15.172 -0.26 +0.15    -0.324 N  ATOM      3  C   UNL     1      38.883  47.805  15.378 -0.39 -0.06    +0.141 A  ATOM      4  N   UNL     1      39.441  47.114  16.359 -0.30 +0.06    -0.221 NA ATOM      5  C   UNL     1      40.540  47.853  16.790 -0.39 -0.03    +0.170 A  ATOM      6  H   UNL     1      39.400  49.642  14.454 -0.22 -0.13    +0.170 HD ENDROOTBRANCH   1   7ATOM      7  N   UNL     1      41.521  50.053  16.087 -0.28 +0.02    -0.357 N  ATOM      8  H   UNL     1      41.352  50.756  16.815 -0.47 -0.05    +0.163 HD BRANCH   7   9ATOM      9  C   UNL     1      41.959  50.715  14.877 -0.47 -0.04    +0.199 C  BRANCH   9  10ATOM     10  N   UNL     1      41.586  50.046  13.643 -0.37 +0.08    -0.303 NA ATOM     11  C   UNL     1      42.495  50.377  12.559 -0.63 -0.04    +0.103 C  ATOM     12  H   UNL     1      40.642  50.349  13.409 +0.05 -0.06    +0.124 HD ENDBRANCH   9  10ENDBRANCH   7   9ENDBRANCH   1   7BRANCH   5  13ATOM     13  C   UNL     1      41.415  47.407  17.875 -0.36 -0.02    +0.273 C  ATOM     14  N   UNL     1      41.113  46.129  18.299 -0.24 +0.01    -0.348 N  ATOM     15  O   UNL     1      42.300  48.101  18.364 -0.53 -0.00    -0.267 OA ATOM     16  H   UNL     1      40.268  45.737  17.892 +0.11 -0.01    +0.164 HD BRANCH  14  17ATOM     17  C   UNL     1      41.714  45.527  19.477 -0.37 +0.01    +0.085 C  ATOM     18  C   UNL     1      40.954  44.258  19.889 -0.37 +0.00    +0.040 C  ATOM     19  C   UNL     1      41.779  46.519  20.637 -0.35 +0.01    +0.040 C  ATOM     20  C   UNL     1      40.967  44.019  21.403 -0.31 +0.01    +0.086 C  ATOM     21  C   UNL     1      42.452  45.887  21.862 -0.27 +0.02    +0.086 C  ATOM     22  N   UNL     1      42.246  44.435  21.968 -0.12 -0.05    -0.306 NA ATOM     23  C   UNL     1      42.407  43.982  23.347 -0.18 +0.01    +0.105 C  ENDBRANCH  14  17ENDBRANCH   5  13BRANCH   3  24ATOM     24  C   UNL     1      37.703  47.384  14.605 -0.45 -0.02    +0.039 A  ATOM     25  C   UNL     1      37.685  47.707  13.237 -0.47 -0.01    +0.033 A  ATOM     26  C   UNL     1      36.601  46.684  15.118 -0.35 -0.05    +0.070 A  ATOM     27  C   UNL     1      36.601  47.342  12.456 -0.59 -0.05    +0.112 A  ATOM     28  C   UNL     1      35.561  46.360  14.249 -0.33 -0.10    +0.132 A  ATOM     29  N   UNL     1      35.535  46.674  12.934 -0.37 +0.17    -0.263 NA ATOM     30  Cl  UNL     1      36.447  46.176  16.761 -0.51 +0.05    -0.082 Cl ENDBRANCH   3  24TORSDOF 6TERENDMDL