MODEL        7USER    Run = 7USERUSER    Estimated Free Energy of Binding    =  -8.46 kcal/mol  [=(1)+(2)+(3)-(4)]USERUSER    (1) Final Intermolecular Energy     = -10.85 kcal/molUSER        vdW + Hbond + desolv Energy     = -10.64 kcal/molUSER        Electrostatic Energy            =  -0.21 kcal/molUSER        Moving Ligand-Fixed Receptor    = -10.85 kcal/molUSER        Moving Ligand-Moving Receptor   =  +0.00 kcal/molUSER    (2) Final Total Internal Energy     =  -2.87 kcal/molUSER    (3) Torsional Free Energy           =  +2.39 kcal/molUSER    (4) Unbound System's Energy         =  -2.87 kcal/molUSERUSERREMARK SMILES [CH]c1c(O)ccc(-c2c(O[C@H]3CC[C@H](O)CC3)ccc(O)c2O)c1OREMARK SMILES IDX 8 1 9 2 18 3 19 4 20 5 22 6 7 7 2 8 3 9 24 10 5 11 6 12 1 13REMARK SMILES IDX 4 14 25 16 10 18 11 19 17 20 12 21 16 22 13 23 14 24 15 25REMARK SMILES IDX 23 27 21 29REMARK H PARENT 4 15 25 17 15 26 23 28 21 30USER                              x       y       z     vdW  Elec       q    TypeUSER                           _______ _______ _______ _____ _____    ______ ____ROOTATOM      1  C   UNL     1      38.934  46.479  16.640 -0.37 -0.02    +0.073 A  ATOM      2  C   UNL     1      38.379  45.473  17.467 -0.30 -0.03    +0.131 A  ATOM      3  C   UNL     1      39.081  44.932  18.557 -0.37 -0.00    +0.051 A  ATOM      4  C   UNL     1      40.344  45.414  18.884 -0.42 -0.00    +0.054 A  ATOM      5  C   UNL     1      40.888  46.429  18.116 -0.39 -0.01    +0.158 A  ATOM      6  C   UNL     1      40.198  46.964  17.021 -0.37 -0.03    +0.169 A  ENDROOTBRANCH   1   7ATOM      7  C   UNL     1      38.224  46.948  15.420 -0.40 -0.01    +0.032 A  ATOM      8  C   UNL     1      37.073  46.553  13.276 -0.50 -0.02    +0.041 A  ATOM      9  C   UNL     1      36.956  47.934  13.093 -0.49 -0.05    +0.122 A  ATOM     10  C   UNL     1      37.704  46.074  14.441 -0.32 -0.05    +0.130 A  ATOM     11  C   UNL     1      37.444  48.819  14.048 -0.44 -0.03    +0.047 A  ATOM     12  C   UNL     1      38.067  48.329  15.198 -0.51 -0.01    +0.017 A  ATOM     13  C   UNL     1      36.545  45.641  12.300 -0.64 -0.02    +0.044 C  BRANCH   9  14ATOM     14  O   UNL     1      36.362  48.499  11.997 -0.57 +0.20    -0.508 OA ATOM     15  H   UNL     1      36.833  48.207  11.200 -0.13 -0.12    +0.293 HD ENDBRANCH   9  14BRANCH  10  16ATOM     16  O   UNL     1      37.804  44.720  14.681 -0.01 +0.15    -0.507 OA ATOM     17  H   UNL     1      37.396  44.532  15.545 +0.20 -0.09    +0.293 HD ENDBRANCH  10  16ENDBRANCH   1   7BRANCH   2  18ATOM     18  O   UNL     1      37.145  44.947  17.167 -0.06 +0.16    -0.490 OA BRANCH  18  19ATOM     19  C   UNL     1      36.244  44.981  18.287 -0.28 -0.05    +0.173 C  ATOM     20  C   UNL     1      34.894  45.534  17.816 -0.42 -0.03    +0.048 C  ATOM     21  C   UNL     1      36.093  43.544  18.800 -0.37 -0.01    +0.048 C  ATOM     22  C   UNL     1      33.830  45.428  18.902 -0.43 -0.02    +0.035 C  ATOM     23  C   UNL     1      35.033  43.440  19.888 -0.46 -0.00    +0.035 C  ATOM     24  C   UNL     1      33.690  43.998  19.419 -0.41 -0.02    +0.114 C  BRANCH  24  25ATOM     25  O   UNL     1      32.768  43.997  20.503 -0.67 -0.02    -0.393 OA ATOM     26  H   UNL     1      32.747  44.897  20.871 -0.40 -0.06    +0.210 HD ENDBRANCH  24  25ENDBRANCH  18  19ENDBRANCH   2  18BRANCH   6  27ATOM     27  O   UNL     1      40.842  47.989  16.369 -0.23 +0.07    -0.504 OA ATOM     28  H   UNL     1      41.798  47.808  16.474 -0.26 -0.03    +0.293 HD ENDBRANCH   6  27BRANCH   5  29ATOM     29  O   UNL     1      42.124  46.916  18.440 -0.23 -0.00    -0.504 OA ATOM     30  H   UNL     1      42.491  47.220  17.585 -0.36 -0.07    +0.293 HD ENDBRANCH   5  29TORSDOF 8TERENDMDL