MODEL        8USER    Run = 8USERUSER    Estimated Free Energy of Binding    =  -9.21 kcal/mol  [=(1)+(2)+(3)-(4)]USERUSER    (1) Final Intermolecular Energy     = -10.70 kcal/molUSER        vdW + Hbond + desolv Energy     = -10.26 kcal/molUSER        Electrostatic Energy            =  -0.44 kcal/molUSER        Moving Ligand-Fixed Receptor    = -10.70 kcal/molUSER        Moving Ligand-Moving Receptor   =  +0.00 kcal/molUSER    (2) Final Total Internal Energy     =  -0.64 kcal/molUSER    (3) Torsional Free Energy           =  +1.49 kcal/molUSER    (4) Unbound System's Energy         =  -0.64 kcal/molUSERUSERREMARK SMILES C[C@H](NC(=O)Nc1ccc(-c2ccncc2)cc1)c1ccccc1OREMARK SMILES IDX 1 1 2 2 3 3 4 4 6 5 5 7 7 9 8 10 18 11 9 12 17 13 10 14REMARK SMILES IDX 11 15 12 16 16 17 13 18 15 19 14 20 19 21 20 22 24 23 21 24REMARK SMILES IDX 23 25 22 26 25 27REMARK H PARENT 3 6 6 8 25 28USER                              x       y       z     vdW  Elec       q    TypeUSER                           _______ _______ _______ _____ _____    ______ ____ROOTATOM      1  C   UNL     1      26.766  39.531  18.167 -0.28 +0.00    +0.036 C  ATOM      2  C   UNL     1      26.754  39.476  19.700 -0.23 -0.02    +0.115 C  ENDROOTBRANCH   2   3ATOM      3  N   UNL     1      26.407  38.144  20.185 -0.12 +0.16    -0.331 N  ATOM      4  C   UNL     1      27.359  37.303  20.722 -0.17 -0.12    +0.319 C  ATOM      5  N   UNL     1      26.787  36.107  21.101 -0.09 +0.31    -0.308 N  ATOM      6  H   UNL     1      25.600  37.707  19.772 -0.10 -0.17    +0.166 HD ATOM      7  O   UNL     1      28.535  37.620  20.838 -0.19 +0.02    -0.248 OA ATOM      8  H   UNL     1      25.781  36.121  21.173 -0.44 -0.44    +0.171 HD BRANCH   5   9ATOM      9  C   UNL     1      27.440  34.964  21.601 -0.30 -0.03    +0.042 A  ATOM     10  C   UNL     1      28.356  34.989  22.652 -0.36 +0.00    +0.027 A  ATOM     11  C   UNL     1      27.159  33.741  20.984 -0.37 -0.02    +0.027 A  ATOM     12  C   UNL     1      28.971  33.808  23.088 -0.36 +0.00    +0.011 A  ATOM     13  C   UNL     1      27.776  32.561  21.420 -0.40 -0.01    +0.011 A  ATOM     14  C   UNL     1      28.692  32.574  22.481 -0.44 -0.00    -0.018 A  BRANCH  14  15ATOM     15  C   UNL     1      29.337  31.336  22.945 -0.48 -0.00    -0.015 A  ATOM     16  C   UNL     1      30.716  31.138  22.800 -0.42 +0.00    +0.029 A  ATOM     17  C   UNL     1      28.595  30.314  23.548 -0.50 +0.00    +0.029 A  ATOM     18  C   UNL     1      31.278  29.954  23.252 -0.53 +0.01    +0.111 A  ATOM     19  C   UNL     1      29.246  29.164  23.966 -0.38 -0.00    +0.111 A  ATOM     20  N   UNL     1      30.573  28.961  23.832 -0.75 -0.03    -0.265 NA ENDBRANCH  14  15ENDBRANCH   5   9ENDBRANCH   2   3BRANCH   2  21ATOM     21  C   UNL     1      25.791  40.501  20.280 -0.31 -0.00    +0.016 A  ATOM     22  C   UNL     1      25.209  41.488  19.460 -0.34 -0.00    +0.010 A  ATOM     23  C   UNL     1      25.447  40.494  21.638 -0.34 -0.02    +0.120 A  ATOM     24  C   UNL     1      24.317  42.427  19.986 -0.34 -0.00    +0.001 A  ATOM     25  C   UNL     1      24.557  41.430  22.167 -0.50 -0.01    +0.046 A  ATOM     26  C   UNL     1      23.991  42.397  21.338 -0.58 -0.00    +0.004 A  BRANCH  23  27ATOM     27  O   UNL     1      26.003  39.555  22.461 -0.54 +0.11    -0.508 OA ATOM     28  H   UNL     1      25.298  39.112  22.962 -0.41 -0.20    +0.293 HD ENDBRANCH  23  27ENDBRANCH   2  21TORSDOF 5TERENDMDL