REMARK SMILES CNCNc1[nH]c(-c2ccncc2Cl)nc1C(=O)NC1CCN(C)CC1
REMARK SMILES IDX 5 1 6 2 7 3 15 4 16 5 4 7 3 9 2 10 1 11 17 13 19 14 18 15
REMARK SMILES IDX 20 17 21 18 26 19 22 20 25 21 23 22 24 23 8 24 9 25 13 26
REMARK SMILES IDX 10 27 12 28 11 29 14 30
REMARK H PARENT 6 6 4 8 2 12 19 16
ROOT
ATOM      1  C   UNL     1      -2.054   0.997   0.643  1.00  0.00     0.138 A 
ATOM      2  N   UNL     1      -3.067   0.144   0.302  1.00  0.00    -0.324 N 
ATOM      3  C   UNL     1      -2.560  -0.899  -0.440  1.00  0.00     0.141 A 
ATOM      4  N   UNL     1      -1.258  -0.728  -0.604  1.00  0.00    -0.221 NA
ATOM      5  C   UNL     1      -0.928   0.455   0.053  1.00  0.00     0.170 A 
ATOM      6  H   UNL     1      -4.041   0.266   0.533  1.00  0.00     0.170 HD
ENDROOT
BRANCH   1   7
ATOM      7  N   UNL     1      -2.260   2.128   1.366  1.00  0.00    -0.357 N 
ATOM      8  H   UNL     1      -1.410   2.648   1.608  1.00  0.00     0.163 HD
BRANCH   7   9
ATOM      9  C   UNL     1      -3.179   2.167   2.483  1.00  0.00     0.199 C 
BRANCH   9  10
ATOM     10  N   UNL     1      -3.251   3.442   3.173  1.00  0.00    -0.303 NA
ATOM     11  C   UNL     1      -4.263   3.430   4.216  1.00  0.00     0.103 C 
ATOM     12  H   UNL     1      -3.480   4.150   2.477  1.00  0.00     0.124 HD
ENDBRANCH   9  10
ENDBRANCH   7   9
ENDBRANCH   1   7
BRANCH   5  13
ATOM     13  C   UNL     1       0.438   0.980   0.094  1.00  0.00     0.273 C 
ATOM     14  N   UNL     1       1.318   0.206  -0.633  1.00  0.00    -0.348 N 
ATOM     15  O   UNL     1       0.763   1.982   0.723  1.00  0.00    -0.267 OA
ATOM     16  H   UNL     1       0.927  -0.664  -0.983  1.00  0.00     0.164 HD
BRANCH  14  17
ATOM     17  C   UNL     1       2.756   0.411  -0.605  1.00  0.00     0.085 C 
ATOM     18  C   UNL     1       3.417  -0.185  -1.857  1.00  0.00     0.040 C 
ATOM     19  C   UNL     1       3.377  -0.173   0.663  1.00  0.00     0.040 C 
ATOM     20  C   UNL     1       4.832  -0.711  -1.593  1.00  0.00     0.086 C 
ATOM     21  C   UNL     1       4.888   0.085   0.703  1.00  0.00     0.086 C 
ATOM     22  N   UNL     1       5.515   0.143  -0.626  1.00  0.00    -0.306 NA
ATOM     23  C   UNL     1       6.942  -0.156  -0.546  1.00  0.00     0.105 C 
ENDBRANCH  14  17
ENDBRANCH   5  13
BRANCH   3  24
ATOM     24  C   UNL     1      -3.348  -2.012  -0.994  1.00  0.00     0.039 A 
ATOM     25  C   UNL     1      -2.717  -2.832  -1.946  1.00  0.00     0.033 A 
ATOM     26  C   UNL     1      -4.671  -2.325  -0.647  1.00  0.00     0.070 A 
ATOM     27  C   UNL     1      -3.407  -3.894  -2.507  1.00  0.00     0.112 A 
ATOM     28  C   UNL     1      -5.276  -3.416  -1.267  1.00  0.00     0.132 A 
ATOM     29  N   UNL     1      -4.677  -4.205  -2.188  1.00  0.00    -0.263 NA
ATOM     30  Cl  UNL     1      -5.606  -1.456   0.516  1.00  0.00    -0.082 Cl
ENDBRANCH   3  24
TORSDOF 6
