
     RDKit          3D

 46 48  0  0  0  0  0  0  0  0999 V2000
    5.7793   -2.1969    0.2641 C   0  0  0  0  0  0  0  0  0  0  0  0
    5.0630   -1.5567   -0.7836 O   0  0  0  0  0  0  0  0  0  0  0  0
    4.4690   -0.3203   -0.3846 C   0  0  0  0  0  0  0  0  0  0  0  0
    3.1708   -0.5460    0.3917 C   0  0  0  0  0  0  0  0  0  0  0  0
    2.4451    0.7293    0.6691 C   0  0  0  0  0  3  0  0  0  0  0  0
    1.4059    1.2364   -0.2740 C   0  0  0  0  0  0  0  0  0  0  0  0
    0.0962    1.0541    0.3265 N   0  0  0  0  0  0  0  0  0  0  0  0
   -0.4783    2.0477    1.1108 C   0  0  0  0  0  0  0  0  0  0  0  0
    0.1581    3.0125    1.5438 O   0  0  0  0  0  0  0  0  0  0  0  0
   -1.9461    1.8629    1.4585 C   0  0  0  0  0  0  0  0  0  0  0  0
   -2.8893    2.0916    0.2990 C   0  0  0  0  0  0  0  0  0  0  0  0
   -4.0133    2.9146    0.5018 C   0  0  0  0  0  0  0  0  0  0  0  0
   -4.9230    3.1533   -0.5270 C   0  0  0  0  0  0  0  0  0  0  0  0
   -4.7232    2.5742   -1.7739 C   0  0  0  0  0  0  0  0  0  0  0  0
   -3.6196    1.7472   -1.9857 C   0  0  0  0  0  0  0  0  0  0  0  0
   -2.7081    1.4687   -0.9523 C   0  0  0  0  0  0  0  0  0  0  0  0
   -1.5808    0.6676   -1.2604 N   0  0  0  0  0  0  0  0  0  0  0  0
   -0.7533    0.1475   -0.3187 N   0  0  0  0  0  0  0  0  0  0  0  0
   -0.7969   -1.1933    0.1864 C   0  0  0  0  0  0  0  0  0  0  0  0
   -0.2269   -1.4976    1.4444 C   0  0  0  0  0  0  0  0  0  0  0  0
   -0.2564   -2.7895    1.9743 C   0  0  0  0  0  0  0  0  0  0  0  0
    0.4566   -3.0985    3.5092 Cl  0  0  0  0  0  0  0  0  0  0  0  0
   -0.8559   -3.8256    1.2731 C   0  0  0  0  0  0  0  0  0  0  0  0
   -1.4217   -3.5656    0.0282 C   0  0  0  0  0  0  0  0  0  0  0  0
   -1.3922   -2.2701   -0.5149 C   0  0  0  0  0  0  0  0  0  0  0  0
   -2.0682   -2.1199   -2.1057 Cl  0  0  0  0  0  0  0  0  0  0  0  0
    6.2481   -3.0965   -0.1439 H   0  0  0  0  0  0  0  0  0  0  0  0
    6.5657   -1.5412    0.6504 H   0  0  0  0  0  0  0  0  0  0  0  0
    5.1071   -2.4977    1.0718 H   0  0  0  0  0  0  0  0  0  0  0  0
    4.2522    0.2309   -1.3068 H   0  0  0  0  0  0  0  0  0  0  0  0
    5.1850    0.2814    0.1884 H   0  0  0  0  0  0  0  0  0  0  0  0
    3.3848   -1.0376    1.3472 H   0  0  0  0  0  0  0  0  0  0  0  0
    2.5278   -1.2433   -0.1582 H   0  0  0  0  0  0  0  0  0  0  0  0
    2.7166    1.3372    1.5260 H   0  0  0  0  0  0  0  0  0  0  0  0
    1.4576    0.7138   -1.2360 H   0  0  0  0  0  0  0  0  0  0  0  0
    1.5756    2.3013   -0.4668 H   0  0  0  0  0  0  0  0  0  0  0  0
   -2.1135    0.8681    1.8857 H   0  0  0  0  0  0  0  0  0  0  0  0
   -2.1666    2.5721    2.2671 H   0  0  0  0  0  0  0  0  0  0  0  0
   -4.1818    3.3858    1.4683 H   0  0  0  0  0  0  0  0  0  0  0  0
   -5.7808    3.7987   -0.3561 H   0  0  0  0  0  0  0  0  0  0  0  0
   -5.4208    2.7690   -2.5840 H   0  0  0  0  0  0  0  0  0  0  0  0
   -3.4743    1.3168   -2.9736 H   0  0  0  0  0  0  0  0  0  0  0  0
   -1.7577    0.0460   -2.0499 H   0  0  0  0  0  0  0  0  0  0  0  0
    0.2437   -0.7176    2.0377 H   0  0  0  0  0  0  0  0  0  0  0  0
   -0.8807   -4.8324    1.6819 H   0  0  0  0  0  0  0  0  0  0  0  0
   -1.8789   -4.3828   -0.5265 H   0  0  0  0  0  0  0  0  0  0  0  0
  1  2  1  0
  2  3  1  0
  3  4  1  0
  4  5  1  0
  5  6  1  0
  6  7  1  0
  7  8  1  0
  8  9  2  0
  8 10  1  0
 10 11  1  0
 11 12  2  0
 12 13  1  0
 13 14  2  0
 14 15  1  0
 15 16  2  0
 16 17  1  0
 17 18  1  0
 18 19  1  0
 19 20  2  0
 20 21  1  0
 21 22  1  0
 21 23  2  0
 23 24  1  0
 24 25  2  0
 25 26  1  0
 18  7  1  0
 25 19  1  0
 16 11  1  0
  1 27  1  0
  1 28  1  0
  1 29  1  0
  3 30  1  0
  3 31  1  0
  4 32  1  0
  4 33  1  0
  5 34  1  0
  6 35  1  0
  6 36  1  0
 10 37  1  0
 10 38  1  0
 12 39  1  0
 13 40  1  0
 14 41  1  0
 15 42  1  0
 17 43  1  0
 20 44  1  0
 23 45  1  0
 24 46  1  0
M  RAD  1   5   2
M  END
$$$$
