
     RDKit          3D

 43 45  0  0  0  0  0  0  0  0999 V2000
   -5.1564   -2.1571    1.1658 C   0  0  0  0  0  0  0  0  0  0  0  0
   -3.9155   -1.2982    1.4063 C   0  0  1  0  0  0  0  0  0  0  0  0
   -2.9385   -2.0559    2.1924 N   0  0  0  0  0  0  0  0  0  0  0  0
   -3.3001   -0.8439    0.0717 C   0  0  0  0  0  0  0  0  0  0  0  0
   -2.1417    0.1496    0.2585 C   0  0  0  0  0  0  0  0  0  0  0  0
   -1.4489    0.5268   -1.0685 C   0  0  0  0  0  0  0  0  0  0  0  0
   -2.3474    1.4634   -1.8791 C   0  0  0  0  0  0  0  0  0  0  0  0
   -3.3688    1.0721   -2.4436 O   0  0  0  0  0  0  0  0  0  0  0  0
   -2.0119    2.9043   -1.9593 C   0  0  0  0  0  0  0  0  0  0  0  0
   -0.8283    3.3517   -1.5300 C   0  0  0  0  0  0  0  0  0  0  0  0
    0.1930    2.4591   -0.9999 C   0  0  0  0  0  0  0  0  0  0  0  0
    1.3890    3.0293   -0.7483 N   0  0  0  0  0  0  0  0  0  0  0  0
    2.3687    2.2201   -0.2781 C   0  0  0  0  0  0  0  0  0  0  0  0
    2.2320    0.8519   -0.0481 C   0  0  0  0  0  0  0  0  0  0  0  0
    3.3403    0.0319    0.4588 C   0  0  0  0  0  0  0  0  0  0  0  0
    3.1787   -0.7906    1.5765 C   0  0  0  0  0  0  0  0  0  0  0  0
    4.2566   -1.5415    2.0108 C   0  0  0  0  0  0  0  0  0  0  0  0
    5.4661   -1.5329    1.4149 N   0  0  0  0  0  0  0  0  0  0  0  0
    5.6266   -0.7478    0.3409 C   0  0  0  0  0  0  0  0  0  0  0  0
    6.8797   -0.7462   -0.2793 N   0  0  0  0  0  0  0  0  0  0  0  0
    4.5978    0.0431   -0.1619 C   0  0  0  0  0  0  0  0  0  0  0  0
    0.9730    0.3039   -0.3224 C   0  0  0  0  0  0  0  0  0  0  0  0
   -0.0740    1.1092   -0.7973 C   0  0  0  0  0  0  0  0  0  0  0  0
   -5.9137   -1.5940    0.6097 H   0  0  0  0  0  0  0  0  0  0  0  0
   -4.9173   -3.0582    0.5899 H   0  0  0  0  0  0  0  0  0  0  0  0
   -5.6076   -2.4704    2.1138 H   0  0  0  0  0  0  0  0  0  0  0  0
   -4.2099   -0.4135    1.9828 H   0  0  0  0  0  0  0  0  0  0  0  0
   -3.3648   -2.3398    3.0749 H   0  0  0  0  0  0  0  0  0  0  0  0
   -2.7106   -2.9238    1.7071 H   0  0  0  0  0  0  0  0  0  0  0  0
   -4.0876   -0.3759   -0.5291 H   0  0  0  0  0  0  0  0  0  0  0  0
   -2.9478   -1.7167   -0.4934 H   0  0  0  0  0  0  0  0  0  0  0  0
   -2.5186    1.0537    0.7551 H   0  0  0  0  0  0  0  0  0  0  0  0
   -1.4102   -0.2946    0.9439 H   0  0  0  0  0  0  0  0  0  0  0  0
   -1.2962   -0.3653   -1.6911 H   0  0  0  0  0  0  0  0  0  0  0  0
   -2.7588    3.5586   -2.3915 H   0  0  0  0  0  0  0  0  0  0  0  0
   -0.5700    4.4035   -1.5955 H   0  0  0  0  0  0  0  0  0  0  0  0
    3.3067    2.7321   -0.0748 H   0  0  0  0  0  0  0  0  0  0  0  0
    2.2370   -0.8428    2.1140 H   0  0  0  0  0  0  0  0  0  0  0  0
    4.1756   -2.1900    2.8784 H   0  0  0  0  0  0  0  0  0  0  0  0
    6.7864   -1.0508   -1.2428 H   0  0  0  0  0  0  0  0  0  0  0  0
    7.2654    0.1923   -0.2759 H   0  0  0  0  0  0  0  0  0  0  0  0
    4.7708    0.6538   -1.0426 H   0  0  0  0  0  0  0  0  0  0  0  0
    0.8013   -0.7606   -0.1692 H   0  0  0  0  0  0  0  0  0  0  0  0
  1  2  1  0
  2  3  1  0
  2  4  1  0
  4  5  1  0
  5  6  1  0
  6  7  1  0
  7  8  2  0
  7  9  1  0
  9 10  2  0
 10 11  1  0
 11 12  2  0
 12 13  1  0
 13 14  2  0
 14 15  1  0
 15 16  2  0
 16 17  1  0
 17 18  2  0
 18 19  1  0
 19 20  1  0
 19 21  2  0
 14 22  1  0
 22 23  2  0
 23  6  1  0
 23 11  1  0
 21 15  1  0
  1 24  1  0
  1 25  1  0
  1 26  1  0
  2 27  1  1
  3 28  1  0
  3 29  1  0
  4 30  1  0
  4 31  1  0
  5 32  1  0
  5 33  1  0
  6 34  1  0
  9 35  1  0
 10 36  1  0
 13 37  1  0
 16 38  1  0
 17 39  1  0
 20 40  1  0
 20 41  1  0
 21 42  1  0
 22 43  1  0
M  END
$$$$
