
     RDKit          3D

 32 35  0  0  0  0  0  0  0  0999 V2000
   -0.9638    0.7572   -2.7861 Cl  0  0  0  0  0  0  0  0  0  0  0  0
   -1.5298    1.0030   -1.1663 C   0  0  0  0  0  0  0  0  0  0  0  0
   -1.9495    2.2985   -0.8387 C   0  0  0  0  0  0  0  0  0  0  0  0
   -2.4603    2.5725    0.4263 C   0  0  0  0  0  0  0  0  0  0  0  0
   -2.5646    1.5481    1.3621 C   0  0  0  0  0  0  0  0  0  0  0  0
   -2.1463    0.2509    1.0397 C   0  0  0  0  0  0  0  0  0  0  0  0
   -2.3368   -0.9547    2.2714 Cl  0  0  0  0  0  0  0  0  0  0  0  0
   -1.5983   -0.0449   -0.2252 C   0  0  0  0  0  0  0  0  0  0  0  0
   -1.1487   -1.4049   -0.5707 C   0  0  0  0  0  0  0  0  0  0  0  0
   -2.0225   -2.4125   -0.7683 C   0  0  0  0  0  0  0  0  0  0  0  0
   -1.2258   -3.8693   -1.3144 S   0  0  0  0  0  0  0  0  0  0  0  0
    0.3167   -2.9968   -1.4197 C   0  0  0  0  0  0  0  0  0  0  0  0
    1.3331   -3.5008   -2.0433 N   0  0  0  0  0  0  0  0  0  0  0  0
    2.4579   -2.6411   -2.1805 N   0  0  0  0  0  0  0  0  0  0  0  0
    2.3792   -1.4771   -1.6060 C   0  0  0  0  0  0  0  0  0  0  0  0
    1.3331   -0.9340   -0.8530 N   0  0  0  0  0  0  0  0  0  0  0  0
    1.6250    0.0308    0.1009 C   0  0  0  0  0  0  0  0  0  0  0  0
    2.1101    1.2738   -0.0665 C   0  0  0  0  0  0  0  0  0  0  0  0
    2.3261    1.8953    1.2133 C   0  0  0  0  0  0  0  0  0  0  0  0
    2.0077    1.0310    2.1861 C   0  0  0  0  0  0  0  0  0  0  0  0
    1.5371   -0.2614    1.5829 C   0  0  0  0  0  0  0  0  0  0  0  0
    0.1947   -1.7416   -0.8207 N   0  0  0  0  0  0  0  0  0  0  0  0
   -1.8860    3.0986   -1.5735 H   0  0  0  0  0  0  0  0  0  0  0  0
   -2.7860    3.5792    0.6782 H   0  0  0  0  0  0  0  0  0  0  0  0
   -2.9762    1.7646    2.3460 H   0  0  0  0  0  0  0  0  0  0  0  0
   -3.0976   -2.3581   -0.6608 H   0  0  0  0  0  0  0  0  0  0  0  0
    3.2563   -0.8101   -1.6667 H   0  0  0  0  0  0  0  0  0  0  0  0
    2.3155    1.7558   -1.0108 H   0  0  0  0  0  0  0  0  0  0  0  0
    2.6970    2.9006    1.3471 H   0  0  0  0  0  0  0  0  0  0  0  0
    2.0774    1.2213    3.2467 H   0  0  0  0  0  0  0  0  0  0  0  0
    2.2024   -1.0844    1.8630 H   0  0  0  0  0  0  0  0  0  0  0  0
    0.5230   -0.4895    1.9073 H   0  0  0  0  0  0  0  0  0  0  0  0
  1  2  1  0
  2  3  2  0
  3  4  1  0
  4  5  2  0
  5  6  1  0
  6  7  1  0
  6  8  2  0
  8  9  1  0
  9 10  2  0
 10 11  1  0
 11 12  1  0
 12 13  2  0
 13 14  1  0
 14 15  2  0
 15 16  1  0
 16 17  1  0
 17 18  2  0
 18 19  1  0
 19 20  2  0
 20 21  1  0
 16 22  1  0
  8  2  1  0
 22  9  1  0
 22 12  1  0
 21 17  1  0
  3 23  1  0
  4 24  1  0
  5 25  1  0
 10 26  1  0
 15 27  1  0
 18 28  1  0
 19 29  1  0
 20 30  1  0
 21 31  1  0
 21 32  1  0
M  END
$$$$
