
     RDKit          3D

 47 48  0  0  0  0  0  0  0  0999 V2000
    4.3685    1.3715    3.7079 O   0  0  0  0  0  0  0  0  0  0  0  0
    3.8190    0.7432    2.5532 C   0  0  0  0  0  0  0  0  0  0  0  0
    4.0908   -0.7506    2.6136 C   0  0  0  0  0  0  0  0  0  0  0  0
    3.3498   -1.5944    1.5668 C   0  0  0  0  0  0  0  0  0  0  0  0
    3.6706   -1.4642    0.1422 N   0  0  0  0  0  0  0  0  0  0  0  0
    5.0982   -1.5650   -0.1291 C   0  0  0  0  0  0  0  0  0  0  0  0
    5.7169   -0.4226    0.2658 F   0  0  0  0  0  0  0  0  0  0  0  0
    3.0821   -0.3219   -0.5656 C   0  0  0  0  0  0  0  0  0  0  0  0
    1.5471   -0.2409   -0.5240 C   0  0  0  0  0  0  0  0  0  0  0  0
    1.1376    0.8136   -1.4067 O   0  0  0  0  0  0  0  0  0  0  0  0
   -0.2337    0.9842   -1.4664 C   0  0  0  0  0  0  0  0  0  0  0  0
   -1.0260    0.1926   -0.7210 N   0  0  0  0  0  0  0  0  0  0  0  0
   -2.3494    0.3913   -0.8073 C   0  0  0  0  0  0  0  0  0  0  0  0
   -3.1236   -0.4488   -0.0181 N   0  0  0  0  0  0  0  0  0  0  0  0
   -4.4989   -0.5904    0.2059 C   0  0  0  0  0  0  0  0  0  0  0  0
   -5.4832    0.1796   -0.4200 C   0  0  0  0  0  0  0  0  0  0  0  0
   -6.8425   -0.0203   -0.1421 C   0  0  0  0  0  0  0  0  0  0  0  0
   -7.2417   -0.9962    0.7693 C   0  0  0  0  0  0  0  0  0  0  0  0
   -6.2807   -1.7756    1.4041 C   0  0  0  0  0  0  0  0  0  0  0  0
   -4.9329   -1.5674    1.1188 C   0  0  0  0  0  0  0  0  0  0  0  0
   -4.0197   -2.3305    1.7431 F   0  0  0  0  0  0  0  0  0  0  0  0
   -2.8970    1.3296   -1.5914 N   0  0  0  0  0  0  0  0  0  0  0  0
   -2.0650    2.1001   -2.3189 C   0  0  0  0  0  0  0  0  0  0  0  0
   -0.6989    1.9737   -2.2997 C   0  0  0  0  0  0  0  0  0  0  0  0
    0.1990    2.8382   -3.1098 C   0  0  0  0  0  0  0  0  0  0  0  0
   -0.4778    3.7420   -3.8763 F   0  0  0  0  0  0  0  0  0  0  0  0
    5.3346    1.2637    3.6588 H   0  0  0  0  0  0  0  0  0  0  0  0
    2.7444    0.9478    2.5416 H   0  0  0  0  0  0  0  0  0  0  0  0
    4.2757    1.2101    1.6782 H   0  0  0  0  0  0  0  0  0  0  0  0
    5.1716   -0.9327    2.5698 H   0  0  0  0  0  0  0  0  0  0  0  0
    3.7957   -1.1131    3.6081 H   0  0  0  0  0  0  0  0  0  0  0  0
    3.5453   -2.6443    1.8268 H   0  0  0  0  0  0  0  0  0  0  0  0
    2.2705   -1.4891    1.7258 H   0  0  0  0  0  0  0  0  0  0  0  0
    5.2902   -1.7019   -1.1983 H   0  0  0  0  0  0  0  0  0  0  0  0
    5.5571   -2.4098    0.3955 H   0  0  0  0  0  0  0  0  0  0  0  0
    3.4983    0.6325   -0.2276 H   0  0  0  0  0  0  0  0  0  0  0  0
    3.3629   -0.3868   -1.6265 H   0  0  0  0  0  0  0  0  0  0  0  0
    1.2112   -0.0134    0.4941 H   0  0  0  0  0  0  0  0  0  0  0  0
    1.1235   -1.1957   -0.8602 H   0  0  0  0  0  0  0  0  0  0  0  0
   -2.5317   -1.0802    0.5057 H   0  0  0  0  0  0  0  0  0  0  0  0
   -5.2175    0.9505   -1.1370 H   0  0  0  0  0  0  0  0  0  0  0  0
   -7.5879    0.5932   -0.6432 H   0  0  0  0  0  0  0  0  0  0  0  0
   -8.2969   -1.1466    0.9816 H   0  0  0  0  0  0  0  0  0  0  0  0
   -6.5667   -2.5411    2.1175 H   0  0  0  0  0  0  0  0  0  0  0  0
   -2.5570    2.8475   -2.9370 H   0  0  0  0  0  0  0  0  0  0  0  0
    0.8672    3.4092   -2.4575 H   0  0  0  0  0  0  0  0  0  0  0  0
    0.8008    2.2295   -3.7920 H   0  0  0  0  0  0  0  0  0  0  0  0
  1  2  1  0
  2  3  1  0
  3  4  1  0
  4  5  1  0
  5  6  1  0
  6  7  1  0
  5  8  1  0
  8  9  1  0
  9 10  1  0
 10 11  1  0
 11 12  2  0
 12 13  1  0
 13 14  1  0
 14 15  1  0
 15 16  2  0
 16 17  1  0
 17 18  2  0
 18 19  1  0
 19 20  2  0
 20 21  1  0
 13 22  2  0
 22 23  1  0
 23 24  2  0
 24 25  1  0
 25 26  1  0
 24 11  1  0
 20 15  1  0
  1 27  1  0
  2 28  1  0
  2 29  1  0
  3 30  1  0
  3 31  1  0
  4 32  1  0
  4 33  1  0
  6 34  1  0
  6 35  1  0
  8 36  1  0
  8 37  1  0
  9 38  1  0
  9 39  1  0
 14 40  1  0
 16 41  1  0
 17 42  1  0
 18 43  1  0
 19 44  1  0
 23 45  1  0
 25 46  1  0
 25 47  1  0
M  END
$$$$
