
     RDKit          3D

 45 47  0  0  0  0  0  0  0  0999 V2000
   -0.8937    3.9970    0.1748 C   0  0  0  0  0  0  0  0  0  0  0  0
   -0.5702    2.5208    0.3571 C   0  0  0  0  0  0  0  0  0  0  0  0
   -1.7993    1.7476    0.3459 N   0  0  0  0  0  0  0  0  0  0  0  0
   -1.9013    0.3733    0.4101 C   0  0  0  0  0  0  0  0  0  0  0  0
   -1.0508   -0.5395    0.7544 N   0  0  0  0  0  0  0  0  0  0  0  0
    0.2445   -0.2520    1.2106 C   0  0  0  0  0  0  0  0  0  0  0  0
    0.4852   -0.0086    2.5529 C   0  0  0  0  0  0  0  0  0  0  0  0
    1.7116    0.2575    3.0425 N   0  0  0  0  0  0  0  0  0  0  0  0
    2.7742    0.2747    2.1887 N   0  0  0  0  0  0  0  0  0  0  0  0
    2.6053   -0.0078    0.8695 C   0  0  0  0  0  0  0  0  0  0  0  0
    3.8341    0.0922    0.0686 C   0  0  0  0  0  0  0  0  0  0  0  0
    4.4666    1.3462   -0.0551 C   0  0  0  0  0  0  0  0  0  0  0  0
    5.6370    1.5015   -0.8021 C   0  0  0  0  0  0  0  0  0  0  0  0
    6.2058    0.4028   -1.4376 C   0  0  0  0  0  0  0  0  0  0  0  0
    5.6074   -0.8505   -1.3208 C   0  0  0  0  0  0  0  0  0  0  0  0
    4.4341   -1.0072   -0.5716 C   0  0  0  0  0  0  0  0  0  0  0  0
    3.7770   -2.6059   -0.4651 Cl  0  0  0  0  0  0  0  0  0  0  0  0
    1.3446   -0.3157    0.3386 C   0  0  0  0  0  0  0  0  0  0  0  0
    1.1035   -0.4681   -1.0568 N   0  0  0  0  0  0  0  0  0  0  0  0
   -3.1956    0.0677    0.0472 N   0  0  0  0  0  0  0  0  0  0  0  0
   -3.8033   -1.2056   -0.0864 C   0  0  0  0  0  0  0  0  0  0  0  0
   -3.0846   -2.3643   -0.4082 C   0  0  0  0  0  0  0  0  0  0  0  0
   -3.7288   -3.5957   -0.5768 C   0  0  0  0  0  0  0  0  0  0  0  0
   -5.1113   -3.6901   -0.4448 C   0  0  0  0  0  0  0  0  0  0  0  0
   -5.8544   -2.5504   -0.1510 C   0  0  0  0  0  0  0  0  0  0  0  0
   -5.2064   -1.3228    0.0176 C   0  0  0  0  0  0  0  0  0  0  0  0
   -6.1795    0.0675    0.3717 Cl  0  0  0  0  0  0  0  0  0  0  0  0
   -1.5568    4.3544    0.9698 H   0  0  0  0  0  0  0  0  0  0  0  0
    0.0236    4.5934    0.1983 H   0  0  0  0  0  0  0  0  0  0  0  0
   -1.3928    4.1757   -0.7836 H   0  0  0  0  0  0  0  0  0  0  0  0
    0.0875    2.2025   -0.4569 H   0  0  0  0  0  0  0  0  0  0  0  0
   -0.0505    2.4095    1.3113 H   0  0  0  0  0  0  0  0  0  0  0  0
   -2.4414    2.1148   -0.3496 H   0  0  0  0  0  0  0  0  0  0  0  0
   -0.3210   -0.0078    3.2765 H   0  0  0  0  0  0  0  0  0  0  0  0
    4.0406    2.2165    0.4432 H   0  0  0  0  0  0  0  0  0  0  0  0
    6.1043    2.4802   -0.8806 H   0  0  0  0  0  0  0  0  0  0  0  0
    7.1189    0.5194   -2.0162 H   0  0  0  0  0  0  0  0  0  0  0  0
    6.0647   -1.7070   -1.8105 H   0  0  0  0  0  0  0  0  0  0  0  0
    0.1900   -0.9082   -1.1877 H   0  0  0  0  0  0  0  0  0  0  0  0
    1.8436   -0.9803   -1.5286 H   0  0  0  0  0  0  0  0  0  0  0  0
   -3.8698    0.7544    0.3695 H   0  0  0  0  0  0  0  0  0  0  0  0
   -2.0072   -2.3313   -0.5403 H   0  0  0  0  0  0  0  0  0  0  0  0
   -3.1428   -4.4805   -0.8152 H   0  0  0  0  0  0  0  0  0  0  0  0
   -5.6078   -4.6482   -0.5762 H   0  0  0  0  0  0  0  0  0  0  0  0
   -6.9345   -2.6218   -0.0561 H   0  0  0  0  0  0  0  0  0  0  0  0
  1  2  1  0
  2  3  1  0
  3  4  1  0
  4  5  2  3
  5  6  1  0
  6  7  2  0
  7  8  1  0
  8  9  2  0
  9 10  1  0
 10 11  1  0
 11 12  2  0
 12 13  1  0
 13 14  2  0
 14 15  1  0
 15 16  2  0
 16 17  1  0
 10 18  2  0
 18 19  1  0
  4 20  1  0
 20 21  1  0
 21 22  2  0
 22 23  1  0
 23 24  2  0
 24 25  1  0
 25 26  2  0
 26 27  1  0
 18  6  1  0
 26 21  1  0
 16 11  1  0
  1 28  1  0
  1 29  1  0
  1 30  1  0
  2 31  1  0
  2 32  1  0
  3 33  1  0
  7 34  1  0
 12 35  1  0
 13 36  1  0
 14 37  1  0
 15 38  1  0
 19 39  1  0
 19 40  1  0
 20 41  1  0
 22 42  1  0
 23 43  1  0
 24 44  1  0
 25 45  1  0
M  END
$$$$
