
     RDKit          3D

 45 47  0  0  0  0  0  0  0  0999 V2000
    5.3441   -2.3697   -0.0491 C   0  0  0  0  0  0  0  0  0  0  0  0
    5.8984   -1.2150    0.5678 O   0  0  0  0  0  0  0  0  0  0  0  0
    5.0707   -0.1396    0.7627 C   0  0  0  0  0  0  0  0  0  0  0  0
    3.6911   -0.1480    0.5221 C   0  0  0  0  0  0  0  0  0  0  0  0
    2.9157    1.0010    0.7439 C   0  0  0  0  0  0  0  0  0  0  0  0
    1.4660    0.9930    0.5117 C   0  0  0  0  0  0  0  0  0  0  0  0
    0.8368    0.8162   -0.6661 C   0  0  0  0  0  0  0  0  0  0  0  0
    1.6588    0.6444   -2.2054 S   0  0  0  0  0  0  0  0  0  0  0  0
    0.1540    0.8055   -3.0653 C   0  0  0  0  0  0  0  0  0  0  0  0
    0.0899    0.6436   -4.3346 N   0  0  0  0  0  0  0  0  0  0  0  0
   -0.8866    1.0858   -2.2471 N   0  0  0  0  0  0  0  0  0  0  0  0
   -0.6917    0.8496   -0.8352 C   0  0  0  0  0  0  0  0  0  0  0  0
   -1.2852   -0.3483   -0.2472 N   0  0  0  0  0  0  0  0  0  0  0  0
   -2.7483   -0.3154   -0.1646 C   0  0  0  0  0  0  0  0  0  0  0  0
   -3.2708    0.5663    0.9766 C   0  0  0  0  0  0  0  0  0  0  0  0
   -4.8028    0.6208    0.9966 C   0  0  0  0  0  0  0  0  0  0  0  0
   -5.4707   -0.5977    0.3593 C   0  0  0  0  0  0  0  0  0  0  0  0
   -4.6621   -1.8653    0.5901 C   0  0  0  0  0  0  0  0  0  0  0  0
   -3.2402   -1.7646    0.0280 C   0  0  0  0  0  0  0  0  0  0  0  0
    3.5225    2.1613    1.2316 C   0  0  0  0  0  0  0  0  0  0  0  0
    4.8946    2.1797    1.4816 C   0  0  0  0  0  0  0  0  0  0  0  0
    5.6636    1.0367    1.2486 C   0  0  0  0  0  0  0  0  0  0  0  0
    7.3594    1.1240    1.5794 Cl  0  0  0  0  0  0  0  0  0  0  0  0
    4.9360   -2.1348   -1.0380 H   0  0  0  0  0  0  0  0  0  0  0  0
    4.5883   -2.8331    0.5935 H   0  0  0  0  0  0  0  0  0  0  0  0
    6.1521   -3.0950   -0.1862 H   0  0  0  0  0  0  0  0  0  0  0  0
    3.1923   -1.0413    0.1591 H   0  0  0  0  0  0  0  0  0  0  0  0
    0.8758    1.1624    1.4101 H   0  0  0  0  0  0  0  0  0  0  0  0
    1.0416    0.4391   -4.6598 H   0  0  0  0  0  0  0  0  0  0  0  0
   -1.7830    0.8305   -2.6314 H   0  0  0  0  0  0  0  0  0  0  0  0
   -1.0484    1.7391   -0.3028 H   0  0  0  0  0  0  0  0  0  0  0  0
   -0.8982   -0.4961    0.6822 H   0  0  0  0  0  0  0  0  0  0  0  0
   -3.1632    0.0479   -1.1131 H   0  0  0  0  0  0  0  0  0  0  0  0
   -2.8882    1.5903    0.9070 H   0  0  0  0  0  0  0  0  0  0  0  0
   -2.9156    0.1702    1.9374 H   0  0  0  0  0  0  0  0  0  0  0  0
   -5.1363    0.7258    2.0363 H   0  0  0  0  0  0  0  0  0  0  0  0
   -5.1475    1.5213    0.4739 H   0  0  0  0  0  0  0  0  0  0  0  0
   -6.4834   -0.7141    0.7617 H   0  0  0  0  0  0  0  0  0  0  0  0
   -5.5813   -0.4317   -0.7197 H   0  0  0  0  0  0  0  0  0  0  0  0
   -4.6074   -2.0595    1.6689 H   0  0  0  0  0  0  0  0  0  0  0  0
   -5.1729   -2.7276    0.1467 H   0  0  0  0  0  0  0  0  0  0  0  0
   -2.5734   -2.3221    0.6994 H   0  0  0  0  0  0  0  0  0  0  0  0
   -3.1929   -2.2827   -0.9387 H   0  0  0  0  0  0  0  0  0  0  0  0
    2.9374    3.0598    1.4133 H   0  0  0  0  0  0  0  0  0  0  0  0
    5.3611    3.0873    1.8557 H   0  0  0  0  0  0  0  0  0  0  0  0
  1  2  1  0
  2  3  1  0
  3  4  2  0
  4  5  1  0
  5  6  1  0
  6  7  2  0
  7  8  1  0
  8  9  1  0
  9 10  2  3
  9 11  1  0
 11 12  1  0
 12 13  1  0
 13 14  1  0
 14 15  1  0
 15 16  1  0
 16 17  1  0
 17 18  1  0
 18 19  1  0
  5 20  2  0
 20 21  1  0
 21 22  2  0
 22 23  1  0
 22  3  1  0
 12  7  1  0
 19 14  1  0
  1 24  1  0
  1 25  1  0
  1 26  1  0
  4 27  1  0
  6 28  1  0
 10 29  1  0
 11 30  1  0
 12 31  1  0
 13 32  1  0
 14 33  1  0
 15 34  1  0
 15 35  1  0
 16 36  1  0
 16 37  1  0
 17 38  1  0
 17 39  1  0
 18 40  1  0
 18 41  1  0
 19 42  1  0
 19 43  1  0
 20 44  1  0
 21 45  1  0
M  END
$$$$
