
     RDKit          3D

 43 45  0  0  0  0  0  0  0  0999 V2000
   -0.4583   -0.5685   -1.8427 C   0  0  0  0  0  0  0  0  0  0  0  0
   -1.1136   -0.3016   -0.5050 C   0  0  0  0  0  0  0  0  0  0  0  0
   -0.5528    0.6380    0.3971 C   0  0  0  0  0  0  0  0  0  0  0  0
    0.6490    1.4380    0.0852 C   0  0  0  0  0  0  0  0  0  0  0  0
    1.9369    1.0848    0.5715 C   0  0  0  0  0  0  0  0  0  0  0  0
    2.1731   -0.1488    1.4304 C   0  0  0  0  0  0  0  0  0  0  0  0
    3.3015   -1.0757    0.9496 C   0  0  0  0  0  0  0  0  0  0  0  0
    3.0091   -1.7534   -0.3834 C   0  0  0  0  0  0  0  0  0  0  0  0
    1.9005   -2.6295   -0.2437 O   0  0  0  0  0  0  0  0  0  0  0  0
    3.0354    1.9291    0.2924 C   0  0  0  0  0  0  0  0  0  0  0  0
    2.8915    3.0783   -0.4839 C   0  0  0  0  0  0  0  0  0  0  0  0
    1.6418    3.4050   -0.9727 C   0  0  0  0  0  0  0  0  0  0  0  0
    1.4971    4.5326   -1.7306 O   0  0  0  0  0  0  0  0  0  0  0  0
    0.5321    2.6098   -0.6914 C   0  0  0  0  0  0  0  0  0  0  0  0
   -0.6631    3.0521   -1.2124 O   0  0  0  0  0  0  0  0  0  0  0  0
   -1.1888    0.8627    1.6279 C   0  0  0  0  0  0  0  0  0  0  0  0
   -2.3536    0.1823    1.9716 C   0  0  0  0  0  0  0  0  0  0  0  0
   -2.9295   -0.7372    1.0909 C   0  0  0  0  0  0  0  0  0  0  0  0
   -4.1124   -1.4033    1.4529 C   0  0  0  0  0  0  0  0  0  0  0  0
   -4.7134   -2.3183    0.5918 C   0  0  0  0  0  0  0  0  0  0  0  0
   -4.1378   -2.5774   -0.6435 C   0  0  0  0  0  0  0  0  0  0  0  0
   -2.9600   -1.9229   -1.0145 C   0  0  0  0  0  0  0  0  0  0  0  0
   -2.3202   -0.9904   -0.1635 C   0  0  0  0  0  0  0  0  0  0  0  0
   -0.2941   -1.6425   -1.9788 H   0  0  0  0  0  0  0  0  0  0  0  0
   -1.0933   -0.1894   -2.6500 H   0  0  0  0  0  0  0  0  0  0  0  0
    0.5221   -0.0982   -1.9475 H   0  0  0  0  0  0  0  0  0  0  0  0
    2.4158    0.2043    2.4414 H   0  0  0  0  0  0  0  0  0  0  0  0
    1.2633   -0.7468    1.5376 H   0  0  0  0  0  0  0  0  0  0  0  0
    4.2502   -0.5338    0.8788 H   0  0  0  0  0  0  0  0  0  0  0  0
    3.4366   -1.8520    1.7136 H   0  0  0  0  0  0  0  0  0  0  0  0
    3.8742   -2.3492   -0.6919 H   0  0  0  0  0  0  0  0  0  0  0  0
    2.7935   -1.0253   -1.1706 H   0  0  0  0  0  0  0  0  0  0  0  0
    1.7588   -3.0530   -1.1071 H   0  0  0  0  0  0  0  0  0  0  0  0
    4.0219    1.7003    0.6901 H   0  0  0  0  0  0  0  0  0  0  0  0
    3.7449    3.7148   -0.6959 H   0  0  0  0  0  0  0  0  0  0  0  0
    0.5419    4.5579   -1.9419 H   0  0  0  0  0  0  0  0  0  0  0  0
   -1.3658    2.4472   -0.9125 H   0  0  0  0  0  0  0  0  0  0  0  0
   -0.7717    1.5808    2.3326 H   0  0  0  0  0  0  0  0  0  0  0  0
   -2.8104    0.3841    2.9382 H   0  0  0  0  0  0  0  0  0  0  0  0
   -4.5786   -1.2122    2.4174 H   0  0  0  0  0  0  0  0  0  0  0  0
   -5.6277   -2.8258    0.8869 H   0  0  0  0  0  0  0  0  0  0  0  0
   -4.5999   -3.2895   -1.3221 H   0  0  0  0  0  0  0  0  0  0  0  0
   -2.5461   -2.1571   -1.9922 H   0  0  0  0  0  0  0  0  0  0  0  0
  1  2  1  0
  2  3  2  0
  3  4  1  0
  4  5  2  0
  5  6  1  0
  6  7  1  0
  7  8  1  0
  8  9  1  0
  5 10  1  0
 10 11  2  0
 11 12  1  0
 12 13  1  0
 12 14  2  0
 14 15  1  0
  3 16  1  0
 16 17  2  0
 17 18  1  0
 18 19  2  0
 19 20  1  0
 20 21  2  0
 21 22  1  0
 22 23  2  0
 23  2  1  0
 14  4  1  0
 23 18  1  0
  1 24  1  0
  1 25  1  0
  1 26  1  0
  6 27  1  0
  6 28  1  0
  7 29  1  0
  7 30  1  0
  8 31  1  0
  8 32  1  0
  9 33  1  0
 10 34  1  0
 11 35  1  0
 13 36  1  0
 15 37  1  0
 16 38  1  0
 17 39  1  0
 19 40  1  0
 20 41  1  0
 21 42  1  0
 22 43  1  0
M  END
$$$$
