
     RDKit          3D

 45 48  0  0  0  0  0  0  0  0999 V2000
   -1.5028   -4.5652    0.5048 O   0  0  0  0  0  0  0  0  0  0  0  0
   -1.7153   -3.5020   -0.0966 N   0  0  0  0  0  0  0  0  0  0  0  0
   -2.8248   -2.9502   -0.1625 O   0  0  0  0  0  0  0  0  0  0  0  0
   -0.5965   -2.8542   -0.7620 C   0  0  0  0  0  0  0  0  0  0  0  0
    0.3154   -3.6787   -1.2988 C   0  0  0  0  0  0  0  0  0  0  0  0
    1.4595   -3.3685   -1.9859 N   0  0  0  0  0  0  0  0  0  0  0  0
    2.0846   -2.2825   -1.6616 C   0  0  0  0  0  0  0  0  0  0  0  0
    1.7729   -1.2465   -0.7871 N   0  0  0  0  0  0  0  0  0  0  0  0
    2.8276   -0.4252   -0.2529 C   0  0  0  0  0  0  0  0  0  0  0  0
    4.1181   -0.9659   -0.0151 C   0  0  0  0  0  0  0  0  0  0  0  0
    5.1526   -0.1905    0.5228 C   0  0  0  0  0  0  0  0  0  0  0  0
    4.8830    1.1256    0.8246 C   0  0  0  0  0  0  0  0  0  0  0  0
    3.6439    1.6771    0.6231 C   0  0  0  0  0  0  0  0  0  0  0  0
    2.6045    0.9236    0.0966 C   0  0  0  0  0  0  0  0  0  0  0  0
    3.6686    3.0779    1.0673 C   0  0  0  0  0  0  0  0  0  0  0  0
    5.0560    3.3191    1.3826 O   0  0  0  0  0  0  0  0  0  0  0  0
    5.7672    2.0085    1.3650 O   0  0  0  0  0  0  0  0  0  0  0  0
    0.5378   -0.6464   -0.7821 N   0  0  0  0  0  0  0  0  0  0  0  0
   -0.5669   -1.3530   -0.8071 C   0  0  0  0  0  0  0  0  0  0  0  0
   -1.7553   -0.6263   -0.8539 N   0  0  0  0  0  0  0  0  0  0  0  0
   -1.8580    0.8086   -0.6084 C   0  0  0  0  0  0  0  0  0  0  0  0
   -1.7987    1.1038    0.8959 C   0  0  0  0  0  0  0  0  0  0  0  0
   -3.0601    0.6656    1.6388 C   0  0  0  0  0  0  0  0  0  0  0  0
   -4.3159    1.2601    1.0109 C   0  0  0  0  0  0  0  0  0  0  0  0
   -4.4136    0.9317   -0.4748 C   0  0  0  0  0  0  0  0  0  0  0  0
   -3.1531    1.3475   -1.2338 C   0  0  0  0  0  0  0  0  0  0  0  0
    0.1649   -4.7572   -1.2357 H   0  0  0  0  0  0  0  0  0  0  0  0
    3.0473   -2.1111   -2.1749 H   0  0  0  0  0  0  0  0  0  0  0  0
    4.3267   -2.0132   -0.2238 H   0  0  0  0  0  0  0  0  0  0  0  0
    6.1343   -0.6141    0.7053 H   0  0  0  0  0  0  0  0  0  0  0  0
    1.6315    1.3830   -0.0503 H   0  0  0  0  0  0  0  0  0  0  0  0
    3.3678    3.7691    0.2759 H   0  0  0  0  0  0  0  0  0  0  0  0
    3.0718    3.2350    1.9698 H   0  0  0  0  0  0  0  0  0  0  0  0
   -2.6119   -1.1533   -0.6684 H   0  0  0  0  0  0  0  0  0  0  0  0
   -1.0219    1.3167   -1.1042 H   0  0  0  0  0  0  0  0  0  0  0  0
   -0.9262    0.6224    1.3529 H   0  0  0  0  0  0  0  0  0  0  0  0
   -1.6683    2.1846    1.0363 H   0  0  0  0  0  0  0  0  0  0  0  0
   -3.1310   -0.4286    1.6390 H   0  0  0  0  0  0  0  0  0  0  0  0
   -2.9929    0.9773    2.6874 H   0  0  0  0  0  0  0  0  0  0  0  0
   -4.3090    2.3491    1.1434 H   0  0  0  0  0  0  0  0  0  0  0  0
   -5.2031    0.8818    1.5311 H   0  0  0  0  0  0  0  0  0  0  0  0
   -4.5886   -0.1432   -0.6011 H   0  0  0  0  0  0  0  0  0  0  0  0
   -5.2830    1.4417   -0.9057 H   0  0  0  0  0  0  0  0  0  0  0  0
   -3.1039    2.4440   -1.2485 H   0  0  0  0  0  0  0  0  0  0  0  0
   -3.2352    1.0220   -2.2780 H   0  0  0  0  0  0  0  0  0  0  0  0
  1  2  2  0
  2  3  1  0
  2  4  1  0
  4  5  2  0
  5  6  1  0
  6  7  2  0
  7  8  1  0
  8  9  1  0
  9 10  2  0
 10 11  1  0
 11 12  2  0
 12 13  1  0
 13 14  2  0
 13 15  1  0
 15 16  1  0
 16 17  1  0
  8 18  1  0
 18 19  2  0
 19 20  1  0
 20 21  1  0
 21 22  1  0
 22 23  1  0
 23 24  1  0
 24 25  1  0
 25 26  1  0
 19  4  1  0
 26 21  1  0
 14  9  1  0
 17 12  1  0
  5 27  1  0
  7 28  1  0
 10 29  1  0
 11 30  1  0
 14 31  1  0
 15 32  1  0
 15 33  1  0
 20 34  1  0
 21 35  1  0
 22 36  1  0
 22 37  1  0
 23 38  1  0
 23 39  1  0
 24 40  1  0
 24 41  1  0
 25 42  1  0
 25 43  1  0
 26 44  1  0
 26 45  1  0
M  CHG  2   2   1   3  -1
M  END
$$$$
