
     RDKit          3D

 49 52  0  0  0  0  0  0  0  0999 V2000
    5.4130    3.0034    1.4794 C   0  0  0  0  0  0  0  0  0  0  0  0
    4.5999    1.9273    0.9819 N   0  0  0  0  0  0  0  0  0  0  0  0
    3.2063    1.9228    0.9961 C   0  0  0  0  0  0  0  0  0  0  0  0
    2.4391    2.7756    1.4071 O   0  0  0  0  0  0  0  0  0  0  0  0
    2.8240    0.6064    0.3786 C   0  0  0  0  0  0  0  0  0  0  0  0
    1.5586    0.2027    0.2039 C   0  0  0  0  0  0  0  0  0  0  0  0
    0.4213    0.8914    0.5453 N   0  0  0  0  0  0  0  0  0  0  0  0
   -0.9267    0.5383    0.3864 C   0  0  0  0  0  0  0  0  0  0  0  0
   -1.3598   -0.6547   -0.1910 C   0  0  0  0  0  0  0  0  0  0  0  0
   -2.7280   -0.9425   -0.3172 C   0  0  0  0  0  0  0  0  0  0  0  0
   -3.7202   -0.0528    0.1200 C   0  0  0  0  0  0  0  0  0  0  0  0
   -5.0731   -0.3973   -0.0224 N   0  0  0  0  0  0  0  0  0  0  0  0
   -6.0747    0.3896    0.7295 C   0  0  0  0  0  0  0  0  0  0  0  0
   -7.4560   -0.2731    0.6097 C   0  0  0  0  0  0  0  0  0  0  0  0
   -7.8547   -0.4068   -0.7643 O   0  0  0  0  0  0  0  0  0  0  0  0
   -6.9042   -1.2188   -1.4721 C   0  0  0  0  0  0  0  0  0  0  0  0
   -5.4910   -0.6127   -1.4304 C   0  0  0  0  0  0  0  0  0  0  0  0
   -3.2778    1.1328    0.7154 C   0  0  0  0  0  0  0  0  0  0  0  0
   -1.9104    1.4243    0.8404 C   0  0  0  0  0  0  0  0  0  0  0  0
    4.0564   -0.0973    0.0311 C   0  0  0  0  0  0  0  0  0  0  0  0
    4.3026   -1.3278   -0.5553 C   0  0  0  0  0  0  0  0  0  0  0  0
    5.6387   -1.7229   -0.7521 C   0  0  0  0  0  0  0  0  0  0  0  0
    5.9532   -3.0473   -1.4094 C   0  0  0  0  0  0  0  0  0  0  0  0
    6.1135   -2.9286   -2.7554 F   0  0  0  0  0  0  0  0  0  0  0  0
    4.9772   -3.9796   -1.2274 F   0  0  0  0  0  0  0  0  0  0  0  0
    7.1004   -3.6129   -0.9422 F   0  0  0  0  0  0  0  0  0  0  0  0
    6.6895   -0.8568   -0.3639 C   0  0  0  0  0  0  0  0  0  0  0  0
    6.4288    0.3843    0.2273 C   0  0  0  0  0  0  0  0  0  0  0  0
    5.1073    0.7444    0.4163 C   0  0  0  0  0  0  0  0  0  0  0  0
    4.7845    3.8092    1.8690 H   0  0  0  0  0  0  0  0  0  0  0  0
    6.0525    2.6316    2.2854 H   0  0  0  0  0  0  0  0  0  0  0  0
    6.0301    3.3970    0.6664 H   0  0  0  0  0  0  0  0  0  0  0  0
    1.3727   -0.7642   -0.2496 H   0  0  0  0  0  0  0  0  0  0  0  0
    0.5924    1.8047    0.9742 H   0  0  0  0  0  0  0  0  0  0  0  0
   -0.6547   -1.3953   -0.5506 H   0  0  0  0  0  0  0  0  0  0  0  0
   -3.0120   -1.9015   -0.7433 H   0  0  0  0  0  0  0  0  0  0  0  0
   -5.8064    0.4458    1.7908 H   0  0  0  0  0  0  0  0  0  0  0  0
   -6.1324    1.4053    0.3180 H   0  0  0  0  0  0  0  0  0  0  0  0
   -8.2078    0.3421    1.1140 H   0  0  0  0  0  0  0  0  0  0  0  0
   -7.4620   -1.2631    1.0814 H   0  0  0  0  0  0  0  0  0  0  0  0
   -6.9104   -2.2282   -1.0431 H   0  0  0  0  0  0  0  0  0  0  0  0
   -7.2434   -1.2959   -2.5100 H   0  0  0  0  0  0  0  0  0  0  0  0
   -5.4937    0.3525   -1.9532 H   0  0  0  0  0  0  0  0  0  0  0  0
   -4.8151   -1.2893   -1.9639 H   0  0  0  0  0  0  0  0  0  0  0  0
   -3.9795    1.8736    1.0846 H   0  0  0  0  0  0  0  0  0  0  0  0
   -1.6227    2.3654    1.3038 H   0  0  0  0  0  0  0  0  0  0  0  0
    3.4838   -1.9763   -0.8560 H   0  0  0  0  0  0  0  0  0  0  0  0
    7.7249   -1.1584   -0.5249 H   0  0  0  0  0  0  0  0  0  0  0  0
    7.2461    1.0334    0.5214 H   0  0  0  0  0  0  0  0  0  0  0  0
  1  2  1  0
  2  3  1  0
  3  4  2  0
  3  5  1  0
  5  6  2  0
  6  7  1  0
  7  8  1  0
  8  9  2  0
  9 10  1  0
 10 11  2  0
 11 12  1  0
 12 13  1  0
 13 14  1  0
 14 15  1  0
 15 16  1  0
 16 17  1  0
 11 18  1  0
 18 19  2  0
  5 20  1  0
 20 21  2  0
 21 22  1  0
 22 23  1  0
 23 24  1  0
 23 25  1  0
 23 26  1  0
 22 27  2  0
 27 28  1  0
 28 29  2  0
 29  2  1  0
 19  8  1  0
 29 20  1  0
 17 12  1  0
  1 30  1  0
  1 31  1  0
  1 32  1  0
  6 33  1  0
  7 34  1  0
  9 35  1  0
 10 36  1  0
 13 37  1  0
 13 38  1  0
 14 39  1  0
 14 40  1  0
 16 41  1  0
 16 42  1  0
 17 43  1  0
 17 44  1  0
 18 45  1  0
 19 46  1  0
 21 47  1  0
 27 48  1  0
 28 49  1  0
M  END
$$$$
