
     RDKit          3D

 69 75  0  0  0  0  0  0  0  0999 V2000
    3.5138   -3.0213    4.1901 C   0  0  0  0  0  0  0  0  0  0  0  0
    3.3224   -2.0353    3.1527 N   0  0  0  0  0  0  0  0  0  0  0  0
    2.0957   -1.5222    2.9624 N   0  0  0  0  0  0  0  0  0  0  0  0
    2.2470   -0.6449    1.9561 C   0  0  0  0  0  0  0  0  0  0  0  0
    1.1041    0.1336    1.4762 C   0  0  0  0  0  0  0  0  0  0  0  0
    1.2337    1.4750    1.1241 C   0  0  0  0  0  0  0  0  0  0  0  0
    0.1243    2.2014    0.6752 C   0  0  0  0  0  0  0  0  0  0  0  0
   -1.1529    1.6090    0.5816 C   0  0  0  0  0  0  0  0  0  0  0  0
   -2.2428    2.4221    0.1406 N   0  0  0  0  0  0  0  0  0  0  0  0
   -2.1978    3.6877   -0.4130 C   0  0  0  0  0  0  0  0  0  0  0  0
   -3.5089    4.0422   -0.6098 C   0  0  0  0  0  0  0  0  0  0  0  0
   -4.3160    3.0414   -0.1761 N   0  0  0  0  0  0  0  0  0  0  0  0
   -3.5423    2.0680    0.2826 N   0  0  0  0  0  0  0  0  0  0  0  0
   -1.3025    0.2489    0.9422 C   0  0  0  0  0  0  0  0  0  0  0  0
   -2.5819   -0.5494    0.8292 C   0  0  0  0  0  0  0  0  0  0  0  0
   -2.8436   -0.7779   -0.5536 O   0  0  0  0  0  0  0  0  0  0  0  0
   -4.0435   -1.5267   -0.7723 C   0  0  0  0  0  0  0  0  0  0  0  0
   -5.2943   -0.6299   -0.7389 C   0  0  0  0  0  0  0  0  0  0  0  0
   -6.5394   -1.3415   -1.0913 N   0  0  0  0  0  0  0  0  0  0  0  0
   -6.9646   -2.2710   -0.0220 C   0  0  0  0  0  0  0  0  0  0  0  0
   -8.3168   -2.9268   -0.3513 C   0  0  0  0  0  0  0  0  0  0  0  0
   -9.3384   -1.9431   -0.5561 O   0  0  0  0  0  0  0  0  0  0  0  0
   -8.9597   -1.0614   -1.6214 C   0  0  0  0  0  0  0  0  0  0  0  0
   -7.6270   -0.3607   -1.3157 C   0  0  0  0  0  0  0  0  0  0  0  0
   -0.1605   -0.4614    1.3834 C   0  0  0  0  0  0  0  0  0  0  0  0
    3.6021   -0.6263    1.4969 C   0  0  0  0  0  0  0  0  0  0  0  0
    4.3297    0.0339    0.4922 C   0  0  0  0  0  0  0  0  0  0  0  0
    5.6961   -0.2357    0.3929 C   0  0  0  0  0  0  0  0  0  0  0  0
    6.5664    0.4169   -0.6124 C   0  0  0  0  0  0  0  0  0  0  0  0
    7.6768   -0.2687   -1.1470 C   0  0  0  0  0  0  0  0  0  0  0  0
    8.5379    0.2991   -2.0976 C   0  0  0  0  0  0  0  0  0  0  0  0
    8.2548    1.6028   -2.5032 C   0  0  0  0  0  0  0  0  0  0  0  0
    8.8800    2.4399   -3.3896 N   0  0  0  0  0  0  0  0  0  0  0  0
    8.2982    3.6475   -3.5089 N   0  0  0  0  0  0  0  0  0  0  0  0
    7.2658    3.5770   -2.6642 C   0  0  0  0  0  0  0  0  0  0  0  0
    7.1807    2.3293   -2.0076 C   0  0  0  0  0  0  0  0  0  0  0  0
    6.3299    1.7377   -1.0535 C   0  0  0  0  0  0  0  0  0  0  0  0
    6.3203   -1.1217    1.2128 N   0  0  0  0  0  0  0  0  0  0  0  0
    5.6291   -1.7788    2.1719 C   0  0  0  0  0  0  0  0  0  0  0  0
    4.2731   -1.5325    2.3090 C   0  0  0  0  0  0  0  0  0  0  0  0
    3.8332   -2.5018    5.0967 H   0  0  0  0  0  0  0  0  0  0  0  0
    2.5706   -3.5461    4.3657 H   0  0  0  0  0  0  0  0  0  0  0  0
    4.2727   -3.7389    3.8706 H   0  0  0  0  0  0  0  0  0  0  0  0
    2.1893    1.9841    1.2186 H   0  0  0  0  0  0  0  0  0  0  0  0
    0.2925    3.2482    0.4376 H   0  0  0  0  0  0  0  0  0  0  0  0
   -1.2822    4.2095   -0.6303 H   0  0  0  0  0  0  0  0  0  0  0  0
   -3.9071    4.9534   -1.0321 H   0  0  0  0  0  0  0  0  0  0  0  0
   -3.4099   -0.0555    1.3446 H   0  0  0  0  0  0  0  0  0  0  0  0
   -2.4619   -1.5226    1.3229 H   0  0  0  0  0  0  0  0  0  0  0  0
   -3.9533   -1.9755   -1.7678 H   0  0  0  0  0  0  0  0  0  0  0  0
   -4.1036   -2.3484   -0.0509 H   0  0  0  0  0  0  0  0  0  0  0  0
   -5.3909   -0.1437    0.2393 H   0  0  0  0  0  0  0  0  0  0  0  0
   -5.1227    0.1801   -1.4603 H   0  0  0  0  0  0  0  0  0  0  0  0
   -6.2252   -3.0671    0.1098 H   0  0  0  0  0  0  0  0  0  0  0  0
   -7.0565   -1.7308    0.9293 H   0  0  0  0  0  0  0  0  0  0  0  0
   -8.2424   -3.5632   -1.2414 H   0  0  0  0  0  0  0  0  0  0  0  0
   -8.6329   -3.5604    0.4836 H   0  0  0  0  0  0  0  0  0  0  0  0
   -8.9047   -1.6289   -2.5580 H   0  0  0  0  0  0  0  0  0  0  0  0
   -9.7537   -0.3164   -1.7313 H   0  0  0  0  0  0  0  0  0  0  0  0
   -7.3733    0.2912   -2.1596 H   0  0  0  0  0  0  0  0  0  0  0  0
   -7.7522    0.2688   -0.4247 H   0  0  0  0  0  0  0  0  0  0  0  0
   -0.2559   -1.5142    1.6533 H   0  0  0  0  0  0  0  0  0  0  0  0
    3.8362    0.7120   -0.1926 H   0  0  0  0  0  0  0  0  0  0  0  0
    7.8827   -1.2864   -0.8125 H   0  0  0  0  0  0  0  0  0  0  0  0
    9.3839   -0.2573   -2.4880 H   0  0  0  0  0  0  0  0  0  0  0  0
    9.7079    2.2480   -3.9419 H   0  0  0  0  0  0  0  0  0  0  0  0
    6.6160    4.4358   -2.5591 H   0  0  0  0  0  0  0  0  0  0  0  0
    5.5078    2.3228   -0.6523 H   0  0  0  0  0  0  0  0  0  0  0  0
    6.1866   -2.4729    2.7884 H   0  0  0  0  0  0  0  0  0  0  0  0
  1  2  1  0
  2  3  1  0
  3  4  2  0
  4  5  1  0
  5  6  2  0
  6  7  1  0
  7  8  2  0
  8  9  1  0
  9 10  1  0
 10 11  2  0
 11 12  1  0
 12 13  2  0
  8 14  1  0
 14 15  1  0
 15 16  1  0
 16 17  1  0
 17 18  1  0
 18 19  1  0
 19 20  1  0
 20 21  1  0
 21 22  1  0
 22 23  1  0
 23 24  1  0
 14 25  2  0
  4 26  1  0
 26 27  2  0
 27 28  1  0
 28 29  1  0
 29 30  2  0
 30 31  1  0
 31 32  2  0
 32 33  1  0
 33 34  1  0
 34 35  2  0
 35 36  1  0
 36 37  2  0
 28 38  2  0
 38 39  1  0
 39 40  2  0
 40  2  1  0
 25  5  1  0
 40 26  1  0
 13  9  1  0
 24 19  1  0
 37 29  1  0
 36 32  1  0
  1 41  1  0
  1 42  1  0
  1 43  1  0
  6 44  1  0
  7 45  1  0
 10 46  1  0
 11 47  1  0
 15 48  1  0
 15 49  1  0
 17 50  1  0
 17 51  1  0
 18 52  1  0
 18 53  1  0
 20 54  1  0
 20 55  1  0
 21 56  1  0
 21 57  1  0
 23 58  1  0
 23 59  1  0
 24 60  1  0
 24 61  1  0
 25 62  1  0
 27 63  1  0
 30 64  1  0
 31 65  1  0
 33 66  1  0
 35 67  1  0
 37 68  1  0
 39 69  1  0
M  END
$$$$
