
     RDKit          3D

 39 42  0  0  0  0  0  0  0  0999 V2000
   -5.2244    0.0729   -1.1491 C   0  0  0  0  0  0  0  0  0  0  0  0
   -3.9689   -0.1606   -0.3531 C   0  0  0  0  0  0  0  0  0  0  0  0
   -2.9698    0.8339   -0.3770 C   0  0  0  0  0  0  0  0  0  0  0  0
   -1.7702    0.6901    0.3350 C   0  0  0  0  0  0  0  0  0  0  0  0
   -0.7544    1.7413    0.2816 C   0  0  0  0  0  0  0  0  0  0  0  0
   -1.1058    3.0379    0.3293 N   0  0  0  0  0  0  0  0  0  0  0  0
    0.0584    3.7020    0.2849 N   0  0  0  0  0  0  0  0  0  0  0  0
    1.1554    2.8988    0.1807 C   0  0  0  0  0  0  0  0  0  0  0  0
    2.5054    3.1838    0.1006 C   0  0  0  0  0  0  0  0  0  0  0  0
    3.3792    2.1561   -0.0090 N   0  0  0  0  0  0  0  0  0  0  0  0
    2.9381    0.8705   -0.0550 C   0  0  0  0  0  0  0  0  0  0  0  0
    3.9923   -0.1513   -0.1946 C   0  0  0  0  0  0  0  0  0  0  0  0
    3.7866   -1.3899   -0.8218 C   0  0  0  0  0  0  0  0  0  0  0  0
    4.8223   -2.3207   -0.9180 C   0  0  0  0  0  0  0  0  0  0  0  0
    6.0542   -1.9919   -0.3826 C   0  0  0  0  0  0  0  0  0  0  0  0
    6.3107   -0.8173    0.2242 N   0  0  0  0  0  0  0  0  0  0  0  0
    5.2825    0.0686    0.2949 C   0  0  0  0  0  0  0  0  0  0  0  0
    1.5822    0.5457    0.0330 C   0  0  0  0  0  0  0  0  0  0  0  0
    0.6648    1.6017    0.1629 C   0  0  0  0  0  0  0  0  0  0  0  0
   -1.5764   -0.4611    1.1013 C   0  0  0  0  0  0  0  0  0  0  0  0
   -2.5568   -1.4578    1.1387 C   0  0  0  0  0  0  0  0  0  0  0  0
   -3.7555   -1.3242    0.4149 C   0  0  0  0  0  0  0  0  0  0  0  0
   -4.7798   -2.4117    0.4823 C   0  0  0  0  0  0  0  0  0  0  0  0
   -5.8795   -2.4268   -0.0362 O   0  0  0  0  0  0  0  0  0  0  0  0
   -4.3664   -3.4664    1.2119 O   0  0  0  0  0  0  0  0  0  0  0  0
   -6.0953    0.1122   -0.4874 H   0  0  0  0  0  0  0  0  0  0  0  0
   -5.1866    1.0258   -1.6884 H   0  0  0  0  0  0  0  0  0  0  0  0
   -5.3547   -0.7136   -1.8990 H   0  0  0  0  0  0  0  0  0  0  0  0
   -3.1270    1.7412   -0.9609 H   0  0  0  0  0  0  0  0  0  0  0  0
    0.0317    4.7148    0.3245 H   0  0  0  0  0  0  0  0  0  0  0  0
    2.9184    4.1849    0.1173 H   0  0  0  0  0  0  0  0  0  0  0  0
    2.8253   -1.6410   -1.2623 H   0  0  0  0  0  0  0  0  0  0  0  0
    4.6704   -3.2771   -1.4057 H   0  0  0  0  0  0  0  0  0  0  0  0
    6.8915   -2.6817   -0.4326 H   0  0  0  0  0  0  0  0  0  0  0  0
    5.5381    1.0051    0.7873 H   0  0  0  0  0  0  0  0  0  0  0  0
    1.2401   -0.4812    0.0104 H   0  0  0  0  0  0  0  0  0  0  0  0
   -0.6759   -0.5896    1.6969 H   0  0  0  0  0  0  0  0  0  0  0  0
   -2.3743   -2.3384    1.7514 H   0  0  0  0  0  0  0  0  0  0  0  0
   -5.1259   -4.0851    1.1686 H   0  0  0  0  0  0  0  0  0  0  0  0
  1  2  1  0
  2  3  2  0
  3  4  1  0
  4  5  1  0
  5  6  2  0
  6  7  1  0
  7  8  1  0
  8  9  2  0
  9 10  1  0
 10 11  2  0
 11 12  1  0
 12 13  2  0
 13 14  1  0
 14 15  2  0
 15 16  1  0
 16 17  2  0
 11 18  1  0
 18 19  2  0
  4 20  2  0
 20 21  1  0
 21 22  2  0
 22 23  1  0
 23 24  2  0
 23 25  1  0
 22  2  1  0
 19  5  1  0
 19  8  1  0
 17 12  1  0
  1 26  1  0
  1 27  1  0
  1 28  1  0
  3 29  1  0
  7 30  1  0
  9 31  1  0
 13 32  1  0
 14 33  1  0
 15 34  1  0
 17 35  1  0
 18 36  1  0
 20 37  1  0
 21 38  1  0
 25 39  1  0
M  END
$$$$
