REMARK SMILES COc1ccc(O)c(C(=O)c2ccc(C(=O)O[C@@H]3CCCNC[C@H]3NC(=O)c3cnc(F)c(F)c3)cc2)c1F
REMARK SMILES IDX 17 1 15 2 16 3 14 4 11 5 12 6 37 7 13 8 36 9 9 10 10 11 8 12
REMARK SMILES IDX 3 13 4 14 38 15 5 16 6 17 39 18 2 19 1 20 7 21 18 23 24 25
REMARK SMILES IDX 23 26 22 27 21 29 20 30 19 31 25 33 26 34 27 36 28 37 29 38
REMARK SMILES IDX 35 39 30 40 33 41 31 42 34 43 32 44
REMARK H PARENT 7 22 22 28 25 35
REMARK Flexibility Score:   99.900
ROOT
ATOM      1  O   UNL     1      -1.252  -1.999   0.662  1.00  0.00    -0.457 OA
ENDROOT
BRANCH   1   2
ATOM      2  C   UNL     1      -0.922  -0.961   1.471  1.00  0.00     0.338 C 
ATOM      3  O   UNL     1      -1.702  -0.284   2.124  1.00  0.00    -0.246 OA
BRANCH   2   4
ATOM      4  C   UNL     1       0.544  -0.730   1.446  1.00  0.00     0.060 A 
ATOM      5  C   UNL     1       3.287  -0.173   1.430  1.00  0.00     0.023 A 
ATOM      6  C   UNL     1       2.491   0.269   2.493  1.00  0.00     0.013 A 
ATOM      7  C   UNL     1       2.722  -0.920   0.390  1.00  0.00     0.013 A 
ATOM      8  C   UNL     1       1.119   0.004   2.493  1.00  0.00     0.016 A 
ATOM      9  C   UNL     1       1.351  -1.194   0.397  1.00  0.00     0.016 A 
BRANCH   5  10
ATOM     10  C   UNL     1       4.738   0.115   1.467  1.00  0.00     0.199 C 
ATOM     11  O   UNL     1       5.351  -0.078   2.518  1.00  0.00    -0.288 OA
BRANCH  10  12
ATOM     12  C   UNL     1       5.496   0.576   0.281  1.00  0.00     0.104 A 
ATOM     13  C   UNL     1       5.628   1.745  -1.856  1.00  0.00     0.155 A 
ATOM     14  C   UNL     1       6.980   1.413  -1.950  1.00  0.00     0.053 A 
ATOM     15  C   UNL     1       4.898   1.325  -0.734  1.00  0.00     0.179 A 
ATOM     16  C   UNL     1       7.596   0.688  -0.927  1.00  0.00     0.051 A 
ATOM     17  C   UNL     1       6.861   0.284   0.185  1.00  0.00     0.130 A 
ATOM     18  F   UNL     1       3.609   1.684  -0.639  1.00  0.00    -0.202 F 
BRANCH  13  19
ATOM     19  O   UNL     1       4.921   2.461  -2.785  1.00  0.00    -0.494 OA
ATOM     20  C   UNL     1       5.635   2.964  -3.903  1.00  0.00     0.278 C 
ENDBRANCH  13  19
BRANCH  17  21
ATOM     21  O   UNL     1       7.551  -0.400   1.150  1.00  0.00    -0.507 OA
ATOM     22  H   UNL     1       6.977  -0.457   1.950  1.00  0.00     0.293 HD
ENDBRANCH  17  21
ENDBRANCH  10  12
ENDBRANCH   5  10
ENDBRANCH   2   4
ENDBRANCH   1   2
BRANCH   1  23
ATOM     23  C   UNL     1      -2.669  -2.314   0.556  1.00  0.00     0.200 CG0
ATOM     24  G   UNL     1      -2.752  -3.808   0.222  1.00  0.00     0.000 G0
BRANCH  23  25
ATOM     25  C   UNL     1      -3.297  -1.379  -0.508  1.00  0.00     0.137 C 
BRANCH  25  26
ATOM     26  C   UNL     1      -4.578  -1.929  -1.170  1.00  0.00     0.109 C 
BRANCH  26  27
ATOM     27  N   UNL     1      -5.516  -2.575  -0.240  1.00  0.00    -0.315 NA
ATOM     28  H   UNL     1      -6.456  -2.425  -0.610  1.00  0.00     0.122 HD
BRANCH  27  29
ATOM     29  C   UNL     1      -5.295  -4.021  -0.176  1.00  0.00     0.081 C 
BRANCH  29  30
ATOM     30  C   UNL     1      -4.080  -4.435   0.646  1.00  0.00     0.019 C 
BRANCH  30  31
ATOM     31  C   UNL     1      -2.752  -3.808   0.222  1.00  0.00     0.049 CG0
ATOM     32  G   UNL     1      -2.669  -2.314   0.556  1.00  0.00     0.000 G0
ENDBRANCH  30  31
ENDBRANCH  29  30
ENDBRANCH  27  29
ENDBRANCH  26  27
ENDBRANCH  25  26
BRANCH  25  33
ATOM     33  N   UNL     1      -3.525  -0.040   0.065  1.00  0.00    -0.344 N 
ATOM     34  C   UNL     1      -3.637   1.075  -0.734  1.00  0.00     0.253 C 
ATOM     35  H   UNL     1      -3.256   0.075   1.041  1.00  0.00     0.164 HD
ATOM     36  O   UNL     1      -3.643   1.018  -1.960  1.00  0.00    -0.269 OA
BRANCH  34  37
ATOM     37  C   UNL     1      -3.707   2.390  -0.058  1.00  0.00     0.061 A 
ATOM     38  C   UNL     1      -4.117   2.542   1.262  1.00  0.00     0.128 A 
ATOM     39  C   UNL     1      -3.374   3.541  -0.777  1.00  0.00     0.059 A 
ATOM     40  N   UNL     1      -4.195   3.736   1.902  1.00  0.00    -0.225 NA
ATOM     41  C   UNL     1      -3.446   4.773  -0.145  1.00  0.00     0.178 A 
ATOM     42  C   UNL     1      -3.853   4.828   1.179  1.00  0.00     0.248 A 
ATOM     43  F   UNL     1      -3.127   5.887  -0.816  1.00  0.00    -0.202 F 
ATOM     44  F   UNL     1      -3.920   6.018   1.791  1.00  0.00    -0.182 F 
ENDBRANCH  34  37
ENDBRANCH  25  33
ENDBRANCH  23  25
ENDBRANCH   1  23
TORSDOF 9
