MODEL        1USER    Run = 1USERUSER    Estimated Free Energy of Binding    =  -7.32 kcal/mol  [=(1)+(2)+(3)-(4)]USERUSER    (1) Final Intermolecular Energy     = -11.79 kcal/molUSER        vdW + Hbond + desolv Energy     = -12.61 kcal/molUSER        Electrostatic Energy            =  -0.22 kcal/molUSER        Moving Ligand-Fixed Receptor    = -12.82 kcal/molUSER        Moving Ligand-Moving Receptor   =  +1.03 kcal/molUSER    (2) Final Total Internal Energy     =  -3.64 kcal/molUSER    (3) Torsional Free Energy           =  +4.47 kcal/molUSER    (4) Unbound System's Energy         =  -3.64 kcal/molUSERUSERREMARK SMILES COc1ccc(O)c(C(=O)c2ccc(C(=O)O[C@@H]3CCCNC[C@H]3NC(=O)c3cnc(F)c(F)c3)cc2)c1FREMARK SMILES IDX 17 1 15 2 16 3 14 4 11 5 12 6 37 7 13 8 36 9 9 10 10 11 8 12REMARK SMILES IDX 3 13 4 14 38 15 5 16 6 17 39 18 2 19 1 20 7 21 18 23 24 25REMARK SMILES IDX 23 26 22 27 21 29 20 30 19 31 25 33 26 34 27 36 28 37 29 38REMARK SMILES IDX 35 39 30 40 33 41 31 42 34 43 32 44REMARK H PARENT 7 22 22 28 25 35REMARK Flexibility Score:   99.900USER                              x       y       z     vdW  Elec       q    TypeUSER                           _______ _______ _______ _____ _____    ______ ____ROOTATOM      1  O   UNL     1      37.278  44.880  16.187 -0.08 +0.16    -0.457 OA ENDROOTBRANCH   1   2ATOM      2  C   UNL     1      36.737  44.978  17.428 -0.17 -0.11    +0.338 C  ATOM      3  O   UNL     1      37.288  45.437  18.417 -0.26 +0.05    -0.246 OA BRANCH   2   4ATOM      4  C   UNL     1      35.361  44.422  17.438 -0.27 -0.02    +0.060 A  ATOM      5  C   UNL     1      32.751  43.416  17.338 -0.30 -0.01    +0.023 A  ATOM      6  C   UNL     1      33.631  43.179  16.277 -0.34 -0.01    +0.013 A  ATOM      7  C   UNL     1      33.180  44.128  18.464 -0.36 -0.00    +0.013 A  ATOM      8  C   UNL     1      34.929  43.694  16.320 -0.36 -0.01    +0.016 A  ATOM      9  C   UNL     1      34.482  44.634  18.511 -0.36 -0.01    +0.016 A  BRANCH   5  10ATOM     10  C   UNL     1      31.387  42.846  17.265 -0.22 -0.06    +0.199 C  ATOM     11  O   UNL     1      30.490  43.525  16.763 -0.17 +0.08    -0.288 OA BRANCH  10  12ATOM     12  C   UNL     1      31.064  41.475  17.722 -0.24 -0.02    +0.104 A  ATOM     13  C   UNL     1      31.312  39.626  19.294 -0.29 +0.02    +0.155 A  ATOM     14  C   UNL     1      30.424  38.865  18.534 -0.36 +0.01    +0.053 A  ATOM     15  C   UNL     1      31.621  40.931  18.881 -0.21 -0.00    +0.179 A  ATOM     16  C   UNL     1      29.838  39.409  17.388 -0.28 +0.01    +0.051 A  ATOM     17  C   UNL     1      30.148  40.708  16.994 -0.28 -0.02    +0.130 A  ATOM     18  F   UNL     1      32.447  41.664  19.642 -0.08 -0.02    -0.202 F  BRANCH  13  19ATOM     19  O   UNL     1      31.936  39.208  20.440 -0.95 -0.17    -0.494 OA ATOM     20  C   UNL     1      31.823  37.835  20.780 -0.24 +0.06    +0.278 C  ENDBRANCH  13  19BRANCH  17  21ATOM     21  O   UNL     1      29.509  41.169  15.873 -0.15 +0.16    -0.507 OA ATOM     22  H   UNL     1      29.684  42.136  15.800 +0.17 -0.14    +0.293 HD ENDBRANCH  17  21ENDBRANCH  10  12ENDBRANCH   5  10ENDBRANCH   2   4ENDBRANCH   1   2BRANCH   1  23ATOM     23  C   UNL     1      37.003  45.977  15.271 -0.29 -0.10    +0.200 CG0ATOM     24  G   UNL     1      36.645  45.332  13.927 +0.00 +0.00    +0.000 G0 BRANCH  23  25ATOM     25  C   UNL     1      38.245  46.902  15.232 -0.39 -0.06    +0.137 C  BRANCH  25  26ATOM     26  C   UNL     1      37.942  48.368  14.856 -0.52 -0.07    +0.109 C  BRANCH  26  27ATOM     27  N   UNL     1      37.471  48.559  13.477 -0.59 +0.12    -0.315 NA ATOM     28  H   UNL     1      38.048  49.293  13.062 -0.18 -0.02    +0.122 HD BRANCH  27  29ATOM     29  C   UNL     1      37.659  47.348  12.675 -0.50 -0.02    +0.081 C  BRANCH  29  30ATOM     30  C   UNL     1      36.520  46.341  12.784 -0.66 -0.01    +0.019 C  BRANCH  30  31ATOM     31  C   UNL     1      36.642  45.326  13.920 -0.46 -0.02    +0.049 CG0ATOM     32  G   UNL     1      37.005  45.979  15.260 +0.00 +0.00    +0.000 G0 ENDBRANCH  30  31ENDBRANCH  29  30ENDBRANCH  27  29ENDBRANCH  26  27ENDBRANCH  25  26BRANCH  25  33ATOM     33  N   UNL     1      38.979  46.819  16.508 -0.19 +0.11    -0.344 N  ATOM     34  C   UNL     1      40.301  47.190  16.603 -0.38 -0.04    +0.253 C  ATOM     35  H   UNL     1      38.594  46.176  17.199 +0.10 -0.05    +0.164 HD ATOM     36  O   UNL     1      40.922  47.689  15.670 -0.35 +0.03    -0.269 OA BRANCH  34  37ATOM     37  C   UNL     1      40.990  46.922  17.886 -0.48 -0.01    +0.061 A  ATOM     38  C   UNL     1      42.090  47.653  18.322 -0.41 -0.00    +0.128 A  ATOM     39  C   UNL     1      40.541  45.871  18.691 -0.43 -0.00    +0.059 A  ATOM     40  N   UNL     1      42.742  47.424  19.489 -0.39 -0.03    -0.225 NA ATOM     41  C   UNL     1      41.192  45.617  19.888 -0.29 +0.02    +0.178 A  ATOM     42  C   UNL     1      42.272  46.407  20.249 -0.23 +0.05    +0.248 A  ATOM     43  F   UNL     1      40.774  44.618  20.675 -0.08 -0.01    -0.202 F  ATOM     44  F   UNL     1      42.899  46.163  21.408 -0.09 -0.06    -0.182 F  ENDBRANCH  34  37ENDBRANCH  25  33ENDBRANCH  23  25ENDBRANCH   1  23TORSDOF 9TERENDMDL