REMARK SMILES COc1ccc(O)c(C(=O)c2ccc(C(=O)N[C@@H]3CCCN(C(=O)OC(C)(C)C)C[C@H]3NC(=O)c3ccncc3)cc2)c1F
REMARK SMILES IDX 18 1 17 3 15 4 16 5 14 7 11 8 12 9 42 10 13 11 41 12 9 13
REMARK SMILES IDX 10 14 8 15 3 16 4 17 43 18 5 19 6 20 44 21 2 22 1 23 7 24
REMARK SMILES IDX 31 26 30 27 22 28 21 29 20 30 19 31 23 33 24 34 25 35 26 36
REMARK SMILES IDX 27 37 28 38 29 39 32 40 33 41 34 43 35 44 36 45 40 46 37 47
REMARK SMILES IDX 39 48 38 49
REMARK H PARENT 17 6 7 25 32 42
REMARK Flexibility Score:  100.900
ROOT
ATOM      1  C   UNL     1      -1.157   0.981  -0.151  1.00  0.00     0.106 CG0
ATOM      2  G   UNL     1      -1.823   0.596   1.189  1.00  0.00     0.000 G0
ENDROOT
BRANCH   1   3
ATOM      3  N   UNL     1       0.128   0.299  -0.339  1.00  0.00    -0.347 N 
ATOM      4  C   UNL     1       1.226   0.594   0.447  1.00  0.00     0.251 C 
ATOM      5  O   UNL     1       1.220   1.385   1.380  1.00  0.00    -0.269 OA
ATOM      6  H   UNL     1       0.312  -0.148  -1.231  1.00  0.00     0.164 HD
BRANCH   4   7
ATOM      7  C   UNL     1       2.475  -0.124   0.091  1.00  0.00     0.039 A 
ATOM      8  C   UNL     1       4.881  -1.450  -0.498  1.00  0.00     0.023 A 
ATOM      9  C   UNL     1       3.651  -2.113  -0.630  1.00  0.00     0.013 A 
ATOM     10  C   UNL     1       4.899  -0.118  -0.065  1.00  0.00     0.013 A 
ATOM     11  C   UNL     1       2.452  -1.456  -0.339  1.00  0.00     0.014 A 
ATOM     12  C   UNL     1       3.698   0.537   0.237  1.00  0.00     0.014 A 
BRANCH   8  13
ATOM     13  C   UNL     1       6.122  -2.211  -0.821  1.00  0.00     0.199 C 
ATOM     14  O   UNL     1       6.069  -3.400  -1.129  1.00  0.00    -0.288 OA
BRANCH  13  15
ATOM     15  C   UNL     1       7.436  -1.559  -0.782  1.00  0.00     0.104 A 
ATOM     16  C   UNL     1       9.401  -0.922   0.491  1.00  0.00     0.155 A 
ATOM     17  C   UNL     1       9.969  -0.405  -0.678  1.00  0.00     0.053 A 
ATOM     18  C   UNL     1       8.125  -1.496   0.429  1.00  0.00     0.179 A 
ATOM     19  C   UNL     1       9.274  -0.461  -1.893  1.00  0.00     0.051 A 
ATOM     20  C   UNL     1       8.008  -1.039  -1.943  1.00  0.00     0.130 A 
ATOM     21  F   UNL     1       7.557  -1.983   1.546  1.00  0.00    -0.202 F 
BRANCH  16  22
ATOM     22  O   UNL     1       9.984  -0.905   1.729  1.00  0.00    -0.494 OA
ATOM     23  C   UNL     1      11.356  -0.539   1.801  1.00  0.00     0.278 C 
ENDBRANCH  16  22
BRANCH  20  24
ATOM     24  O   UNL     1       7.318  -1.079  -3.121  1.00  0.00    -0.507 OA
ATOM     25  H   UNL     1       7.894  -0.797  -3.853  1.00  0.00     0.293 HD
ENDBRANCH  20  24
ENDBRANCH  13  15
ENDBRANCH   8  13
ENDBRANCH   4   7
ENDBRANCH   1   3
BRANCH   1  26
ATOM     26  C   UNL     1      -2.109   0.829  -1.383  1.00  0.00     0.124 C 
BRANCH  26  27
ATOM     27  C   UNL     1      -2.518  -0.627  -1.692  1.00  0.00     0.150 C 
BRANCH  27  28
ATOM     28  N   UNL     1      -3.103  -1.343  -0.562  1.00  0.00    -0.306 N 
BRANCH  28  29
ATOM     29  C   UNL     1      -2.172  -1.875   0.421  1.00  0.00     0.123 C 
BRANCH  29  30
ATOM     30  C   UNL     1      -1.876  -0.894   1.553  1.00  0.00     0.024 C 
BRANCH  30  31
ATOM     31  C   UNL     1      -1.823   0.596   1.189  1.00  0.00     0.029 CG0
ATOM     32  G   UNL     1      -1.157   0.981  -0.151  1.00  0.00     0.000 G0
ENDBRANCH  30  31
ENDBRANCH  29  30
ENDBRANCH  28  29
BRANCH  28  33
ATOM     33  C   UNL     1      -4.449  -1.176  -0.267  1.00  0.00     0.410 C 
ATOM     34  O   UNL     1      -5.191  -0.453  -0.924  1.00  0.00    -0.224 OA
BRANCH  33  35
ATOM     35  O   UNL     1      -4.816  -1.861   0.845  1.00  0.00    -0.444 OA
BRANCH  35  36
ATOM     36  C   UNL     1      -6.139  -1.736   1.417  1.00  0.00     0.106 C 
ATOM     37  C   UNL     1      -7.212  -2.284   0.475  1.00  0.00     0.056 C 
ATOM     38  C   UNL     1      -6.094  -2.604   2.683  1.00  0.00     0.056 C 
ATOM     39  C   UNL     1      -6.427  -0.290   1.831  1.00  0.00     0.056 C 
ENDBRANCH  35  36
ENDBRANCH  33  35
ENDBRANCH  28  33
ENDBRANCH  27  28
ENDBRANCH  26  27
BRANCH  26  40
ATOM     40  N   UNL     1      -3.305   1.679  -1.286  1.00  0.00    -0.345 N 
ATOM     41  C   UNL     1      -3.247   3.044  -1.462  1.00  0.00     0.251 C 
ATOM     42  H   UNL     1      -4.194   1.202  -1.172  1.00  0.00     0.164 HD
ATOM     43  O   UNL     1      -2.194   3.626  -1.704  1.00  0.00    -0.269 OA
BRANCH  41  44
ATOM     44  C   UNL     1      -4.519   3.820  -1.368  1.00  0.00     0.042 A 
ATOM     45  C   UNL     1      -5.746   3.258  -1.015  1.00  0.00     0.034 A 
ATOM     46  C   UNL     1      -4.461   5.187  -1.656  1.00  0.00     0.034 A 
ATOM     47  C   UNL     1      -6.856   4.085  -0.978  1.00  0.00     0.112 A 
ATOM     48  C   UNL     1      -5.625   5.926  -1.588  1.00  0.00     0.112 A 
ATOM     49  N   UNL     1      -6.823   5.404  -1.258  1.00  0.00    -0.265 NA
ENDBRANCH  41  44
ENDBRANCH  26  40
ENDBRANCH   1  26
TORSDOF 11
