MODEL        1USER    Run = 1USERUSER    Estimated Free Energy of Binding    =  -6.53 kcal/mol  [=(1)+(2)+(3)-(4)]USERUSER    (1) Final Intermolecular Energy     = -11.90 kcal/molUSER        vdW + Hbond + desolv Energy     = -12.13 kcal/molUSER        Electrostatic Energy            =  -0.35 kcal/molUSER        Moving Ligand-Fixed Receptor    = -12.48 kcal/molUSER        Moving Ligand-Moving Receptor   =  +0.58 kcal/molUSER    (2) Final Total Internal Energy     =  -3.27 kcal/molUSER    (3) Torsional Free Energy           =  +5.37 kcal/molUSER    (4) Unbound System's Energy         =  -3.27 kcal/molUSERUSERREMARK SMILES COc1ccc(O)c(C(=O)c2ccc(C(=O)O[C@@H]3CCCN(C(=O)C(F)(F)F)C[C@H]3NC(=O)c3ccc(C#N)nc3)cc2)c1FREMARK SMILES IDX 17 1 15 2 16 3 14 4 11 5 12 6 43 7 13 8 42 9 9 10 10 11 8 12REMARK SMILES IDX 3 13 4 14 44 15 5 16 6 17 45 18 2 19 1 20 7 21 18 23 30 25REMARK SMILES IDX 29 26 22 27 21 28 20 29 19 30 23 32 24 33 25 34 26 35 27 36REMARK SMILES IDX 28 37 31 38 32 39 33 41 34 42 35 43 41 44 36 45 40 46 37 47REMARK SMILES IDX 38 48 39 49REMARK H PARENT 7 22 31 40REMARK Flexibility Score:   99.900USER                              x       y       z     vdW  Elec       q    TypeUSER                           _______ _______ _______ _____ _____    ______ ____ROOTATOM      1  O   UNL     1      38.545  45.095  18.390 -0.14 +0.06    -0.457 OA ENDROOTBRANCH   1   2ATOM      2  C   UNL     1      39.808  44.677  18.661 -0.23 -0.01    +0.338 C  ATOM      3  O   UNL     1      40.440  43.864  18.004 +0.04 +0.00    -0.246 OA BRANCH   2   4ATOM      4  C   UNL     1      40.339  45.362  19.868 -0.37 +0.00    +0.060 A  ATOM      5  C   UNL     1      41.274  46.626  22.202 -0.19 +0.00    +0.023 A  ATOM      6  C   UNL     1      42.018  46.692  21.017 -0.28 +0.00    +0.013 A  ATOM      7  C   UNL     1      40.055  45.933  22.207 -0.25 +0.00    +0.013 A  ATOM      8  C   UNL     1      41.555  46.058  19.857 -0.41 +0.00    +0.016 A  ATOM      9  C   UNL     1      39.587  45.310  21.047 -0.33 +0.00    +0.016 A  BRANCH   5  10ATOM     10  C   UNL     1      41.720  47.269  23.471 -0.19 +0.02    +0.199 C  ATOM     11  O   UNL     1      40.914  47.538  24.358 -0.14 -0.03    -0.288 OA BRANCH  10  12ATOM     12  C   UNL     1      43.131  47.598  23.697 -0.22 +0.02    +0.104 A  ATOM     13  C   UNL     1      45.455  46.901  23.678 -0.10 +0.05    +0.155 A  ATOM     14  C   UNL     1      45.818  48.149  24.198 -0.13 +0.01    +0.053 A  ATOM     15  C   UNL     1      44.104  46.635  23.434 -0.11 +0.05    +0.179 A  ATOM     16  C   UNL     1      44.841  49.119  24.464 -0.15 +0.01    +0.051 A  ATOM     17  C   UNL     1      43.499  48.841  24.209 -0.25 +0.03    +0.130 A  ATOM     18  F   UNL     1      43.743  45.446  22.922 -0.02 -0.06    -0.202 F  BRANCH  13  19ATOM     19  O   UNL     1      46.325  45.893  23.356 -0.04 -0.26    -0.494 OA ATOM     20  C   UNL     1      46.331  44.745  24.194 -0.02 +0.06    +0.278 C  ENDBRANCH  13  19BRANCH  17  21ATOM     21  O   UNL     1      42.552  49.798  24.431 -0.40 -0.20    -0.507 OA ATOM     22  H   UNL     1      41.807  49.413  24.922 +0.10 +0.06    +0.293 HD ENDBRANCH  17  21ENDBRANCH  10  12ENDBRANCH   5  10ENDBRANCH   2   4ENDBRANCH   1   2BRANCH   1  23ATOM     23  C   UNL     1      38.414  45.997  17.262 -0.32 -0.06    +0.201 CG0ATOM     24  G   UNL     1      39.437  47.118  17.446 +0.00 +0.00    +0.000 G0 BRANCH  23  25ATOM     25  C   UNL     1      36.930  46.471  17.147 -0.18 -0.08    +0.142 C  BRANCH  25  26ATOM     26  C   UNL     1      36.589  47.271  15.861 -0.30 -0.14    +0.148 C  BRANCH  26  27ATOM     27  N   UNL     1      37.675  47.613  14.930 -0.21 +0.19    -0.333 N  BRANCH  27  28ATOM     28  C   UNL     1      38.734  48.510  15.375 -0.50 -0.07    +0.120 C  BRANCH  28  29ATOM     29  C   UNL     1      39.851  47.783  16.128 -0.58 -0.01    +0.025 C  BRANCH  29  30ATOM     30  C   UNL     1      39.438  47.117  17.447 -0.40 -0.01    +0.049 CG0ATOM     31  G   UNL     1      38.407  46.002  17.268 +0.00 +0.00    +0.000 G0 ENDBRANCH  29  30ENDBRANCH  28  29ENDBRANCH  27  28BRANCH  27  32ATOM     32  C   UNL     1      37.441  47.324  13.567 -0.34 -0.13    +0.328 C  ATOM     33  O   UNL     1      37.348  48.241  12.739 -0.87 +0.03    -0.264 OA BRANCH  32  34ATOM     34  C   UNL     1      37.318  45.843  13.134 -0.17 -0.16    +0.471 C  ATOM     35  F   UNL     1      37.262  45.710  11.776 -0.20 +0.05    -0.162 F  ATOM     36  F   UNL     1      38.379  45.091  13.547 -0.08 +0.04    -0.162 F  ATOM     37  F   UNL     1      36.204  45.227  13.620 -0.14 +0.07    -0.162 F  ENDBRANCH  32  34ENDBRANCH  27  32ENDBRANCH  26  27ENDBRANCH  25  26BRANCH  25  38ATOM     38  N   UNL     1      36.029  45.324  17.377 -0.11 +0.16    -0.344 N  ATOM     39  C   UNL     1      34.839  45.480  18.061 -0.28 -0.13    +0.253 C  ATOM     40  H   UNL     1      36.517  44.451  17.581 +0.11 -0.05    +0.164 HD ATOM     41  O   UNL     1      34.397  46.568  18.409 -0.63 +0.20    -0.269 OA BRANCH  39  42ATOM     42  C   UNL     1      34.102  44.242  18.425 -0.31 -0.02    +0.058 A  ATOM     43  C   UNL     1      34.095  43.159  17.541 -0.33 -0.01    +0.018 A  ATOM     44  C   UNL     1      33.433  44.090  19.633 -0.33 -0.02    +0.126 A  ATOM     45  C   UNL     1      33.409  41.992  17.879 -0.37 -0.01    +0.041 A  ATOM     46  N   UNL     1      32.755  42.968  19.991 -0.69 -0.04    -0.245 NA ATOM     47  C   UNL     1      32.754  41.940  19.103 -0.29 -0.00    +0.140 A  BRANCH  47  48ATOM     48  C   UNL     1      32.025  40.766  19.498 -0.27 +0.01    +0.119 C  ATOM     49  N   UNL     1      31.448  39.823  19.857 -0.52 -0.03    -0.191 NA ENDBRANCH  47  48ENDBRANCH  39  42ENDBRANCH  25  38ENDBRANCH  23  25ENDBRANCH   1  23TORSDOF 12TERENDMDL