MODEL        5USER    Run = 5USERUSER    Estimated Free Energy of Binding    =  -7.47 kcal/mol  [=(1)+(2)+(3)-(4)]USERUSER    (1) Final Intermolecular Energy     = -11.64 kcal/molUSER        vdW + Hbond + desolv Energy     = -11.63 kcal/molUSER        Electrostatic Energy            =  -0.28 kcal/molUSER        Moving Ligand-Fixed Receptor    = -11.90 kcal/molUSER        Moving Ligand-Moving Receptor   =  +0.26 kcal/molUSER    (2) Final Total Internal Energy     =  -2.71 kcal/molUSER    (3) Torsional Free Energy           =  +4.18 kcal/molUSER    (4) Unbound System's Energy         =  -2.71 kcal/molUSERUSERREMARK SMILES COc1ccc(O)c(C(=O)c2ccc(C(=O)N[C@@H]3CCCNC[C@H]3NC(=O)c3cnn(C)c3)cc2)c1FREMARK SMILES IDX 15 1 16 2 17 3 14 5 11 6 12 7 35 8 13 9 34 10 9 11 10 12REMARK SMILES IDX 8 13 3 14 4 15 36 16 5 17 6 18 37 19 2 20 1 21 7 22 18 24REMARK SMILES IDX 19 25 24 27 23 28 22 29 21 31 20 32 25 34 26 35 27 37 28 38REMARK SMILES IDX 29 39 33 40 30 41 31 42 32 43REMARK H PARENT 17 4 7 23 22 30 25 36REMARK Flexibility Score:   72.900USER                              x       y       z     vdW  Elec       q    TypeUSER                           _______ _______ _______ _____ _____    ______ ____ROOTATOM      1  C   UNL     1      39.377  44.128  23.616 -0.13 +0.01    +0.251 C  ATOM      2  O   UNL     1      40.173  44.287  24.535 -0.07 -0.01    -0.269 OA ATOM      3  N   UNL     1      38.127  43.573  23.784 -0.10 -0.02    -0.347 N  ATOM      4  H   UNL     1      37.599  43.285  22.972 +0.10 +0.01    +0.164 HD ENDROOTBRANCH   1   5ATOM      5  C   UNL     1      39.748  44.537  22.231 -0.24 +0.00    +0.039 A  ATOM      6  C   UNL     1      40.528  45.382  19.674 -0.40 +0.00    +0.023 A  ATOM      7  C   UNL     1      41.391  45.561  20.760 -0.34 +0.00    +0.013 A  ATOM      8  C   UNL     1      39.284  44.770  19.861 -0.37 -0.00    +0.013 A  ATOM      9  C   UNL     1      40.997  45.145  22.034 -0.25 +0.00    +0.014 A  ATOM     10  C   UNL     1      38.887  44.360  21.138 -0.33 +0.00    +0.014 A  BRANCH   6  11ATOM     11  C   UNL     1      40.919  45.773  18.300 -0.40 -0.00    +0.199 C  ATOM     12  O   UNL     1      42.056  45.510  17.908 -0.19 -0.01    -0.288 OA BRANCH  11  13ATOM     13  C   UNL     1      40.022  46.517  17.390 -0.41 -0.02    +0.104 A  ATOM     14  C   UNL     1      37.938  46.728  16.141 -0.29 -0.07    +0.155 A  ATOM     15  C   UNL     1      38.346  47.981  15.680 -0.43 -0.03    +0.053 A  ATOM     16  C   UNL     1      38.788  46.003  16.991 -0.29 -0.04    +0.179 A  ATOM     17  C   UNL     1      39.595  48.490  16.046 -0.47 -0.02    +0.051 A  ATOM     18  C   UNL     1      40.431  47.754  16.883 -0.42 -0.02    +0.130 A  ATOM     19  F   UNL     1      38.403  44.782  17.397 -0.08 +0.04    -0.202 F  BRANCH  14  20ATOM     20  O   UNL     1      36.752  46.116  15.834 -0.06 +0.29    -0.494 OA ATOM     21  C   UNL     1      35.648  46.365  16.695 -0.21 -0.25    +0.278 C  ENDBRANCH  14  20BRANCH  18  22ATOM     22  O   UNL     1      41.650  48.310  17.166 -0.55 +0.00    -0.507 OA ATOM     23  H   UNL     1      42.305  47.579  17.239 -0.35 -0.06    +0.293 HD ENDBRANCH  18  22ENDBRANCH  11  13ENDBRANCH   6  11ENDBRANCH   1   5BRANCH   3  24ATOM     24  C   UNL     1      37.658  43.064  25.087 -0.30 +0.00    +0.106 C  BRANCH  24  25ATOM     25  C   UNL     1      36.540  42.031  24.854 -0.45 -0.00    +0.028 CG0ATOM     26  G   UNL     1      35.584  41.799  26.023 +0.00 +0.00    +0.000 G0 ENDBRANCH  24  25BRANCH  24  27ATOM     27  C   UNL     1      37.249  44.249  26.006 -0.30 -0.01    +0.118 C  BRANCH  27  28ATOM     28  C   UNL     1      36.965  43.839  27.483 -0.37 -0.02    +0.108 C  BRANCH  28  29ATOM     29  N   UNL     1      37.267  42.445  27.807 -0.17 +0.08    -0.315 NA ATOM     30  H   UNL     1      37.388  42.345  28.816 -0.39 -0.06    +0.122 HD BRANCH  29  31ATOM     31  C   UNL     1      36.256  41.490  27.358 -0.58 -0.03    +0.081 C  BRANCH  31  32ATOM     32  C   UNL     1      35.584  41.803  26.022 -0.44 -0.00    +0.017 CG0ATOM     33  G   UNL     1      36.540  42.032  24.854 +0.00 +0.00    +0.000 G0 ENDBRANCH  31  32ENDBRANCH  29  31ENDBRANCH  28  29ENDBRANCH  27  28BRANCH  27  34ATOM     34  N   UNL     1      38.284  45.290  25.948 -0.07 +0.00    -0.346 N  ATOM     35  C   UNL     1      38.005  46.588  25.597 -0.22 +0.01    +0.254 C  ATOM     36  H   UNL     1      39.191  45.056  26.331 +0.07 -0.00    +0.164 HD ATOM     37  O   UNL     1      36.883  46.953  25.263 -0.76 -0.05    -0.269 OA BRANCH  35  38ATOM     38  C   UNL     1      39.134  47.498  25.648 -0.23 +0.00    +0.077 A  ATOM     39  C   UNL     1      39.407  48.443  26.665 -0.19 +0.01    +0.149 A  ATOM     40  C   UNL     1      40.174  47.673  24.752 -0.21 +0.01    +0.122 A  ATOM     41  N   UNL     1      40.518  49.148  26.436 -0.21 -0.03    -0.181 NA ATOM     42  N   UNL     1      40.967  48.658  25.269 -0.19 -0.04    -0.275 N  ATOM     43  C   UNL     1      42.180  49.187  24.696 -0.33 +0.04    +0.173 C  ENDBRANCH  35  38ENDBRANCH  27  34ENDBRANCH  24  27ENDBRANCH   3  24TORSDOF 8TERENDMDL