REMARK SMILES COc1ccc(O)c(C(=O)c2ccc(C(=O)O[C@@H]3CCCN(C(=O)C(F)(F)F)C[C@H]3NC(=O)c3ccc(C#N)nc3)cc2)c1F
REMARK SMILES IDX 17 1 15 2 16 3 14 4 11 5 12 6 43 7 13 8 42 9 9 10 10 11 8 12
REMARK SMILES IDX 3 13 4 14 44 15 5 16 6 17 45 18 2 19 1 20 7 21 18 23 30 25
REMARK SMILES IDX 29 26 22 27 21 28 20 29 19 30 23 32 24 33 25 34 26 35 27 36
REMARK SMILES IDX 28 37 31 38 32 39 33 41 34 42 35 43 41 44 36 45 40 46 37 47
REMARK SMILES IDX 38 48 39 49
REMARK H PARENT 7 22 31 40
REMARK Flexibility Score:   99.900
ROOT
ATOM      1  O   UNL     1      -0.410  -1.090  -0.417  1.00  0.00    -0.457 OA
ENDROOT
BRANCH   1   2
ATOM      2  C   UNL     1      -0.404  -0.560   0.833  1.00  0.00     0.338 C 
ATOM      3  O   UNL     1      -1.389  -0.402   1.539  1.00  0.00    -0.246 OA
BRANCH   2   4
ATOM      4  C   UNL     1       0.979  -0.211   1.248  1.00  0.00     0.060 A 
ATOM      5  C   UNL     1       3.571   0.449   2.124  1.00  0.00     0.023 A 
ATOM      6  C   UNL     1       3.317   0.241   0.762  1.00  0.00     0.013 A 
ATOM      7  C   UNL     1       2.517   0.334   3.041  1.00  0.00     0.013 A 
ATOM      8  C   UNL     1       2.028  -0.093   0.327  1.00  0.00     0.016 A 
ATOM      9  C   UNL     1       1.228   0.013   2.607  1.00  0.00     0.016 A 
BRANCH   5  10
ATOM     10  C   UNL     1       4.923   0.793   2.649  1.00  0.00     0.199 C 
ATOM     11  O   UNL     1       5.124   0.891   3.857  1.00  0.00    -0.288 OA
BRANCH  10  12
ATOM     12  C   UNL     1       6.051   1.025   1.740  1.00  0.00     0.104 A 
ATOM     13  C   UNL     1       7.851   0.117   0.390  1.00  0.00     0.155 A 
ATOM     14  C   UNL     1       8.258   1.420   0.083  1.00  0.00     0.053 A 
ATOM     15  C   UNL     1       6.744  -0.069   1.225  1.00  0.00     0.179 A 
ATOM     16  C   UNL     1       7.563   2.522   0.601  1.00  0.00     0.051 A 
ATOM     17  C   UNL     1       6.458   2.321   1.427  1.00  0.00     0.130 A 
ATOM     18  F   UNL     1       6.334  -1.315   1.516  1.00  0.00    -0.202 F 
BRANCH  13  19
ATOM     19  O   UNL     1       8.437  -1.028  -0.081  1.00  0.00    -0.494 OA
ATOM     20  C   UNL     1       9.656  -0.888  -0.799  1.00  0.00     0.278 C 
ENDBRANCH  13  19
BRANCH  17  21
ATOM     21  O   UNL     1       5.757   3.392   1.900  1.00  0.00    -0.507 OA
ATOM     22  H   UNL     1       6.282   4.202   1.787  1.00  0.00     0.293 HD
ENDBRANCH  17  21
ENDBRANCH  10  12
ENDBRANCH   5  10
ENDBRANCH   2   4
ENDBRANCH   1   2
BRANCH   1  23
ATOM     23  C   UNL     1      -1.704  -1.530  -0.903  1.00  0.00     0.201 CG0
ATOM     24  G   UNL     1      -1.457  -2.594  -1.973  1.00  0.00     0.000 G0
BRANCH  23  25
ATOM     25  C   UNL     1      -2.526  -0.291  -1.382  1.00  0.00     0.142 C 
BRANCH  25  26
ATOM     26  C   UNL     1      -3.295  -0.484  -2.717  1.00  0.00     0.148 C 
BRANCH  26  27
ATOM     27  N   UNL     1      -4.245  -1.601  -2.833  1.00  0.00    -0.333 N 
BRANCH  27  28
ATOM     28  C   UNL     1      -4.043  -2.792  -2.017  1.00  0.00     0.120 C 
BRANCH  28  29
ATOM     29  C   UNL     1      -2.689  -3.460  -2.267  1.00  0.00     0.025 C 
BRANCH  29  30
ATOM     30  C   UNL     1      -1.457  -2.594  -1.973  1.00  0.00     0.049 CG0
ATOM     31  G   UNL     1      -1.704  -1.530  -0.903  1.00  0.00     0.000 G0
ENDBRANCH  29  30
ENDBRANCH  28  29
ENDBRANCH  27  28
BRANCH  27  32
ATOM     32  C   UNL     1      -5.089  -1.585  -3.966  1.00  0.00     0.328 C 
ATOM     33  O   UNL     1      -5.016  -0.662  -4.788  1.00  0.00    -0.264 OA
BRANCH  32  34
ATOM     34  C   UNL     1      -6.091  -2.749  -4.160  1.00  0.00     0.471 C 
ATOM     35  F   UNL     1      -5.457  -3.936  -4.390  1.00  0.00    -0.162 F 
ATOM     36  F   UNL     1      -6.880  -2.944  -3.064  1.00  0.00    -0.162 F 
ATOM     37  F   UNL     1      -6.939  -2.564  -5.210  1.00  0.00    -0.162 F 
ENDBRANCH  32  34
ENDBRANCH  27  32
ENDBRANCH  26  27
ENDBRANCH  25  26
BRANCH  25  38
ATOM     38  N   UNL     1      -3.384   0.185  -0.278  1.00  0.00    -0.344 N 
ATOM     39  C   UNL     1      -3.978   1.431  -0.326  1.00  0.00     0.253 C 
ATOM     40  H   UNL     1      -3.051  -0.084   0.648  1.00  0.00     0.164 HD
ATOM     41  O   UNL     1      -3.939   2.161  -1.309  1.00  0.00    -0.269 OA
BRANCH  39  42
ATOM     42  C   UNL     1      -4.648   1.907   0.912  1.00  0.00     0.058 A 
ATOM     43  C   UNL     1      -4.926   3.268   1.065  1.00  0.00     0.018 A 
ATOM     44  C   UNL     1      -5.046   1.051   1.931  1.00  0.00     0.126 A 
ATOM     45  C   UNL     1      -5.559   3.721   2.223  1.00  0.00     0.041 A 
ATOM     46  N   UNL     1      -5.662   1.460   3.071  1.00  0.00    -0.245 NA
ATOM     47  C   UNL     1      -5.904   2.790   3.196  1.00  0.00     0.140 A 
BRANCH  47  48
ATOM     48  C   UNL     1      -6.550   3.203   4.412  1.00  0.00     0.119 C 
ATOM     49  N   UNL     1      -7.068   3.577   5.383  1.00  0.00    -0.191 NA
ENDBRANCH  47  48
ENDBRANCH  39  42
ENDBRANCH  25  38
ENDBRANCH  23  25
ENDBRANCH   1  23
TORSDOF 12
