MODEL        5USER    Run = 5USERUSER    Estimated Free Energy of Binding    =  -7.68 kcal/mol  [=(1)+(2)+(3)-(4)]USERUSER    (1) Final Intermolecular Energy     = -12.45 kcal/molUSER        vdW + Hbond + desolv Energy     = -12.40 kcal/molUSER        Electrostatic Energy            =  -0.30 kcal/molUSER        Moving Ligand-Fixed Receptor    = -12.69 kcal/molUSER        Moving Ligand-Moving Receptor   =  +0.24 kcal/molUSER    (2) Final Total Internal Energy     =  -3.40 kcal/molUSER    (3) Torsional Free Energy           =  +4.77 kcal/molUSER    (4) Unbound System's Energy         =  -3.40 kcal/molUSERUSERREMARK SMILES COc1ccc(O)c(C(=O)c2ccc(C(=O)N[C@@H]3CCCN(S(=O)(=O)C(F)(F)F)C[C@H]3NC(=O)c3ccncc3)cc2)c1FREMARK SMILES IDX 18 1 17 3 15 4 16 5 14 7 11 8 12 9 42 10 13 11 41 12 9 13REMARK SMILES IDX 10 14 8 15 3 16 4 17 43 18 5 19 6 20 44 21 2 22 1 23 7 24REMARK SMILES IDX 31 26 30 27 22 28 21 29 20 30 19 31 23 33 24 34 25 35 26 36REMARK SMILES IDX 27 37 28 38 29 39 32 40 33 41 34 43 35 44 36 45 40 46 37 47REMARK SMILES IDX 39 48 38 49REMARK H PARENT 17 6 7 25 32 42REMARK Flexibility Score:  100.900USER                              x       y       z     vdW  Elec       q    TypeUSER                           _______ _______ _______ _____ _____    ______ ____ROOTATOM      1  C   UNL     1      34.745  44.405  18.579 -0.34 -0.03    +0.106 CG0ATOM      2  G   UNL     1      33.801  43.649  19.533 +0.00 +0.00    +0.000 G0 ENDROOTBRANCH   1   3ATOM      3  N   UNL     1      36.060  44.557  19.237 -0.15 +0.06    -0.347 N  ATOM      4  C   UNL     1      37.065  45.328  18.687 -0.02 -0.05    +0.251 C  ATOM      5  O   UNL     1      36.917  45.959  17.645 -0.24 +0.11    -0.269 OA ATOM      6  H   UNL     1      36.323  43.843  19.904 +0.11 -0.01    +0.164 HD BRANCH   4   7ATOM      7  C   UNL     1      38.387  45.303  19.375 -0.28 -0.00    +0.039 A  ATOM      8  C   UNL     1      40.827  45.259  20.765 -0.34 +0.00    +0.023 A  ATOM      9  C   UNL     1      39.634  44.927  21.420 -0.31 +0.00    +0.013 A  ATOM     10  C   UNL     1      40.802  45.583  19.403 -0.43 +0.00    +0.013 A  ATOM     11  C   UNL     1      38.420  44.951  20.730 -0.32 +0.00    +0.014 A  ATOM     12  C   UNL     1      39.586  45.601  18.709 -0.42 -0.00    +0.014 A  BRANCH   8  13ATOM     13  C   UNL     1      42.090  45.238  21.548 -0.22 +0.04    +0.199 C  ATOM     14  O   UNL     1      42.762  44.213  21.633 -0.19 -0.07    -0.288 OA BRANCH  13  15ATOM     15  C   UNL     1      42.527  46.432  22.289 -0.21 +0.02    +0.104 A  ATOM     16  C   UNL     1      41.990  48.183  23.884 -0.26 +0.03    +0.155 A  ATOM     17  C   UNL     1      43.318  48.620  23.831 -0.29 +0.01    +0.053 A  ATOM     18  C   UNL     1      41.603  47.089  23.102 -0.15 +0.02    +0.179 A  ATOM     19  C   UNL     1      44.247  47.963  23.012 -0.27 +0.01    +0.051 A  ATOM     20  C   UNL     1      43.848  46.871  22.244 -0.24 +0.05    +0.130 A  ATOM     21  F   UNL     1      40.329  46.665  23.140 -0.06 -0.02    -0.202 F  BRANCH  16  22ATOM     22  O   UNL     1      40.999  48.757  24.634 -0.16 -0.08    -0.494 OA ATOM     23  C   UNL     1      40.633  48.090  25.838 -0.16 +0.03    +0.278 C  ENDBRANCH  16  22BRANCH  20  24ATOM     24  O   UNL     1      44.748  46.265  21.412 -0.42 -0.68    -0.507 OA ATOM     25  H   UNL     1      44.605  45.303  21.435 +0.13 +0.33    +0.293 HD ENDBRANCH  20  24ENDBRANCH  13  15ENDBRANCH   8  13ENDBRANCH   4   7ENDBRANCH   1   3BRANCH   1  26ATOM     26  C   UNL     1      34.911  43.781  17.159 -0.30 -0.05    +0.120 C  BRANCH  26  27ATOM     27  C   UNL     1      33.672  42.985  16.681 -0.33 -0.06    +0.129 C  BRANCH  27  28ATOM     28  N   UNL     1      32.369  43.697  16.887 -0.19 +0.07    -0.192 NA BRANCH  28  29ATOM     29  C   UNL     1      31.649  43.287  18.116 -0.29 -0.02    +0.102 C  BRANCH  29  30ATOM     30  C   UNL     1      32.304  43.931  19.347 -0.44 -0.00    +0.019 C  BRANCH  30  31ATOM     31  C   UNL     1      33.800  43.650  19.532 -0.46 -0.00    +0.028 CG0ATOM     32  G   UNL     1      34.743  44.407  18.577 +0.00 +0.00    +0.000 G0 ENDBRANCH  30  31ENDBRANCH  29  30ENDBRANCH  28  29BRANCH  28  33ATOM     33  S   UNL     1      31.411  43.794  15.449 -0.32 -0.17    +0.314 S  ATOM     34  O   UNL     1      30.030  43.674  15.884 -0.24 +0.10    -0.203 OA ATOM     35  O   UNL     1      31.966  42.805  14.538 -0.21 +0.13    -0.203 OA BRANCH  33  36ATOM     36  C   UNL     1      31.753  45.509  14.790 -0.12 -0.35    +0.511 C  ATOM     37  F   UNL     1      33.080  45.803  14.763 -0.14 +0.15    -0.155 F  ATOM     38  F   UNL     1      31.148  46.473  15.543 -0.19 +0.09    -0.155 F  ATOM     39  F   UNL     1      31.286  45.672  13.517 -0.22 +0.11    -0.155 F  ENDBRANCH  33  36ENDBRANCH  28  33ENDBRANCH  27  28ENDBRANCH  26  27BRANCH  26  40ATOM     40  N   UNL     1      35.262  44.813  16.175 -0.09 +0.19    -0.346 N  ATOM     41  C   UNL     1      36.087  44.537  15.105 -0.24 -0.11    +0.251 C  ATOM     42  H   UNL     1      35.111  45.782  16.460 +0.10 -0.14    +0.164 HD ATOM     43  O   UNL     1      36.495  43.404  14.867 -0.26 +0.09    -0.269 OA BRANCH  41  44ATOM     44  C   UNL     1      36.507  45.682  14.249 -0.38 -0.02    +0.042 A  ATOM     45  C   UNL     1      37.296  46.677  14.833 -0.39 -0.02    +0.034 A  ATOM     46  C   UNL     1      36.165  45.785  12.900 -0.49 -0.02    +0.034 A  ATOM     47  C   UNL     1      37.698  47.740  14.047 -0.44 -0.05    +0.112 A  ATOM     48  C   UNL     1      36.622  46.887  12.198 -0.59 -0.05    +0.112 A  ATOM     49  N   UNL     1      37.378  47.866  12.741 -0.92 +0.05    -0.265 NA ENDBRANCH  41  44ENDBRANCH  26  40ENDBRANCH   1  26TORSDOF 10TERENDMDL