MODEL        1USER    Run = 1USERUSER    Estimated Free Energy of Binding    =  -5.42 kcal/mol  [=(1)+(2)+(3)-(4)]USERUSER    (1) Final Intermolecular Energy     = -10.49 kcal/molUSER        vdW + Hbond + desolv Energy     = -10.67 kcal/molUSER        Electrostatic Energy            =  -0.28 kcal/molUSER        Moving Ligand-Fixed Receptor    = -10.95 kcal/molUSER        Moving Ligand-Moving Receptor   =  +0.46 kcal/molUSER    (2) Final Total Internal Energy     =  -4.56 kcal/molUSER    (3) Torsional Free Energy           =  +5.07 kcal/molUSER    (4) Unbound System's Energy         =  -4.56 kcal/molUSERUSERREMARK SMILES COc1ccc(O)c(C(=O)c2ccc(C(=O)N[C@@H]3CCCN(C(=O)OC(C)(C)C)C[C@H]3NC(=O)c3ccncc3)cc2)c1FREMARK SMILES IDX 18 1 17 3 15 4 16 5 14 7 11 8 12 9 42 10 13 11 41 12 9 13REMARK SMILES IDX 10 14 8 15 3 16 4 17 43 18 5 19 6 20 44 21 2 22 1 23 7 24REMARK SMILES IDX 31 26 30 27 22 28 21 29 20 30 19 31 23 33 24 34 25 35 26 36REMARK SMILES IDX 27 37 28 38 29 39 32 40 33 41 34 43 35 44 36 45 40 46 37 47REMARK SMILES IDX 39 48 38 49REMARK H PARENT 17 6 7 25 32 42REMARK Flexibility Score:  100.900USER                              x       y       z     vdW  Elec       q    TypeUSER                           _______ _______ _______ _____ _____    ______ ____ROOTATOM      1  C   UNL     1      38.103  44.956  26.875 -0.25 -0.01    +0.106 CG0ATOM      2  G   UNL     1      37.151  44.060  27.698 +0.00 +0.00    +0.000 G0 ENDROOTBRANCH   1   3ATOM      3  N   UNL     1      37.989  46.368  27.255 -0.13 +0.04    -0.347 N  ATOM      4  C   UNL     1      37.521  47.321  26.370 -0.26 -0.01    +0.251 C  ATOM      5  O   UNL     1      37.117  47.081  25.241 -0.80 -0.04    -0.269 OA ATOM      6  H   UNL     1      38.542  46.704  28.037 -0.14 -0.03    +0.164 HD BRANCH   4   7ATOM      7  C   UNL     1      37.533  48.717  26.873 -0.29 -0.00    +0.039 A  ATOM      8  C   UNL     1      37.654  51.360  27.819 -0.07 +0.01    +0.023 A  ATOM      9  C   UNL     1      36.742  51.004  26.814 -0.17 +0.00    +0.013 A  ATOM     10  C   UNL     1      38.509  50.384  28.346 -0.22 +0.00    +0.013 A  ATOM     11  C   UNL     1      36.678  49.690  26.342 -0.39 +0.00    +0.014 A  ATOM     12  C   UNL     1      38.452  49.069  27.865 -0.19 -0.00    +0.014 A  BRANCH   8  13ATOM     13  C   UNL     1      37.672  52.780  28.274 -0.15 +0.17    +0.199 C  ATOM     14  O   UNL     1      38.632  53.229  28.898 -0.48 -0.49    -0.288 OA BRANCH  13  15ATOM     15  C   UNL     1      36.548  53.677  27.984 -0.16 +0.06    +0.104 A  ATOM     16  C   UNL     1      34.389  54.576  28.632 -0.16 +0.03    +0.155 A  ATOM     17  C   UNL     1      34.429  55.424  27.521 -0.21 +0.01    +0.053 A  ATOM     18  C   UNL     1      35.457  53.698  28.854 -0.09 +0.05    +0.179 A  ATOM     19  C   UNL     1      35.520  55.398  26.643 -0.31 +0.01    +0.051 A  ATOM     20  C   UNL     1      36.579  54.525  26.877 -0.24 +0.07    +0.130 A  ATOM     21  F   UNL     1      35.428  52.864  29.908 -0.01 -0.04    -0.202 F  BRANCH  16  22ATOM     22  O   UNL     1      33.368  54.509  29.541 -0.06 -0.09    -0.494 OA ATOM     23  C   UNL     1      32.525  53.365  29.494 -0.12 +0.06    +0.278 C  ENDBRANCH  16  22BRANCH  20  24ATOM     24  O   UNL     1      37.636  54.481  26.014 -0.49 -0.51    -0.507 OA ATOM     25  H   UNL     1      38.405  54.073  26.450 +0.12 +0.49    +0.293 HD ENDBRANCH  20  24ENDBRANCH  13  15ENDBRANCH   8  13ENDBRANCH   4   7ENDBRANCH   1   3BRANCH   1  26ATOM     26  C   UNL     1      39.582  44.448  26.867 -0.14 -0.00    +0.124 C  BRANCH  26  27ATOM     27  C   UNL     1      39.731  42.934  26.605 -0.17 -0.00    +0.150 C  BRANCH  27  28ATOM     28  N   UNL     1      38.840  42.409  25.575 -0.10 -0.00    -0.306 N  BRANCH  28  29ATOM     29  C   UNL     1      37.476  42.112  25.986 -0.34 -0.01    +0.123 C  BRANCH  29  30ATOM     30  C   UNL     1      37.178  42.548  27.419 -0.44 -0.01    +0.024 C  BRANCH  30  31ATOM     31  C   UNL     1      37.151  44.057  27.698 -0.42 -0.01    +0.029 CG0ATOM     32  G   UNL     1      38.099  44.954  26.870 +0.00 +0.00    +0.000 G0 ENDBRANCH  30  31ENDBRANCH  29  30ENDBRANCH  28  29BRANCH  28  33ATOM     33  C   UNL     1      39.175  42.560  24.236 +0.10 +0.04    +0.410 C  ATOM     34  O   UNL     1      40.245  43.032  23.866 -0.18 -0.01    -0.224 OA BRANCH  33  35ATOM     35  O   UNL     1      38.169  42.173  23.412 -0.11 -0.05    -0.444 OA BRANCH  35  36ATOM     36  C   UNL     1      37.512  43.103  22.520 -0.38 +0.01    +0.106 C  ATOM     37  C   UNL     1      36.287  42.474  21.855 -0.44 +0.00    +0.056 C  ATOM     38  C   UNL     1      37.053  44.251  23.431 -0.24 +0.01    +0.056 C  ATOM     39  C   UNL     1      38.495  43.666  21.489 -0.31 +0.00    +0.056 C  ENDBRANCH  35  36ENDBRANCH  33  35ENDBRANCH  28  33ENDBRANCH  27  28ENDBRANCH  26  27BRANCH  26  40ATOM     40  N   UNL     1      40.439  45.206  25.943 -0.02 -0.01    -0.345 N  ATOM     41  C   UNL     1      40.890  46.474  26.239 -0.08 +0.02    +0.251 C  ATOM     42  H   UNL     1      40.759  44.716  25.114 +0.06 +0.00    +0.164 HD ATOM     43  O   UNL     1      40.596  47.042  27.287 -0.57 -0.03    -0.269 OA BRANCH  41  44ATOM     44  C   UNL     1      41.775  47.154  25.249 -0.13 +0.00    +0.042 A  ATOM     45  C   UNL     1      42.629  46.477  24.378 -0.10 +0.00    +0.034 A  ATOM     46  C   UNL     1      41.737  48.551  25.205 -0.29 +0.00    +0.034 A  ATOM     47  C   UNL     1      43.411  47.227  23.515 -0.18 +0.02    +0.112 A  ATOM     48  C   UNL     1      42.555  49.207  24.307 -0.31 +0.03    +0.112 A  ATOM     49  N   UNL     1      43.394  48.575  23.462 -0.64 -0.07    -0.265 NA ENDBRANCH  41  44ENDBRANCH  26  40ENDBRANCH   1  26TORSDOF 11TERENDMDL