REMARK SMILES CCCS(=O)(=O)NC=C1C=CN=C(Nc2ccc(C(=O)NCCO)cc2)SC1
REMARK SMILES IDX 11 1 10 2 9 3 8 5 7 6 4 8 5 9 6 10 3 11 2 12 1 13 12 14
REMARK SMILES IDX 13 15 14 16 27 18 28 19 15 21 16 22 26 23 17 24 25 25 18 26
REMARK SMILES IDX 19 27 21 28 20 29 22 31 23 32 24 33
REMARK H PARENT 7 7 14 17 21 30 24 34
REMARK Flexibility Score:   64.900
ROOT
ATOM      1  C   UNL     1      -1.940  -0.970   0.726  1.00  0.00     0.114 C 
ENDROOT
BRANCH   1   2
ATOM      2  C   UNL     1      -2.979  -0.168   1.004  1.00  0.00     0.026 C 
BRANCH   2   3
ATOM      3  C   UNL     1      -3.062   1.289   1.013  1.00  0.00    -0.019 CG0
ATOM      4  G   UNL     1      -1.785   2.052   0.760  1.00  0.00     0.000 G0
BRANCH   3   5
ATOM      5  C   UNL     1      -4.182   2.009   1.222  1.00  0.00     0.098 C 
BRANCH   5   6
ATOM      6  N   UNL     1      -5.413   1.363   1.466  1.00  0.00    -0.290 N 
ATOM      7  H   UNL     1      -5.533   0.358   1.550  1.00  0.00     0.179 HD
BRANCH   6   8
ATOM      8  S   UNL     1      -6.818   2.278   1.496  1.00  0.00     0.232 S 
ATOM      9  O   UNL     1      -7.849   1.419   2.036  1.00  0.00    -0.207 OA
ATOM     10  O   UNL     1      -6.525   3.565   2.091  1.00  0.00    -0.207 OA
BRANCH   8  11
ATOM     11  C   UNL     1      -7.147   2.530  -0.248  1.00  0.00     0.159 C 
BRANCH  11  12
ATOM     12  C   UNL     1      -7.358   1.225  -1.006  1.00  0.00     0.015 C 
ATOM     13  C   UNL     1      -7.584   1.476  -2.488  1.00  0.00     0.005 C 
ENDBRANCH  11  12
ENDBRANCH   8  11
ENDBRANCH   6   8
ENDBRANCH   5   6
ENDBRANCH   3   5
ENDBRANCH   2   3
ENDBRANCH   1   2
BRANCH   1  14
ATOM     14  N   UNL     1      -0.632  -0.744   0.405  1.00  0.00    -0.233 NA
BRANCH  14  15
ATOM     15  C   UNL     1      -0.162   0.242  -0.286  1.00  0.00     0.165 C 
ATOM     16  N   UNL     1       1.146   0.412  -0.663  1.00  0.00    -0.335 N 
ATOM     17  H   UNL     1       1.306   1.240  -1.220  1.00  0.00     0.169 HD
BRANCH  15  18
ATOM     18  S   UNL     1      -1.113   1.606  -0.860  1.00  0.00    -0.083 SA
BRANCH  18  19
ATOM     19  C   UNL     1      -1.785   2.052   0.760  1.00  0.00     0.115 CG0
ATOM     20  G   UNL     1      -3.062   1.289   1.013  1.00  0.00     0.000 G0
ENDBRANCH  18  19
ENDBRANCH  15  18
BRANCH  16  21
ATOM     21  C   UNL     1       2.247  -0.453  -0.558  1.00  0.00     0.040 A 
ATOM     22  C   UNL     1       2.178  -1.759  -0.061  1.00  0.00     0.027 A 
ATOM     23  C   UNL     1       3.515   0.036  -0.923  1.00  0.00     0.027 A 
ATOM     24  C   UNL     1       3.325  -2.557   0.048  1.00  0.00     0.016 A 
ATOM     25  C   UNL     1       4.668  -0.752  -0.811  1.00  0.00     0.016 A 
ATOM     26  C   UNL     1       4.576  -2.054  -0.314  1.00  0.00     0.039 A 
BRANCH  26  27
ATOM     27  C   UNL     1       5.769  -2.934  -0.168  1.00  0.00     0.251 C 
ATOM     28  N   UNL     1       6.976  -2.297   0.017  1.00  0.00    -0.350 N 
ATOM     29  O   UNL     1       5.643  -4.154  -0.178  1.00  0.00    -0.269 OA
ATOM     30  H   UNL     1       6.970  -1.336   0.337  1.00  0.00     0.163 HD
BRANCH  28  31
ATOM     31  C   UNL     1       8.164  -3.049   0.383  1.00  0.00     0.144 C 
BRANCH  31  32
ATOM     32  C   UNL     1       9.427  -2.236   0.119  1.00  0.00     0.177 C 
BRANCH  32  33
ATOM     33  O   UNL     1       9.382  -1.021   0.873  1.00  0.00    -0.395 OA
ATOM     34  H   UNL     1      10.224  -0.560   0.709  1.00  0.00     0.210 HD
ENDBRANCH  32  33
ENDBRANCH  31  32
ENDBRANCH  28  31
ENDBRANCH  26  27
ENDBRANCH  16  21
ENDBRANCH  14  15
ENDBRANCH   1  14
TORSDOF 10
