MODEL        3USER    Run = 3USERUSER    Estimated Free Energy of Binding    =  -8.99 kcal/mol  [=(1)+(2)+(3)-(4)]USERUSER    (1) Final Intermolecular Energy     = -10.48 kcal/molUSER        vdW + Hbond + desolv Energy     = -10.12 kcal/molUSER        Electrostatic Energy            =  -0.36 kcal/molUSER        Moving Ligand-Fixed Receptor    = -10.48 kcal/molUSER        Moving Ligand-Moving Receptor   =  +0.00 kcal/molUSER    (2) Final Total Internal Energy     =  -1.06 kcal/molUSER    (3) Torsional Free Energy           =  +1.49 kcal/molUSER    (4) Unbound System's Energy         =  -1.06 kcal/molUSERUSERREMARK SMILES CN=c1c(NC(=O)Nc2cccc(C)c2C)cccn1C(=O)c1nc(C)ccc1FREMARK SMILES IDX 3 1 4 2 17 3 18 4 19 5 20 6 2 7 1 8 5 9 6 10 8 11 7 13 9 15REMARK SMILES IDX 10 16 15 17 11 18 13 19 12 20 16 21 14 22 21 23 22 24 23 25REMARK SMILES IDX 24 26 29 27 25 28 28 29 27 30 30 31 26 32REMARK H PARENT 5 12 8 14USER                              x       y       z     vdW  Elec       q    TypeUSER                           _______ _______ _______ _____ _____    ______ ____ROOTATOM      1  C   UNL     1      31.670  39.744  18.783 -0.32 +0.01    +0.158 A  ATOM      2  C   UNL     1      32.302  40.964  18.099 -0.35 -0.02    +0.086 A  ATOM      3  C   UNL     1      31.552  41.649  17.218 -0.28 -0.01    +0.031 A  ATOM      4  C   UNL     1      30.246  41.204  16.822 -0.33 -0.00    +0.021 A  ATOM      5  C   UNL     1      29.799  40.017  17.243 -0.30 +0.01    +0.097 A  ATOM      6  N   UNL     1      30.516  39.252  18.152 -0.22 -0.03    -0.265 N  ENDROOTBRANCH   1   7ATOM      7  N   UNL     1      32.051  39.142  19.853 -0.66 -0.08    -0.269 NA ATOM      8  C   UNL     1      31.324  39.096  21.099 -0.22 +0.03    +0.174 C  ENDBRANCH   1   7BRANCH   2   9ATOM      9  N   UNL     1      33.639  41.228  18.338 -0.15 +0.06    -0.304 N  ATOM     10  C   UNL     1      34.199  42.183  19.174 -0.23 -0.02    +0.323 C  ATOM     11  N   UNL     1      35.574  42.237  18.989 -0.20 +0.04    -0.307 N  ATOM     12  H   UNL     1      34.284  40.622  17.861 -0.45 -0.08    +0.172 HD ATOM     13  O   UNL     1      33.557  42.866  19.961 -0.78 -0.03    -0.248 OA ATOM     14  H   UNL     1      35.914  41.765  18.169 +0.05 -0.04    +0.171 HD BRANCH  11  15ATOM     15  C   UNL     1      36.524  43.033  19.683 -0.31 -0.00    +0.046 A  ATOM     16  C   UNL     1      37.132  44.141  19.085 -0.33 -0.00    +0.026 A  ATOM     17  C   UNL     1      36.848  42.705  21.031 -0.43 -0.00    -0.025 A  ATOM     18  C   UNL     1      38.061  44.913  19.782 -0.30 -0.00    +0.002 A  ATOM     19  C   UNL     1      37.801  43.490  21.731 -0.34 -0.00    -0.046 A  ATOM     20  C   UNL     1      38.396  44.589  21.091 -0.36 +0.00    +0.004 A  ATOM     21  C   UNL     1      36.175  41.537  21.711 -0.59 +0.00    +0.047 C  ATOM     22  C   UNL     1      38.194  43.204  23.158 -0.35 +0.00    +0.044 C  ENDBRANCH  11  15ENDBRANCH   2   9BRANCH   6  23ATOM     23  C   UNL     1      29.982  38.033  18.580 -0.25 +0.11    +0.285 C  ATOM     24  O   UNL     1      30.537  36.958  18.340 -0.70 -0.21    -0.266 OA BRANCH  23  25ATOM     25  C   UNL     1      28.652  38.101  19.280 -0.21 +0.04    +0.165 A  ATOM     26  N   UNL     1      27.645  38.763  18.635 -0.10 -0.06    -0.245 NA ATOM     27  C   UNL     1      28.476  37.498  20.524 -0.21 -0.01    +0.154 A  ATOM     28  C   UNL     1      26.441  38.836  19.254 -0.25 -0.01    +0.038 A  ATOM     29  C   UNL     1      27.228  37.565  21.133 -0.28 -0.02    +0.043 A  ATOM     30  C   UNL     1      26.193  38.240  20.493 -0.27 -0.01    +0.026 A  ATOM     31  F   UNL     1      29.452  36.822  21.148 -0.07 +0.00    -0.204 F  ATOM     32  C   UNL     1      25.348  39.574  18.538 -0.34 -0.01    +0.067 C  ENDBRANCH  23  25ENDBRANCH   6  23TORSDOF 5TERENDMDL