REMARK SMILES COc1cccc(I)c1-c1c[nH]c2cnccc12
REMARK SMILES IDX 3 1 4 2 5 3 6 4 7 5 8 6 9 7 2 8 1 9 10 10 11 11 18 12 12 13
REMARK SMILES IDX 17 14 13 15 16 16 14 17 15 18
REMARK H PARENT 12 19
ROOT
ATOM      1  C   UNL     1      -1.759   0.149  -0.080  1.00  0.00     0.127 A 
ATOM      2  C   UNL     1      -3.032  -0.124   0.437  1.00  0.00     0.047 A 
ATOM      3  C   UNL     1      -3.306  -1.353   1.037  1.00  0.00     0.005 A 
ATOM      4  C   UNL     1      -2.312  -2.323   1.129  1.00  0.00     0.015 A 
ATOM      5  C   UNL     1      -1.035  -2.070   0.616  1.00  0.00     0.025 A 
ATOM      6  I   UNL     1       0.381  -3.617   0.829  1.00  0.00    -0.043 I 
ATOM      7  C   UNL     1      -0.746  -0.835   0.003  1.00  0.00     0.039 A 
ENDROOT
BRANCH   1   8
ATOM      8  O   UNL     1      -1.416   1.335  -0.681  1.00  0.00    -0.496 OA
ATOM      9  C   UNL     1      -2.388   2.370  -0.716  1.00  0.00     0.278 C 
ENDBRANCH   1   8
BRANCH   7  10
ATOM     10  C   UNL     1       0.578  -0.543  -0.530  1.00  0.00     0.012 A 
ATOM     11  C   UNL     1       0.939  -0.809  -1.835  1.00  0.00     0.092 A 
ATOM     12  C   UNL     1       1.703   0.053   0.116  1.00  0.00     0.011 A 
ATOM     13  N   UNL     1       2.238  -0.408  -2.001  1.00  0.00    -0.359 N 
ATOM     14  C   UNL     1       1.953   0.539   1.407  1.00  0.00     0.031 A 
ATOM     15  C   UNL     1       2.728   0.119  -0.828  1.00  0.00     0.065 A 
ATOM     16  C   UNL     1       3.220   1.052   1.640  1.00  0.00     0.112 A 
ATOM     17  C   UNL     1       3.976   0.647  -0.525  1.00  0.00     0.137 A 
ATOM     18  N   UNL     1       4.211   1.113   0.723  1.00  0.00    -0.263 NA
ATOM     19  H   UNL     1       2.764  -0.484  -2.861  1.00  0.00     0.166 HD
ENDBRANCH   7  10
TORSDOF 2
