REMARK SMILES C[C@H]1CN(c2nc(-c3ccncn3)ccc2C2CC2)CCN1CCO
REMARK SMILES IDX 23 1 22 2 2 3 3 4 4 5 21 6 20 7 1 8 5 9 6 10 16 11 7 12
REMARK SMILES IDX 15 13 14 14 17 15 18 16 19 17 8 18 9 19 13 20 10 21 12 22
REMARK SMILES IDX 11 23 24 24 25 25
REMARK H PARENT 25 26
ROOT
ATOM      1  C   UNL     1       3.712   1.404   1.537  1.00  0.00     0.113 C 
ENDROOT
BRANCH   1   2
ATOM      2  N   UNL     1       3.002   0.284   0.878  1.00  0.00    -0.295 NA
ATOM      3  C   UNL     1       2.416   0.662  -0.440  1.00  0.00     0.073 C 
ATOM      4  C   UNL     1       0.858   0.668  -0.489  1.00  0.00     0.137 C 
ATOM      5  N   UNL     1       0.313  -0.630  -0.064  1.00  0.00    -0.354 N 
ATOM      6  C   UNL     1       1.950  -0.230   1.790  1.00  0.00     0.106 C 
ATOM      7  C   UNL     1       0.957  -1.213   1.129  1.00  0.00     0.133 C 
ATOM      8  C   UNL     1       2.976  -0.304  -1.495  1.00  0.00     0.026 C 
BRANCH   5   9
ATOM      9  C   UNL     1      -1.088  -0.719  -0.073  1.00  0.00     0.132 A 
ATOM     10  N   UNL     1      -1.789   0.444  -0.067  1.00  0.00    -0.229 NA
ATOM     11  C   UNL     1      -1.729  -1.980  -0.101  1.00  0.00    -0.002 A 
ATOM     12  C   UNL     1      -3.148   0.420  -0.042  1.00  0.00     0.091 A 
ATOM     13  C   UNL     1      -3.131  -1.973  -0.056  1.00  0.00     0.010 A 
ATOM     14  C   UNL     1      -3.844  -0.780  -0.026  1.00  0.00     0.031 A 
BRANCH  11  15
ATOM     15  C   UNL     1      -0.993  -3.306  -0.178  1.00  0.00     0.023 C 
ATOM     16  C   UNL     1      -1.373  -4.327  -1.231  1.00  0.00     0.009 C 
ATOM     17  C   UNL     1      -0.070  -3.600  -1.339  1.00  0.00     0.009 C 
ENDBRANCH  11  15
BRANCH  12  18
ATOM     18  C   UNL     1      -3.832   1.735  -0.027  1.00  0.00     0.092 A 
ATOM     19  C   UNL     1      -3.128   2.929  -0.067  1.00  0.00     0.051 A 
ATOM     20  N   UNL     1      -5.188   1.721   0.029  1.00  0.00    -0.235 NA
ATOM     21  C   UNL     1      -3.868   4.088  -0.047  1.00  0.00     0.115 A 
ATOM     22  C   UNL     1      -5.804   2.912   0.042  1.00  0.00     0.222 A 
ATOM     23  N   UNL     1      -5.209   4.111   0.008  1.00  0.00    -0.245 NA
ENDBRANCH  12  18
ENDBRANCH   5   9
ENDBRANCH   1   2
BRANCH   1  24
ATOM     24  C   UNL     1       5.137   1.641   1.008  1.00  0.00     0.171 C 
BRANCH  24  25
ATOM     25  O   UNL     1       5.148   2.290  -0.257  1.00  0.00    -0.395 OA
ATOM     26  H   UNL     1       4.975   1.597  -0.916  1.00  0.00     0.210 HD
ENDBRANCH  24  25
ENDBRANCH   1  24
TORSDOF 6
