MODEL        5USER    Run = 5USERUSER    Estimated Free Energy of Binding    =  -7.74 kcal/mol  [=(1)+(2)+(3)-(4)]USERUSER    (1) Final Intermolecular Energy     =  -8.34 kcal/molUSER        vdW + Hbond + desolv Energy     =  -8.32 kcal/molUSER        Electrostatic Energy            =  -0.01 kcal/molUSER        Moving Ligand-Fixed Receptor    =  -8.34 kcal/molUSER        Moving Ligand-Moving Receptor   =  +0.00 kcal/molUSER    (2) Final Total Internal Energy     =  -0.60 kcal/molUSER    (3) Torsional Free Energy           =  +0.60 kcal/molUSER    (4) Unbound System's Energy         =  -0.60 kcal/molUSERUSERREMARK SMILES COc1cccc(I)c1-c1c[nH]c2cnccc12REMARK SMILES IDX 3 1 4 2 5 3 6 4 7 5 8 6 9 7 2 8 1 9 10 10 11 11 18 12 12 13REMARK SMILES IDX 17 14 13 15 16 16 14 17 15 18REMARK H PARENT 12 19USER                              x       y       z     vdW  Elec       q    TypeUSER                           _______ _______ _______ _____ _____    ______ ____ROOTATOM      1  C   UNL     1      38.521  46.058  17.069 -0.31 -0.04    +0.127 A  ATOM      2  C   UNL     1      39.334  45.612  18.119 -0.40 -0.01    +0.047 A  ATOM      3  C   UNL     1      40.584  46.189  18.343 -0.49 -0.00    +0.005 A  ATOM      4  C   UNL     1      41.035  47.219  17.523 -0.51 -0.00    +0.015 A  ATOM      5  C   UNL     1      40.239  47.676  16.468 -0.51 -0.01    +0.025 A  ATOM      6  I   UNL     1      41.034  49.247  15.309 -1.55 +0.01    -0.043 I  ATOM      7  C   UNL     1      38.976  47.099  16.226 -0.42 -0.01    +0.039 A  ENDROOTBRANCH   1   8ATOM      8  O   UNL     1      37.280  45.540  16.790 -0.06 +0.19    -0.496 OA ATOM      9  C   UNL     1      36.145  46.202  17.327 -0.19 -0.17    +0.278 C  ENDBRANCH   1   8BRANCH   7  10ATOM     10  C   UNL     1      38.124  47.563  15.141 -0.47 -0.01    +0.012 A  ATOM     11  C   UNL     1      37.712  48.874  15.016 -0.43 -0.07    +0.092 A  ATOM     12  C   UNL     1      37.581  46.834  14.040 -0.46 -0.00    +0.011 A  ATOM     13  N   UNL     1      36.935  48.965  13.891 -0.26 +0.23    -0.359 N  ATOM     14  C   UNL     1      37.645  45.499  13.616 -0.40 -0.01    +0.031 A  ATOM     15  C   UNL     1      36.838  47.736  13.279 -0.55 -0.03    +0.065 A  ATOM     16  C   UNL     1      36.952  45.184  12.458 -0.43 -0.04    +0.112 A  ATOM     17  C   UNL     1      36.166  47.351  12.126 -0.53 -0.07    +0.137 A  ATOM     18  N   UNL     1      36.231  46.061  11.724 -0.40 +0.11    -0.263 NA ATOM     19  H   UNL     1      36.497  49.811  13.555 +0.05 -0.09    +0.166 HD ENDBRANCH   7  10TORSDOF 2TERENDMDL