REMARK SMILES Nc1nccc(C(=O)Nc2ccc(NC(=O)c3cccc(Cl)c3Cl)cc2Cl)n1
REMARK SMILES IDX 10 1 11 2 12 3 13 4 25 5 26 6 27 7 9 8 7 9 8 10 6 12 2 13
REMARK SMILES IDX 3 14 28 15 4 16 5 17 1 18 14 21 15 22 16 24 17 25 18 26
REMARK SMILES IDX 23 27 19 28 21 29 20 30 24 31 22 32
REMARK H PARENT 9 11 1 19 1 20 14 23
ROOT
ATOM      1  C   UNL     1       1.392  -0.086   0.390  1.00  0.00     0.060 A 
ATOM      2  C   UNL     1       0.501  -0.225   1.452  1.00  0.00     0.030 A 
ATOM      3  C   UNL     1      -0.880  -0.275   1.220  1.00  0.00     0.028 A 
ATOM      4  C   UNL     1      -1.398  -0.186  -0.078  1.00  0.00     0.043 A 
ATOM      5  C   UNL     1      -0.512  -0.047  -1.145  1.00  0.00     0.048 A 
ATOM      6  C   UNL     1       0.868   0.002  -0.912  1.00  0.00     0.066 A 
ATOM      7  Cl  UNL     1       1.918   0.181  -2.281  1.00  0.00    -0.082 Cl
ENDROOT
BRANCH   1   8
ATOM      8  N   UNL     1       2.791  -0.031   0.561  1.00  0.00    -0.319 N 
ATOM      9  C   UNL     1       3.525  -0.085   1.728  1.00  0.00     0.274 C 
ATOM     10  O   UNL     1       3.092  -0.191   2.869  1.00  0.00    -0.267 OA
ATOM     11  H   UNL     1       3.346   0.059  -0.291  1.00  0.00     0.170 HD
BRANCH   9  12
ATOM     12  C   UNL     1       5.003   0.007   1.496  1.00  0.00     0.134 A 
ATOM     13  C   UNL     1       6.704   0.217   0.000  1.00  0.00     0.220 A 
ATOM     14  N   UNL     1       7.628   0.185   0.965  1.00  0.00    -0.222 NA
ATOM     15  N   UNL     1       5.390   0.151   0.204  1.00  0.00    -0.208 NA
ATOM     16  C   UNL     1       7.192   0.044   2.231  1.00  0.00     0.117 A 
ATOM     17  C   UNL     1       5.868  -0.054   2.564  1.00  0.00     0.054 A 
BRANCH  13  18
ATOM     18  N   UNL     1       7.144   0.367  -1.295  1.00  0.00    -0.368 N 
ATOM     19  H   UNL     1       8.068   0.775  -1.306  1.00  0.00     0.159 HD
ATOM     20  H   UNL     1       6.439   0.794  -1.876  1.00  0.00     0.159 HD
ENDBRANCH  13  18
ENDBRANCH   9  12
ENDBRANCH   1   8
BRANCH   4  21
ATOM     21  N   UNL     1      -2.801  -0.243  -0.212  1.00  0.00    -0.322 N 
ATOM     22  C   UNL     1      -3.537  -0.215  -1.380  1.00  0.00     0.257 C 
ATOM     23  H   UNL     1      -3.318  -0.360   0.652  1.00  0.00     0.170 HD
ATOM     24  O   UNL     1      -3.093  -0.105  -2.518  1.00  0.00    -0.269 OA
BRANCH  22  25
ATOM     25  C   UNL     1      -5.020  -0.253  -1.221  1.00  0.00     0.060 A 
ATOM     26  C   UNL     1      -5.744   0.600  -2.076  1.00  0.00     0.015 A 
ATOM     27  C   UNL     1      -5.710  -1.075  -0.314  1.00  0.00     0.072 A 
ATOM     28  C   UNL     1      -7.135   0.658  -2.018  1.00  0.00     0.002 A 
ATOM     29  C   UNL     1      -7.114  -1.005  -0.262  1.00  0.00     0.060 A 
ATOM     30  C   UNL     1      -7.819  -0.141  -1.108  1.00  0.00     0.022 A 
ATOM     31  Cl  UNL     1      -4.868  -2.195   0.712  1.00  0.00    -0.082 Cl
ATOM     32  Cl  UNL     1      -8.054  -1.966   0.831  1.00  0.00    -0.083 Cl
ENDBRANCH  22  25
ENDBRANCH   4  21
TORSDOF 5
