MODEL        9USER    Run = 9USERUSER    Estimated Free Energy of Binding    =  -9.90 kcal/mol  [=(1)+(2)+(3)-(4)]USERUSER    (1) Final Intermolecular Energy     = -11.39 kcal/molUSER        vdW + Hbond + desolv Energy     = -11.21 kcal/molUSER        Electrostatic Energy            =  -0.17 kcal/molUSER        Moving Ligand-Fixed Receptor    = -11.39 kcal/molUSER        Moving Ligand-Moving Receptor   =  +0.00 kcal/molUSER    (2) Final Total Internal Energy     =  -1.53 kcal/molUSER    (3) Torsional Free Energy           =  +1.49 kcal/molUSER    (4) Unbound System's Energy         =  -1.53 kcal/molUSERUSERREMARK SMILES Nc1nccc(C(=O)Nc2ccc(NC(=O)c3cccc(Cl)c3Cl)cc2Cl)n1REMARK SMILES IDX 10 1 11 2 12 3 13 4 25 5 26 6 27 7 9 8 7 9 8 10 6 12 2 13REMARK SMILES IDX 3 14 28 15 4 16 5 17 1 18 14 21 15 22 16 24 17 25 18 26REMARK SMILES IDX 23 27 19 28 21 29 20 30 24 31 22 32REMARK H PARENT 9 11 1 19 1 20 14 23USER                              x       y       z     vdW  Elec       q    TypeUSER                           _______ _______ _______ _____ _____    ______ ____ROOTATOM      1  C   UNL     1      36.857  45.242  16.809 -0.31 -0.02    +0.060 A  ATOM      2  C   UNL     1      35.840  45.166  15.859 -0.32 -0.02    +0.030 A  ATOM      3  C   UNL     1      34.799  44.240  16.005 -0.31 -0.01    +0.028 A  ATOM      4  C   UNL     1      34.754  43.371  17.102 -0.33 -0.02    +0.043 A  ATOM      5  C   UNL     1      35.768  43.442  18.056 -0.30 -0.01    +0.048 A  ATOM      6  C   UNL     1      36.808  44.369  17.909 -0.29 -0.02    +0.066 A  ATOM      7  Cl  UNL     1      38.043  44.404  19.127 -0.49 +0.01    -0.082 Cl ENDROOTBRANCH   1   8ATOM      8  N   UNL     1      37.930  46.154  16.717 -0.17 +0.12    -0.319 N  ATOM      9  C   UNL     1      38.391  46.842  15.613 -0.28 -0.11    +0.274 C  ATOM     10  O   UNL     1      37.948  46.791  14.472 -0.26 +0.10    -0.267 OA ATOM     11  H   UNL     1      38.440  46.338  17.581 +0.09 -0.05    +0.170 HD BRANCH   9  12ATOM     12  C   UNL     1      39.564  47.723  15.920 -0.41 -0.04    +0.134 A  ATOM     13  C   UNL     1      41.373  48.124  17.240 -0.31 -0.02    +0.220 A  ATOM     14  N   UNL     1      41.695  49.226  16.555 -0.91 -0.04    -0.222 NA ATOM     15  N   UNL     1      40.340  47.332  16.961 -0.36 +0.04    -0.208 NA ATOM     16  C   UNL     1      40.895  49.569  15.528 -0.55 -0.03    +0.117 A  ATOM     17  C   UNL     1      39.794  48.845  15.158 -0.50 -0.02    +0.054 A  BRANCH  13  18ATOM     18  N   UNL     1      42.191  47.766  18.287 -0.32 +0.01    -0.368 N  ATOM     19  H   UNL     1      42.347  48.556  18.896 -0.03 -0.00    +0.159 HD ATOM     20  H   UNL     1      43.001  47.259  17.964 -0.48 -0.02    +0.159 HD ENDBRANCH  13  18ENDBRANCH   9  12ENDBRANCH   1   8BRANCH   4  21ATOM     21  N   UNL     1      33.668  42.472  17.162 -0.17 +0.13    -0.322 N  ATOM     22  C   UNL     1      32.965  42.074  18.282 -0.27 -0.05    +0.257 C  ATOM     23  H   UNL     1      33.348  42.114  16.269 -0.38 -0.11    +0.170 HD ATOM     24  O   UNL     1      33.185  42.416  19.439 -0.57 -0.01    -0.269 OA BRANCH  22  25ATOM     25  C   UNL     1      31.880  41.076  18.054 -0.34 -0.01    +0.060 A  ATOM     26  C   UNL     1      32.026  39.854  18.738 -0.39 +0.00    +0.015 A  ATOM     27  C   UNL     1      30.753  41.286  17.241 -0.28 -0.02    +0.072 A  ATOM     28  C   UNL     1      31.080  38.840  18.600 -0.44 +0.00    +0.002 A  ATOM     29  C   UNL     1      29.807  40.254  17.107 -0.33 -0.00    +0.060 A  ATOM     30  C   UNL     1      29.973  39.039  17.781 -0.32 +0.01    +0.022 A  ATOM     31  Cl  UNL     1      30.491  42.801  16.432 -0.44 +0.03    -0.082 Cl ATOM     32  Cl  UNL     1      28.393  40.410  16.117 -0.44 -0.00    -0.083 Cl ENDBRANCH  22  25ENDBRANCH   4  21TORSDOF 5TERENDMDL