MODEL        4USER    Run = 4USERUSER    Estimated Free Energy of Binding    =  -8.29 kcal/mol  [=(1)+(2)+(3)-(4)]USERUSER    (1) Final Intermolecular Energy     =  -9.78 kcal/molUSER        vdW + Hbond + desolv Energy     =  -9.75 kcal/molUSER        Electrostatic Energy            =  -0.03 kcal/molUSER        Moving Ligand-Fixed Receptor    =  -9.78 kcal/molUSER        Moving Ligand-Moving Receptor   =  +0.00 kcal/molUSER    (2) Final Total Internal Energy     =  -1.76 kcal/molUSER    (3) Torsional Free Energy           =  +1.49 kcal/molUSER    (4) Unbound System's Energy         =  -1.76 kcal/molUSERUSERREMARK SMILES C=CC(=O)Nc1c(Nc2ccccc2Cl)ncnc1SCREMARK SMILES IDX 6 1 7 2 16 3 17 4 18 5 19 6 5 7 3 8 4 9 2 11 1 12 8 13 9 15REMARK SMILES IDX 10 16 14 17 11 18 13 19 12 20 15 21 20 22 21 23REMARK H PARENT 5 10 8 14USER                              x       y       z     vdW  Elec       q    TypeUSER                           _______ _______ _______ _____ _____    ______ ____ROOTATOM      1  C   UNL     1      39.231  47.774  15.782 -0.41 -0.04    +0.117 A  ATOM      2  C   UNL     1      39.612  46.846  16.758 -0.36 -0.04    +0.158 A  ATOM      3  N   UNL     1      38.701  46.062  17.376 -0.27 +0.05    -0.217 NA ATOM      4  C   UNL     1      37.427  46.160  16.991 -0.21 -0.10    +0.225 A  ATOM      5  N   UNL     1      36.957  46.967  16.041 -0.25 +0.16    -0.228 NA ATOM      6  C   UNL     1      37.871  47.756  15.446 -0.37 -0.08    +0.125 A  ENDROOTBRANCH   1   7ATOM      7  N   UNL     1      40.083  48.689  15.093 -0.30 +0.10    -0.317 N  ATOM      8  C   UNL     1      41.161  49.371  15.591 -0.49 -0.04    +0.247 C  ATOM      9  O   UNL     1      41.539  49.374  16.758 -1.03 -0.02    -0.270 OA ATOM     10  H   UNL     1      39.708  49.014  14.207 -0.01 -0.07    +0.170 HD BRANCH   8  11ATOM     11  C   UNL     1      41.840  50.264  14.613 -0.70 -0.01    +0.064 C  ATOM     12  C   UNL     1      42.385  49.864  13.457 -0.73 -0.00    +0.014 C  ENDBRANCH   8  11ENDBRANCH   1   7BRANCH   2  13ATOM     13  N   UNL     1      40.981  46.615  17.044 -0.20 +0.03    -0.337 N  ATOM     14  H   UNL     1      41.543  47.252  16.471 -0.30 -0.02    +0.168 HD BRANCH  13  15ATOM     15  C   UNL     1      41.528  46.456  18.341 -0.47 -0.00    +0.059 A  ATOM     16  C   UNL     1      42.390  47.451  18.831 -0.52 +0.00    +0.027 A  ATOM     17  C   UNL     1      41.204  45.380  19.189 -0.39 +0.00    +0.064 A  ATOM     18  C   UNL     1      42.917  47.377  20.124 -0.41 +0.00    +0.002 A  ATOM     19  C   UNL     1      41.732  45.308  20.484 -0.33 +0.00    +0.023 A  ATOM     20  C   UNL     1      42.587  46.307  20.951 -0.35 +0.00    +0.002 A  ATOM     21  Cl  UNL     1      40.220  44.055  18.660 -0.35 +0.00    -0.082 Cl ENDBRANCH  13  15ENDBRANCH   2  13BRANCH   6  22ATOM     22  S   UNL     1      37.255  48.863  14.156 -0.67 +0.07    -0.108 SA ATOM     23  C   UNL     1      36.591  47.665  12.969 -0.64 -0.04    +0.092 C  ENDBRANCH   6  22TORSDOF 5TERENDMDL