MODEL        8USER    Run = 8USERUSER    Estimated Free Energy of Binding    =  -8.41 kcal/mol  [=(1)+(2)+(3)-(4)]USERUSER    (1) Final Intermolecular Energy     = -10.20 kcal/molUSER        vdW + Hbond + desolv Energy     =  -9.84 kcal/molUSER        Electrostatic Energy            =  -0.35 kcal/molUSER        Moving Ligand-Fixed Receptor    = -10.20 kcal/molUSER        Moving Ligand-Moving Receptor   =  +0.00 kcal/molUSER    (2) Final Total Internal Energy     =  -1.26 kcal/molUSER    (3) Torsional Free Energy           =  +1.79 kcal/molUSER    (4) Unbound System's Energy         =  -1.26 kcal/molUSERUSERREMARK SMILES C[C@H]1CN(c2nc(-c3ccncn3)ccc2C2CC2)CCN1CCOREMARK SMILES IDX 23 1 22 2 2 3 3 4 4 5 21 6 20 7 1 8 5 9 6 10 16 11 7 12REMARK SMILES IDX 15 13 14 14 17 15 18 16 19 17 8 18 9 19 13 20 10 21 12 22REMARK SMILES IDX 11 23 24 24 25 25REMARK H PARENT 25 26USER                              x       y       z     vdW  Elec       q    TypeUSER                           _______ _______ _______ _____ _____    ______ ____ROOTATOM      1  C   UNL     1      32.180  44.110  16.431 -0.31 -0.05    +0.113 C  ENDROOTBRANCH   1   2ATOM      2  N   UNL     1      33.538  44.007  17.012 -0.10 +0.12    -0.295 NA ATOM      3  C   UNL     1      33.914  45.197  17.827 -0.39 -0.04    +0.073 C  ATOM      4  C   UNL     1      35.068  46.062  17.234 -0.34 -0.12    +0.137 C  ATOM      5  N   UNL     1      36.263  45.243  16.980 -0.10 +0.16    -0.354 N  ATOM      6  C   UNL     1      34.519  43.788  15.921 -0.28 -0.05    +0.106 C  ATOM      7  C   UNL     1      35.997  43.934  16.352 -0.34 -0.05    +0.133 C  ATOM      8  C   UNL     1      34.292  44.702  19.232 -0.42 -0.01    +0.026 C  BRANCH   5   9ATOM      9  C   UNL     1      37.357  45.937  16.441 -0.28 -0.06    +0.132 A  ATOM     10  N   UNL     1      38.448  46.099  17.233 -0.25 +0.06    -0.229 NA ATOM     11  C   UNL     1      37.313  46.432  15.116 -0.39 +0.00    -0.002 A  ATOM     12  C   UNL     1      39.525  46.791  16.776 -0.40 -0.02    +0.091 A  ATOM     13  C   UNL     1      38.431  47.158  14.679 -0.46 -0.00    +0.010 A  ATOM     14  C   UNL     1      39.536  47.341  15.502 -0.48 -0.01    +0.031 A  BRANCH  11  15ATOM     15  C   UNL     1      36.147  46.219  14.167 -0.49 -0.01    +0.023 C  ATOM     16  C   UNL     1      35.850  47.237  13.085 -0.66 -0.01    +0.009 C  ATOM     17  C   UNL     1      36.396  45.896  12.711 -0.64 -0.00    +0.009 C  ENDBRANCH  11  15BRANCH  12  18ATOM     18  C   UNL     1      40.668  46.928  17.710 -0.45 -0.01    +0.092 A  ATOM     19  C   UNL     1      40.884  46.027  18.742 -0.45 -0.00    +0.051 A  ATOM     20  N   UNL     1      41.501  47.981  17.511 -0.50 +0.02    -0.235 NA ATOM     21  C   UNL     1      41.975  46.254  19.547 -0.36 +0.02    +0.115 A  ATOM     22  C   UNL     1      42.534  48.101  18.358 -0.14 +0.00    +0.222 A  ATOM     23  N   UNL     1      42.819  47.284  19.379 -0.39 -0.04    -0.245 NA ENDBRANCH  12  18ENDBRANCH   5   9ENDBRANCH   1   2BRANCH   1  24ATOM     24  C   UNL     1      32.066  45.125  15.280 -0.33 -0.11    +0.171 C  BRANCH  24  25ATOM     25  O   UNL     1      31.356  46.298  15.655 -0.49 +0.25    -0.395 OA ATOM     26  H   UNL     1      32.022  47.000  15.738 -0.43 -0.41    +0.210 HD ENDBRANCH  24  25ENDBRANCH   1  24TORSDOF 6TERENDMDL