REMARK SMILES CN=c1c(NC(=O)Nc2cccc(C)c2C)cccn1C(=O)c1nc(C)ccc1F
REMARK SMILES IDX 3 1 4 2 17 3 18 4 19 5 20 6 2 7 1 8 5 9 6 10 8 11 7 13 9 15
REMARK SMILES IDX 10 16 15 17 11 18 13 19 12 20 16 21 14 22 21 23 22 24 23 25
REMARK SMILES IDX 24 26 29 27 25 28 28 29 27 30 30 31 26 32
REMARK H PARENT 5 12 8 14
ROOT
ATOM      1  C   UNL     1       1.666   0.806  -0.409  1.00  0.00     0.158 A 
ATOM      2  C   UNL     1       0.384   0.336  -1.110  1.00  0.00     0.086 A 
ATOM      3  C   UNL     1       0.415   0.194  -2.447  1.00  0.00     0.031 A 
ATOM      4  C   UNL     1       1.557   0.580  -3.227  1.00  0.00     0.021 A 
ATOM      5  C   UNL     1       2.578   1.206  -2.635  1.00  0.00     0.097 A 
ATOM      6  N   UNL     1       2.618   1.390  -1.260  1.00  0.00    -0.265 N 
ENDROOT
BRANCH   1   7
ATOM      7  N   UNL     1       1.975   0.714   0.835  1.00  0.00    -0.269 NA
ATOM      8  C   UNL     1       1.244  -0.029   1.833  1.00  0.00     0.174 C 
ENDBRANCH   1   7
BRANCH   2   9
ATOM      9  N   UNL     1      -0.762   0.192  -0.349  1.00  0.00    -0.304 N 
ATOM     10  C   UNL     1      -1.977  -0.374  -0.708  1.00  0.00     0.323 C 
ATOM     11  N   UNL     1      -2.921  -0.158   0.287  1.00  0.00    -0.307 N 
ATOM     12  H   UNL     1      -0.686   0.517   0.600  1.00  0.00     0.172 HD
ATOM     13  O   UNL     1      -2.167  -0.980  -1.754  1.00  0.00    -0.248 OA
ATOM     14  H   UNL     1      -2.665   0.527   0.978  1.00  0.00     0.171 HD
BRANCH  11  15
ATOM     15  C   UNL     1      -4.263  -0.619   0.340  1.00  0.00     0.046 A 
ATOM     16  C   UNL     1      -4.761  -1.542  -0.586  1.00  0.00     0.026 A 
ATOM     17  C   UNL     1      -5.117  -0.144   1.377  1.00  0.00    -0.025 A 
ATOM     18  C   UNL     1      -6.081  -1.985  -0.517  1.00  0.00     0.002 A 
ATOM     19  C   UNL     1      -6.462  -0.593   1.434  1.00  0.00    -0.046 A 
ATOM     20  C   UNL     1      -6.926  -1.513   0.480  1.00  0.00     0.004 A 
ATOM     21  C   UNL     1      -4.591   0.822   2.410  1.00  0.00     0.047 C 
ATOM     22  C   UNL     1      -7.424  -0.135   2.501  1.00  0.00     0.044 C 
ENDBRANCH  11  15
ENDBRANCH   2   9
BRANCH   6  23
ATOM     23  C   UNL     1       3.728   2.024  -0.695  1.00  0.00     0.285 C 
ATOM     24  O   UNL     1       3.661   3.166  -0.232  1.00  0.00    -0.266 OA
BRANCH  23  25
ATOM     25  C   UNL     1       5.027   1.267  -0.755  1.00  0.00     0.165 A 
ATOM     26  N   UNL     1       4.970  -0.028  -1.188  1.00  0.00    -0.245 NA
ATOM     27  C   UNL     1       6.222   1.884  -0.392  1.00  0.00     0.154 A 
ATOM     28  C   UNL     1       6.131  -0.726  -1.245  1.00  0.00     0.038 A 
ATOM     29  C   UNL     1       7.406   1.159  -0.478  1.00  0.00     0.043 A 
ATOM     30  C   UNL     1       7.365  -0.163  -0.911  1.00  0.00     0.026 A 
ATOM     31  F   UNL     1       6.288   3.163   0.005  1.00  0.00    -0.204 F 
ATOM     32  C   UNL     1       6.051  -2.149  -1.713  1.00  0.00     0.067 C 
ENDBRANCH  23  25
ENDBRANCH   6  23
TORSDOF 5
