MODEL        1USER    Run = 1USERUSER    Estimated Free Energy of Binding    =  -6.16 kcal/mol  [=(1)+(2)+(3)-(4)]USERUSER    (1) Final Intermolecular Energy     = -10.93 kcal/molUSER        vdW + Hbond + desolv Energy     = -11.21 kcal/molUSER        Electrostatic Energy            =  -0.20 kcal/molUSER        Moving Ligand-Fixed Receptor    = -11.41 kcal/molUSER        Moving Ligand-Moving Receptor   =  +0.47 kcal/molUSER    (2) Final Total Internal Energy     =  -2.18 kcal/molUSER    (3) Torsional Free Energy           =  +4.77 kcal/molUSER    (4) Unbound System's Energy         =  -2.18 kcal/molUSERUSERREMARK SMILES CCCS(=O)(=O)NC=C1C=CN=C(Nc2ccc(C(=O)NCCO)cc2)SC1REMARK SMILES IDX 11 1 10 2 9 3 8 5 7 6 4 8 5 9 6 10 3 11 2 12 1 13 12 14REMARK SMILES IDX 13 15 14 16 27 18 28 19 15 21 16 22 26 23 17 24 25 25 18 26REMARK SMILES IDX 19 27 21 28 20 29 22 31 23 32 24 33REMARK H PARENT 7 7 14 17 21 30 24 34REMARK Flexibility Score:   64.900USER                              x       y       z     vdW  Elec       q    TypeUSER                           _______ _______ _______ _____ _____    ______ ____ROOTATOM      1  C   UNL     1      34.613  46.214  17.382 -0.35 -0.11    +0.114 C  ENDROOTBRANCH   1   2ATOM      2  C   UNL     1      33.611  45.505  16.841 -0.36 -0.02    +0.026 C  BRANCH   2   3ATOM      3  C   UNL     1      33.598  44.135  16.338 -0.37 +0.01    -0.019 CG0ATOM      4  G   UNL     1      34.845  43.645  15.644 +0.00 +0.00    +0.000 G0 BRANCH   3   5ATOM      5  C   UNL     1      32.570  43.270  16.446 -0.32 -0.04    +0.098 C  BRANCH   5   6ATOM      6  N   UNL     1      32.735  42.044  17.125 -0.14 +0.13    -0.290 N  ATOM      7  H   UNL     1      33.254  41.248  16.765 -0.37 -0.13    +0.179 HD BRANCH   6   8ATOM      8  S   UNL     1      31.921  41.800  18.571 -0.34 -0.02    +0.232 S  ATOM      9  O   UNL     1      30.519  42.016  18.288 -0.13 +0.02    -0.207 OA ATOM     10  O   UNL     1      32.386  40.565  19.166 -0.66 -0.02    -0.207 OA BRANCH   8  11ATOM     11  C   UNL     1      32.512  43.162  19.575 -0.34 +0.00    +0.159 C  BRANCH  11  12ATOM     12  C   UNL     1      34.009  43.406  19.422 -0.46 -0.00    +0.015 C  ATOM     13  C   UNL     1      34.812  42.171  19.796 -0.44 -0.00    +0.005 C  ENDBRANCH  11  12ENDBRANCH   8  11ENDBRANCH   6   8ENDBRANCH   5   6ENDBRANCH   3   5ENDBRANCH   2   3ENDBRANCH   1   2BRANCH   1  14ATOM     14  N   UNL     1      35.974  46.138  17.303 -0.23 +0.15    -0.233 NA BRANCH  14  15ATOM     15  C   UNL     1      36.669  45.164  16.813 -0.29 -0.07    +0.165 C  ATOM     16  N   UNL     1      37.873  45.279  16.165 -0.13 +0.11    -0.335 N  ATOM     17  H   UNL     1      38.267  44.394  15.875 +0.11 -0.04    +0.169 HD BRANCH  15  18ATOM     18  S   UNL     1      36.187  43.473  16.845 -0.46 +0.03    -0.083 SA BRANCH  18  19ATOM     19  C   UNL     1      34.844  43.645  15.644 -0.11 -0.05    +0.115 CG0ATOM     20  G   UNL     1      33.599  44.143  16.335 +0.00 +0.00    +0.000 G0 ENDBRANCH  18  19ENDBRANCH  15  18BRANCH  16  21ATOM     21  C   UNL     1      38.720  46.386  16.000 -0.38 -0.01    +0.040 A  ATOM     22  C   UNL     1      38.493  47.423  15.088 -0.45 -0.01    +0.027 A  ATOM     23  C   UNL     1      39.905  46.437  16.758 -0.45 -0.00    +0.027 A  ATOM     24  C   UNL     1      39.400  48.483  14.952 -0.54 -0.01    +0.016 A  ATOM     25  C   UNL     1      40.821  47.488  16.623 -0.46 -0.00    +0.016 A  ATOM     26  C   UNL     1      40.573  48.514  15.708 -0.56 -0.01    +0.039 A  BRANCH  26  27ATOM     27  C   UNL     1      41.514  49.653  15.519 -0.38 -0.02    +0.251 C  ATOM     28  N   UNL     1      42.074  49.779  14.267 -0.36 +0.05    -0.350 N  ATOM     29  O   UNL     1      41.727  50.439  16.437 -0.80 +0.01    -0.269 OA ATOM     30  H   UNL     1      41.622  49.316  13.488 +0.12 -0.02    +0.163 HD BRANCH  28  31ATOM     31  C   UNL     1      42.832  50.966  13.908 -0.47 -0.04    +0.144 C  BRANCH  31  32ATOM     32  C   UNL     1      42.920  51.119  12.394 -0.52 -0.08    +0.177 C  BRANCH  32  33ATOM     33  O   UNL     1      42.506  49.904  11.763 -0.21 +0.15    -0.395 OA ATOM     34  H   UNL     1      42.842  49.934  10.850 -0.35 -0.13    +0.210 HD ENDBRANCH  32  33ENDBRANCH  31  32ENDBRANCH  28  31ENDBRANCH  26  27ENDBRANCH  16  21ENDBRANCH  14  15ENDBRANCH   1  14TORSDOF 10TERENDMDL