REMARK SMILES C=CCOc1c(Cl)cc(Cl)cc1NC(=O)OCC1=C(F)C=CNCCO1
REMARK SMILES IDX 16 1 14 2 13 3 15 5 12 6 5 7 6 8 8 9 11 10 9 11 7 12 10 13
REMARK SMILES IDX 4 14 3 15 2 16 1 17 17 18 18 19 19 20 20 21 21 22 26 24
REMARK SMILES IDX 25 25 24 26 23 27 22 29
REMARK H PARENT 13 4 23 28
REMARK Flexibility Score:   48.900
ROOT
ATOM      1  O   UNL     1       0.013   1.224   0.661  1.00  0.00    -0.441 OA
ENDROOT
BRANCH   1   2
ATOM      2  C   UNL     1       0.021   0.136   1.471  1.00  0.00     0.412 C 
ATOM      3  N   UNL     1       1.054  -0.665   1.081  1.00  0.00    -0.288 N 
ATOM      4  H   UNL     1       1.573  -0.317   0.284  1.00  0.00     0.173 HD
ATOM      5  O   UNL     1      -0.760  -0.061   2.388  1.00  0.00    -0.224 OA
BRANCH   3   6
ATOM      6  C   UNL     1       1.447  -1.917   1.589  1.00  0.00     0.089 A 
ATOM      7  C   UNL     1       2.578  -2.524   1.008  1.00  0.00     0.162 A 
ATOM      8  C   UNL     1       2.985  -3.802   1.412  1.00  0.00     0.086 A 
ATOM      9  C   UNL     1       2.303  -4.457   2.435  1.00  0.00     0.045 A 
ATOM     10  C   UNL     1       0.774  -2.579   2.616  1.00  0.00     0.050 A 
ATOM     11  C   UNL     1       1.208  -3.840   3.035  1.00  0.00     0.044 A 
ATOM     12  Cl  UNL     1       4.306  -4.620   0.661  1.00  0.00    -0.080 Cl
ATOM     13  Cl  UNL     1       0.369  -4.652   4.301  1.00  0.00    -0.084 Cl
BRANCH   7  14
ATOM     14  O   UNL     1       3.226  -1.843   0.001  1.00  0.00    -0.486 OA
BRANCH  14  15
ATOM     15  C   UNL     1       4.394  -1.183   0.508  1.00  0.00     0.257 C 
BRANCH  15  16
ATOM     16  C   UNL     1       4.691  -0.030  -0.403  1.00  0.00     0.006 C 
ATOM     17  C   UNL     1       5.845   0.137  -1.062  1.00  0.00     0.007 C 
ENDBRANCH  15  16
ENDBRANCH  14  15
ENDBRANCH   7  14
ENDBRANCH   3   6
ENDBRANCH   1   2
BRANCH   1  18
ATOM     18  C   UNL     1      -1.046   2.172   0.874  1.00  0.00     0.312 C 
BRANCH  18  19
ATOM     19  C   UNL     1      -2.040   2.073  -0.270  1.00  0.00     0.169 C 
BRANCH  19  20
ATOM     20  C   UNL     1      -2.276   3.166  -1.028  1.00  0.00     0.165 C 
ATOM     21  F   UNL     1      -1.540   4.270  -0.728  1.00  0.00    -0.203 F 
BRANCH  20  22
ATOM     22  C   UNL     1      -3.104   3.395  -2.187  1.00  0.00     0.060 CG0
ATOM     23  G   UNL     1      -4.371   3.061  -2.448  1.00  0.00     0.000 G0
ENDBRANCH  20  22
ENDBRANCH  19  20
BRANCH  19  24
ATOM     24  O   UNL     1      -2.583   0.814  -0.332  1.00  0.00    -0.489 OA
BRANCH  24  25
ATOM     25  C   UNL     1      -3.700   0.490  -1.151  1.00  0.00     0.250 C 
BRANCH  25  26
ATOM     26  C   UNL     1      -4.952   1.284  -0.767  1.00  0.00     0.154 C 
BRANCH  26  27
ATOM     27  N   UNL     1      -5.279   2.300  -1.760  1.00  0.00    -0.387 N 
ATOM     28  H   UNL     1      -6.140   2.116  -2.271  1.00  0.00     0.160 HD
BRANCH  27  29
ATOM     29  C   UNL     1      -4.371   3.061  -2.448  1.00  0.00     0.081 CG0
ATOM     30  G   UNL     1      -3.104   3.395  -2.187  1.00  0.00     0.000 G0
ENDBRANCH  27  29
ENDBRANCH  26  27
ENDBRANCH  25  26
ENDBRANCH  24  25
ENDBRANCH  19  24
ENDBRANCH  18  19
ENDBRANCH   1  18
TORSDOF 7
