REMARK SMILES C=CC(=O)Nc1c(Nc2ccccc2Cl)ncnc1SC
REMARK SMILES IDX 6 1 7 2 16 3 17 4 18 5 19 6 5 7 3 8 4 9 2 11 1 12 8 13 9 15
REMARK SMILES IDX 10 16 14 17 11 18 13 19 12 20 15 21 20 22 21 23
REMARK H PARENT 5 10 8 14
ROOT
ATOM      1  C   UNL     1       1.240  -0.208   0.164  1.00  0.00     0.117 A 
ATOM      2  C   UNL     1      -0.048  -0.501  -0.300  1.00  0.00     0.158 A 
ATOM      3  N   UNL     1      -0.365  -1.730  -0.764  1.00  0.00    -0.217 NA
ATOM      4  C   UNL     1       0.573  -2.678  -0.719  1.00  0.00     0.225 A 
ATOM      5  N   UNL     1       1.812  -2.530  -0.252  1.00  0.00    -0.228 NA
ATOM      6  C   UNL     1       2.122  -1.297   0.190  1.00  0.00     0.125 A 
ENDROOT
BRANCH   1   7
ATOM      7  N   UNL     1       1.714   1.054   0.632  1.00  0.00    -0.317 N 
ATOM      8  C   UNL     1       1.233   2.299   0.324  1.00  0.00     0.247 C 
ATOM      9  O   UNL     1       0.346   2.552  -0.485  1.00  0.00    -0.270 OA
ATOM     10  H   UNL     1       2.631   1.015   1.067  1.00  0.00     0.170 HD
BRANCH   8  11
ATOM     11  C   UNL     1       1.958   3.425   0.972  1.00  0.00     0.064 C 
ATOM     12  C   UNL     1       2.565   3.364   2.165  1.00  0.00     0.014 C 
ENDBRANCH   8  11
ENDBRANCH   1   7
BRANCH   2  13
ATOM     13  N   UNL     1      -1.093   0.450  -0.187  1.00  0.00    -0.337 N 
ATOM     14  H   UNL     1      -0.755   1.347  -0.549  1.00  0.00     0.168 HD
BRANCH  13  15
ATOM     15  C   UNL     1      -2.446   0.221  -0.537  1.00  0.00     0.059 A 
ATOM     16  C   UNL     1      -2.980   0.911  -1.638  1.00  0.00     0.027 A 
ATOM     17  C   UNL     1      -3.268  -0.710   0.127  1.00  0.00     0.064 A 
ATOM     18  C   UNL     1      -4.292   0.685  -2.064  1.00  0.00     0.002 A 
ATOM     19  C   UNL     1      -4.582  -0.935  -0.302  1.00  0.00     0.023 A 
ATOM     20  C   UNL     1      -5.092  -0.239  -1.398  1.00  0.00     0.002 A 
ATOM     21  Cl  UNL     1      -2.743  -1.554   1.547  1.00  0.00    -0.082 Cl
ENDBRANCH  13  15
ENDBRANCH   2  13
BRANCH   6  22
ATOM     22  S   UNL     1       3.800  -1.071   0.823  1.00  0.00    -0.108 SA
ATOM     23  C   UNL     1       4.444  -2.760   0.687  1.00  0.00     0.092 C 
ENDBRANCH   6  22
TORSDOF 5
