MODEL        4USER    Run = 4USERUSER    Estimated Free Energy of Binding    =  -9.32 kcal/mol  [=(1)+(2)+(3)-(4)]USERUSER    (1) Final Intermolecular Energy     = -10.51 kcal/molUSER        vdW + Hbond + desolv Energy     = -10.41 kcal/molUSER        Electrostatic Energy            =  -0.10 kcal/molUSER        Moving Ligand-Fixed Receptor    = -10.51 kcal/molUSER        Moving Ligand-Moving Receptor   =  +0.00 kcal/molUSER    (2) Final Total Internal Energy     =  -0.80 kcal/molUSER    (3) Torsional Free Energy           =  +1.19 kcal/molUSER    (4) Unbound System's Energy         =  -0.80 kcal/molUSERUSERREMARK SMILES O=C(Nc1cccc(-c2cc[nH]c2)c1)c1ccc(-c2nc[nH]n2)cc1REMARK SMILES IDX 1 1 2 2 3 3 15 5 16 6 25 7 17 8 24 9 18 10 19 11 20 12 23 13REMARK SMILES IDX 21 14 22 15 4 17 5 18 14 19 6 20 8 21 7 22 9 23 10 24 13 25REMARK SMILES IDX 11 26 12 27REMARK H PARENT 3 4 22 16 12 28USER                              x       y       z     vdW  Elec       q    TypeUSER                           _______ _______ _______ _____ _____    ______ ____ROOTATOM      1  O   UNL     1      40.578  43.865  20.901 -0.19 -0.01    -0.269 OA ATOM      2  C   UNL     1      39.663  44.547  20.454 -0.23 +0.00    +0.255 C  ATOM      3  N   UNL     1      38.335  44.516  20.840 -0.17 -0.00    -0.322 N  ATOM      4  H   UNL     1      37.739  45.253  20.485 +0.09 +0.00    +0.170 HD ENDROOTBRANCH   2   5ATOM      5  C   UNL     1      39.987  45.566  19.416 -0.39 -0.00    +0.040 A  ATOM      6  C   UNL     1      39.114  45.840  18.356 -0.41 -0.00    +0.014 A  ATOM      7  C   UNL     1      41.210  46.241  19.496 -0.43 +0.00    +0.014 A  ATOM      8  C   UNL     1      39.455  46.805  17.402 -0.43 -0.00    +0.013 A  ATOM      9  C   UNL     1      41.546  47.204  18.541 -0.50 -0.00    +0.013 A  ATOM     10  C   UNL     1      40.670  47.502  17.486 -0.50 -0.00    +0.021 A  BRANCH  10  11ATOM     11  C   UNL     1      41.012  48.507  16.484 -0.41 -0.02    +0.180 A  ATOM     12  N   UNL     1      40.729  48.338  15.144 -0.39 +0.04    -0.216 NA ATOM     13  N   UNL     1      41.619  49.674  16.761 -0.90 -0.02    -0.154 NA ATOM     14  C   UNL     1      41.185  49.436  14.589 -0.44 -0.05    +0.217 A  ATOM     15  N   UNL     1      41.717  50.235  15.547 -0.44 +0.03    -0.265 N  ATOM     16  H   UNL     1      42.150  51.146  15.454 -0.20 -0.04    +0.191 HD ENDBRANCH  10  11ENDBRANCH   2   5BRANCH   3  17ATOM     17  C   UNL     1      37.730  43.634  21.760 -0.35 +0.00    +0.042 A  ATOM     18  C   UNL     1      37.280  42.405  21.263 -0.36 +0.00    +0.026 A  ATOM     19  C   UNL     1      37.573  43.912  23.122 -0.33 +0.00    +0.035 A  ATOM     20  C   UNL     1      36.675  41.476  22.108 -0.57 +0.00    +0.003 A  ATOM     21  C   UNL     1      36.963  42.985  23.986 -0.38 -0.00    -0.015 A  ATOM     22  C   UNL     1      36.517  41.765  23.463 -0.46 +0.00    +0.009 A  BRANCH  21  23ATOM     23  C   UNL     1      36.798  43.272  25.407 -0.37 +0.00    -0.001 A  ATOM     24  C   UNL     1      36.919  44.509  26.104 -0.33 -0.00    +0.028 A  ATOM     25  C   UNL     1      36.494  42.319  26.361 -0.37 -0.01    +0.091 A  ATOM     26  C   UNL     1      36.680  44.269  27.439 -0.36 -0.02    +0.083 A  ATOM     27  N   UNL     1      36.420  42.933  27.585 -0.16 +0.10    -0.367 N  ATOM     28  H   UNL     1      36.208  42.468  28.457 -0.43 -0.10    +0.165 HD ENDBRANCH  21  23ENDBRANCH   3  17TORSDOF 4TERENDMDL