REMARK SMILES CCc1cc(NC(=O)C(=O)O)ccc1Nc1nc(C)cs1
REMARK SMILES IDX 3 1 4 2 5 3 12 4 13 5 14 6 2 7 1 8 15 9 16 11 17 12 21 13
REMARK SMILES IDX 18 14 20 15 19 16 6 17 7 18 8 20 9 21 10 22 11 23
REMARK H PARENT 15 10 6 19 11 24
ROOT
ATOM      1  C   UNL     1       0.542   1.255  -0.543  1.00  0.00    -0.023 A 
ATOM      2  C   UNL     1       1.876   0.846  -0.309  1.00  0.00     0.032 A 
ATOM      3  C   UNL     1       2.165  -0.375   0.295  1.00  0.00     0.042 A 
ATOM      4  C   UNL     1       1.106  -1.199   0.668  1.00  0.00     0.028 A 
ATOM      5  C   UNL     1      -0.218  -0.811   0.433  1.00  0.00     0.028 A 
ATOM      6  C   UNL     1      -0.535   0.406  -0.189  1.00  0.00     0.044 A 
ENDROOT
BRANCH   1   7
ATOM      7  C   UNL     1       0.341   2.609  -1.194  1.00  0.00     0.034 C 
ATOM      8  C   UNL     1       0.193   2.499  -2.705  1.00  0.00     0.009 C 
ENDBRANCH   1   7
BRANCH   6   9
ATOM      9  N   UNL     1      -1.865   0.817  -0.414  1.00  0.00    -0.331 N 
ATOM     10  H   UNL     1      -1.959   1.599  -1.045  1.00  0.00     0.169 HD
BRANCH   9  11
ATOM     11  C   UNL     1      -3.030   0.250  -0.019  1.00  0.00     0.187 A 
ATOM     12  N   UNL     1      -3.203  -0.776   0.785  1.00  0.00    -0.225 NA
ATOM     13  S   UNL     1      -4.510   0.937  -0.603  1.00  0.00    -0.105 S 
ATOM     14  C   UNL     1      -4.546  -1.057   0.964  1.00  0.00     0.051 A 
ATOM     15  C   UNL     1      -5.404  -0.223   0.278  1.00  0.00     0.092 A 
ATOM     16  C   UNL     1      -4.920  -2.191   1.845  1.00  0.00     0.068 C 
ENDBRANCH   9  11
ENDBRANCH   6   9
BRANCH   3  17
ATOM     17  N   UNL     1       3.466  -0.835   0.558  1.00  0.00    -0.316 N 
ATOM     18  C   UNL     1       4.666  -0.206   0.281  1.00  0.00     0.333 C 
ATOM     19  H   UNL     1       3.560  -1.741   1.009  1.00  0.00     0.170 HD
ATOM     20  O   UNL     1       4.847   0.876  -0.255  1.00  0.00    -0.261 OA
BRANCH  18  21
ATOM     21  C   UNL     1       5.891  -1.051   0.738  1.00  0.00     0.394 C 
ATOM     22  O   UNL     1       7.058  -0.741   0.624  1.00  0.00    -0.241 OA
BRANCH  21  23
ATOM     23  O   UNL     1       5.522  -2.218   1.301  1.00  0.00    -0.474 OA
ATOM     24  H   UNL     1       6.382  -2.631   1.534  1.00  0.00     0.297 HD
ENDBRANCH  21  23
ENDBRANCH  18  21
ENDBRANCH   3  17
TORSDOF 6
