MODEL        5USER    Run = 5USERUSER    Estimated Free Energy of Binding    =  -8.33 kcal/mol  [=(1)+(2)+(3)-(4)]USERUSER    (1) Final Intermolecular Energy     = -10.12 kcal/molUSER        vdW + Hbond + desolv Energy     =  -9.87 kcal/molUSER        Electrostatic Energy            =  -0.25 kcal/molUSER        Moving Ligand-Fixed Receptor    = -10.12 kcal/molUSER        Moving Ligand-Moving Receptor   =  +0.00 kcal/molUSER    (2) Final Total Internal Energy     =  -2.04 kcal/molUSER    (3) Torsional Free Energy           =  +1.79 kcal/molUSER    (4) Unbound System's Energy         =  -2.04 kcal/molUSERUSERREMARK SMILES CCc1cc(NC(=O)C(=O)O)ccc1Nc1nc(C)cs1REMARK SMILES IDX 3 1 4 2 5 3 12 4 13 5 14 6 2 7 1 8 15 9 16 11 17 12 21 13REMARK SMILES IDX 18 14 20 15 19 16 6 17 7 18 8 20 9 21 10 22 11 23REMARK H PARENT 15 10 6 19 11 24USER                              x       y       z     vdW  Elec       q    TypeUSER                           _______ _______ _______ _____ _____    ______ ____ROOTATOM      1  C   UNL     1      40.328  48.435  15.600 -0.56 +0.01    -0.023 A  ATOM      2  C   UNL     1      41.100  48.095  16.736 -0.49 -0.00    +0.032 A  ATOM      3  C   UNL     1      40.604  47.247  17.722 -0.47 -0.01    +0.042 A  ATOM      4  C   UNL     1      39.320  46.730  17.570 -0.40 -0.01    +0.028 A  ATOM      5  C   UNL     1      38.549  47.050  16.446 -0.40 -0.01    +0.028 A  ATOM      6  C   UNL     1      39.032  47.889  15.431 -0.48 -0.02    +0.044 A  ENDROOTBRANCH   1   7ATOM      7  C   UNL     1      40.960  49.378  14.595 -0.67 -0.01    +0.034 C  ATOM      8  C   UNL     1      41.748  50.490  15.273 -0.67 -0.00    +0.009 C  ENDBRANCH   1   7BRANCH   6   9ATOM      9  N   UNL     1      38.259  48.234  14.303 -0.27 +0.15    -0.331 N  ATOM     10  H   UNL     1      38.321  49.205  14.036 -0.35 -0.11    +0.169 HD BRANCH   9  11ATOM     11  C   UNL     1      37.554  47.446  13.456 -0.39 -0.07    +0.187 A  ATOM     12  N   UNL     1      37.768  46.185  13.152 -0.27 +0.07    -0.225 NA ATOM     13  S   UNL     1      36.175  48.132  12.662 -0.74 +0.05    -0.105 S  ATOM     14  C   UNL     1      36.824  45.714  12.256 -0.55 -0.02    +0.051 A  ATOM     15  C   UNL     1      35.878  46.644  11.877 -0.51 -0.05    +0.092 A  ATOM     16  C   UNL     1      36.919  44.304  11.804 -0.51 -0.02    +0.068 C  ENDBRANCH   9  11ENDBRANCH   6   9BRANCH   3  17ATOM     17  N   UNL     1      41.318  46.876  18.874 -0.27 +0.00    -0.316 N  ATOM     18  C   UNL     1      42.569  47.305  19.277 -0.34 +0.04    +0.333 C  ATOM     19  H   UNL     1      40.878  46.210  19.503 +0.10 +0.00    +0.170 HD ATOM     20  O   UNL     1      43.317  48.090  18.716 -0.39 -0.01    -0.261 OA BRANCH  18  21ATOM     21  C   UNL     1      43.007  46.656  20.623 -0.17 +0.14    +0.394 C  ATOM     22  O   UNL     1      42.338  45.914  21.312 -0.22 -0.05    -0.241 OA BRANCH  21  23ATOM     23  O   UNL     1      44.259  47.008  20.974 -0.47 -0.38    -0.474 OA ATOM     24  H   UNL     1      44.340  47.918  20.613 -0.37 +0.06    +0.297 HD ENDBRANCH  21  23ENDBRANCH  18  21ENDBRANCH   3  17TORSDOF 6TERENDMDL