MODEL        7USER    Run = 7USERUSER    Estimated Free Energy of Binding    =  -4.82 kcal/mol  [=(1)+(2)+(3)-(4)]USERUSER    (1) Final Intermolecular Energy     =  -8.99 kcal/molUSER        vdW + Hbond + desolv Energy     =  -9.53 kcal/molUSER        Electrostatic Energy            =  -0.10 kcal/molUSER        Moving Ligand-Fixed Receptor    =  -9.63 kcal/molUSER        Moving Ligand-Moving Receptor   =  +0.63 kcal/molUSER    (2) Final Total Internal Energy     =  -2.64 kcal/molUSER    (3) Torsional Free Energy           =  +4.18 kcal/molUSER    (4) Unbound System's Energy         =  -2.64 kcal/molUSERUSERREMARK SMILES C=CCOc1c(Cl)cc(Cl)cc1NC(=O)OCC1=C(F)C=CNCCO1REMARK SMILES IDX 16 1 14 2 13 3 15 5 12 6 5 7 6 8 8 9 11 10 9 11 7 12 10 13REMARK SMILES IDX 4 14 3 15 2 16 1 17 17 18 18 19 19 20 20 21 21 22 26 24REMARK SMILES IDX 25 25 24 26 23 27 22 29REMARK H PARENT 13 4 23 28REMARK Flexibility Score:   48.900USER                              x       y       z     vdW  Elec       q    TypeUSER                           _______ _______ _______ _____ _____    ______ ____ROOTATOM      1  O   UNL     1      36.268  45.987  13.434 -0.18 +0.22    -0.441 OA ENDROOTBRANCH   1   2ATOM      2  C   UNL     1      37.268  46.897  13.548 -0.25 -0.17    +0.412 C  ATOM      3  N   UNL     1      38.042  46.534  14.611 -0.20 +0.11    -0.288 N  ATOM      4  H   UNL     1      37.718  45.707  15.098 +0.13 -0.06    +0.173 HD ATOM      5  O   UNL     1      37.431  47.855  12.810 -1.03 +0.04    -0.224 OA BRANCH   3   6ATOM      6  C   UNL     1      39.171  47.179  15.148 -0.41 -0.03    +0.089 A  ATOM      7  C   UNL     1      39.685  46.678  16.360 -0.35 -0.03    +0.162 A  ATOM      8  C   UNL     1      40.763  47.313  16.992 -0.44 -0.01    +0.086 A  ATOM      9  C   UNL     1      41.369  48.414  16.391 -0.37 -0.00    +0.045 A  ATOM     10  C   UNL     1      39.788  48.278  14.552 -0.47 -0.01    +0.050 A  ATOM     11  C   UNL     1      40.884  48.885  15.173 -0.58 -0.01    +0.044 A  ATOM     12  Cl  UNL     1      41.362  46.790  18.523 -0.71 +0.00    -0.080 Cl ATOM     13  Cl  UNL     1      41.637  50.245  14.432 -0.88 +0.02    -0.084 Cl BRANCH   7  14ATOM     14  O   UNL     1      39.060  45.586  16.921 -0.09 +0.10    -0.486 OA BRANCH  14  15ATOM     15  C   UNL     1      38.408  45.952  18.146 -0.22 -0.05    +0.257 C  BRANCH  15  16ATOM     16  C   UNL     1      38.372  44.733  19.018 -0.43 -0.00    +0.006 C  ATOM     17  C   UNL     1      37.253  44.185  19.508 -0.42 -0.00    +0.007 C  ENDBRANCH  15  16ENDBRANCH  14  15ENDBRANCH   7  14ENDBRANCH   3   6ENDBRANCH   1   2BRANCH   1  18ATOM     18  C   UNL     1      35.056  46.275  14.151 -0.23 -0.26    +0.312 C  BRANCH  18  19ATOM     19  C   UNL     1      34.875  45.247  15.254 -0.26 -0.12    +0.169 C  BRANCH  19  20ATOM     20  C   UNL     1      33.632  45.006  15.725 -0.27 -0.12    +0.165 C  ATOM     21  F   UNL     1      32.666  45.882  15.337 -0.06 +0.22    -0.203 F  BRANCH  20  22ATOM     22  C   UNL     1      33.071  43.929  16.505 -0.34 -0.03    +0.060 CG0ATOM     23  G   UNL     1      33.348  42.623  16.536 +0.00 +0.00    +0.000 G0 ENDBRANCH  20  22ENDBRANCH  19  20BRANCH  19  24ATOM     24  O   UNL     1      36.085  44.718  15.627 -0.06 +0.22    -0.489 OA BRANCH  24  25ATOM     25  C   UNL     1      36.222  43.739  16.650 -0.26 -0.08    +0.250 C  BRANCH  25  26ATOM     26  C   UNL     1      35.821  42.340  16.173 -0.26 -0.06    +0.154 C  BRANCH  26  27ATOM     27  N   UNL     1      34.522  41.937  16.697 -0.12 +0.20    -0.387 N  ATOM     28  H   UNL     1      34.407  40.929  16.786 -0.48 -0.14    +0.160 HD BRANCH  27  29ATOM     29  C   UNL     1      33.348  42.622  16.527 -0.27 -0.04    +0.081 CG0ATOM     30  G   UNL     1      33.070  43.928  16.501 +0.00 +0.00    +0.000 G0 ENDBRANCH  27  29ENDBRANCH  26  27ENDBRANCH  25  26ENDBRANCH  24  25ENDBRANCH  19  24ENDBRANCH  18  19ENDBRANCH   1  18TORSDOF 7TERENDMDL