REMARK SMILES O=C(Nc1cccc(-c2cc[nH]c2)c1)c1ccc(-c2nc[nH]n2)cc1
REMARK SMILES IDX 1 1 2 2 3 3 15 5 16 6 25 7 17 8 24 9 18 10 19 11 20 12 23 13
REMARK SMILES IDX 21 14 22 15 4 17 5 18 14 19 6 20 8 21 7 22 9 23 10 24 13 25
REMARK SMILES IDX 11 26 12 27
REMARK H PARENT 3 4 22 16 12 28
ROOT
ATOM      1  O   UNL     1      -0.312  -1.058   1.227  1.00  0.00    -0.269 OA
ATOM      2  C   UNL     1       0.286  -0.200   0.589  1.00  0.00     0.255 C 
ATOM      3  N   UNL     1      -0.270   0.813  -0.172  1.00  0.00    -0.322 N 
ATOM      4  H   UNL     1       0.359   1.532  -0.505  1.00  0.00     0.170 HD
ENDROOT
BRANCH   2   5
ATOM      5  C   UNL     1       1.775  -0.184   0.654  1.00  0.00     0.040 A 
ATOM      6  C   UNL     1       2.557   0.170  -0.452  1.00  0.00     0.014 A 
ATOM      7  C   UNL     1       2.398  -0.562   1.849  1.00  0.00     0.014 A 
ATOM      8  C   UNL     1       3.952   0.173  -0.349  1.00  0.00     0.013 A 
ATOM      9  C   UNL     1       3.793  -0.557   1.947  1.00  0.00     0.013 A 
ATOM     10  C   UNL     1       4.586  -0.184   0.851  1.00  0.00     0.021 A 
BRANCH  10  11
ATOM     11  C   UNL     1       6.043  -0.175   0.944  1.00  0.00     0.180 A 
ATOM     12  N   UNL     1       6.847   0.191  -0.116  1.00  0.00    -0.216 NA
ATOM     13  N   UNL     1       6.731  -0.510   2.049  1.00  0.00    -0.154 NA
ATOM     14  C   UNL     1       8.063   0.067   0.359  1.00  0.00     0.217 A 
ATOM     15  N   UNL     1       8.001  -0.351   1.648  1.00  0.00    -0.265 N 
ATOM     16  H   UNL     1       8.755  -0.543   2.297  1.00  0.00     0.191 HD
ENDBRANCH  10  11
ENDBRANCH   2   5
BRANCH   3  17
ATOM     17  C   UNL     1      -1.637   1.023  -0.452  1.00  0.00     0.042 A 
ATOM     18  C   UNL     1      -1.972   2.190  -1.149  1.00  0.00     0.026 A 
ATOM     19  C   UNL     1      -2.655   0.134  -0.091  1.00  0.00     0.035 A 
ATOM     20  C   UNL     1      -3.300   2.470  -1.469  1.00  0.00     0.003 A 
ATOM     21  C   UNL     1      -3.999   0.404  -0.405  1.00  0.00    -0.015 A 
ATOM     22  C   UNL     1      -4.308   1.581  -1.098  1.00  0.00     0.009 A 
BRANCH  21  23
ATOM     23  C   UNL     1      -5.063  -0.521  -0.029  1.00  0.00    -0.001 A 
ATOM     24  C   UNL     1      -6.318  -0.765  -0.657  1.00  0.00     0.028 A 
ATOM     25  C   UNL     1      -5.019  -1.345   1.080  1.00  0.00     0.091 A 
ATOM     26  C   UNL     1      -6.981  -1.723   0.078  1.00  0.00     0.083 A 
ATOM     27  N   UNL     1      -6.181  -2.071   1.132  1.00  0.00    -0.367 N 
ATOM     28  H   UNL     1      -6.408  -2.755   1.841  1.00  0.00     0.165 HD
ENDBRANCH  21  23
ENDBRANCH   3  17
TORSDOF 4
