
     RDKit          3D

 45 47  0  0  0  0  0  0  0  0999 V2000
   -4.8430    1.9781   -0.2650 C   0  0  0  0  0  0  0  0  0  0  0  0
   -3.3659    1.7440   -0.2024 C   0  0  0  0  0  0  0  0  0  0  0  0
   -2.7111    0.6146    0.1475 C   0  0  0  0  0  0  0  0  0  0  0  0
   -3.4280   -0.5852    0.5535 C   0  0  0  0  0  0  0  0  0  0  0  0
   -4.0436   -0.5529    1.9292 C   0  0  0  0  0  0  0  0  0  0  0  0
   -3.4870   -1.6778   -0.2266 C   0  0  0  0  0  0  0  0  0  0  0  0
   -2.9159   -1.9690   -1.5890 C   0  0  0  0  0  0  0  0  0  0  0  0
   -3.9474   -2.1648   -2.4681 F   0  0  0  0  0  0  0  0  0  0  0  0
   -1.6689   -0.8119   -2.2673 S   0  0  0  0  0  0  0  0  0  0  0  0
   -0.8157   -1.5921   -3.1549 O   0  0  0  0  0  0  0  0  0  0  0  0
   -2.3161    0.3733   -2.8014 O   0  0  0  0  0  0  0  0  0  0  0  0
   -0.6729   -0.3448   -0.9494 N   0  0  0  0  0  0  0  0  0  0  0  0
    0.1244   -1.4035   -0.4027 C   0  0  0  0  0  0  0  0  0  0  0  0
    1.2513   -1.0917    0.2478 C   0  0  0  0  0  0  0  0  0  0  0  0
    1.8574    0.2317    0.3957 C   0  0  0  0  0  0  0  0  0  0  0  0
    3.2613    0.2310    0.2896 N   0  0  0  0  0  0  0  0  0  0  0  0
    3.9848   -0.5952   -0.7062 C   0  0  0  0  0  0  0  0  0  0  0  0
    5.4051   -0.0564   -0.9308 C   0  0  0  0  0  0  0  0  0  0  0  0
    6.2073   -0.0653    0.2601 O   0  0  0  0  0  0  0  0  0  0  0  0
    5.4437    0.1595    1.4554 C   0  0  0  0  0  0  0  0  0  0  0  0
    4.1502    0.9571    1.2239 C   0  0  0  0  0  0  0  0  0  0  0  0
    1.0675    1.3125    0.6277 C   0  0  0  0  0  0  0  0  0  0  0  0
    1.7504    2.9299    0.6258 Cl  0  0  0  0  0  0  0  0  0  0  0  0
   -0.3862    1.2719    0.7904 C   0  0  0  0  0  0  0  0  0  0  0  0
   -1.0010    2.2187    2.1426 Cl  0  0  0  0  0  0  0  0  0  0  0  0
   -1.2485    0.5685    0.0186 C   0  0  0  0  0  0  0  0  0  0  0  0
   -5.1383    2.6970    0.5050 H   0  0  0  0  0  0  0  0  0  0  0  0
   -5.1036    2.3986   -1.2418 H   0  0  0  0  0  0  0  0  0  0  0  0
   -5.4344    1.0682   -0.1374 H   0  0  0  0  0  0  0  0  0  0  0  0
   -2.7819    2.6019   -0.5399 H   0  0  0  0  0  0  0  0  0  0  0  0
   -3.2789   -0.3419    2.6851 H   0  0  0  0  0  0  0  0  0  0  0  0
   -4.8215    0.2127    2.0043 H   0  0  0  0  0  0  0  0  0  0  0  0
   -4.5039   -1.5118    2.1919 H   0  0  0  0  0  0  0  0  0  0  0  0
   -4.0475   -2.5304    0.1562 H   0  0  0  0  0  0  0  0  0  0  0  0
   -2.3869   -2.9267   -1.5220 H   0  0  0  0  0  0  0  0  0  0  0  0
   -0.1515   -2.4356   -0.5926 H   0  0  0  0  0  0  0  0  0  0  0  0
    1.8492   -1.9128    0.6389 H   0  0  0  0  0  0  0  0  0  0  0  0
    4.0436   -1.6263   -0.3386 H   0  0  0  0  0  0  0  0  0  0  0  0
    3.4448   -0.5924   -1.6600 H   0  0  0  0  0  0  0  0  0  0  0  0
    5.9241   -0.6632   -1.6794 H   0  0  0  0  0  0  0  0  0  0  0  0
    5.3732    0.9725   -1.3080 H   0  0  0  0  0  0  0  0  0  0  0  0
    6.0909    0.6868    2.1636 H   0  0  0  0  0  0  0  0  0  0  0  0
    5.2133   -0.8207    1.8891 H   0  0  0  0  0  0  0  0  0  0  0  0
    3.6527    1.1116    2.1880 H   0  0  0  0  0  0  0  0  0  0  0  0
    4.4042    1.9324    0.7943 H   0  0  0  0  0  0  0  0  0  0  0  0
  1  2  1  0
  2  3  2  3
  3  4  1  0
  4  5  1  0
  4  6  2  0
  6  7  1  0
  7  8  1  0
  7  9  1  0
  9 10  2  0
  9 11  2  0
  9 12  1  0
 12 13  1  0
 13 14  2  0
 14 15  1  0
 15 16  1  0
 16 17  1  0
 17 18  1  0
 18 19  1  0
 19 20  1  0
 20 21  1  0
 15 22  2  0
 22 23  1  0
 22 24  1  0
 24 25  1  0
 24 26  2  0
 26  3  1  0
 26 12  1  0
 21 16  1  0
  1 27  1  0
  1 28  1  0
  1 29  1  0
  2 30  1  0
  5 31  1  0
  5 32  1  0
  5 33  1  0
  6 34  1  0
  7 35  1  0
 13 36  1  0
 14 37  1  0
 17 38  1  0
 17 39  1  0
 18 40  1  0
 18 41  1  0
 20 42  1  0
 20 43  1  0
 21 44  1  0
 21 45  1  0
M  END
$$$$
