
     RDKit          3D

 43 45  0  0  0  0  0  0  0  0999 V2000
    0.0319    1.0463   -0.2861 C   0  0  0  0  0  0  0  0  0  0  0  0
    0.0425   -0.0360    0.7703 C   0  0  0  0  0  0  0  0  0  0  0  0
   -1.1691   -0.5031    1.3388 C   0  0  0  0  0  0  0  0  0  0  0  0
   -2.4958    0.0118    0.9276 C   0  0  0  0  0  0  0  0  0  0  0  0
   -3.1170    0.9933    1.7636 C   0  0  0  0  0  0  0  0  0  0  0  0
   -3.5584    1.7827    2.4931 N   0  0  0  0  0  0  0  0  0  0  0  0
   -3.0312   -0.5009   -0.1997 C   0  0  0  0  0  0  0  0  0  0  0  0
   -4.3206   -0.1812   -0.8305 C   0  0  0  0  0  0  0  0  0  0  0  0
   -4.7000   -0.8199   -2.0086 C   0  0  0  0  0  0  0  0  0  0  0  0
   -5.9264   -0.4981   -2.5874 C   0  0  0  0  0  0  0  0  0  0  0  0
   -6.7383    0.4489   -1.9776 C   0  0  0  0  0  0  0  0  0  0  0  0
   -6.2861    1.0355   -0.8098 C   0  0  0  0  0  0  0  0  0  0  0  0
   -5.1017    0.7388   -0.2314 N   0  0  0  0  0  0  0  0  0  0  0  0
   -1.1423   -1.5116    2.3172 C   0  0  0  0  0  0  0  0  0  0  0  0
    0.0632   -2.0703    2.7267 C   0  0  0  0  0  0  0  0  0  0  0  0
    1.2546   -1.6356    2.1535 C   0  0  0  0  0  0  0  0  0  0  0  0
    1.2675   -0.6290    1.1703 C   0  0  0  0  0  0  0  0  0  0  0  0
    2.5615   -0.2381    0.5916 C   0  0  0  0  0  0  0  0  0  0  0  0
    2.9721   -0.7387   -0.6512 C   0  0  0  0  0  0  0  0  0  0  0  0
    4.2030   -0.3673   -1.2004 C   0  0  0  0  0  0  0  0  0  0  0  0
    5.0501    0.5208   -0.5250 C   0  0  0  0  0  0  0  0  0  0  0  0
    6.3967    0.9035   -1.0810 C   0  0  0  0  0  0  0  0  0  0  0  0
    6.3913    0.8827   -2.5028 O   0  0  0  0  0  0  0  0  0  0  0  0
    4.6486    1.0081    0.7264 C   0  0  0  0  0  0  0  0  0  0  0  0
    3.4180    0.6353    1.2761 C   0  0  0  0  0  0  0  0  0  0  0  0
    0.9233    1.6784   -0.2275 H   0  0  0  0  0  0  0  0  0  0  0  0
   -0.0202    0.5939   -1.2813 H   0  0  0  0  0  0  0  0  0  0  0  0
   -0.8148    1.7283   -0.1636 H   0  0  0  0  0  0  0  0  0  0  0  0
   -2.4579   -1.2525   -0.7401 H   0  0  0  0  0  0  0  0  0  0  0  0
   -4.0607   -1.5587   -2.4807 H   0  0  0  0  0  0  0  0  0  0  0  0
   -6.2434   -0.9829   -3.5063 H   0  0  0  0  0  0  0  0  0  0  0  0
   -7.6981    0.7237   -2.4001 H   0  0  0  0  0  0  0  0  0  0  0  0
   -6.8784    1.7828   -0.2888 H   0  0  0  0  0  0  0  0  0  0  0  0
   -2.0674   -1.8703    2.7660 H   0  0  0  0  0  0  0  0  0  0  0  0
    0.0755   -2.8485    3.4852 H   0  0  0  0  0  0  0  0  0  0  0  0
    2.1908   -2.0919    2.4725 H   0  0  0  0  0  0  0  0  0  0  0  0
    2.3327   -1.4255   -1.2013 H   0  0  0  0  0  0  0  0  0  0  0  0
    4.4976   -0.7712   -2.1672 H   0  0  0  0  0  0  0  0  0  0  0  0
    6.6655    1.9166   -0.7638 H   0  0  0  0  0  0  0  0  0  0  0  0
    7.1546    0.1999   -0.7216 H   0  0  0  0  0  0  0  0  0  0  0  0
    7.2719    1.1776   -2.7875 H   0  0  0  0  0  0  0  0  0  0  0  0
    5.2900    1.6868    1.2842 H   0  0  0  0  0  0  0  0  0  0  0  0
    3.1248    1.0357    2.2446 H   0  0  0  0  0  0  0  0  0  0  0  0
  1  2  1  0
  2  3  2  0
  3  4  1  0
  4  5  1  0
  5  6  3  0
  4  7  2  3
  7  8  1  0
  8  9  2  0
  9 10  1  0
 10 11  2  0
 11 12  1  0
 12 13  2  0
  3 14  1  0
 14 15  2  0
 15 16  1  0
 16 17  2  0
 17 18  1  0
 18 19  2  0
 19 20  1  0
 20 21  2  0
 21 22  1  0
 22 23  1  0
 21 24  1  0
 24 25  2  0
 17  2  1  0
 25 18  1  0
 13  8  1  0
  1 26  1  0
  1 27  1  0
  1 28  1  0
  7 29  1  0
  9 30  1  0
 10 31  1  0
 11 32  1  0
 12 33  1  0
 14 34  1  0
 15 35  1  0
 16 36  1  0
 19 37  1  0
 20 38  1  0
 22 39  1  0
 22 40  1  0
 23 41  1  0
 24 42  1  0
 25 43  1  0
M  END
$$$$
