
     RDKit          3D

 48 50  0  0  0  0  0  0  0  0999 V2000
    5.6199   -0.3125    2.0650 C   0  0  0  0  0  0  0  0  0  0  0  0
    5.4367   -0.6411    0.5838 C   0  0  0  0  0  0  0  0  0  0  0  0
    5.2899    0.6065   -0.2637 C   0  0  0  0  0  0  0  0  0  0  0  0
    5.2452    0.5551   -1.6060 C   0  0  0  0  0  0  0  0  0  0  0  0
    4.9264    1.6746   -2.4517 C   0  0  0  0  0  0  0  0  0  0  0  0
    3.8149    2.4229   -2.3973 C   0  0  0  0  0  0  0  0  0  0  0  0
    2.6856    2.2767   -1.4549 C   0  0  0  0  0  0  0  0  0  0  0  0
    2.2741    3.2429   -0.8227 O   0  0  0  0  0  0  0  0  0  0  0  0
    2.1392    1.0175   -1.5022 O   0  0  0  0  0  0  0  0  0  0  0  0
    0.8842    0.9578   -0.8960 C   0  0  0  0  0  0  0  0  0  0  0  0
    0.2460   -0.1151   -0.3907 C   0  0  0  0  0  0  0  0  0  0  0  0
   -1.0609    0.0827    0.0145 N   0  0  0  0  0  0  0  0  0  0  0  0
   -1.8978   -0.9105   -0.0828 C   0  0  0  0  0  0  0  0  0  0  0  0
   -3.2103   -0.7227    0.2714 N   0  0  0  0  0  0  0  0  0  0  0  0
   -3.7545    0.5651    0.6395 C   0  0  0  0  0  0  0  0  0  0  0  0
   -5.2263    0.4177    0.9421 C   0  0  0  0  0  0  0  0  0  0  0  0
   -5.6633    0.1550    2.2492 C   0  0  0  0  0  0  0  0  0  0  0  0
   -7.0229   -0.0048    2.5213 C   0  0  0  0  0  0  0  0  0  0  0  0
   -7.9566    0.0863    1.4897 C   0  0  0  0  0  0  0  0  0  0  0  0
   -7.5329    0.3345    0.1851 C   0  0  0  0  0  0  0  0  0  0  0  0
   -6.1743    0.4966   -0.0893 C   0  0  0  0  0  0  0  0  0  0  0  0
   -1.4961   -2.2553   -0.5794 C   0  0  0  0  0  0  0  0  0  0  0  0
   -0.1982   -2.5437   -0.6831 C   0  0  0  0  0  0  0  0  0  0  0  0
    0.8215   -1.5179   -0.3365 C   0  0  0  0  0  0  0  0  0  0  0  0
    1.9846   -1.9966   -0.0181 N   0  0  0  0  0  0  0  0  0  0  0  0
    2.9782   -1.1724    0.4061 C   0  0  0  0  0  0  0  0  0  0  0  0
    4.2609   -1.5607    0.3559 C   0  0  0  0  0  0  0  0  0  0  0  0
    5.7428   -1.2274    2.6544 H   0  0  0  0  0  0  0  0  0  0  0  0
    6.5128    0.3051    2.2186 H   0  0  0  0  0  0  0  0  0  0  0  0
    4.7619    0.2354    2.4710 H   0  0  0  0  0  0  0  0  0  0  0  0
    6.3438   -1.1632    0.2515 H   0  0  0  0  0  0  0  0  0  0  0  0
    5.1194    1.5466    0.2576 H   0  0  0  0  0  0  0  0  0  0  0  0
    5.4217   -0.3875   -2.1224 H   0  0  0  0  0  0  0  0  0  0  0  0
    5.6659    1.8972   -3.2193 H   0  0  0  0  0  0  0  0  0  0  0  0
    3.7085    3.2762   -3.0609 H   0  0  0  0  0  0  0  0  0  0  0  0
    0.3645    1.9107   -0.9266 H   0  0  0  0  0  0  0  0  0  0  0  0
   -3.8857   -1.4566    0.0997 H   0  0  0  0  0  0  0  0  0  0  0  0
   -3.2341    0.9688    1.5162 H   0  0  0  0  0  0  0  0  0  0  0  0
   -3.6197    1.2862   -0.1756 H   0  0  0  0  0  0  0  0  0  0  0  0
   -4.9440    0.0754    3.0627 H   0  0  0  0  0  0  0  0  0  0  0  0
   -7.3544   -0.1986    3.5393 H   0  0  0  0  0  0  0  0  0  0  0  0
   -9.0152   -0.0361    1.7037 H   0  0  0  0  0  0  0  0  0  0  0  0
   -8.2614    0.4036   -0.6186 H   0  0  0  0  0  0  0  0  0  0  0  0
   -5.8567    0.6882   -1.1125 H   0  0  0  0  0  0  0  0  0  0  0  0
   -2.2633   -2.9905   -0.7800 H   0  0  0  0  0  0  0  0  0  0  0  0
    0.1600   -3.5291   -0.9543 H   0  0  0  0  0  0  0  0  0  0  0  0
    2.7323   -0.1748    0.7628 H   0  0  0  0  0  0  0  0  0  0  0  0
    4.4881   -2.5684    0.0159 H   0  0  0  0  0  0  0  0  0  0  0  0
  1  2  1  0
  2  3  1  0
  3  4  2  3
  4  5  1  0
  5  6  2  3
  6  7  1  0
  7  8  2  0
  7  9  1  0
  9 10  1  0
 10 11  2  3
 11 12  1  0
 12 13  2  0
 13 14  1  0
 14 15  1  0
 15 16  1  0
 16 17  2  0
 17 18  1  0
 18 19  2  0
 19 20  1  0
 20 21  2  0
 13 22  1  0
 22 23  2  0
 23 24  1  0
 24 25  2  3
 25 26  1  0
 26 27  2  3
 27  2  1  0
 24 11  1  0
 21 16  1  0
  1 28  1  0
  1 29  1  0
  1 30  1  0
  2 31  1  0
  3 32  1  0
  4 33  1  0
  5 34  1  0
  6 35  1  0
 10 36  1  0
 14 37  1  0
 15 38  1  0
 15 39  1  0
 17 40  1  0
 18 41  1  0
 19 42  1  0
 20 43  1  0
 21 44  1  0
 22 45  1  0
 23 46  1  0
 26 47  1  0
 27 48  1  0
M  END
$$$$
