
     RDKit          3D

 33 35  0  0  0  0  0  0  0  0999 V2000
   -1.5998   -2.8870    3.1167 C   0  0  0  0  0  0  0  0  0  0  0  0
   -0.8049   -2.2554    2.4766 C   0  0  0  0  0  0  0  0  0  0  0  0
    0.1422   -1.5129    1.7222 C   0  0  0  0  0  0  0  0  0  0  0  0
    1.3857   -1.9236    1.3000 C   0  0  0  0  0  0  0  0  0  0  0  0
    1.9425   -0.8229    0.6028 C   0  0  0  0  0  0  0  0  0  0  0  0
    3.1768   -0.8978    0.0517 N   0  0  0  0  0  0  0  0  0  0  0  0
    3.7774    0.1193   -0.8178 C   0  0  0  0  0  0  0  0  0  0  0  0
    3.5839    1.6005   -0.6775 C   0  0  0  0  0  0  0  0  0  0  0  0
    3.0147    0.8754   -1.8673 C   0  0  0  0  0  0  0  0  0  0  0  0
    1.1004    0.2103    0.6067 N   0  0  0  0  0  0  0  0  0  0  0  0
    0.0070   -0.2314    1.2579 N   0  0  0  0  0  0  0  0  0  0  0  0
   -1.1244    0.6686    1.4425 C   0  0  0  0  0  0  0  0  0  0  0  0
   -2.0319    0.6806    0.2350 C   0  0  0  0  0  0  0  0  0  0  0  0
   -3.0217   -0.3147    0.1152 C   0  0  0  0  0  0  0  0  0  0  0  0
   -3.8676   -0.3596   -0.9946 C   0  0  0  0  0  0  0  0  0  0  0  0
   -3.7395    0.5870   -2.0057 C   0  0  0  0  0  0  0  0  0  0  0  0
   -2.7660    1.5794   -1.9054 C   0  0  0  0  0  0  0  0  0  0  0  0
   -1.9158    1.6286   -0.7946 C   0  0  0  0  0  0  0  0  0  0  0  0
   -0.7572    2.9091   -0.7473 Cl  0  0  0  0  0  0  0  0  0  0  0  0
   -2.2978   -3.4544    3.6874 H   0  0  0  0  0  0  0  0  0  0  0  0
    1.8360   -2.8894    1.4750 H   0  0  0  0  0  0  0  0  0  0  0  0
    3.6459   -1.7969    0.0705 H   0  0  0  0  0  0  0  0  0  0  0  0
    4.7858   -0.1831   -1.0971 H   0  0  0  0  0  0  0  0  0  0  0  0
    2.8932    1.9752    0.0675 H   0  0  0  0  0  0  0  0  0  0  0  0
    4.4427    2.2411   -0.8363 H   0  0  0  0  0  0  0  0  0  0  0  0
    1.9384    0.7614   -1.9176 H   0  0  0  0  0  0  0  0  0  0  0  0
    3.4882    1.0271   -2.8291 H   0  0  0  0  0  0  0  0  0  0  0  0
   -1.6795    0.3463    2.3312 H   0  0  0  0  0  0  0  0  0  0  0  0
   -0.7271    1.6594    1.6861 H   0  0  0  0  0  0  0  0  0  0  0  0
   -3.1387   -1.0713    0.8887 H   0  0  0  0  0  0  0  0  0  0  0  0
   -4.6234   -1.1378   -1.0710 H   0  0  0  0  0  0  0  0  0  0  0  0
   -4.3943    0.5528   -2.8727 H   0  0  0  0  0  0  0  0  0  0  0  0
   -2.6712    2.3158   -2.6998 H   0  0  0  0  0  0  0  0  0  0  0  0
  1  2  3  0
  2  3  1  0
  3  4  2  0
  4  5  1  0
  5  6  1  0
  6  7  1  0
  7  8  1  0
  8  9  1  0
  5 10  2  0
 10 11  1  0
 11 12  1  0
 12 13  1  0
 13 14  2  0
 14 15  1  0
 15 16  2  0
 16 17  1  0
 17 18  2  0
 18 19  1  0
 11  3  1  0
 18 13  1  0
  9  7  1  0
  1 20  1  0
  4 21  1  0
  6 22  1  0
  7 23  1  0
  8 24  1  0
  8 25  1  0
  9 26  1  0
  9 27  1  0
 12 28  1  0
 12 29  1  0
 14 30  1  0
 15 31  1  0
 16 32  1  0
 17 33  1  0
M  END
$$$$
