
     RDKit          3D

 60 62  0  0  0  0  0  0  0  0999 V2000
   -1.7873    4.5487    0.8439 C   0  0  0  0  0  0  0  0  0  0  0  0
   -2.2737    3.6616   -0.0323 C   0  0  0  0  0  0  0  0  0  0  0  0
   -2.6755    2.3273    0.3456 C   0  0  0  0  0  0  0  0  0  0  0  0
   -3.1590    1.4378   -0.5346 C   0  0  0  0  0  0  0  0  0  0  0  0
   -3.5229    0.1333   -0.1229 C   0  0  0  0  0  0  0  0  0  0  0  0
   -4.7201   -0.3632   -0.5884 N   0  0  0  0  0  0  0  0  0  0  0  0
   -4.9246   -1.5922   -0.0287 C   0  0  0  0  0  0  0  0  0  0  0  0
   -6.0672   -2.4048   -0.2370 C   0  0  0  0  0  0  0  0  0  0  0  0
   -7.1820   -2.2768   -1.0332 C   0  0  0  0  0  0  0  0  0  0  0  0
   -7.9389   -3.4395   -0.7792 C   0  0  0  0  0  0  0  0  0  0  0  0
   -7.3563   -4.2448    0.1110 N   0  0  0  0  0  0  0  0  0  0  0  0
   -6.2188   -3.5936    0.4251 N   0  0  0  0  0  0  0  0  0  0  0  0
   -3.9179   -1.9325    0.7384 N   0  0  0  0  0  0  0  0  0  0  0  0
   -3.0064   -0.8812    0.6822 C   0  0  0  0  0  0  0  0  0  0  0  0
   -1.7178   -0.9565    1.3942 C   0  0  0  0  0  0  0  0  0  0  0  0
   -1.5242   -1.7325    2.3261 O   0  0  0  0  0  0  0  0  0  0  0  0
   -0.7237   -0.1264    0.9133 N   0  0  0  0  0  0  0  0  0  0  0  0
    0.6544   -0.2008    1.3823 C   0  0  0  0  0  0  0  0  0  0  0  0
    1.4238   -1.2796    0.5972 C   0  0  0  0  0  0  0  0  0  0  0  0
    2.0593   -0.7017   -0.6642 C   0  0  0  0  0  0  0  0  0  0  0  0
    3.1104    0.3828   -0.3443 C   0  0  0  0  0  0  0  0  0  0  0  0
    2.9831    1.3885   -1.3576 O   0  0  0  0  0  0  0  0  0  0  0  0
    4.5693   -0.1445   -0.3250 C   0  0  0  0  0  0  0  0  0  0  0  0
    5.1048   -0.8932   -1.5692 C   0  0  0  0  0  0  0  0  0  0  0  0
    5.0311   -0.0816   -2.8619 C   0  0  0  0  0  0  0  0  0  0  0  0
    6.5577   -1.3137   -1.3148 C   0  0  0  0  0  0  0  0  0  0  0  0
    2.8173    1.0745    1.0131 C   0  0  0  0  0  0  0  0  0  0  0  0
    1.3086    1.1982    1.2677 C   0  0  0  0  0  0  0  0  0  0  0  0
    1.0326    2.0315    2.5217 C   0  0  0  0  0  0  0  0  0  0  0  0
   -1.4885    5.5397    0.5165 H   0  0  0  0  0  0  0  0  0  0  0  0
   -1.6745    4.3186    1.8985 H   0  0  0  0  0  0  0  0  0  0  0  0
   -2.3586    3.9478   -1.0773 H   0  0  0  0  0  0  0  0  0  0  0  0
   -2.5678    2.0618    1.3961 H   0  0  0  0  0  0  0  0  0  0  0  0
   -3.3051    1.7195   -1.5756 H   0  0  0  0  0  0  0  0  0  0  0  0
   -5.3681    0.1129   -1.1969 H   0  0  0  0  0  0  0  0  0  0  0  0
   -7.4283   -1.4718   -1.7088 H   0  0  0  0  0  0  0  0  0  0  0  0
   -8.8897   -3.7334   -1.2073 H   0  0  0  0  0  0  0  0  0  0  0  0
   -5.5772   -4.0000    1.0992 H   0  0  0  0  0  0  0  0  0  0  0  0
   -0.8896    0.3257    0.0241 H   0  0  0  0  0  0  0  0  0  0  0  0
    0.6300   -0.5181    2.4328 H   0  0  0  0  0  0  0  0  0  0  0  0
    0.7648   -2.1144    0.3288 H   0  0  0  0  0  0  0  0  0  0  0  0
    2.2140   -1.7004    1.2327 H   0  0  0  0  0  0  0  0  0  0  0  0
    1.2674   -0.2816   -1.3004 H   0  0  0  0  0  0  0  0  0  0  0  0
    2.4879   -1.5176   -1.2528 H   0  0  0  0  0  0  0  0  0  0  0  0
    3.6793    2.0521   -1.2150 H   0  0  0  0  0  0  0  0  0  0  0  0
    4.6807   -0.8156    0.5387 H   0  0  0  0  0  0  0  0  0  0  0  0
    5.2365    0.7112   -0.1403 H   0  0  0  0  0  0  0  0  0  0  0  0
    4.5319   -1.8155   -1.7133 H   0  0  0  0  0  0  0  0  0  0  0  0
    5.4892    0.9062   -2.7395 H   0  0  0  0  0  0  0  0  0  0  0  0
    5.5554   -0.5958   -3.6752 H   0  0  0  0  0  0  0  0  0  0  0  0
    3.9955    0.0501   -3.1888 H   0  0  0  0  0  0  0  0  0  0  0  0
    7.2035   -0.4418   -1.1704 H   0  0  0  0  0  0  0  0  0  0  0  0
    6.6306   -1.9427   -0.4222 H   0  0  0  0  0  0  0  0  0  0  0  0
    6.9506   -1.8907   -2.1582 H   0  0  0  0  0  0  0  0  0  0  0  0
    3.2673    0.5073    1.8381 H   0  0  0  0  0  0  0  0  0  0  0  0
    3.2727    2.0727    1.0277 H   0  0  0  0  0  0  0  0  0  0  0  0
    0.8688    1.7427    0.4203 H   0  0  0  0  0  0  0  0  0  0  0  0
    1.4990    1.5856    3.4072 H   0  0  0  0  0  0  0  0  0  0  0  0
   -0.0434    2.1134    2.7095 H   0  0  0  0  0  0  0  0  0  0  0  0
    1.4298    3.0470    2.4053 H   0  0  0  0  0  0  0  0  0  0  0  0
  1  2  2  0
  2  3  1  0
  3  4  2  3
  4  5  1  0
  5  6  1  0
  6  7  1  0
  7  8  1  0
  8  9  2  0
  9 10  1  0
 10 11  2  0
 11 12  1  0
  7 13  2  0
 13 14  1  0
 14 15  1  0
 15 16  2  0
 15 17  1  0
 17 18  1  0
 18 19  1  0
 19 20  1  0
 20 21  1  0
 21 22  1  0
 21 23  1  0
 23 24  1  0
 24 25  1  0
 24 26  1  0
 21 27  1  0
 27 28  1  0
 28 29  1  0
 14  5  2  0
 28 18  1  0
 12  8  1  0
  1 30  1  0
  1 31  1  0
  2 32  1  0
  3 33  1  0
  4 34  1  0
  6 35  1  0
  9 36  1  0
 10 37  1  0
 12 38  1  0
 17 39  1  0
 18 40  1  0
 19 41  1  0
 19 42  1  0
 20 43  1  0
 20 44  1  0
 22 45  1  0
 23 46  1  0
 23 47  1  0
 24 48  1  0
 25 49  1  0
 25 50  1  0
 25 51  1  0
 26 52  1  0
 26 53  1  0
 26 54  1  0
 27 55  1  0
 27 56  1  0
 28 57  1  0
 29 58  1  0
 29 59  1  0
 29 60  1  0
M  END
$$$$
