
     RDKit          3D

 48 49  0  0  0  0  0  0  0  0999 V2000
    4.3855   -3.3056    0.0969 C   0  0  0  0  0  0  0  0  0  0  0  0
    4.3392   -1.8206   -0.1074 C   0  0  0  0  0  0  0  0  0  0  0  0
    5.5420   -1.1927   -0.2006 N   0  0  0  0  0  0  0  0  0  0  0  0
    5.5169    0.1416   -0.3521 C   0  0  0  0  0  0  0  0  0  0  0  0
    6.7113    0.8462   -0.4477 C   0  0  0  0  0  0  0  0  0  0  0  0
    6.7264    2.2330   -0.6031 C   0  0  0  0  0  0  0  0  0  0  0  0
    5.5255    2.9273   -0.6638 C   0  0  0  0  0  0  0  0  0  0  0  0
    4.3212    2.2279   -0.5690 C   0  0  0  0  0  0  0  0  0  0  0  0
    4.2946    0.8467   -0.4146 C   0  0  0  0  0  0  0  0  0  0  0  0
    3.1099    0.2122   -0.3310 N   0  0  0  0  0  0  0  0  0  0  0  0
    3.1177   -1.1299   -0.1877 C   0  0  0  0  0  0  0  0  0  0  0  0
    1.8957   -1.8270   -0.0841 N   0  0  0  0  0  0  0  0  0  0  0  0
    0.7033   -0.9830   -0.2026 C   0  0  0  0  0  0  0  0  0  0  0  0
   -0.5378   -1.8508    0.0335 C   0  0  0  0  0  0  0  0  0  0  0  0
   -1.8639   -1.0945   -0.1160 C   0  0  2  0  0  0  0  0  0  0  0  0
   -1.9836   -0.6319   -1.4581 O   0  0  0  0  0  0  0  0  0  0  0  0
   -1.9878    0.0945    0.8463 C   0  0  0  0  0  0  0  0  0  0  0  0
   -3.4253    0.6031    1.0372 C   0  0  0  0  0  0  0  0  0  0  0  0
   -4.0494    1.2109   -0.2209 C   0  0  0  0  0  0  0  0  0  0  0  0
   -5.3563    1.9639    0.0548 C   0  0  0  0  0  0  0  0  0  0  0  0
   -6.4786    1.0574    0.5592 C   0  0  0  0  0  0  0  0  0  0  0  0
   -7.7139    1.8194    0.7091 N   0  0  0  0  0  0  0  0  0  0  0  0
    5.4204   -3.6538    0.1812 H   0  0  0  0  0  0  0  0  0  0  0  0
    3.9263   -3.8223   -0.7515 H   0  0  0  0  0  0  0  0  0  0  0  0
    3.8640   -3.5823    1.0184 H   0  0  0  0  0  0  0  0  0  0  0  0
    7.6495    0.2991   -0.3983 H   0  0  0  0  0  0  0  0  0  0  0  0
    7.6726    2.7630   -0.6750 H   0  0  0  0  0  0  0  0  0  0  0  0
    5.5199    4.0076   -0.7840 H   0  0  0  0  0  0  0  0  0  0  0  0
    3.3793    2.7691   -0.6165 H   0  0  0  0  0  0  0  0  0  0  0  0
    1.8949   -2.5719   -0.7756 H   0  0  0  0  0  0  0  0  0  0  0  0
    0.7335   -0.1858    0.5490 H   0  0  0  0  0  0  0  0  0  0  0  0
    0.6601   -0.5289   -1.1998 H   0  0  0  0  0  0  0  0  0  0  0  0
   -0.4845   -2.3005    1.0331 H   0  0  0  0  0  0  0  0  0  0  0  0
   -0.5242   -2.6806   -0.6857 H   0  0  0  0  0  0  0  0  0  0  0  0
   -2.6863   -1.7961    0.0681 H   0  0  0  0  0  0  0  0  0  0  0  0
   -2.0805   -1.4103   -2.0336 H   0  0  0  0  0  0  0  0  0  0  0  0
   -1.6141   -0.2026    1.8341 H   0  0  0  0  0  0  0  0  0  0  0  0
   -1.3697    0.9308    0.4975 H   0  0  0  0  0  0  0  0  0  0  0  0
   -4.0483   -0.2206    1.4043 H   0  0  0  0  0  0  0  0  0  0  0  0
   -3.4087    1.3626    1.8289 H   0  0  0  0  0  0  0  0  0  0  0  0
   -4.2436    0.4269   -0.9611 H   0  0  0  0  0  0  0  0  0  0  0  0
   -3.3397    1.9140   -0.6737 H   0  0  0  0  0  0  0  0  0  0  0  0
   -5.1686    2.7674    0.7782 H   0  0  0  0  0  0  0  0  0  0  0  0
   -5.6728    2.4481   -0.8781 H   0  0  0  0  0  0  0  0  0  0  0  0
   -6.6484    0.2381   -0.1472 H   0  0  0  0  0  0  0  0  0  0  0  0
   -6.2162    0.6181    1.5267 H   0  0  0  0  0  0  0  0  0  0  0  0
   -7.5715    2.5756    1.3775 H   0  0  0  0  0  0  0  0  0  0  0  0
   -8.4361    1.2191    1.1046 H   0  0  0  0  0  0  0  0  0  0  0  0
  1  2  1  0
  2  3  2  0
  3  4  1  0
  4  5  2  0
  5  6  1  0
  6  7  2  0
  7  8  1  0
  8  9  2  0
  9 10  1  0
 10 11  2  0
 11 12  1  0
 12 13  1  0
 13 14  1  0
 14 15  1  0
 15 16  1  0
 15 17  1  0
 17 18  1  0
 18 19  1  0
 19 20  1  0
 20 21  1  0
 21 22  1  0
 11  2  1  0
  9  4  1  0
  1 23  1  0
  1 24  1  0
  1 25  1  0
  5 26  1  0
  6 27  1  0
  7 28  1  0
  8 29  1  0
 12 30  1  0
 13 31  1  0
 13 32  1  0
 14 33  1  0
 14 34  1  0
 15 35  1  1
 16 36  1  0
 17 37  1  0
 17 38  1  0
 18 39  1  0
 18 40  1  0
 19 41  1  0
 19 42  1  0
 20 43  1  0
 20 44  1  0
 21 45  1  0
 21 46  1  0
 22 47  1  0
 22 48  1  0
M  END
$$$$
