
     RDKit          3D

 37 38  0  0  0  0  0  0  0  0999 V2000
    6.2352    0.6049    0.9273 C   0  0  0  0  0  0  0  0  0  0  0  0
    4.9903   -0.0892    0.8342 O   0  0  0  0  0  0  0  0  0  0  0  0
    4.3128    0.1349   -0.3301 C   0  0  0  0  0  0  0  0  0  0  0  0
    4.7181    0.8383   -1.2456 O   0  0  0  0  0  0  0  0  0  0  0  0
    3.0221   -0.6797   -0.3308 C   0  0  0  0  0  0  0  0  0  0  0  0
    1.8504   -0.1683   -1.1448 C   0  0  0  0  0  0  0  0  0  0  0  0
    1.7371    1.0820   -1.6307 C   0  0  0  0  0  0  0  0  0  0  0  0
    0.5595    1.4984   -2.4355 C   0  0  0  0  0  0  0  0  0  0  0  0
   -0.6972    1.2389   -2.2822 N   0  0  0  0  0  0  0  0  0  0  0  0
   -1.1775    0.4618   -1.2145 C   0  0  0  0  0  0  0  0  0  0  0  0
   -2.3797    0.8755   -0.6216 C   0  0  0  0  0  0  0  0  0  0  0  0
   -2.9684    0.1656    0.4335 C   0  0  0  0  0  0  0  0  0  0  0  0
   -4.1103    0.5647    1.0766 O   0  0  0  0  0  0  0  0  0  0  0  0
   -4.6944    1.8004    0.6850 C   0  0  0  0  0  0  0  0  0  0  0  0
   -2.3473   -1.0111    0.8780 C   0  0  0  0  0  0  0  0  0  0  0  0
   -2.7730   -1.8236    1.8988 O   0  0  0  0  0  0  0  0  0  0  0  0
   -4.1799   -2.0284    1.9759 C   0  0  0  0  0  0  0  0  0  0  0  0
   -1.1410   -1.4244    0.3008 C   0  0  0  0  0  0  0  0  0  0  0  0
   -0.5549   -0.7049   -0.7507 C   0  0  0  0  0  0  0  0  0  0  0  0
    0.7397   -1.1756   -1.3588 C   0  0  0  0  0  0  0  0  0  0  0  0
    6.9187    0.2715    0.1403 H   0  0  0  0  0  0  0  0  0  0  0  0
    6.0767    1.6865    0.8722 H   0  0  0  0  0  0  0  0  0  0  0  0
    6.6824    0.3697    1.8970 H   0  0  0  0  0  0  0  0  0  0  0  0
    2.6806   -0.7847    0.7067 H   0  0  0  0  0  0  0  0  0  0  0  0
    3.3061   -1.6751   -0.6947 H   0  0  0  0  0  0  0  0  0  0  0  0
    2.4982    1.8442   -1.5131 H   0  0  0  0  0  0  0  0  0  0  0  0
    0.8247    2.1546   -3.2830 H   0  0  0  0  0  0  0  0  0  0  0  0
   -2.8302    1.7802   -1.0171 H   0  0  0  0  0  0  0  0  0  0  0  0
   -5.0453    1.7593   -0.3512 H   0  0  0  0  0  0  0  0  0  0  0  0
   -4.0007    2.6337    0.8386 H   0  0  0  0  0  0  0  0  0  0  0  0
   -5.5664    1.9734    1.3230 H   0  0  0  0  0  0  0  0  0  0  0  0
   -4.3455   -2.9999    2.4525 H   0  0  0  0  0  0  0  0  0  0  0  0
   -4.6550   -2.0624    0.9891 H   0  0  0  0  0  0  0  0  0  0  0  0
   -4.6417   -1.2701    2.6147 H   0  0  0  0  0  0  0  0  0  0  0  0
   -0.6654   -2.3270    0.6785 H   0  0  0  0  0  0  0  0  0  0  0  0
    1.0209   -2.1450   -0.9281 H   0  0  0  0  0  0  0  0  0  0  0  0
    0.6002   -1.3691   -2.4305 H   0  0  0  0  0  0  0  0  0  0  0  0
  1  2  1  0
  2  3  1  0
  3  4  2  0
  3  5  1  0
  5  6  1  0
  6  7  2  0
  7  8  1  0
  8  9  2  0
  9 10  1  0
 10 11  2  0
 11 12  1  0
 12 13  1  0
 13 14  1  0
 12 15  2  0
 15 16  1  0
 16 17  1  0
 15 18  1  0
 18 19  2  0
 19 20  1  0
 20  6  1  0
 19 10  1  0
  1 21  1  0
  1 22  1  0
  1 23  1  0
  5 24  1  0
  5 25  1  0
  7 26  1  0
  8 27  1  0
 11 28  1  0
 14 29  1  0
 14 30  1  0
 14 31  1  0
 17 32  1  0
 17 33  1  0
 17 34  1  0
 18 35  1  0
 20 36  1  0
 20 37  1  0
M  END
$$$$
