REMARK SMILES Oc1nc(-c2cccc(-c3ccc(F)cc3)c2)cc(-c2nn[nH]n2)c1F
REMARK SMILES IDX 2 1 3 2 4 3 18 4 19 5 25 6 26 7 1 8 5 10 6 11 17 12 7 13
REMARK SMILES IDX 9 14 8 15 10 16 11 17 16 18 12 19 15 20 13 21 14 22 20 23
REMARK SMILES IDX 21 24 24 25 22 26 23 27
REMARK H PARENT 1 9 23 28
ROOT
ATOM      1  C   UNL     1      -3.582  -2.282  -0.222  1.00  0.00     0.249 A 
ATOM      2  N   UNL     1      -2.302  -2.297  -0.634  1.00  0.00    -0.211 NA
ATOM      3  C   UNL     1      -1.607  -1.136  -0.527  1.00  0.00     0.075 A 
ATOM      4  C   UNL     1      -2.200   0.025  -0.025  1.00  0.00     0.044 A 
ATOM      5  C   UNL     1      -3.541   0.007   0.396  1.00  0.00     0.067 A 
ATOM      6  C   UNL     1      -4.246  -1.185   0.293  1.00  0.00     0.196 A 
ATOM      7  F   UNL     1      -5.527  -1.289   0.675  1.00  0.00    -0.200 F 
ENDROOT
BRANCH   1   8
ATOM      8  O   UNL     1      -4.201  -3.484  -0.353  1.00  0.00    -0.491 OA
ATOM      9  H   UNL     1      -3.473  -4.020  -0.715  1.00  0.00     0.295 HD
ENDBRANCH   1   8
BRANCH   3  10
ATOM     10  C   UNL     1      -0.202  -1.186  -0.982  1.00  0.00     0.001 A 
ATOM     11  C   UNL     1       0.176  -2.020  -2.049  1.00  0.00     0.010 A 
ATOM     12  C   UNL     1       0.810  -0.420  -0.369  1.00  0.00     0.019 A 
ATOM     13  C   UNL     1       1.498  -2.078  -2.492  1.00  0.00     0.001 A 
ATOM     14  C   UNL     1       2.150  -0.462  -0.799  1.00  0.00    -0.018 A 
ATOM     15  C   UNL     1       2.476  -1.303  -1.872  1.00  0.00     0.009 A 
BRANCH  14  16
ATOM     16  C   UNL     1       3.182   0.352  -0.136  1.00  0.00    -0.018 A 
ATOM     17  C   UNL     1       4.337  -0.244   0.402  1.00  0.00     0.012 A 
ATOM     18  C   UNL     1       3.039   1.747  -0.022  1.00  0.00     0.012 A 
ATOM     19  C   UNL     1       5.316   0.527   1.034  1.00  0.00     0.040 A 
ATOM     20  C   UNL     1       4.018   2.520   0.608  1.00  0.00     0.040 A 
ATOM     21  C   UNL     1       5.146   1.902   1.130  1.00  0.00     0.123 A 
ATOM     22  F   UNL     1       6.084   2.642   1.735  1.00  0.00    -0.207 F 
ENDBRANCH  14  16
ENDBRANCH   3  10
BRANCH   5  23
ATOM     23  C   UNL     1      -4.161   1.212   0.920  1.00  0.00     0.207 A 
ATOM     24  N   UNL     1      -5.474   1.286   1.321  1.00  0.00    -0.108 NA
ATOM     25  N   UNL     1      -3.517   2.386   1.070  1.00  0.00    -0.134 NA
ATOM     26  N   UNL     1      -5.684   2.527   1.736  1.00  0.00    -0.050 NA
ATOM     27  N   UNL     1      -4.509   3.139   1.572  1.00  0.00    -0.177 N 
ATOM     28  H   UNL     1      -4.379   4.117   1.816  1.00  0.00     0.216 HD
ENDBRANCH   5  23
TORSDOF 4
