REMARK SMILES Cc1c(-c2nn[nH]n2)cc(-c2cccc(-c3ccc(F)cc3)c2)nc1O
REMARK SMILES IDX 1 1 2 2 3 3 9 4 10 5 24 6 25 7 4 8 5 9 8 10 6 11 7 12 26 14
REMARK SMILES IDX 11 16 12 17 23 18 13 19 15 20 14 21 16 22 17 23 22 24 18 25
REMARK SMILES IDX 21 26 19 27 20 28
REMARK H PARENT 7 13 26 15
ROOT
ATOM      1  C   UNL     1      -5.302  -0.915   0.748  1.00  0.00     0.051 C 
ATOM      2  C   UNL     1      -3.853  -0.922   0.357  1.00  0.00     0.022 A 
ATOM      3  C   UNL     1      -3.111   0.242   0.101  1.00  0.00     0.033 A 
ATOM      4  C   UNL     1      -1.751   0.117  -0.239  1.00  0.00     0.041 A 
ATOM      5  C   UNL     1      -1.163  -1.141  -0.334  1.00  0.00     0.075 A 
ATOM      6  N   UNL     1      -1.880  -2.267  -0.121  1.00  0.00    -0.213 NA
ATOM      7  C   UNL     1      -3.171  -2.121   0.213  1.00  0.00     0.215 A 
ENDROOT
BRANCH   3   8
ATOM      8  C   UNL     1      -3.681   1.587   0.166  1.00  0.00     0.205 A 
ATOM      9  N   UNL     1      -5.027   1.858   0.078  1.00  0.00    -0.108 NA
ATOM     10  N   UNL     1      -2.947   2.711   0.288  1.00  0.00    -0.134 NA
ATOM     11  N   UNL     1      -5.167   3.172   0.164  1.00  0.00    -0.050 NA
ATOM     12  N   UNL     1      -3.920   3.634   0.289  1.00  0.00    -0.177 N 
ATOM     13  H   UNL     1      -3.726   4.627   0.377  1.00  0.00     0.216 HD
ENDBRANCH   3   8
BRANCH   7  14
ATOM     14  O   UNL     1      -3.786  -3.313   0.412  1.00  0.00    -0.493 OA
ATOM     15  H   UNL     1      -3.037  -3.915   0.249  1.00  0.00     0.295 HD
ENDBRANCH   7  14
BRANCH   5  16
ATOM     16  C   UNL     1       0.258  -1.339  -0.685  1.00  0.00     0.001 A 
ATOM     17  C   UNL     1       0.662  -2.457  -1.436  1.00  0.00     0.010 A 
ATOM     18  C   UNL     1       1.260  -0.436  -0.278  1.00  0.00     0.019 A 
ATOM     19  C   UNL     1       2.000  -2.657  -1.777  1.00  0.00     0.001 A 
ATOM     20  C   UNL     1       2.618  -0.617  -0.610  1.00  0.00    -0.018 A 
ATOM     21  C   UNL     1       2.969  -1.743  -1.368  1.00  0.00     0.009 A 
BRANCH  20  22
ATOM     22  C   UNL     1       3.639   0.347  -0.168  1.00  0.00    -0.018 A 
ATOM     23  C   UNL     1       4.758  -0.075   0.572  1.00  0.00     0.012 A 
ATOM     24  C   UNL     1       3.521   1.715  -0.474  1.00  0.00     0.012 A 
ATOM     25  C   UNL     1       5.727   0.840   0.992  1.00  0.00     0.040 A 
ATOM     26  C   UNL     1       4.489   2.630  -0.054  1.00  0.00     0.040 A 
ATOM     27  C   UNL     1       5.583   2.183   0.675  1.00  0.00     0.123 A 
ATOM     28  F   UNL     1       6.511   3.061   1.078  1.00  0.00    -0.207 F 
ENDBRANCH  20  22
ENDBRANCH   5  16
TORSDOF 4
