REMARK SMILES N#Cc1c(-c2nn[nH]n2)cc(-c2cccc(-c3ccc(F)cc3)c2)nc1O
REMARK SMILES IDX 3 1 4 2 10 3 11 4 25 5 26 6 2 7 1 8 5 9 6 10 9 11 7 12 8 13
REMARK SMILES IDX 27 15 12 17 13 18 24 19 14 20 16 21 15 22 17 23 18 24 23 25
REMARK SMILES IDX 19 26 22 27 20 28 21 29
REMARK H PARENT 8 14 27 16
ROOT
ATOM      1  C   UNL     1       3.497  -1.399   1.158  1.00  0.00     0.125 A 
ATOM      2  C   UNL     1       3.656  -0.366   0.226  1.00  0.00     0.048 A 
ATOM      3  C   UNL     1       2.530   0.390  -0.146  1.00  0.00     0.042 A 
ATOM      4  C   UNL     1       1.286   0.102   0.402  1.00  0.00     0.075 A 
ATOM      5  N   UNL     1       1.135  -0.910   1.287  1.00  0.00    -0.212 NA
ATOM      6  C   UNL     1       2.216  -1.627   1.648  1.00  0.00     0.230 A 
ENDROOT
BRANCH   1   7
ATOM      7  C   UNL     1       4.582  -2.192   1.641  1.00  0.00     0.106 C 
ATOM      8  N   UNL     1       5.391  -2.881   2.107  1.00  0.00    -0.192 NA
ENDBRANCH   1   7
BRANCH   2   9
ATOM      9  C   UNL     1       4.939  -0.040  -0.384  1.00  0.00     0.206 A 
ATOM     10  N   UNL     1       5.968  -0.938  -0.519  1.00  0.00    -0.108 NA
ATOM     11  N   UNL     1       5.239   1.162  -0.911  1.00  0.00    -0.134 NA
ATOM     12  N   UNL     1       6.958  -0.304  -1.129  1.00  0.00    -0.050 NA
ATOM     13  N   UNL     1       6.491   0.930  -1.339  1.00  0.00    -0.177 N 
ATOM     14  H   UNL     1       7.052   1.643  -1.796  1.00  0.00     0.216 HD
ENDBRANCH   2   9
BRANCH   6  15
ATOM     15  O   UNL     1       1.915  -2.602   2.557  1.00  0.00    -0.492 OA
ATOM     16  H   UNL     1       2.700  -3.116   2.805  1.00  0.00     0.295 HD
ENDBRANCH   6  15
BRANCH   4  17
ATOM     17  C   UNL     1       0.056   0.848   0.062  1.00  0.00     0.001 A 
ATOM     18  C   UNL     1       0.077   2.208  -0.289  1.00  0.00     0.010 A 
ATOM     19  C   UNL     1      -1.201   0.208   0.091  1.00  0.00     0.019 A 
ATOM     20  C   UNL     1      -1.099   2.891  -0.608  1.00  0.00     0.001 A 
ATOM     21  C   UNL     1      -2.400   0.874  -0.225  1.00  0.00    -0.018 A 
ATOM     22  C   UNL     1      -2.325   2.228  -0.577  1.00  0.00     0.009 A 
BRANCH  21  23
ATOM     23  C   UNL     1      -3.694   0.169  -0.179  1.00  0.00    -0.018 A 
ATOM     24  C   UNL     1      -4.583   0.215  -1.269  1.00  0.00     0.012 A 
ATOM     25  C   UNL     1      -4.075  -0.571   0.956  1.00  0.00     0.012 A 
ATOM     26  C   UNL     1      -5.810  -0.453  -1.225  1.00  0.00     0.040 A 
ATOM     27  C   UNL     1      -5.302  -1.239   1.001  1.00  0.00     0.040 A 
ATOM     28  C   UNL     1      -6.157  -1.173  -0.090  1.00  0.00     0.123 A 
ATOM     29  F   UNL     1      -7.333  -1.812  -0.048  1.00  0.00    -0.207 F 
ENDBRANCH  21  23
ENDBRANCH   4  17
TORSDOF 5
