MODEL        1USER    Run = 1USERUSER    Estimated Free Energy of Binding    =  -9.61 kcal/mol  [=(1)+(2)+(3)-(4)]USERUSER    (1) Final Intermolecular Energy     = -10.80 kcal/molUSER        vdW + Hbond + desolv Energy     = -10.79 kcal/molUSER        Electrostatic Energy            =  -0.01 kcal/molUSER        Moving Ligand-Fixed Receptor    = -10.80 kcal/molUSER        Moving Ligand-Moving Receptor   =  +0.00 kcal/molUSER    (2) Final Total Internal Energy     =  -0.81 kcal/molUSER    (3) Torsional Free Energy           =  +1.19 kcal/molUSER    (4) Unbound System's Energy         =  -0.81 kcal/molUSERUSERREMARK SMILES Oc1nc(-c2cccc(-c3ccc(F)cc3)c2)cc(-c2nn[nH]n2)c1FREMARK SMILES IDX 2 1 3 2 4 3 18 4 19 5 25 6 26 7 1 8 5 10 6 11 17 12 7 13REMARK SMILES IDX 9 14 8 15 10 16 11 17 16 18 12 19 15 20 13 21 14 22 20 23REMARK SMILES IDX 21 24 24 25 22 26 23 27REMARK H PARENT 1 9 23 28USER                              x       y       z     vdW  Elec       q    TypeUSER                           _______ _______ _______ _____ _____    ______ ____ROOTATOM      1  C   UNL     1      15.933  -9.820  -8.167 -0.43 -0.06    +0.249 A  ATOM      2  N   UNL     1      16.126 -10.760  -9.110 -0.34 +0.05    -0.211 NA ATOM      3  C   UNL     1      15.952 -12.053  -8.736 -0.37 -0.02    +0.075 A  ATOM      4  C   UNL     1      15.602 -12.392  -7.427 -0.38 -0.02    +0.044 A  ATOM      5  C   UNL     1      15.409 -11.386  -6.465 -0.46 -0.03    +0.067 A  ATOM      6  C   UNL     1      15.579 -10.064  -6.854 -0.47 -0.06    +0.196 A  ATOM      7  F   UNL     1      15.411  -9.044  -6.000 -0.07 +0.09    -0.200 F  ENDROOTBRANCH   1   8ATOM      8  O   UNL     1      16.117  -8.555  -8.626 -0.29 +0.14    -0.491 OA ATOM      9  H   UNL     1      15.876  -8.043  -7.833 -0.07 -0.14    +0.295 HD ENDBRANCH   1   8BRANCH   3  10ATOM     10  C   UNL     1      16.165 -13.060  -9.796 -0.37 -0.00    +0.001 A  ATOM     11  C   UNL     1      17.358 -13.075 -10.540 -0.29 -0.00    +0.010 A  ATOM     12  C   UNL     1      15.193 -14.031 -10.112 -0.33 -0.01    +0.019 A  ATOM     13  C   UNL     1      17.577 -14.021 -11.543 -0.51 -0.00    +0.001 A  ATOM     14  C   UNL     1      15.391 -14.994 -11.119 -0.31 +0.00    -0.018 A  ATOM     15  C   UNL     1      16.600 -14.974 -11.827 -0.43 -0.00    +0.009 A  BRANCH  14  16ATOM     16  C   UNL     1      14.354 -15.994 -11.422 -0.28 +0.00    -0.018 A  ATOM     17  C   UNL     1      14.606 -17.046 -12.321 -0.33 -0.00    +0.012 A  ATOM     18  C   UNL     1      13.083 -15.921 -10.823 -0.38 -0.00    +0.012 A  ATOM     19  C   UNL     1      13.622 -17.994 -12.612 -0.34 -0.01    +0.040 A  ATOM     20  C   UNL     1      12.098 -16.870 -11.111 -0.19 -0.01    +0.040 A  ATOM     21  C   UNL     1      12.377 -17.896 -12.004 -0.37 -0.02    +0.123 A  ATOM     22  F   UNL     1      11.433 -18.804 -12.282 -0.18 +0.01    -0.207 F  ENDBRANCH  14  16ENDBRANCH   3  10BRANCH   5  23ATOM     23  C   UNL     1      15.043 -11.735  -5.103 -0.23 -0.08    +0.207 A  ATOM     24  N   UNL     1      13.745 -11.844  -4.662 -1.02 +0.07    -0.108 NA ATOM     25  N   UNL     1      15.935 -11.989  -4.125 -0.72 +0.00    -0.134 NA ATOM     26  N   UNL     1      13.798 -12.173  -3.379 -1.31 +0.01    -0.050 NA ATOM     27  N   UNL     1      15.102 -12.248  -3.105 -0.51 -0.02    -0.177 N  ATOM     28  H   UNL     1      15.438 -12.490  -2.176 +0.18 +0.09    +0.216 HD ENDBRANCH   5  23TORSDOF 4TERENDMDL