REMARK SMILES Oc1nc(-c2cccc(-c3ccncc3)c2)cc(-c2nn[nH]n2)c1Cl
REMARK SMILES IDX 2 1 3 2 4 3 17 4 18 5 24 6 25 7 1 8 5 10 6 11 16 12 7 13
REMARK SMILES IDX 9 14 8 15 10 16 11 17 15 18 12 19 14 20 13 21 19 22 20 23
REMARK SMILES IDX 23 24 21 25 22 26
REMARK H PARENT 1 9 22 27
ROOT
ATOM      1  C   UNL     1       3.115   1.686   1.805  1.00  0.00     0.231 A 
ATOM      2  N   UNL     1       1.793   1.836   1.593  1.00  0.00    -0.212 NA
ATOM      3  C   UNL     1       1.234   1.091   0.610  1.00  0.00     0.075 A 
ATOM      4  C   UNL     1       2.001   0.224  -0.166  1.00  0.00     0.043 A 
ATOM      5  C   UNL     1       3.384   0.100   0.068  1.00  0.00     0.049 A 
ATOM      6  C   UNL     1       3.962   0.846   1.096  1.00  0.00     0.114 A 
ATOM      7  Cl  UNL     1       5.626   0.727   1.544  1.00  0.00    -0.078 Cl
ENDROOT
BRANCH   1   8
ATOM      8  O   UNL     1       3.557   2.457   2.833  1.00  0.00    -0.492 OA
ATOM      9  H   UNL     1       2.725   2.885   3.104  1.00  0.00     0.295 HD
ENDBRANCH   1   8
BRANCH   3  10
ATOM     10  C   UNL     1      -0.219   1.269   0.415  1.00  0.00     0.001 A 
ATOM     11  C   UNL     1      -0.819   2.524   0.613  1.00  0.00     0.010 A 
ATOM     12  C   UNL     1      -1.057   0.201   0.037  1.00  0.00     0.019 A 
ATOM     13  C   UNL     1      -2.189   2.710   0.430  1.00  0.00     0.001 A 
ATOM     14  C   UNL     1      -2.444   0.364  -0.153  1.00  0.00    -0.018 A 
ATOM     15  C   UNL     1      -2.994   1.638   0.048  1.00  0.00     0.009 A 
BRANCH  14  16
ATOM     16  C   UNL     1      -3.292  -0.773  -0.544  1.00  0.00    -0.015 A 
ATOM     17  C   UNL     1      -4.415  -1.131   0.210  1.00  0.00     0.029 A 
ATOM     18  C   UNL     1      -3.003  -1.534  -1.683  1.00  0.00     0.029 A 
ATOM     19  C   UNL     1      -5.183  -2.212  -0.197  1.00  0.00     0.111 A 
ATOM     20  C   UNL     1      -3.832  -2.596  -2.012  1.00  0.00     0.111 A 
ATOM     21  N   UNL     1      -4.916  -2.951  -1.293  1.00  0.00    -0.265 NA
ENDBRANCH  14  16
ENDBRANCH   3  10
BRANCH   5  22
ATOM     22  C   UNL     1       4.132  -0.807  -0.784  1.00  0.00     0.206 A 
ATOM     23  N   UNL     1       3.611  -2.010  -1.208  1.00  0.00    -0.108 NA
ATOM     24  N   UNL     1       5.337  -0.558  -1.319  1.00  0.00    -0.134 NA
ATOM     25  N   UNL     1       4.519  -2.565  -1.997  1.00  0.00    -0.050 NA
ATOM     26  N   UNL     1       5.525  -1.683  -2.023  1.00  0.00    -0.177 N 
ATOM     27  H   UNL     1       6.375  -1.857  -2.552  1.00  0.00     0.216 HD
ENDBRANCH   5  22
TORSDOF 4
