MODEL        7USER    Run = 7USERUSER    Estimated Free Energy of Binding    = -10.01 kcal/mol  [=(1)+(2)+(3)-(4)]USERUSER    (1) Final Intermolecular Energy     = -11.50 kcal/molUSER        vdW + Hbond + desolv Energy     = -11.25 kcal/molUSER        Electrostatic Energy            =  -0.25 kcal/molUSER        Moving Ligand-Fixed Receptor    = -11.50 kcal/molUSER        Moving Ligand-Moving Receptor   =  +0.00 kcal/molUSER    (2) Final Total Internal Energy     =  -0.93 kcal/molUSER    (3) Torsional Free Energy           =  +1.49 kcal/molUSER    (4) Unbound System's Energy         =  -0.93 kcal/molUSERUSERREMARK SMILES N#Cc1c(-c2nn[nH]n2)cc(-c2cccc(-c3ccc(F)cc3)c2)nc1OREMARK SMILES IDX 3 1 4 2 10 3 11 4 25 5 26 6 2 7 1 8 5 9 6 10 9 11 7 12 8 13REMARK SMILES IDX 27 15 12 17 13 18 24 19 14 20 16 21 15 22 17 23 18 24 23 25REMARK SMILES IDX 19 26 22 27 20 28 21 29REMARK H PARENT 8 14 27 16USER                              x       y       z     vdW  Elec       q    TypeUSER                           _______ _______ _______ _____ _____    ______ ____ROOTATOM      1  C   UNL     1      17.768 -12.373  -5.093 -0.39 +0.01    +0.125 A  ATOM      2  C   UNL     1      17.018 -12.232  -6.267 -0.41 -0.01    +0.048 A  ATOM      3  C   UNL     1      16.917 -13.328  -7.143 -0.37 -0.01    +0.042 A  ATOM      4  C   UNL     1      17.561 -14.521  -6.841 -0.35 -0.00    +0.075 A  ATOM      5  N   UNL     1      18.301 -14.645  -5.715 -0.31 -0.03    -0.212 NA ATOM      6  C   UNL     1      18.389 -13.597  -4.874 -0.33 +0.05    +0.230 A  ENDROOTBRANCH   1   7ATOM      7  C   UNL     1      17.892 -11.340  -4.114 -0.52 +0.02    +0.106 C  ATOM      8  N   UNL     1      17.949 -10.574  -3.245 -0.84 -0.04    -0.192 NA ENDBRANCH   1   7BRANCH   2   9ATOM      9  C   UNL     1      16.339 -10.994  -6.630 -0.33 -0.05    +0.206 A  ATOM     10  N   UNL     1      16.720 -10.195  -7.678 -0.40 +0.02    -0.108 NA ATOM     11  N   UNL     1      15.246 -10.522  -6.000 -0.48 +0.06    -0.134 NA ATOM     12  N   UNL     1      15.872  -9.178  -7.719 -0.70 +0.01    -0.050 NA ATOM     13  N   UNL     1      15.022  -9.406  -6.713 -0.56 +0.08    -0.177 N  ATOM     14  H   UNL     1      14.256  -8.771  -6.507 -0.39 -0.18    +0.216 HD ENDBRANCH   2   9BRANCH   6  15ATOM     15  O   UNL     1      19.153 -13.873  -3.775 -0.24 -0.21    -0.492 OA ATOM     16  H   UNL     1      19.518 -13.065  -3.380 -0.33 +0.03    +0.295 HD ENDBRANCH   6  15BRANCH   4  17ATOM     17  C   UNL     1      17.505 -15.717  -7.708 -0.39 -0.00    +0.001 A  ATOM     18  C   UNL     1      18.115 -16.931  -7.352 -0.40 +0.00    +0.010 A  ATOM     19  C   UNL     1      16.835 -15.671  -8.949 -0.36 -0.00    +0.019 A  ATOM     20  C   UNL     1      18.047 -18.048  -8.188 -0.40 +0.00    +0.001 A  ATOM     21  C   UNL     1      16.753 -16.782  -9.809 -0.33 +0.00    -0.018 A  ATOM     22  C   UNL     1      17.370 -17.972  -9.404 -0.37 +0.00    +0.009 A  BRANCH  21  23ATOM     23  C   UNL     1      16.045 -16.691 -11.099 -0.23 +0.00    -0.018 A  ATOM     24  C   UNL     1      15.348 -17.796 -11.623 -0.39 -0.00    +0.012 A  ATOM     25  C   UNL     1      16.045 -15.495 -11.842 -0.36 -0.00    +0.012 A  ATOM     26  C   UNL     1      14.678 -17.710 -12.846 -0.35 -0.01    +0.040 A  ATOM     27  C   UNL     1      15.375 -15.408 -13.066 -0.38 -0.02    +0.040 A  ATOM     28  C   UNL     1      14.698 -16.516 -13.555 -0.29 -0.04    +0.123 A  ATOM     29  F   UNL     1      14.056 -16.435 -14.728 -0.06 +0.05    -0.207 F  ENDBRANCH  21  23ENDBRANCH   4  17TORSDOF 5TERENDMDL