REMARK SMILES Oc1nc(-c2cccc(-c3cccs3)c2)cc(-c2nn[nH]n2)c1Cl
REMARK SMILES IDX 2 1 3 2 4 3 16 4 17 5 23 6 24 7 1 8 5 10 6 11 15 12 7 13
REMARK SMILES IDX 9 14 8 15 10 16 11 17 14 18 12 19 13 20 18 21 19 22 22 23
REMARK SMILES IDX 20 24 21 25
REMARK H PARENT 1 9 21 26
ROOT
ATOM      1  C   UNL     1       3.455   0.000  -1.726  1.00  0.00     0.231 A 
ATOM      2  N   UNL     1       2.192   0.413  -1.946  1.00  0.00    -0.212 NA
ATOM      3  C   UNL     1       1.333   0.363  -0.902  1.00  0.00     0.075 A 
ATOM      4  C   UNL     1       1.747  -0.074   0.355  1.00  0.00     0.043 A 
ATOM      5  C   UNL     1       3.078  -0.486   0.563  1.00  0.00     0.049 A 
ATOM      6  C   UNL     1       3.962  -0.459  -0.517  1.00  0.00     0.114 A 
ATOM      7  Cl  UNL     1       5.599  -1.005  -0.431  1.00  0.00    -0.078 Cl
ENDROOT
BRANCH   1   8
ATOM      8  O   UNL     1       4.216   0.068  -2.850  1.00  0.00    -0.492 OA
ATOM      9  H   UNL     1       3.561   0.400  -3.489  1.00  0.00     0.295 HD
ENDBRANCH   1   8
BRANCH   3  10
ATOM     10  C   UNL     1      -0.047   0.808  -1.183  1.00  0.00     0.001 A 
ATOM     11  C   UNL     1      -0.293   1.838  -2.107  1.00  0.00     0.010 A 
ATOM     12  C   UNL     1      -1.163   0.220  -0.554  1.00  0.00     0.020 A 
ATOM     13  C   UNL     1      -1.591   2.273  -2.382  1.00  0.00     0.001 A 
ATOM     14  C   UNL     1      -2.478   0.643  -0.822  1.00  0.00    -0.008 A 
ATOM     15  C   UNL     1      -2.676   1.681  -1.740  1.00  0.00     0.009 A 
BRANCH  14  16
ATOM     16  C   UNL     1      -3.606   0.005  -0.130  1.00  0.00     0.034 A 
ATOM     17  C   UNL     1      -3.736  -0.291   1.216  1.00  0.00     0.020 A 
ATOM     18  S   UNL     1      -4.986  -0.517  -1.009  1.00  0.00    -0.144 S 
ATOM     19  C   UNL     1      -4.972  -0.933   1.521  1.00  0.00     0.012 A 
ATOM     20  C   UNL     1      -5.746  -1.115   0.399  1.00  0.00     0.065 A 
ENDBRANCH  14  16
ENDBRANCH   3  10
BRANCH   5  21
ATOM     21  C   UNL     1       3.460  -0.919   1.899  1.00  0.00     0.206 A 
ATOM     22  N   UNL     1       4.702  -0.708   2.449  1.00  0.00    -0.108 NA
ATOM     23  N   UNL     1       2.613  -1.510   2.764  1.00  0.00    -0.134 NA
ATOM     24  N   UNL     1       4.669  -1.202   3.678  1.00  0.00    -0.050 NA
ATOM     25  N   UNL     1       3.428  -1.673   3.818  1.00  0.00    -0.177 N 
ATOM     26  H   UNL     1       3.122  -2.123   4.677  1.00  0.00     0.216 HD
ENDBRANCH   5  21
TORSDOF 4
