MODEL        1USER    Run = 1USERUSER    Estimated Free Energy of Binding    =  -9.44 kcal/mol  [=(1)+(2)+(3)-(4)]USERUSER    (1) Final Intermolecular Energy     = -10.63 kcal/molUSER        vdW + Hbond + desolv Energy     = -10.43 kcal/molUSER        Electrostatic Energy            =  -0.20 kcal/molUSER        Moving Ligand-Fixed Receptor    = -10.63 kcal/molUSER        Moving Ligand-Moving Receptor   =  +0.00 kcal/molUSER    (2) Final Total Internal Energy     =  -0.81 kcal/molUSER    (3) Torsional Free Energy           =  +1.19 kcal/molUSER    (4) Unbound System's Energy         =  -0.81 kcal/molUSERUSERREMARK SMILES Oc1nc(-c2cccc(-c3cccs3)c2)cc(-c2nn[nH]n2)c1ClREMARK SMILES IDX 2 1 3 2 4 3 16 4 17 5 23 6 24 7 1 8 5 10 6 11 15 12 7 13REMARK SMILES IDX 9 14 8 15 10 16 11 17 14 18 12 19 13 20 18 21 19 22 22 23REMARK SMILES IDX 20 24 21 25REMARK H PARENT 1 9 21 26USER                              x       y       z     vdW  Elec       q    TypeUSER                           _______ _______ _______ _____ _____    ______ ____ROOTATOM      1  C   UNL     1      18.556 -13.326  -4.866 -0.33 +0.05    +0.231 A  ATOM      2  N   UNL     1      18.569 -14.401  -5.678 -0.31 -0.04    -0.212 NA ATOM      3  C   UNL     1      17.847 -14.325  -6.819 -0.36 -0.00    +0.075 A  ATOM      4  C   UNL     1      17.140 -13.170  -7.152 -0.37 -0.01    +0.043 A  ATOM      5  C   UNL     1      17.156 -12.053  -6.294 -0.41 -0.01    +0.049 A  ATOM      6  C   UNL     1      17.880 -12.136  -5.103 -0.39 +0.01    +0.114 A  ATOM      7  Cl  UNL     1      17.928 -10.878  -3.920 -0.77 -0.01    -0.078 Cl ENDROOTBRANCH   1   8ATOM      8  O   UNL     1      19.290 -13.529  -3.741 -0.19 -0.16    -0.492 OA ATOM      9  H   UNL     1      19.846 -12.730  -3.744 -0.32 -0.00    +0.295 HD ENDBRANCH   1   8BRANCH   3  10ATOM     10  C   UNL     1      17.870 -15.527  -7.677 -0.42 +0.00    +0.001 A  ATOM     11  C   UNL     1      18.921 -16.455  -7.580 -0.42 +0.00    +0.010 A  ATOM     12  C   UNL     1      16.849 -15.798  -8.609 -0.35 -0.00    +0.020 A  ATOM     13  C   UNL     1      18.961 -17.595  -8.385 -0.41 +0.00    +0.001 A  ATOM     14  C   UNL     1      16.871 -16.944  -9.426 -0.36 +0.00    -0.008 A  ATOM     15  C   UNL     1      17.943 -17.835  -9.305 -0.34 +0.00    +0.009 A  BRANCH  14  16ATOM     16  C   UNL     1      15.787 -17.174 -10.391 -0.35 -0.00    +0.034 A  ATOM     17  C   UNL     1      15.727 -18.103 -11.415 -0.36 -0.00    +0.020 A  ATOM     18  S   UNL     1      14.373 -16.199 -10.364 -0.42 +0.03    -0.144 S  ATOM     19  C   UNL     1      14.517 -18.019 -12.164 -0.37 -0.00    +0.012 A  ATOM     20  C   UNL     1      13.691 -17.024 -11.695 -0.31 -0.01    +0.065 A  ENDBRANCH  14  16ENDBRANCH   3  10BRANCH   5  21ATOM     21  C   UNL     1      16.413 -10.869  -6.698 -0.33 -0.04    +0.206 A  ATOM     22  N   UNL     1      16.672 -10.153  -7.842 -0.42 +0.02    -0.108 NA ATOM     23  N   UNL     1      15.346 -10.391  -6.028 -0.47 +0.06    -0.134 NA ATOM     24  N   UNL     1      15.780  -9.174  -7.895 -0.71 +0.01    -0.050 NA ATOM     25  N   UNL     1      15.028  -9.344  -6.805 -0.57 +0.08    -0.177 N  ATOM     26  H   UNL     1      14.258  -8.718  -6.585 -0.39 -0.18    +0.216 HD ENDBRANCH   5  21TORSDOF 4TERENDMDL