MODEL        1USER    Run = 1USERUSER    Estimated Free Energy of Binding    =  -9.55 kcal/mol  [=(1)+(2)+(3)-(4)]USERUSER    (1) Final Intermolecular Energy     = -10.75 kcal/molUSER        vdW + Hbond + desolv Energy     = -10.51 kcal/molUSER        Electrostatic Energy            =  -0.24 kcal/molUSER        Moving Ligand-Fixed Receptor    = -10.75 kcal/molUSER        Moving Ligand-Moving Receptor   =  +0.00 kcal/molUSER    (2) Final Total Internal Energy     =  -0.78 kcal/molUSER    (3) Torsional Free Energy           =  +1.19 kcal/molUSER    (4) Unbound System's Energy         =  -0.78 kcal/molUSERUSERREMARK SMILES Cc1c(-c2nn[nH]n2)cc(-c2cccc(-c3ccc(F)cc3)c2)nc1OREMARK SMILES IDX 1 1 2 2 3 3 9 4 10 5 24 6 25 7 4 8 5 9 8 10 6 11 7 12 26 14REMARK SMILES IDX 11 16 12 17 23 18 13 19 15 20 14 21 16 22 17 23 22 24 18 25REMARK SMILES IDX 21 26 19 27 20 28REMARK H PARENT 7 13 26 15USER                              x       y       z     vdW  Elec       q    TypeUSER                           _______ _______ _______ _____ _____    ______ ____ROOTATOM      1  C   UNL     1      18.144 -11.213  -4.076 -0.58 +0.01    +0.051 C  ATOM      2  C   UNL     1      17.972 -12.319  -5.075 -0.48 +0.00    +0.022 A  ATOM      3  C   UNL     1      17.216 -12.194  -6.252 -0.42 -0.00    +0.033 A  ATOM      4  C   UNL     1      17.140 -13.293  -7.128 -0.37 -0.01    +0.041 A  ATOM      5  C   UNL     1      17.790 -14.484  -6.819 -0.36 -0.00    +0.075 A  ATOM      6  N   UNL     1      18.492 -14.622  -5.672 -0.31 -0.04    -0.213 NA ATOM      7  C   UNL     1      18.559 -13.557  -4.860 -0.35 +0.05    +0.215 A  ENDROOTBRANCH   3   8ATOM      8  C   UNL     1      16.496 -10.974  -6.616 -0.32 -0.04    +0.205 A  ATOM      9  N   UNL     1      16.844 -10.161  -7.670 -0.37 +0.02    -0.108 NA ATOM     10  N   UNL     1      15.432 -10.498  -5.941 -0.45 +0.06    -0.134 NA ATOM     11  N   UNL     1      15.982  -9.156  -7.688 -0.69 +0.01    -0.050 NA ATOM     12  N   UNL     1      15.168  -9.394  -6.657 -0.56 +0.07    -0.177 N  ATOM     13  H   UNL     1      14.397  -8.772  -6.431 -0.39 -0.17    +0.216 HD ENDBRANCH   3   8BRANCH   7  14ATOM     14  O   UNL     1      19.295 -13.807  -3.748 -0.23 -0.19    -0.493 OA ATOM     15  H   UNL     1      19.854 -13.009  -3.737 -0.32 +0.02    +0.295 HD ENDBRANCH   7  14BRANCH   5  16ATOM     16  C   UNL     1      17.749 -15.672  -7.696 -0.41 +0.00    +0.001 A  ATOM     17  C   UNL     1      18.781 -16.627  -7.659 -0.42 +0.00    +0.010 A  ATOM     18  C   UNL     1      16.697 -15.891  -8.607 -0.30 -0.00    +0.019 A  ATOM     19  C   UNL     1      18.756 -17.754  -8.479 -0.40 +0.00    +0.001 A  ATOM     20  C   UNL     1      16.650 -17.023  -9.446 -0.34 +0.00    -0.018 A  ATOM     21  C   UNL     1      17.698 -17.951  -9.365 -0.36 +0.00    +0.009 A  BRANCH  20  22ATOM     22  C   UNL     1      15.534 -17.221 -10.386 -0.36 +0.00    -0.018 A  ATOM     23  C   UNL     1      14.299 -16.579 -10.186 -0.31 -0.00    +0.012 A  ATOM     24  C   UNL     1      15.675 -18.058 -11.508 -0.36 -0.00    +0.012 A  ATOM     25  C   UNL     1      13.240 -16.767 -11.078 -0.37 -0.01    +0.040 A  ATOM     26  C   UNL     1      14.616 -18.247 -12.399 -0.29 -0.01    +0.040 A  ATOM     27  C   UNL     1      13.409 -17.599 -12.175 -0.30 -0.02    +0.123 A  ATOM     28  F   UNL     1      12.393 -17.781 -13.030 -0.09 +0.03    -0.207 F  ENDBRANCH  20  22ENDBRANCH   5  16TORSDOF 4TERENDMDL