MODEL        5USER    Run = 5USERUSER    Estimated Free Energy of Binding    =  -9.39 kcal/mol  [=(1)+(2)+(3)-(4)]USERUSER    (1) Final Intermolecular Energy     = -10.58 kcal/molUSER        vdW + Hbond + desolv Energy     = -10.35 kcal/molUSER        Electrostatic Energy            =  -0.23 kcal/molUSER        Moving Ligand-Fixed Receptor    = -10.58 kcal/molUSER        Moving Ligand-Moving Receptor   =  +0.00 kcal/molUSER    (2) Final Total Internal Energy     =  -0.82 kcal/molUSER    (3) Torsional Free Energy           =  +1.19 kcal/molUSER    (4) Unbound System's Energy         =  -0.82 kcal/molUSERUSERREMARK SMILES Oc1nc(-c2cccc(-c3ccncc3)c2)cc(-c2nn[nH]n2)c1ClREMARK SMILES IDX 2 1 3 2 4 3 17 4 18 5 24 6 25 7 1 8 5 10 6 11 16 12 7 13REMARK SMILES IDX 9 14 8 15 10 16 11 17 15 18 12 19 14 20 13 21 19 22 20 23REMARK SMILES IDX 23 24 21 25 22 26REMARK H PARENT 1 9 22 27USER                              x       y       z     vdW  Elec       q    TypeUSER                           _______ _______ _______ _____ _____    ______ ____ROOTATOM      1  C   UNL     1      18.417 -13.470  -4.751 -0.32 +0.05    +0.231 A  ATOM      2  N   UNL     1      18.363 -14.546  -5.560 -0.32 -0.04    -0.212 NA ATOM      3  C   UNL     1      17.676 -14.417  -6.720 -0.36 -0.00    +0.075 A  ATOM      4  C   UNL     1      17.030 -13.227  -7.050 -0.37 -0.01    +0.043 A  ATOM      5  C   UNL     1      17.090 -12.123  -6.177 -0.41 -0.01    +0.049 A  ATOM      6  C   UNL     1      17.818 -12.241  -4.992 -0.40 +0.01    +0.114 A  ATOM      7  Cl  UNL     1      18.043 -10.943  -3.875 -0.77 -0.01    -0.078 Cl ENDROOTBRANCH   1   8ATOM      8  O   UNL     1      19.158 -13.706  -3.637 -0.19 -0.19    -0.492 OA ATOM      9  H   UNL     1      19.806 -12.982  -3.699 -0.30 +0.02    +0.295 HD ENDBRANCH   1   8BRANCH   3  10ATOM     10  C   UNL     1      17.650 -15.611  -7.589 -0.41 +0.00    +0.001 A  ATOM     11  C   UNL     1      18.387 -16.758  -7.250 -0.41 +0.00    +0.010 A  ATOM     12  C   UNL     1      16.904 -15.647  -8.784 -0.37 -0.00    +0.019 A  ATOM     13  C   UNL     1      18.371 -17.895  -8.058 -0.40 +0.00    +0.001 A  ATOM     14  C   UNL     1      16.874 -16.783  -9.617 -0.34 +0.00    -0.018 A  ATOM     15  C   UNL     1      17.618 -17.907  -9.231 -0.37 +0.00    +0.009 A  BRANCH  14  16ATOM     16  C   UNL     1      16.088 -16.787 -10.861 -0.28 +0.00    -0.015 A  ATOM     17  C   UNL     1      16.032 -15.658 -11.685 -0.32 -0.01    +0.029 A  ATOM     18  C   UNL     1      15.370 -17.921 -11.260 -0.39 -0.00    +0.029 A  ATOM     19  C   UNL     1      15.276 -15.709 -12.847 -0.31 -0.04    +0.111 A  ATOM     20  C   UNL     1      14.644 -17.877 -12.441 -0.30 -0.02    +0.111 A  ATOM     21  N   UNL     1      14.582 -16.795 -13.243 -0.16 +0.07    -0.265 NA ENDBRANCH  14  16ENDBRANCH   3  10BRANCH   5  22ATOM     22  C   UNL     1      16.384 -10.917  -6.568 -0.33 -0.04    +0.206 A  ATOM     23  N   UNL     1      16.769 -10.163  -7.655 -0.39 +0.02    -0.108 NA ATOM     24  N   UNL     1      15.259 -10.453  -6.001 -0.47 +0.06    -0.134 NA ATOM     25  N   UNL     1      15.898  -9.170  -7.762 -0.70 +0.01    -0.050 NA ATOM     26  N   UNL     1      15.035  -9.371  -6.759 -0.57 +0.08    -0.177 N  ATOM     27  H   UNL     1      14.255  -8.743  -6.592 -0.39 -0.17    +0.216 HD ENDBRANCH   5  22TORSDOF 4TERENDMDL