
     RDKit          2D

 37 39  0  0  0  0  0  0  0  0999 V2000
   15.4477   -3.2397    0.0000 Cl  0  0  0  0  0  0  0  0  0  0  0  0
    9.2041   -7.1619    0.0000 C   0  0  0  0  0  0  0  0  0  0  0  0
    8.8527   -6.0145    0.0000 O   0  0  0  0  0  0  0  0  0  0  0  0
    9.8751   -4.9157    0.0000 C   0  0  0  0  0  0  0  0  0  0  0  0
   11.3363   -5.2546    0.0000 C   0  0  0  0  0  0  0  0  0  0  0  0
   12.3603   -4.1585    0.0000 C   0  0  0  0  0  0  0  0  0  0  0  0
   11.9231   -2.7236    0.0000 C   0  0  0  0  0  0  0  0  0  0  0  0
   12.7424   -1.8468    0.0000 O   0  0  0  0  0  0  0  0  0  0  0  0
   10.4619   -2.3847    0.0000 C   0  0  0  0  0  0  0  0  0  0  0  0
   10.0216   -0.9499    0.0000 C   0  0  0  0  0  0  0  0  0  0  0  0
   10.8393   -0.0717    0.0000 O   0  0  0  0  0  0  0  0  0  0  0  0
    8.5590   -0.6130    0.0000 C   0  0  0  0  0  0  0  0  0  0  0  0
    8.1169    0.8204    0.0000 C   0  0  0  0  0  0  0  0  0  0  0  0
    6.6545    1.1541    0.0000 C   0  0  0  0  0  0  0  0  0  0  0  0
    5.6342    0.0546    0.0000 C   0  0  0  0  0  0  0  0  0  0  0  0
    4.1703    0.3856    0.0000 C   0  0  0  0  0  0  0  0  0  0  0  0
    3.1510   -0.7161    0.0000 N   0  0  0  0  0  0  0  0  0  0  0  0
    1.6852   -0.3846    0.0000 C   0  0  0  0  0  0  0  0  0  0  0  0
    1.3514    1.0778    0.0000 C   0  0  0  0  0  0  0  0  0  0  0  0
    0.0000    1.7286    0.0000 C   0  0  0  0  0  0  0  0  0  0  0  0
   -1.3515    1.0777    0.0000 C   0  0  0  0  0  0  0  0  0  0  0  0
   -1.6852   -0.3847    0.0000 N   0  0  0  0  0  0  0  0  0  0  0  0
   -0.7500   -1.5574    0.0000 C   0  0  0  0  0  0  0  0  0  0  0  0
    0.7500   -1.5574    0.0000 C   0  0  0  0  0  0  0  0  0  0  0  0
    1.3993   -2.9127    0.0000 N   0  0  0  0  0  0  0  0  0  0  0  0
    0.5521   -4.1515    0.0000 C   0  0  0  0  0  0  0  0  0  0  0  0
   -0.6444   -4.0598    0.0000 O   0  0  0  0  0  0  0  0  0  0  0  0
    1.2005   -5.5050    0.0000 C   0  0  0  0  0  0  0  0  0  0  0  0
    0.3556   -6.7445    0.0000 C   0  0  0  0  0  0  0  0  0  0  0  0
    1.0064   -8.0959    0.0000 C   0  0  0  0  0  0  0  0  0  0  0  0
    2.5022   -8.2080    0.0000 N   0  0  0  0  0  0  0  0  0  0  0  0
    3.3472   -6.9687    0.0000 C   0  0  0  0  0  0  0  0  0  0  0  0
    2.6964   -5.6172    0.0000 C   0  0  0  0  0  0  0  0  0  0  0  0
    6.0764   -1.3788    0.0000 C   0  0  0  0  0  0  0  0  0  0  0  0
    7.5388   -1.7126    0.0000 C   0  0  0  0  0  0  0  0  0  0  0  0
    9.4379   -3.4809    0.0000 C   0  0  0  0  0  0  0  0  0  0  0  0
    8.2689   -3.2098    0.0000 F   0  0  0  0  0  0  0  0  0  0  0  0
  2  3  1  0
  3  4  1  0
  4  5  2  0
  5  6  1  0
  6  7  2  0
  7  8  1  0
  7  9  1  0
  9 10  1  0
 10 11  2  0
 10 12  1  0
 12 13  2  0
 13 14  1  0
 14 15  2  0
 15 16  1  0
 16 17  1  0
 18 17  1  1
 18 19  1  0
 19 20  1  0
 20 21  1  0
 21 22  1  0
 22 23  1  0
 23 24  1  0
 24 18  1  0
 24 25  1  6
 25 26  1  0
 26 27  2  0
 26 28  1  0
 28 29  2  0
 29 30  1  0
 30 31  2  0
 31 32  1  0
 32 33  2  0
 33 28  1  0
 15 34  1  0
 34 35  2  0
 35 12  1  0
  9 36  2  0
 36  4  1  0
 36 37  1  0
M  END
> <chembl_id>
CHEMBL1202519

> <chembl_pref_name>
None