MODEL        6USER    Run = 6USERUSER    Estimated Free Energy of Binding    = -11.04 kcal/mol  [=(1)+(2)+(3)-(4)]USERUSER    (1) Final Intermolecular Energy     = -13.43 kcal/molUSER        vdW + Hbond + desolv Energy     = -13.23 kcal/molUSER        Electrostatic Energy            =  -0.20 kcal/molUSER        Moving Ligand-Fixed Receptor    = -13.43 kcal/molUSER        Moving Ligand-Moving Receptor   =  +0.00 kcal/molUSER    (2) Final Total Internal Energy     =  -2.11 kcal/molUSER    (3) Torsional Free Energy           =  +2.39 kcal/molUSER    (4) Unbound System's Energy         =  -2.11 kcal/molUSERUSERREMARK SMILES Nc1nnc(-c2ccc(C(F)(F)F)c(CC3CCN(c4ncccn4)CC3)c2O)c(-c2ccccc2)n1REMARK SMILES IDX 6 1 7 2 8 3 9 4 14 5 28 6 5 7 2 8 3 9 37 10 4 11 30 12 1 13REMARK SMILES IDX 31 16 32 17 36 18 33 19 35 20 34 21 29 22 15 24 16 25 17 26REMARK SMILES IDX 27 27 18 28 26 29 19 30 20 31 21 32 25 33 22 34 24 35 23 36REMARK SMILES IDX 10 37 11 38 12 39 13 40REMARK H PARENT 1 14 1 15 29 23USER                              x       y       z     vdW  Elec       q    TypeUSER                           _______ _______ _______ _____ _____    ______ ____ROOTATOM      1  C   UNL     1      39.265  46.817  17.128 -0.41 -0.01    +0.046 A  ATOM      2  C   UNL     1      37.866  46.741  17.069 -0.23 -0.01    +0.015 A  ATOM      3  C   UNL     1      37.162  45.825  17.854 -0.29 -0.00    +0.014 A  ATOM      4  C   UNL     1      37.827  44.959  18.741 -0.32 -0.01    +0.062 A  ATOM      5  C   UNL     1      39.239  45.017  18.825 -0.41 -0.00    +0.007 A  ATOM      6  C   UNL     1      39.929  45.922  17.991 -0.37 -0.01    +0.128 A  ENDROOTBRANCH   1   7ATOM      7  C   UNL     1      40.000  47.794  16.312 -0.43 -0.03    +0.123 A  ATOM      8  C   UNL     1      41.515  49.586  14.992 -0.42 -0.03    +0.240 A  ATOM      9  N   UNL     1      41.792  49.303  16.277 -1.00 -0.02    -0.111 NA ATOM     10  N   UNL     1      40.511  49.027  14.314 -0.38 +0.06    -0.210 NA ATOM     11  N   UNL     1      41.029  48.396  16.950 -0.61 +0.02    -0.144 NA ATOM     12  C   UNL     1      39.729  48.144  14.991 -0.47 -0.03    +0.103 A  BRANCH   8  13ATOM     13  N   UNL     1      42.319  50.476  14.305 -0.37 +0.07    -0.366 N  ATOM     14  H   UNL     1      41.900  50.709  13.415 +0.11 -0.05    +0.159 HD ATOM     15  H   UNL     1      43.284  50.173  14.301 -0.30 -0.03    +0.159 HD ENDBRANCH   8  13BRANCH  12  16ATOM     16  C   UNL     1      38.581  47.648  14.206 -0.50 -0.00    +0.003 A  ATOM     17  C   UNL     1      38.441  46.288  13.875 -0.37 -0.00    +0.010 A  ATOM     18  C   UNL     1      37.563  48.531  13.795 -0.50 -0.00    +0.010 A  ATOM     19  C   UNL     1      37.338  45.831  13.142 -0.48 -0.00    +0.001 A  ATOM     20  C   UNL     1      36.462  48.076  13.063 -0.60 -0.00    +0.001 A  ATOM     21  C   UNL     1      36.351  46.726  12.736 -0.64 -0.00    +0.000 A  ENDBRANCH  12  16ENDBRANCH   1   7BRANCH   6  22ATOM     22  O   UNL     1      41.302  45.911  18.054 -0.15 +0.01    -0.507 OA ATOM     23  H   UNL     1      41.657  46.546  17.401 -0.11 -0.04    +0.293 HD ENDBRANCH   6  22BRANCH   5  24ATOM     24  C   UNL     1      40.012  44.141  19.797 -0.20 +0.00    +0.043 C  BRANCH  24  25ATOM     25  C   UNL     1      39.786  44.515  21.279 -0.36 -0.00    -0.003 C  ATOM     26  C   UNL     1      39.030  45.850  21.370 -0.22 +0.00    +0.025 C  ATOM     27  C   UNL     1      38.994  43.448  22.049 -0.30 +0.00    +0.025 C  ATOM     28  C   UNL     1      38.783  46.262  22.822 -0.29 +0.01    +0.120 C  ATOM     29  C   UNL     1      38.738  43.870  23.497 -0.24 +0.01    +0.120 C  ATOM     30  N   UNL     1      38.106  45.189  23.550 -0.15 -0.04    -0.341 N  BRANCH  30  31ATOM     31  C   UNL     1      37.709  45.562  24.844 -0.16 +0.03    +0.225 A  ATOM     32  N   UNL     1      37.429  46.853  25.095 -0.77 -0.04    -0.221 NA ATOM     33  N   UNL     1      37.642  44.622  25.805 -0.17 +0.00    -0.221 NA ATOM     34  C   UNL     1      37.076  47.194  26.350 -0.29 -0.01    +0.117 A  ATOM     35  C   UNL     1      37.284  45.006  27.045 -0.28 -0.02    +0.117 A  ATOM     36  C   UNL     1      36.985  46.298  27.381 -0.32 -0.01    +0.040 A  ENDBRANCH  30  31ENDBRANCH  24  25ENDBRANCH   5  24BRANCH   4  37ATOM     37  C   UNL     1      37.002  43.960  19.531 -0.13 -0.04    +0.416 C  ATOM     38  F   UNL     1      35.864  43.570  18.893 -0.08 +0.03    -0.166 F  ATOM     39  F   UNL     1      36.609  44.449  20.739 -0.14 +0.00    -0.166 F  ATOM     40  F   UNL     1      37.672  42.805  19.807 +0.10 +0.01    -0.166 F  ENDBRANCH   4  37TORSDOF 8TERENDMDL