REMARK SMILES Nc1nnc(-c2ccc(C(F)(F)F)c(CC3CCN(c4ncccn4)CC3)c2O)c(-c2ccccc2)n1
REMARK SMILES IDX 6 1 7 2 8 3 9 4 14 5 28 6 5 7 2 8 3 9 37 10 4 11 30 12 1 13
REMARK SMILES IDX 31 16 32 17 36 18 33 19 35 20 34 21 29 22 15 24 16 25 17 26
REMARK SMILES IDX 27 27 18 28 26 29 19 30 20 31 21 32 25 33 22 34 24 35 23 36
REMARK SMILES IDX 10 37 11 38 12 39 13 40
REMARK H PARENT 1 14 1 15 29 23
ROOT
ATOM      1  C   UNL     1      -2.600  -1.335   0.688  1.00  0.00     0.046 A 
ATOM      2  C   UNL     1      -2.747  -1.200   2.076  1.00  0.00     0.015 A 
ATOM      3  C   UNL     1      -1.700  -1.516   2.944  1.00  0.00     0.014 A 
ATOM      4  C   UNL     1      -0.458  -1.966   2.459  1.00  0.00     0.062 A 
ATOM      5  C   UNL     1      -0.280  -2.107   1.062  1.00  0.00     0.007 A 
ATOM      6  C   UNL     1      -1.367  -1.821   0.209  1.00  0.00     0.128 A 
ENDROOT
BRANCH   1   7
ATOM      7  C   UNL     1      -3.700  -0.985  -0.222  1.00  0.00     0.123 A 
ATOM      8  C   UNL     1      -5.724  -0.579  -1.950  1.00  0.00     0.240 A 
ATOM      9  N   UNL     1      -5.071  -1.755  -1.959  1.00  0.00    -0.111 NA
ATOM     10  N   UNL     1      -5.424   0.425  -1.125  1.00  0.00    -0.210 NA
ATOM     11  N   UNL     1      -4.046  -1.966  -1.086  1.00  0.00    -0.144 NA
ATOM     12  C   UNL     1      -4.382   0.229  -0.272  1.00  0.00     0.103 A 
BRANCH   8  13
ATOM     13  N   UNL     1      -6.789  -0.389  -2.811  1.00  0.00    -0.366 N 
ATOM     14  H   UNL     1      -7.380   0.359  -2.474  1.00  0.00     0.159 HD
ATOM     15  H   UNL     1      -7.235  -1.266  -3.045  1.00  0.00     0.159 HD
ENDBRANCH   8  13
BRANCH  12  16
ATOM     16  C   UNL     1      -4.046   1.419   0.534  1.00  0.00     0.003 A 
ATOM     17  C   UNL     1      -2.742   1.948   0.567  1.00  0.00     0.010 A 
ATOM     18  C   UNL     1      -5.043   2.087   1.271  1.00  0.00     0.010 A 
ATOM     19  C   UNL     1      -2.442   3.087   1.325  1.00  0.00     0.001 A 
ATOM     20  C   UNL     1      -4.745   3.224   2.029  1.00  0.00     0.001 A 
ATOM     21  C   UNL     1      -3.444   3.722   2.056  1.00  0.00     0.000 A 
ENDBRANCH  12  16
ENDBRANCH   1   7
BRANCH   6  22
ATOM     22  O   UNL     1      -1.179  -2.026  -1.137  1.00  0.00    -0.507 OA
ATOM     23  H   UNL     1      -2.047  -2.172  -1.562  1.00  0.00     0.293 HD
ENDBRANCH   6  22
BRANCH   5  24
ATOM     24  C   UNL     1       1.052  -2.544   0.473  1.00  0.00     0.043 C 
BRANCH  24  25
ATOM     25  C   UNL     1       2.036  -1.376   0.241  1.00  0.00    -0.003 C 
ATOM     26  C   UNL     1       3.455  -1.924   0.025  1.00  0.00     0.025 C 
ATOM     27  C   UNL     1       1.655  -0.508  -0.967  1.00  0.00     0.025 C 
ATOM     28  C   UNL     1       4.466  -0.800  -0.209  1.00  0.00     0.120 C 
ATOM     29  C   UNL     1       2.676   0.607  -1.206  1.00  0.00     0.120 C 
ATOM     30  N   UNL     1       4.029   0.059  -1.309  1.00  0.00    -0.341 N 
BRANCH  30  31
ATOM     31  C   UNL     1       4.987   1.016  -1.679  1.00  0.00     0.225 A 
ATOM     32  N   UNL     1       4.588   2.120  -2.336  1.00  0.00    -0.221 NA
ATOM     33  N   UNL     1       6.282   0.794  -1.388  1.00  0.00    -0.221 NA
ATOM     34  C   UNL     1       5.526   3.013  -2.706  1.00  0.00     0.117 A 
ATOM     35  C   UNL     1       7.187   1.713  -1.775  1.00  0.00     0.117 A 
ATOM     36  C   UNL     1       6.862   2.860  -2.447  1.00  0.00     0.040 A 
ENDBRANCH  30  31
ENDBRANCH  24  25
ENDBRANCH   5  24
BRANCH   4  37
ATOM     37  C   UNL     1       0.620  -2.332   3.462  1.00  0.00     0.416 C 
ATOM     38  F   UNL     1       1.809  -1.711   3.233  1.00  0.00    -0.166 F 
ATOM     39  F   UNL     1       0.887  -3.667   3.476  1.00  0.00    -0.166 F 
ATOM     40  F   UNL     1       0.291  -2.014   4.747  1.00  0.00    -0.166 F 
ENDBRANCH   4  37
TORSDOF 8
