
     RDKit          2D

 39 45  0  0  0  0  0  0  0  0999 V2000
    4.0542    0.6458    0.0000 C   0  0  0  0  0  0  0  0  0  0  0  0
    3.3042    0.3000    0.0000 N   0  0  0  0  0  0  0  0  0  0  0  0
    4.6167    0.0250    0.0000 N   0  0  0  0  0  0  0  0  0  0  0  0
   -3.1083   -0.9750    0.0000 N   0  0  0  0  0  0  0  0  0  0  0  0
   -2.3958   -0.5542    0.0000 C   0  0  0  0  0  0  0  0  0  0  0  0
   -2.4000    0.2708    0.0000 C   0  0  0  0  0  0  0  0  0  0  0  0
    3.4000   -0.5167    0.0000 C   0  0  0  0  0  0  0  0  0  0  0  0
    4.2042   -0.6875    0.0000 C   0  0  0  0  0  0  0  0  0  0  0  0
   -3.1208    0.6833    0.0000 C   0  0  0  0  0  0  0  0  0  0  0  0
    2.5917    0.7083    0.0000 C   0  0  0  0  0  0  0  0  0  0  0  0
    1.1625    1.5250    0.0000 N   0  0  0  0  0  0  0  0  0  0  0  0
   -3.8208   -0.5542    0.0000 C   0  0  0  0  0  0  0  0  0  0  0  0
    4.2292    1.4458    0.0000 O   0  0  0  0  0  0  0  0  0  0  0  0
   -1.6833    0.6875    0.0000 C   0  0  0  0  0  0  0  0  0  0  0  0
   -3.8208    0.2625    0.0000 C   0  0  0  0  0  0  0  0  0  0  0  0
    2.5875    1.5333    0.0000 C   0  0  0  0  0  0  0  0  0  0  0  0
    1.8792    0.2958    0.0000 C   0  0  0  0  0  0  0  0  0  0  0  0
   -1.6833   -0.9667    0.0000 C   0  0  0  0  0  0  0  0  0  0  0  0
    1.8667    1.9458    0.0000 C   0  0  0  0  0  0  0  0  0  0  0  0
    1.1625    0.7000    0.0000 C   0  0  0  0  0  0  0  0  0  0  0  0
    0.4417    1.9458    0.0000 C   0  0  0  0  0  0  0  0  0  0  0  0
   -0.9750    0.2833    0.0000 C   0  0  0  0  0  0  0  0  0  0  0  0
   -1.6958    1.5083    0.0000 C   0  0  0  0  0  0  0  0  0  0  0  0
   -0.2708    1.5125    0.0000 C   0  0  0  0  0  0  0  0  0  0  0  0
   -0.9833    1.9250    0.0000 C   0  0  0  0  0  0  0  0  0  0  0  0
   -0.2625    0.6875    0.0000 C   0  0  0  0  0  0  0  0  0  0  0  0
    2.8542   -1.1375    0.0000 C   0  0  0  0  0  0  0  0  0  0  0  0
    4.4625   -1.4667    0.0000 C   0  0  0  0  0  0  0  0  0  0  0  0
   -4.5458   -0.9792    0.0000 C   0  0  0  0  0  0  0  0  0  0  0  0
   -4.5458    0.6833    0.0000 C   0  0  0  0  0  0  0  0  0  0  0  0
   -1.6833   -1.7917    0.0000 C   0  0  0  0  0  0  0  0  0  0  0  0
   -0.9750   -0.5500    0.0000 C   0  0  0  0  0  0  0  0  0  0  0  0
    3.1042   -1.9125    0.0000 C   0  0  0  0  0  0  0  0  0  0  0  0
    3.9167   -2.0792    0.0000 C   0  0  0  0  0  0  0  0  0  0  0  0
   -5.2583   -0.5667    0.0000 C   0  0  0  0  0  0  0  0  0  0  0  0
   -5.2583    0.2583    0.0000 C   0  0  0  0  0  0  0  0  0  0  0  0
   -0.9708   -2.2000    0.0000 C   0  0  0  0  0  0  0  0  0  0  0  0
   -0.2583   -0.9542    0.0000 C   0  0  0  0  0  0  0  0  0  0  0  0
   -0.2458   -1.7875    0.0000 C   0  0  0  0  0  0  0  0  0  0  0  0
  2  1  1  0
  3  1  2  0
  4  5  2  0
  5  6  1  0
  6 14  1  0
  7  2  1  0
  8  3  1  0
  9  6  2  0
 10  2  1  0
 11 20  1  0
 12 15  1  0
 13  1  1  0
 14 22  2  0
 15  9  1  0
 16 10  1  0
 17 10  1  0
 18  5  1  0
 19 16  1  0
 20 17  1  0
 21 11  1  0
 22 26  1  0
 23 25  2  0
 24 21  1  0
 25 24  1  0
 26 24  2  0
 27  7  2  0
 28  8  2  0
 29 12  2  0
 30 15  2  0
 31 18  2  0
 32 18  1  0
 33 27  1  0
 34 28  1  0
 35 36  2  0
 36 30  1  0
 37 31  1  0
 38 32  2  0
 39 38  1  0
  8  7  1  0
 34 33  2  0
 11 19  1  0
 23 14  1  0
 12  4  1  0
 35 29  1  0
 39 37  2  0
M  END
> <chembl_id>
CHEMBL178349

> <chembl_pref_name>
None