MODEL        7USER    Run = 7USERUSER    Estimated Free Energy of Binding    = -10.92 kcal/mol  [=(1)+(2)+(3)-(4)]USERUSER    (1) Final Intermolecular Energy     = -13.30 kcal/molUSER        vdW + Hbond + desolv Energy     = -13.02 kcal/molUSER        Electrostatic Energy            =  -0.28 kcal/molUSER        Moving Ligand-Fixed Receptor    = -13.30 kcal/molUSER        Moving Ligand-Moving Receptor   =  +0.00 kcal/molUSER    (2) Final Total Internal Energy     =  -1.53 kcal/molUSER    (3) Torsional Free Energy           =  +2.39 kcal/molUSER    (4) Unbound System's Energy         =  -1.53 kcal/molUSERUSERREMARK SMILES COc1ccc(O)c(C(=O)c2ccc(CN3CC[C@H](n4c(O)nc5nc(F)ccc54)C[C@H]3C)cc2)c1FREMARK SMILES IDX 11 1 12 2 13 3 14 4 34 5 35 6 9 7 10 8 8 9 3 10 4 11 36 12REMARK SMILES IDX 5 13 6 14 37 15 2 16 1 17 7 18 15 20 16 21 17 22 32 23 18 24REMARK SMILES IDX 31 25 19 26 33 27 20 28 21 29 30 30 23 31 29 32 24 33 28 34REMARK SMILES IDX 25 35 26 36 27 37 22 38REMARK H PARENT 7 19 22 39USER                              x       y       z     vdW  Elec       q    TypeUSER                           _______ _______ _______ _____ _____    ______ ____ROOTATOM      1  C   UNL     1      38.494  44.827  24.346 -0.24 +0.00    +0.023 A  ATOM      2  C   UNL     1      38.754  43.906  23.326 -0.26 +0.00    +0.012 A  ATOM      3  C   UNL     1      39.781  44.151  22.409 -0.25 +0.00    +0.006 A  ATOM      4  C   UNL     1      40.543  45.326  22.489 -0.22 -0.00    -0.034 A  ATOM      5  C   UNL     1      40.263  46.250  23.508 -0.23 +0.00    +0.006 A  ATOM      6  C   UNL     1      39.238  46.009  24.424 -0.23 +0.00    +0.012 A  ENDROOTBRANCH   1   7ATOM      7  C   UNL     1      37.388  44.628  25.313 -0.26 +0.01    +0.199 C  ATOM      8  O   UNL     1      36.549  45.520  25.454 -0.70 -0.00    -0.288 OA BRANCH   7   9ATOM      9  C   UNL     1      37.198  43.379  26.081 -0.26 -0.01    +0.104 A  ATOM     10  C   UNL     1      38.049  41.313  27.056 -0.33 -0.02    +0.155 A  ATOM     11  C   UNL     1      36.772  41.017  27.540 -0.50 -0.02    +0.053 A  ATOM     12  C   UNL     1      38.249  42.498  26.332 -0.19 -0.01    +0.179 A  ATOM     13  C   UNL     1      35.718  41.908  27.320 -0.54 -0.02    +0.051 A  ATOM     14  C   UNL     1      35.935  43.086  26.611 -0.36 -0.02    +0.130 A  ATOM     15  F   UNL     1      39.489  42.786  25.903 -0.03 +0.00    -0.202 F  BRANCH  10  16ATOM     16  O   UNL     1      39.158  40.527  27.221 -0.18 +0.01    -0.494 OA ATOM     17  C   UNL     1      40.201  41.037  28.044 -0.19 -0.01    +0.278 C  ENDBRANCH  10  16BRANCH  14  18ATOM     18  O   UNL     1      34.856  43.919  26.470 -0.05 +0.08    -0.507 OA ATOM     19  H   UNL     1      35.186  44.781  26.124 -0.24 -0.12    +0.293 HD ENDBRANCH  14  18ENDBRANCH   7   9ENDBRANCH   1   7BRANCH   4  20ATOM     20  C   UNL     1      41.656  45.596  21.497 -0.27 +0.02    +0.120 C  BRANCH  20  21ATOM     21  N   UNL     1      41.199  46.265  20.268 -0.19 -0.02    -0.296 NA ATOM     22  C   UNL     1      42.340  46.735  19.475 -0.48 +0.01    +0.087 C  ATOM     23  C   UNL     1      40.210  45.497  19.485 -0.45 -0.00    +0.056 C  ATOM     24  C   UNL     1      41.881  47.620  18.318 -0.55 -0.00    +0.041 C  ATOM     25  C   UNL     1      39.695  46.363  18.320 -0.45 -0.01    +0.044 C  ATOM     26  C   UNL     1      40.841  46.900  17.455 -0.49 -0.01    +0.095 C  ATOM     27  C   UNL     1      40.690  44.126  18.987 -0.37 +0.00    +0.024 C  BRANCH  26  28ATOM     28  N   UNL     1      40.368  47.712  16.340 -0.30 +0.06    -0.289 N  ATOM     29  C   UNL     1      40.802  48.960  15.987 -0.34 -0.06    +0.296 A  ATOM     30  C   UNL     1      39.383  47.368  15.441 -0.43 -0.03    +0.091 A  ATOM     31  N   UNL     1      40.194  49.446  14.940 -0.32 +0.08    -0.175 NA ATOM     32  C   UNL     1      38.558  46.256  15.265 -0.39 -0.01    +0.035 A  ATOM     33  C   UNL     1      39.306  48.469  14.586 -0.37 -0.07    +0.184 A  ATOM     34  C   UNL     1      37.678  46.336  14.189 -0.39 -0.02    +0.063 A  ATOM     35  N   UNL     1      38.455  48.552  13.542 -0.41 +0.06    -0.198 NA ATOM     36  C   UNL     1      37.670  47.472  13.387 -0.36 -0.07    +0.215 A  ATOM     37  F   UNL     1      36.800  47.496  12.365 -0.25 +0.06    -0.185 F  BRANCH  29  38ATOM     38  O   UNL     1      41.738  49.638  16.618 -0.83 -0.08    -0.480 OA ATOM     39  H   UNL     1      41.436  50.557  16.495 -0.15 -0.06    +0.296 HD ENDBRANCH  29  38ENDBRANCH  26  28ENDBRANCH  20  21ENDBRANCH   4  20TORSDOF 8TERENDMDL