MODEL        5USER    Run = 5USERUSER    Estimated Free Energy of Binding    =  -7.76 kcal/mol  [=(1)+(2)+(3)-(4)]USERUSER    (1) Final Intermolecular Energy     = -12.54 kcal/molUSER        vdW + Hbond + desolv Energy     = -13.53 kcal/molUSER        Electrostatic Energy            =  -0.18 kcal/molUSER        Moving Ligand-Fixed Receptor    = -13.72 kcal/molUSER        Moving Ligand-Moving Receptor   =  +1.18 kcal/molUSER    (2) Final Total Internal Energy     =  -3.53 kcal/molUSER    (3) Torsional Free Energy           =  +4.77 kcal/molUSER    (4) Unbound System's Energy         =  -3.53 kcal/molUSERUSERREMARK SMILES COc1ccc(O)c(C(=O)c2ccc(C(=O)N[C@@H]3CCCN(S(C)(=O)=O)C[C@H]3NC(=O)c3cncc(N4CCN(C)CC4)c3)cc2)c1FREMARK SMILES IDX 18 1 17 3 15 4 16 5 14 7 11 8 12 9 46 10 13 11 45 12 9 13REMARK SMILES IDX 10 14 8 15 3 16 4 17 47 18 5 19 6 20 48 21 2 22 1 23 7 24REMARK SMILES IDX 28 26 27 27 22 28 21 29 20 30 19 31 23 33 24 34 25 35 26 36REMARK SMILES IDX 29 37 30 38 31 40 32 41 33 42 44 43 34 44 36 45 35 46 37 47REMARK SMILES IDX 38 48 43 49 39 50 42 51 40 52 41 53REMARK H PARENT 17 6 7 25 29 39REMARK Flexibility Score:  128.900USER                              x       y       z     vdW  Elec       q    TypeUSER                           _______ _______ _______ _____ _____    ______ ____ROOTATOM      1  C   UNL     1      36.412  46.326  15.997 -0.36 -0.07    +0.106 CG0ATOM      2  G   UNL     1      35.908  46.902  14.657 +0.00 +0.00    +0.000 G0 ENDROOTBRANCH   1   3ATOM      3  N   UNL     1      35.507  45.259  16.457 -0.09 +0.21    -0.347 N  ATOM      4  C   UNL     1      35.086  45.171  17.769 -0.24 -0.12    +0.251 C  ATOM      5  O   UNL     1      35.412  45.977  18.633 -0.17 +0.11    -0.269 OA ATOM      6  H   UNL     1      35.468  44.425  15.883 +0.11 -0.08    +0.164 HD BRANCH   4   7ATOM      7  C   UNL     1      34.215  44.011  18.119 -0.29 -0.01    +0.039 A  ATOM      8  C   UNL     1      32.656  41.752  18.732 -0.38 -0.00    +0.023 A  ATOM      9  C   UNL     1      33.585  41.700  17.688 -0.40 -0.00    +0.013 A  ATOM     10  C   UNL     1      32.534  42.925  19.490 -0.38 +0.00    +0.013 A  ATOM     11  C   UNL     1      34.354  42.827  17.380 -0.37 -0.00    +0.014 A  ATOM     12  C   UNL     1      33.308  44.050  19.186 -0.42 -0.00    +0.014 A  BRANCH   8  13ATOM     13  C   UNL     1      31.854  40.571  19.132 -0.29 +0.01    +0.199 C  ATOM     14  O   UNL     1      32.312  39.802  19.981 -0.88 -0.13    -0.288 OA BRANCH  13  15ATOM     15  C   UNL     1      30.553  40.222  18.522 -0.23 +0.00    +0.104 A  ATOM     16  C   UNL     1      28.675  40.723  17.049 -0.20 -0.00    +0.155 A  ATOM     17  C   UNL     1      28.091  39.499  17.381 -0.14 +0.02    +0.053 A  ATOM     18  C   UNL     1      29.901  41.077  17.632 -0.16 -0.02    +0.179 A  ATOM     19  C   UNL     1      28.717  38.650  18.298 -0.12 +0.02    +0.051 A  ATOM     20  C   UNL     1      29.931  39.018  18.873 -0.27 +0.02    +0.130 A  ATOM     21  F   UNL     1      30.435  42.274  17.335 -0.03 +0.05    -0.202 F  BRANCH  16  22ATOM     22  O   UNL     1      28.152  41.640  16.177 -0.04 +0.15    -0.494 OA ATOM     23  C   UNL     1      27.422  41.138  15.064 -0.15 -0.14    +0.278 C  ENDBRANCH  16  22BRANCH  20  24ATOM     24  O   UNL     1      30.461  38.143  19.786 -0.12 -0.09    -0.507 OA ATOM     25  H   UNL     1      31.213  38.594  20.233 +0.20 +0.05    +0.293 HD ENDBRANCH  20  24ENDBRANCH  13  15ENDBRANCH   8  13ENDBRANCH   4   7ENDBRANCH   1   3BRANCH   1  26ATOM     26  C   UNL     1      37.875  45.795  15.979 -0.34 -0.04    +0.120 C  BRANCH  26  27ATOM     27  C   UNL     1      38.732  46.368  14.832 -0.39 -0.04    +0.129 C  BRANCH  27  28ATOM     28  N   UNL     1      38.964  47.815  15.102 -0.33 +0.08    -0.200 NA BRANCH  28  29ATOM     29  C   UNL     1      37.802  48.689  14.797 -0.50 -0.07    +0.102 C  BRANCH  29  30ATOM     30  C   UNL     1      36.719  47.999  13.961 -0.57 -0.01    +0.019 C  BRANCH  30  31ATOM     31  C   UNL     1      35.905  46.902  14.656 -0.40 -0.02    +0.028 CG0ATOM     32  G   UNL     1      36.423  46.343  15.997 +0.00 +0.00    +0.000 G0 ENDBRANCH  30  31ENDBRANCH  29  30ENDBRANCH  28  29BRANCH  28  33ATOM     33  S   UNL     1      40.511  48.374  14.705 -0.58 -0.04    +0.211 S  ATOM     34  C   UNL     1      40.983  49.310  16.146 -0.50 -0.03    +0.176 C  ATOM     35  O   UNL     1      40.374  49.273  13.582 -0.22 +0.06    -0.213 OA ATOM     36  O   UNL     1      41.366  47.206  14.641 -0.10 -0.01    -0.213 OA ENDBRANCH  28  33ENDBRANCH  27  28ENDBRANCH  26  27BRANCH  26  37ATOM     37  N   UNL     1      38.515  46.111  17.273 -0.18 +0.09    -0.346 N  ATOM     38  C   UNL     1      38.987  45.089  18.076 -0.29 -0.03    +0.253 C  ATOM     39  H   UNL     1      39.049  46.975  17.279 +0.09 -0.05    +0.164 HD ATOM     40  O   UNL     1      38.724  43.910  17.868 -0.11 +0.03    -0.269 OA BRANCH  38  41ATOM     41  C   UNL     1      39.877  45.473  19.196 -0.39 -0.00    +0.060 A  ATOM     42  C   UNL     1      40.995  46.268  19.018 -0.38 +0.00    +0.125 A  ATOM     43  C   UNL     1      39.570  45.054  20.497 -0.34 +0.00    +0.043 A  ATOM     44  N   UNL     1      41.811  46.644  20.025 -0.25 -0.03    -0.262 NA ATOM     45  C   UNL     1      40.387  45.387  21.587 -0.27 +0.00    +0.056 A  ATOM     46  C   UNL     1      41.484  46.197  21.268 -0.22 +0.02    +0.136 A  BRANCH  45  47ATOM     47  N   UNL     1      40.059  44.961  22.876 -0.04 -0.02    -0.368 N  ATOM     48  C   UNL     1      38.986  43.965  23.086 -0.24 +0.01    +0.132 C  ATOM     49  C   UNL     1      40.086  45.988  23.946 -0.18 +0.01    +0.132 C  ATOM     50  C   UNL     1      37.609  44.642  23.300 -0.30 +0.01    +0.105 C  ATOM     51  C   UNL     1      38.690  46.636  24.131 -0.31 +0.01    +0.105 C  ATOM     52  N   UNL     1      37.572  45.686  24.348 -0.48 -0.07    -0.303 NA ATOM     53  C   UNL     1      37.612  45.106  25.689 -0.29 -0.00    +0.105 C  ENDBRANCH  45  47ENDBRANCH  38  41ENDBRANCH  26  37ENDBRANCH   1  26TORSDOF 10TERENDMDL