REMARK SMILES COc1ccc(O)c(C(=O)c2ccc(C(=O)N[C@@H]3CCCN(S(C)(=O)=O)C[C@H]3NC(=O)c3cncc(N4CCN(C)CC4)c3)cc2)c1F
REMARK SMILES IDX 18 1 17 3 15 4 16 5 14 7 11 8 12 9 46 10 13 11 45 12 9 13
REMARK SMILES IDX 10 14 8 15 3 16 4 17 47 18 5 19 6 20 48 21 2 22 1 23 7 24
REMARK SMILES IDX 28 26 27 27 22 28 21 29 20 30 19 31 23 33 24 34 25 35 26 36
REMARK SMILES IDX 29 37 30 38 31 40 32 41 33 42 44 43 34 44 36 45 35 46 37 47
REMARK SMILES IDX 38 48 43 49 39 50 42 51 40 52 41 53
REMARK H PARENT 17 6 7 25 29 39
REMARK Flexibility Score:  128.900
ROOT
ATOM      1  C   UNL     1      -0.552  -2.574  -2.328  1.00  0.00     0.106 CG0
ATOM      2  G   UNL     1      -1.013  -3.778  -3.175  1.00  0.00     0.000 G0
ENDROOT
BRANCH   1   3
ATOM      3  N   UNL     1      -1.599  -2.212  -1.357  1.00  0.00    -0.347 N 
ATOM      4  C   UNL     1      -2.785  -1.622  -1.744  1.00  0.00     0.251 C 
ATOM      5  O   UNL     1      -3.063  -1.379  -2.913  1.00  0.00    -0.269 OA
ATOM      6  H   UNL     1      -1.300  -2.103  -0.395  1.00  0.00     0.164 HD
BRANCH   4   7
ATOM      7  C   UNL     1      -3.739  -1.254  -0.657  1.00  0.00     0.039 A 
ATOM      8  C   UNL     1      -5.617  -0.531   1.307  1.00  0.00     0.023 A 
ATOM      9  C   UNL     1      -5.678   0.045   0.034  1.00  0.00     0.013 A 
ATOM     10  C   UNL     1      -4.637  -1.493   1.584  1.00  0.00     0.013 A 
ATOM     11  C   UNL     1      -4.738  -0.311  -0.939  1.00  0.00     0.014 A 
ATOM     12  C   UNL     1      -3.701  -1.854   0.609  1.00  0.00     0.014 A 
BRANCH   8  13
ATOM     13  C   UNL     1      -6.619  -0.227   2.357  1.00  0.00     0.199 C 
ATOM     14  O   UNL     1      -6.983  -1.133   3.111  1.00  0.00    -0.288 OA
BRANCH  13  15
ATOM     15  C   UNL     1      -7.261   1.096   2.516  1.00  0.00     0.104 A 
ATOM     16  C   UNL     1      -7.208   3.531   2.390  1.00  0.00     0.155 A 
ATOM     17  C   UNL     1      -8.537   3.579   2.818  1.00  0.00     0.053 A 
ATOM     18  C   UNL     1      -6.579   2.285   2.251  1.00  0.00     0.179 A 
ATOM     19  C   UNL     1      -9.219   2.397   3.119  1.00  0.00     0.051 A 
ATOM     20  C   UNL     1      -8.579   1.168   2.982  1.00  0.00     0.130 A 
ATOM     21  F   UNL     1      -5.289   2.252   1.877  1.00  0.00    -0.202 F 
BRANCH  16  22
ATOM     22  O   UNL     1      -6.436   4.618   2.079  1.00  0.00    -0.494 OA
ATOM     23  C   UNL     1      -7.011   5.904   2.276  1.00  0.00     0.278 C 
ENDBRANCH  16  22
BRANCH  20  24
ATOM     24  O   UNL     1      -9.309   0.061   3.329  1.00  0.00    -0.507 OA
ATOM     25  H   UNL     1      -8.687  -0.699   3.401  1.00  0.00     0.293 HD
ENDBRANCH  20  24
ENDBRANCH  13  15
ENDBRANCH   8  13
ENDBRANCH   4   7
ENDBRANCH   1   3
BRANCH   1  26
ATOM     26  C   UNL     1       0.801  -2.768  -1.585  1.00  0.00     0.120 C 
BRANCH  26  27
ATOM     27  C   UNL     1       1.958  -3.214  -2.502  1.00  0.00     0.129 C 
BRANCH  27  28
ATOM     28  N   UNL     1       1.737  -2.622  -3.852  1.00  0.00    -0.200 NA
BRANCH  28  29
ATOM     29  C   UNL     1       1.013  -3.508  -4.799  1.00  0.00     0.102 C 
BRANCH  29  30
ATOM     30  C   UNL     1       0.001  -4.436  -4.118  1.00  0.00     0.019 C 
BRANCH  30  31
ATOM     31  C   UNL     1      -1.013  -3.778  -3.175  1.00  0.00     0.028 CG0
ATOM     32  G   UNL     1      -0.552  -2.574  -2.328  1.00  0.00     0.000 G0
ENDBRANCH  30  31
ENDBRANCH  29  30
ENDBRANCH  28  29
BRANCH  28  33
ATOM     33  S   UNL     1       3.027  -1.702  -4.445  1.00  0.00     0.211 S 
ATOM     34  C   UNL     1       2.287  -0.785  -5.782  1.00  0.00     0.176 C 
ATOM     35  O   UNL     1       4.004  -2.619  -4.986  1.00  0.00    -0.213 OA
ATOM     36  O   UNL     1       3.371  -0.756  -3.402  1.00  0.00    -0.213 OA
ENDBRANCH  28  33
ENDBRANCH  27  28
ENDBRANCH  26  27
BRANCH  26  37
ATOM     37  N   UNL     1       1.167  -1.501  -0.917  1.00  0.00    -0.346 N 
ATOM     38  C   UNL     1       1.992  -1.520   0.192  1.00  0.00     0.253 C 
ATOM     39  H   UNL     1       1.270  -0.709  -1.545  1.00  0.00     0.164 HD
ATOM     40  O   UNL     1       2.281  -2.554   0.783  1.00  0.00    -0.269 OA
BRANCH  38  41
ATOM     41  C   UNL     1       2.562  -0.224   0.626  1.00  0.00     0.060 A 
ATOM     42  C   UNL     1       1.933   0.984   0.380  1.00  0.00     0.125 A 
ATOM     43  C   UNL     1       3.764  -0.204   1.345  1.00  0.00     0.043 A 
ATOM     44  N   UNL     1       2.425   2.176   0.780  1.00  0.00    -0.262 NA
ATOM     45  C   UNL     1       4.345   1.000   1.770  1.00  0.00     0.056 A 
ATOM     46  C   UNL     1       3.604   2.147   1.458  1.00  0.00     0.136 A 
BRANCH  45  47
ATOM     47  N   UNL     1       5.542   0.995   2.489  1.00  0.00    -0.368 N 
ATOM     48  C   UNL     1       6.011   2.219   3.173  1.00  0.00     0.132 C 
ATOM     49  C   UNL     1       6.663   0.210   1.915  1.00  0.00     0.132 C 
ATOM     50  C   UNL     1       6.930   3.069   2.260  1.00  0.00     0.105 C 
ATOM     51  C   UNL     1       7.559   1.098   1.014  1.00  0.00     0.105 C 
ATOM     52  N   UNL     1       8.063   2.341   1.646  1.00  0.00    -0.303 NA
ATOM     53  C   UNL     1       9.115   2.061   2.621  1.00  0.00     0.105 C 
ENDBRANCH  45  47
ENDBRANCH  38  41
ENDBRANCH  26  37
ENDBRANCH   1  26
TORSDOF 10
