
     RDKit          3D

 48 51  0  0  0  0  0  0  0  0999 V2000
   -4.9401   -0.6984   -1.4412 C   0  0  0  0  0  0  0  0  0  0  0  0
   -4.3237   -0.0295   -0.2442 C   0  0  0  0  0  0  0  0  0  0  0  0
   -2.9305   -0.1572   -0.0550 C   0  0  0  0  0  0  0  0  0  0  0  0
   -2.2700    0.4097    1.0412 C   0  0  0  0  0  0  0  0  0  0  0  0
   -0.8882    0.2899    1.2835 N   0  0  0  0  0  0  0  0  0  0  0  0
    0.0414   -0.4911    0.6305 C   0  0  0  0  0  0  0  0  0  0  0  0
    1.2129    0.0898    0.4356 N   0  0  0  0  0  0  0  0  0  0  0  0
    2.2485   -0.5743   -0.2019 C   0  0  0  0  0  0  0  0  0  0  0  0
    3.4186    0.1318   -0.3928 N   0  0  0  0  0  0  0  0  0  0  0  0
    4.7537   -0.4300   -0.4348 C   0  0  0  0  0  0  0  0  0  0  0  0
    5.7662    0.6729   -0.5493 C   0  0  0  0  0  0  0  0  0  0  0  0
    6.4732    1.1431    0.5613 C   0  0  0  0  0  0  0  0  0  0  0  0
    7.3958    2.1740    0.4058 C   0  0  0  0  0  0  0  0  0  0  0  0
    7.5784    2.7064   -0.8596 C   0  0  0  0  0  0  0  0  0  0  0  0
    6.9083    2.2867   -1.9534 N   0  0  0  0  0  0  0  0  0  0  0  0
    6.0134    1.2884   -1.7724 C   0  0  0  0  0  0  0  0  0  0  0  0
    2.1078   -1.8482   -0.6244 C   0  0  0  0  0  0  0  0  0  0  0  0
    0.9148   -2.5002   -0.4122 N   0  0  0  0  0  0  0  0  0  0  0  0
    0.5061   -3.7717   -0.7100 C   0  0  0  0  0  0  0  0  0  0  0  0
   -0.7790   -3.8568   -0.2210 C   0  0  0  0  0  0  0  0  0  0  0  0
   -1.1662   -2.6727    0.3557 N   0  0  0  0  0  0  0  0  0  0  0  0
   -0.1300   -1.8721    0.2072 C   0  0  0  0  0  0  0  0  0  0  0  0
   -3.0416    1.1063    1.9805 C   0  0  0  0  0  0  0  0  0  0  0  0
   -4.4230    1.2424    1.8246 C   0  0  0  0  0  0  0  0  0  0  0  0
   -5.0659    0.6797    0.7153 C   0  0  0  0  0  0  0  0  0  0  0  0
   -6.8298    0.8705    0.6016 S   0  0  0  0  0  0  0  0  0  0  0  0
   -6.9907    1.9893   -0.6421 N   0  0  0  0  0  0  0  0  0  0  0  0
   -7.4299   -0.3545    0.1299 O   0  0  0  0  0  0  0  0  0  0  0  0
   -7.3153    1.5533    1.7799 O   0  0  0  0  0  0  0  0  0  0  0  0
   -5.6138   -0.0204   -1.9718 H   0  0  0  0  0  0  0  0  0  0  0  0
   -4.1755   -1.0018   -2.1651 H   0  0  0  0  0  0  0  0  0  0  0  0
   -5.4802   -1.5995   -1.1360 H   0  0  0  0  0  0  0  0  0  0  0  0
   -2.3613   -0.7077   -0.8002 H   0  0  0  0  0  0  0  0  0  0  0  0
   -0.4822    1.1686    1.5837 H   0  0  0  0  0  0  0  0  0  0  0  0
    3.3574    1.0046    0.1294 H   0  0  0  0  0  0  0  0  0  0  0  0
    4.8651   -1.1085   -1.2891 H   0  0  0  0  0  0  0  0  0  0  0  0
    4.9445   -1.0194    0.4704 H   0  0  0  0  0  0  0  0  0  0  0  0
    6.3093    0.7132    1.5463 H   0  0  0  0  0  0  0  0  0  0  0  0
    7.9581    2.5547    1.2510 H   0  0  0  0  0  0  0  0  0  0  0  0
    8.2873    3.5112   -1.0317 H   0  0  0  0  0  0  0  0  0  0  0  0
    5.4778    0.9891   -2.6702 H   0  0  0  0  0  0  0  0  0  0  0  0
    2.8817   -2.4021   -1.1351 H   0  0  0  0  0  0  0  0  0  0  0  0
    1.1410   -4.4847   -1.2150 H   0  0  0  0  0  0  0  0  0  0  0  0
   -1.4458   -4.7095   -0.2513 H   0  0  0  0  0  0  0  0  0  0  0  0
   -2.5704    1.5378    2.8613 H   0  0  0  0  0  0  0  0  0  0  0  0
   -4.9867    1.7820    2.5831 H   0  0  0  0  0  0  0  0  0  0  0  0
   -7.4133    2.8437   -0.2782 H   0  0  0  0  0  0  0  0  0  0  0  0
   -7.5083    1.5713   -1.4154 H   0  0  0  0  0  0  0  0  0  0  0  0
  1  2  1  0
  2  3  2  0
  3  4  1  0
  4  5  1  0
  5  6  1  0
  6  7  2  0
  7  8  1  0
  8  9  1  0
  9 10  1  0
 10 11  1  0
 11 12  2  0
 12 13  1  0
 13 14  2  0
 14 15  1  0
 15 16  2  0
  8 17  2  0
 17 18  1  0
 18 19  1  0
 19 20  2  0
 20 21  1  0
 21 22  2  0
  4 23  2  0
 23 24  1  0
 24 25  2  0
 25 26  1  0
 26 27  1  0
 26 28  2  0
 26 29  2  0
 25  2  1  0
 22  6  1  0
 16 11  1  0
 22 18  1  0
  1 30  1  0
  1 31  1  0
  1 32  1  0
  3 33  1  0
  5 34  1  0
  9 35  1  0
 10 36  1  0
 10 37  1  0
 12 38  1  0
 13 39  1  0
 14 40  1  0
 16 41  1  0
 17 42  1  0
 19 43  1  0
 20 44  1  0
 23 45  1  0
 24 46  1  0
 27 47  1  0
 27 48  1  0
M  END
$$$$
