
     RDKit          3D

 38 40  0  0  0  0  0  0  0  0999 V2000
    7.6604    0.0291    0.3122 N   0  0  0  0  0  0  0  0  0  0  0  0
    6.4999    0.1467   -0.4417 C   0  0  0  0  0  0  0  0  0  0  0  0
    6.6210    0.3785   -1.7674 N   0  0  0  0  0  0  0  0  0  0  0  0
    5.4955    0.5013   -2.5024 C   0  0  0  0  0  0  0  0  0  0  0  0
    4.2163    0.4093   -2.0927 N   0  0  0  0  0  0  0  0  0  0  0  0
    4.1465    0.1598   -0.7698 C   0  0  0  0  0  0  0  0  0  0  0  0
    5.2120    0.0169    0.1037 C   0  0  0  0  0  0  0  0  0  0  0  0
    4.7723   -0.2446    1.3808 N   0  0  0  0  0  0  0  0  0  0  0  0
    3.4603   -0.2468    1.2819 C   0  0  0  0  0  0  0  0  0  0  0  0
    3.0061   -0.0071   -0.0031 N   0  0  0  0  0  0  0  0  0  0  0  0
    1.6947    0.0609   -0.4579 C   0  0  0  0  0  3  0  0  0  0  0  0
    0.5198   -0.1053    0.4305 C   0  0  0  0  0  0  0  0  0  0  0  0
   -0.6083   -0.3393   -0.4075 O   0  0  0  0  0  0  0  0  0  0  0  0
   -1.8312   -0.4780    0.3417 C   0  0  2  0  0  0  0  0  0  0  0  0
   -1.9256   -2.1411    0.9848 Cl  0  0  0  0  0  0  0  0  0  0  0  0
   -3.0058   -0.1790   -0.6263 C   0  0  2  0  0  0  0  0  0  0  0  0
   -2.7337    1.0434   -1.3405 O   0  0  0  0  0  0  0  0  0  0  0  0
   -4.3370   -0.0357    0.0799 C   0  0  0  0  0  0  0  0  0  0  0  0
   -4.6937    1.1587    0.7255 C   0  0  0  0  0  0  0  0  0  0  0  0
   -5.9111    1.2694    1.3996 C   0  0  0  0  0  0  0  0  0  0  0  0
   -6.7867    0.1873    1.4396 C   0  0  0  0  0  0  0  0  0  0  0  0
   -6.4480   -1.0044    0.8030 C   0  0  0  0  0  0  0  0  0  0  0  0
   -5.2314   -1.1161    0.1267 C   0  0  0  0  0  0  0  0  0  0  0  0
    7.5299   -0.4740    1.1823 H   0  0  0  0  0  0  0  0  0  0  0  0
    8.4609   -0.2126   -0.2565 H   0  0  0  0  0  0  0  0  0  0  0  0
    5.6427    0.6985   -3.5607 H   0  0  0  0  0  0  0  0  0  0  0  0
    2.7837   -0.4162    2.1089 H   0  0  0  0  0  0  0  0  0  0  0  0
    1.5658    0.2882   -1.5105 H   0  0  0  0  0  0  0  0  0  0  0  0
    0.6597   -0.9530    1.1078 H   0  0  0  0  0  0  0  0  0  0  0  0
    0.3636    0.8120    1.0083 H   0  0  0  0  0  0  0  0  0  0  0  0
   -1.8355    0.2285    1.1806 H   0  0  0  0  0  0  0  0  0  0  0  0
   -3.0681   -0.9551   -1.3993 H   0  0  0  0  0  0  0  0  0  0  0  0
   -1.8353    0.9288   -1.7055 H   0  0  0  0  0  0  0  0  0  0  0  0
   -4.0274    2.0187    0.6921 H   0  0  0  0  0  0  0  0  0  0  0  0
   -6.1777    2.2033    1.8878 H   0  0  0  0  0  0  0  0  0  0  0  0
   -7.7356    0.2743    1.9625 H   0  0  0  0  0  0  0  0  0  0  0  0
   -7.1324   -1.8484    0.8316 H   0  0  0  0  0  0  0  0  0  0  0  0
   -4.9867   -2.0570   -0.3623 H   0  0  0  0  0  0  0  0  0  0  0  0
  1  2  1  0
  2  3  2  0
  3  4  1  0
  4  5  2  0
  5  6  1  0
  6  7  2  0
  7  8  1  0
  8  9  2  0
  9 10  1  0
 10 11  1  0
 11 12  1  0
 12 13  1  0
 13 14  1  0
 14 15  1  0
 14 16  1  0
 16 17  1  0
 16 18  1  0
 18 19  2  0
 19 20  1  0
 20 21  2  0
 21 22  1  0
 22 23  2  0
  7  2  1  0
 23 18  1  0
 10  6  1  0
  1 24  1  0
  1 25  1  0
  4 26  1  0
  9 27  1  0
 11 28  1  0
 12 29  1  0
 12 30  1  0
 14 31  1  1
 16 32  1  6
 17 33  1  0
 19 34  1  0
 20 35  1  0
 21 36  1  0
 22 37  1  0
 23 38  1  0
M  RAD  1  11   2
M  END
$$$$
