
     RDKit          3D

 59 61  0  0  0  0  0  0  0  0999 V2000
    1.4127   -3.6953    0.6138 C   0  0  0  0  0  0  0  0  0  0  0  0
    0.3856   -2.7029    0.0935 C   0  0  0  0  0  0  0  0  0  0  0  0
    0.0967   -1.6094    1.1230 C   0  0  0  0  0  0  0  0  0  0  0  0
   -0.9347   -0.6672    0.6721 N   0  0  0  0  0  0  0  0  0  0  0  0
   -0.5451    0.3316   -0.3400 C   0  0  0  0  0  0  0  0  0  0  0  0
    0.5883    1.2304    0.0960 C   0  0  0  0  0  0  0  0  0  0  0  0
    0.3751    2.2436    1.0072 C   0  0  0  0  0  0  0  0  0  0  0  0
    1.4826    2.9788    1.3487 C   0  0  0  0  0  0  0  0  0  0  0  0
    2.7105    2.7502    0.8491 N   0  0  0  0  0  0  0  0  0  0  0  0
    2.8304    1.7479   -0.0289 C   0  0  0  0  0  0  0  0  0  0  0  0
    4.1113    1.5327   -0.5208 N   0  0  0  0  0  0  0  0  0  0  0  0
    4.4385    0.1322   -0.7350 C   0  0  0  0  0  0  0  0  0  0  0  0
    5.9024   -0.0136   -1.1900 C   0  0  0  0  0  0  0  0  0  0  0  0
    6.1493   -1.4320   -1.7094 C   0  0  0  0  0  0  0  0  0  0  0  0
    6.8863    0.2973   -0.0587 C   0  0  0  0  0  0  0  0  0  0  0  0
    1.8107    0.9720   -0.4209 N   0  0  0  0  0  0  0  0  0  0  0  0
   -2.2619   -1.0073    0.9438 C   0  0  0  0  0  0  0  0  0  0  0  0
   -2.6057   -2.0112    1.5611 O   0  0  0  0  0  0  0  0  0  0  0  0
   -3.3312   -0.0928    0.4971 C   0  0  0  0  0  0  0  0  0  0  0  0
   -3.4761    1.1045    1.2081 C   0  0  0  0  0  0  0  0  0  0  0  0
   -4.4543    2.0201    0.8254 C   0  0  0  0  0  0  0  0  0  0  0  0
   -4.5431    3.2951    1.5734 C   0  0  0  0  0  0  0  0  0  0  0  0
   -3.7428    3.6768    2.4073 O   0  0  0  0  0  0  0  0  0  0  0  0
   -5.6196    4.0242    1.2377 O   0  0  0  0  0  0  0  0  0  0  0  0
   -5.2967    1.7254   -0.2533 C   0  0  0  0  0  0  0  0  0  0  0  0
   -5.1729    0.5153   -0.9598 C   0  0  0  0  0  0  0  0  0  0  0  0
   -6.0269    0.2320   -2.0365 C   0  0  0  0  0  0  0  0  0  0  0  0
   -5.9052   -0.9634   -2.7350 C   0  0  0  0  0  0  0  0  0  0  0  0
   -6.7305   -1.2143   -3.7594 F   0  0  0  0  0  0  0  0  0  0  0  0
   -4.9444   -1.8983   -2.3868 C   0  0  0  0  0  0  0  0  0  0  0  0
   -4.0855   -1.6326   -1.3198 C   0  0  0  0  0  0  0  0  0  0  0  0
   -4.1785   -0.4251   -0.5866 C   0  0  0  0  0  0  0  0  0  0  0  0
    2.3556   -3.1940    0.8534 H   0  0  0  0  0  0  0  0  0  0  0  0
    1.6165   -4.4612   -0.1409 H   0  0  0  0  0  0  0  0  0  0  0  0
    1.0506   -4.1967    1.5168 H   0  0  0  0  0  0  0  0  0  0  0  0
    0.7605   -2.2589   -0.8353 H   0  0  0  0  0  0  0  0  0  0  0  0
   -0.5381   -3.2357   -0.1603 H   0  0  0  0  0  0  0  0  0  0  0  0
    1.0088   -1.0560    1.3681 H   0  0  0  0  0  0  0  0  0  0  0  0
   -0.2372   -2.0736    2.0590 H   0  0  0  0  0  0  0  0  0  0  0  0
   -1.3881    0.9607   -0.6373 H   0  0  0  0  0  0  0  0  0  0  0  0
   -0.2576   -0.2168   -1.2449 H   0  0  0  0  0  0  0  0  0  0  0  0
   -0.5949    2.4532    1.4362 H   0  0  0  0  0  0  0  0  0  0  0  0
    1.4159    3.7985    2.0584 H   0  0  0  0  0  0  0  0  0  0  0  0
    4.7198    2.0360    0.1160 H   0  0  0  0  0  0  0  0  0  0  0  0
    4.2736   -0.4507    0.1810 H   0  0  0  0  0  0  0  0  0  0  0  0
    3.7873   -0.2795   -1.5169 H   0  0  0  0  0  0  0  0  0  0  0  0
    6.0943    0.6873   -2.0129 H   0  0  0  0  0  0  0  0  0  0  0  0
    7.1812   -1.5450   -2.0581 H   0  0  0  0  0  0  0  0  0  0  0  0
    5.9716   -2.1785   -0.9280 H   0  0  0  0  0  0  0  0  0  0  0  0
    5.4878   -1.6586   -2.5522 H   0  0  0  0  0  0  0  0  0  0  0  0
    6.7205   -0.3585    0.8027 H   0  0  0  0  0  0  0  0  0  0  0  0
    7.9192    0.1566   -0.3950 H   0  0  0  0  0  0  0  0  0  0  0  0
    6.7926    1.3334    0.2806 H   0  0  0  0  0  0  0  0  0  0  0  0
   -2.8283    1.3127    2.0576 H   0  0  0  0  0  0  0  0  0  0  0  0
   -5.5636    4.8201    1.8081 H   0  0  0  0  0  0  0  0  0  0  0  0
   -6.0592    2.4450   -0.5490 H   0  0  0  0  0  0  0  0  0  0  0  0
   -6.7979    0.9329   -2.3452 H   0  0  0  0  0  0  0  0  0  0  0  0
   -4.8705   -2.8292   -2.9403 H   0  0  0  0  0  0  0  0  0  0  0  0
   -3.3464   -2.3879   -1.0546 H   0  0  0  0  0  0  0  0  0  0  0  0
  1  2  1  0
  2  3  1  0
  3  4  1  0
  4  5  1  0
  5  6  1  0
  6  7  2  0
  7  8  1  0
  8  9  2  0
  9 10  1  0
 10 11  1  0
 11 12  1  0
 12 13  1  0
 13 14  1  0
 13 15  1  0
 10 16  2  0
  4 17  1  0
 17 18  2  0
 17 19  1  0
 19 20  2  0
 20 21  1  0
 21 22  1  0
 22 23  2  0
 22 24  1  0
 21 25  2  0
 25 26  1  0
 26 27  2  0
 27 28  1  0
 28 29  1  0
 28 30  2  0
 30 31  1  0
 31 32  2  0
 16  6  1  0
 32 19  1  0
 32 26  1  0
  1 33  1  0
  1 34  1  0
  1 35  1  0
  2 36  1  0
  2 37  1  0
  3 38  1  0
  3 39  1  0
  5 40  1  0
  5 41  1  0
  7 42  1  0
  8 43  1  0
 11 44  1  0
 12 45  1  0
 12 46  1  0
 13 47  1  0
 14 48  1  0
 14 49  1  0
 14 50  1  0
 15 51  1  0
 15 52  1  0
 15 53  1  0
 20 54  1  0
 24 55  1  0
 25 56  1  0
 27 57  1  0
 30 58  1  0
 31 59  1  0
M  END
$$$$
