
     RDKit          3D

 66 67  0  0  0  0  0  0  0  0999 V2000
   -5.4185   -3.5650    0.3372 C   0  0  0  0  0  0  0  0  0  0  0  0
   -5.8358   -2.1607    0.6224 C   0  0  0  0  0  0  0  0  0  0  0  0
   -6.5325   -1.3965   -0.2335 C   0  0  0  0  0  0  0  0  0  0  0  0
   -6.9495   -0.0082    0.0618 C   0  0  0  0  0  0  0  0  0  0  0  0
   -8.2894    0.3770   -0.1068 C   0  0  0  0  0  0  0  0  0  0  0  0
   -9.2824   -0.5177   -0.5132 N   0  0  0  0  0  0  0  0  0  0  0  0
   -8.7423    1.6206    0.1438 N   0  0  0  0  0  0  0  0  0  0  0  0
   -7.8529    2.5303    0.5910 C   0  0  0  0  0  0  0  0  0  0  0  0
   -6.5035    2.2777    0.7776 C   0  0  0  0  0  0  0  0  0  0  0  0
   -5.5861    3.3541    1.2729 C   0  0  0  0  0  0  0  0  0  0  0  0
   -6.0369    0.9887    0.4779 C   0  0  0  0  0  0  0  0  0  0  0  0
   -4.6600    0.7176    0.6348 N   0  0  0  0  0  0  0  0  0  0  0  0
   -3.8594    0.7403   -0.3952 C   0  0  0  0  0  0  0  0  0  0  0  0
   -4.2331    1.0692   -1.6768 N   0  0  0  0  0  0  0  0  0  0  0  0
   -2.4435    0.3853   -0.0735 C   0  0  0  0  0  0  0  0  0  0  0  0
   -1.5036    0.1734   -1.0062 C   0  0  0  0  0  0  0  0  0  0  0  0
   -0.1290   -0.2015   -0.6470 C   0  0  0  0  0  0  0  0  0  0  0  0
    0.0895   -1.3715    0.0956 C   0  0  0  0  0  0  0  0  0  0  0  0
    1.3829   -1.7643    0.4489 C   0  0  0  0  0  0  0  0  0  0  0  0
    2.4868   -1.0045    0.0536 C   0  0  0  0  0  0  0  0  0  0  0  0
    3.8283   -1.4251    0.4788 C   0  0  0  0  0  0  0  0  0  0  0  0
    4.9308   -1.3167   -0.2817 C   0  0  0  0  0  0  0  0  0  0  0  0
    6.2975   -1.7575    0.1616 C   0  0  0  0  0  0  0  0  0  0  0  0
    7.2264   -0.6196    0.2647 N   0  0  0  0  0  0  0  0  0  0  0  0
    7.7190   -0.2204   -1.0608 C   0  0  0  0  0  0  0  0  0  0  0  0
    8.3694   -0.9959    1.1445 C   0  0  0  0  0  0  0  0  0  0  0  0
    9.5584    0.2798    1.6531 S   0  0  0  0  0  0  0  0  0  0  0  0
    8.5247    1.6480    2.1192 C   0  0  0  0  0  0  0  0  0  0  0  0
   10.3449    0.6835    0.5013 O   0  0  0  0  0  0  0  0  0  0  0  0
   10.2242   -0.1888    2.8562 O   0  0  0  0  0  0  0  0  0  0  0  0
    2.2701    0.1682   -0.6841 C   0  0  0  0  0  0  0  0  0  0  0  0
    0.9731    0.5766   -1.0489 C   0  0  0  0  0  0  0  0  0  0  0  0
    0.8007    1.8442   -1.8406 C   0  0  0  0  0  0  0  0  0  0  0  0
   -4.3268   -3.6408    0.3608 H   0  0  0  0  0  0  0  0  0  0  0  0
   -5.7652   -3.9102   -0.6431 H   0  0  0  0  0  0  0  0  0  0  0  0
   -5.8276   -4.2352    1.0988 H   0  0  0  0  0  0  0  0  0  0  0  0
   -5.5313   -1.7563    1.5871 H   0  0  0  0  0  0  0  0  0  0  0  0
   -6.8463   -1.7933   -1.1944 H   0  0  0  0  0  0  0  0  0  0  0  0
  -10.1436    0.0151   -0.5992 H   0  0  0  0  0  0  0  0  0  0  0  0
   -9.0351   -0.9986   -1.3683 H   0  0  0  0  0  0  0  0  0  0  0  0
   -8.2781    3.5084    0.8019 H   0  0  0  0  0  0  0  0  0  0  0  0
   -6.1390    4.2622    1.5355 H   0  0  0  0  0  0  0  0  0  0  0  0
   -4.8586    3.6193    0.4992 H   0  0  0  0  0  0  0  0  0  0  0  0
   -5.0556    3.0232    2.1715 H   0  0  0  0  0  0  0  0  0  0  0  0
   -3.5255    1.5279   -2.2365 H   0  0  0  0  0  0  0  0  0  0  0  0
   -5.1349    1.5238   -1.7522 H   0  0  0  0  0  0  0  0  0  0  0  0
   -2.2290    0.2799    0.9863 H   0  0  0  0  0  0  0  0  0  0  0  0
   -1.7096    0.2521   -2.0676 H   0  0  0  0  0  0  0  0  0  0  0  0
   -0.7500   -1.9909    0.4055 H   0  0  0  0  0  0  0  0  0  0  0  0
    1.5168   -2.6749    1.0293 H   0  0  0  0  0  0  0  0  0  0  0  0
    3.8912   -1.8528    1.4767 H   0  0  0  0  0  0  0  0  0  0  0  0
    4.8532   -0.9192   -1.2901 H   0  0  0  0  0  0  0  0  0  0  0  0
    6.6795   -2.5250   -0.5237 H   0  0  0  0  0  0  0  0  0  0  0  0
    6.1961   -2.2463    1.1401 H   0  0  0  0  0  0  0  0  0  0  0  0
    8.3088    0.6979   -0.9983 H   0  0  0  0  0  0  0  0  0  0  0  0
    6.8928    0.0145   -1.7398 H   0  0  0  0  0  0  0  0  0  0  0  0
    8.3317   -1.0008   -1.5266 H   0  0  0  0  0  0  0  0  0  0  0  0
    7.9710   -1.3596    2.1010 H   0  0  0  0  0  0  0  0  0  0  0  0
    8.9614   -1.8068    0.7022 H   0  0  0  0  0  0  0  0  0  0  0  0
    7.9879    2.0112    1.2416 H   0  0  0  0  0  0  0  0  0  0  0  0
    9.1667    2.4386    2.5136 H   0  0  0  0  0  0  0  0  0  0  0  0
    7.8291    1.3152    2.8913 H   0  0  0  0  0  0  0  0  0  0  0  0
    3.1216    0.7859   -0.9679 H   0  0  0  0  0  0  0  0  0  0  0  0
    1.7630    2.3250   -2.0456 H   0  0  0  0  0  0  0  0  0  0  0  0
    0.1873    2.5599   -1.2838 H   0  0  0  0  0  0  0  0  0  0  0  0
    0.3299    1.6297   -2.8049 H   0  0  0  0  0  0  0  0  0  0  0  0
  1  2  1  0
  2  3  2  3
  3  4  1  0
  4  5  2  0
  5  6  1  0
  5  7  1  0
  7  8  2  0
  8  9  1  0
  9 10  1  0
  9 11  2  0
 11 12  1  0
 12 13  2  3
 13 14  1  0
 13 15  1  0
 15 16  2  3
 16 17  1  0
 17 18  2  0
 18 19  1  0
 19 20  2  0
 20 21  1  0
 21 22  2  0
 22 23  1  0
 23 24  1  0
 24 25  1  0
 24 26  1  0
 26 27  1  0
 27 28  1  0
 27 29  2  0
 27 30  2  0
 20 31  1  0
 31 32  2  0
 32 33  1  0
 11  4  1  0
 32 17  1  0
  1 34  1  0
  1 35  1  0
  1 36  1  0
  2 37  1  0
  3 38  1  0
  6 39  1  0
  6 40  1  0
  8 41  1  0
 10 42  1  0
 10 43  1  0
 10 44  1  0
 14 45  1  0
 14 46  1  0
 15 47  1  0
 16 48  1  0
 18 49  1  0
 19 50  1  0
 21 51  1  0
 22 52  1  0
 23 53  1  0
 23 54  1  0
 25 55  1  0
 25 56  1  0
 25 57  1  0
 26 58  1  0
 26 59  1  0
 28 60  1  0
 28 61  1  0
 28 62  1  0
 31 63  1  0
 33 64  1  0
 33 65  1  0
 33 66  1  0
M  END
$$$$
