
     RDKit          3D

 57 60  0  0  0  0  0  0  0  0999 V2000
    6.9020    1.9990    1.8605 C   0  0  0  0  0  0  0  0  0  0  0  0
    7.0022    0.7108    1.0922 C   0  0  0  0  0  0  0  0  0  0  0  0
    7.6217   -0.4008    1.6838 C   0  0  0  0  0  0  0  0  0  0  0  0
    7.7450   -1.5996    0.9822 C   0  0  0  0  0  0  0  0  0  0  0  0
    7.2568   -1.6929   -0.3151 C   0  0  0  0  0  0  0  0  0  0  0  0
    7.3832   -2.8444   -0.9840 F   0  0  0  0  0  0  0  0  0  0  0  0
    6.6465   -0.6099   -0.9301 C   0  0  0  0  0  0  0  0  0  0  0  0
    6.5180    0.5917   -0.2254 C   0  0  0  0  0  0  0  0  0  0  0  0
    5.8950    1.7452   -0.9054 C   0  0  0  0  0  0  0  0  0  0  0  0
    6.5308    2.7834   -1.0524 O   0  0  0  0  0  0  0  0  0  0  0  0
    4.5124    1.6470   -1.4322 C   0  0  0  0  0  0  0  0  0  0  0  0
    3.5498    0.8315   -0.9923 C   0  0  0  0  0  0  0  0  0  0  0  0
    3.4956   -0.0837    0.0219 N   0  0  0  0  0  0  0  0  0  0  0  0
    2.2146   -0.5241    0.2002 C   0  0  0  0  0  0  0  0  0  0  0  0
    1.3297   -0.0631   -0.7023 C   0  0  0  0  0  0  0  0  0  0  0  0
   -0.1066   -0.3428   -0.7718 C   0  0  0  0  0  0  0  0  0  0  0  0
   -1.0052    0.5982   -1.2890 C   0  0  0  0  0  0  0  0  0  0  0  0
   -2.3765    0.3276   -1.3556 C   0  0  0  0  0  0  0  0  0  0  0  0
   -2.8834   -0.8968   -0.9107 C   0  0  0  0  0  0  0  0  0  0  0  0
   -4.3642   -1.1910   -0.9890 C   0  0  0  0  0  0  0  0  0  0  0  0
   -5.1583   -0.7264    0.2510 C   0  0  0  0  0  0  0  0  0  0  0  0
   -6.5121   -1.4588    0.3129 C   0  0  0  0  0  0  0  0  0  0  0  0
   -7.3810   -0.9188    1.4475 C   0  0  0  0  0  0  0  0  0  0  0  0
   -7.5295    0.6051    1.3770 C   0  0  0  0  0  0  0  0  0  0  0  0
   -8.8986    0.9435    1.1392 O   0  0  0  0  0  0  0  0  0  0  0  0
   -6.6640    1.2218    0.2653 C   0  0  0  0  0  0  0  0  0  0  0  0
   -5.2820    0.7436    0.2626 N   0  0  0  0  0  0  0  0  0  0  0  0
   -1.9952   -1.8422   -0.3885 C   0  0  0  0  0  0  0  0  0  0  0  0
   -0.6238   -1.5690   -0.3249 C   0  0  0  0  0  0  0  0  0  0  0  0
    2.1488    0.8481   -1.5812 C   0  0  0  0  0  0  0  0  0  0  0  0
    1.7153    1.4818   -2.6131 N   0  0  0  0  0  0  0  0  0  0  0  0
    5.8949    2.4194    1.7799 H   0  0  0  0  0  0  0  0  0  0  0  0
    7.0960    1.8409    2.9266 H   0  0  0  0  0  0  0  0  0  0  0  0
    7.6324    2.7222    1.4840 H   0  0  0  0  0  0  0  0  0  0  0  0
    8.0202   -0.3379    2.6941 H   0  0  0  0  0  0  0  0  0  0  0  0
    8.2280   -2.4598    1.4360 H   0  0  0  0  0  0  0  0  0  0  0  0
    6.2929   -0.7120   -1.9507 H   0  0  0  0  0  0  0  0  0  0  0  0
    4.3179    2.3761   -2.2110 H   0  0  0  0  0  0  0  0  0  0  0  0
    4.1606   -0.0907    0.7849 H   0  0  0  0  0  0  0  0  0  0  0  0
    2.0059   -1.1783    1.0377 H   0  0  0  0  0  0  0  0  0  0  0  0
   -0.6522    1.5621   -1.6500 H   0  0  0  0  0  0  0  0  0  0  0  0
   -3.0488    1.0830   -1.7587 H   0  0  0  0  0  0  0  0  0  0  0  0
   -4.4884   -2.2738   -1.1214 H   0  0  0  0  0  0  0  0  0  0  0  0
   -4.7795   -0.7418   -1.9004 H   0  0  0  0  0  0  0  0  0  0  0  0
   -4.5985   -1.0122    1.1506 H   0  0  0  0  0  0  0  0  0  0  0  0
   -6.3459   -2.5313    0.4697 H   0  0  0  0  0  0  0  0  0  0  0  0
   -7.0471   -1.3616   -0.6406 H   0  0  0  0  0  0  0  0  0  0  0  0
   -8.3551   -1.4208    1.4386 H   0  0  0  0  0  0  0  0  0  0  0  0
   -6.9015   -1.1792    2.4010 H   0  0  0  0  0  0  0  0  0  0  0  0
   -7.2522    1.0443    2.3455 H   0  0  0  0  0  0  0  0  0  0  0  0
   -9.4190    0.5890    1.8810 H   0  0  0  0  0  0  0  0  0  0  0  0
   -6.6666    2.3131    0.3730 H   0  0  0  0  0  0  0  0  0  0  0  0
   -7.1189    1.0408   -0.7188 H   0  0  0  0  0  0  0  0  0  0  0  0
   -4.7861    1.1118    1.0759 H   0  0  0  0  0  0  0  0  0  0  0  0
   -2.3601   -2.8041   -0.0374 H   0  0  0  0  0  0  0  0  0  0  0  0
    0.0355   -2.3394    0.0664 H   0  0  0  0  0  0  0  0  0  0  0  0
    2.4485    2.0261   -3.0685 H   0  0  0  0  0  0  0  0  0  0  0  0
  1  2  1  0
  2  3  2  0
  3  4  1  0
  4  5  2  0
  5  6  1  0
  5  7  1  0
  7  8  2  0
  8  9  1  0
  9 10  2  0
  9 11  1  0
 11 12  2  3
 12 13  1  0
 13 14  1  0
 14 15  2  0
 15 16  1  0
 16 17  2  0
 17 18  1  0
 18 19  2  0
 19 20  1  0
 20 21  1  0
 21 22  1  0
 22 23  1  0
 23 24  1  0
 24 25  1  0
 24 26  1  0
 26 27  1  0
 19 28  1  0
 28 29  2  0
 15 30  1  0
 30 31  2  3
  8  2  1  0
 30 12  1  0
 29 16  1  0
 27 21  1  0
  1 32  1  0
  1 33  1  0
  1 34  1  0
  3 35  1  0
  4 36  1  0
  7 37  1  0
 11 38  1  0
 13 39  1  0
 14 40  1  0
 17 41  1  0
 18 42  1  0
 20 43  1  0
 20 44  1  0
 21 45  1  0
 22 46  1  0
 22 47  1  0
 23 48  1  0
 23 49  1  0
 24 50  1  0
 25 51  1  0
 26 52  1  0
 26 53  1  0
 27 54  1  0
 28 55  1  0
 29 56  1  0
 31 57  1  0
M  END
$$$$
