
     RDKit          3D

 47 49  0  0  0  0  0  0  0  0999 V2000
   -6.7852    1.0305   -0.5977 C   0  0  0  0  0  0  0  0  0  0  0  0
   -6.2094   -0.1216   -1.4021 C   0  0  0  0  0  0  0  0  0  0  0  0
   -4.7283   -0.4047   -1.1333 C   0  0  0  0  0  0  0  0  0  0  0  0
   -4.4154   -0.8854    0.2886 C   0  0  0  0  0  0  0  0  0  0  0  0
   -4.0023    0.2113    1.2789 C   0  0  0  0  0  0  0  0  0  0  0  0
   -2.6740    0.9043    0.9645 C   0  0  0  0  0  0  0  0  0  0  0  0
   -1.4822   -0.0458    1.0407 C   0  0  0  0  0  0  0  0  0  0  0  0
   -1.1870   -0.4990    2.2183 N   0  0  0  0  0  0  0  0  0  0  0  0
   -0.1353   -1.3482    2.3858 N   0  0  0  0  0  0  0  0  0  0  0  0
    1.1253   -1.1205    1.8644 C   0  0  0  0  0  0  0  0  0  0  0  0
    1.4797   -0.7297    0.6263 C   0  0  0  0  0  0  0  0  0  0  0  0
    2.8762   -0.5678    0.3695 C   0  0  0  0  0  0  0  0  0  0  0  0
    4.0165   -1.2697    0.7317 C   0  0  0  0  0  0  0  0  0  0  0  0
    5.1350   -0.6037    0.1732 C   0  0  0  0  0  0  0  0  0  0  0  0
    4.6412    0.4886   -0.5128 C   0  0  0  0  0  0  0  0  0  0  0  0
    3.2813    0.5092   -0.3933 N   0  0  0  0  0  0  0  0  0  0  0  0
    5.4834    1.4562   -1.2627 C   0  0  0  0  0  0  0  0  0  0  0  0
    6.9096    1.3969   -0.6769 C   0  0  0  0  0  0  0  0  0  0  0  0
    7.3686    0.0377   -0.3923 N   0  0  0  0  0  0  0  0  0  0  0  0
    6.5593   -0.9026    0.2252 C   0  0  0  0  0  0  0  0  0  0  0  0
    7.0293   -1.9015    0.7569 O   0  0  0  0  0  0  0  0  0  0  0  0
    0.4747   -0.6157   -0.4202 C   0  0  0  0  0  0  0  0  0  0  0  0
   -0.8273   -0.3481   -0.2663 C   0  0  0  0  0  0  0  0  0  0  0  0
   -6.1698    1.9299   -0.6969 H   0  0  0  0  0  0  0  0  0  0  0  0
   -7.7929    1.2688   -0.9532 H   0  0  0  0  0  0  0  0  0  0  0  0
   -6.8666    0.7733    0.4621 H   0  0  0  0  0  0  0  0  0  0  0  0
   -6.8005   -1.0257   -1.2140 H   0  0  0  0  0  0  0  0  0  0  0  0
   -6.3244    0.1093   -2.4683 H   0  0  0  0  0  0  0  0  0  0  0  0
   -4.1297    0.4698   -1.4051 H   0  0  0  0  0  0  0  0  0  0  0  0
   -4.4283   -1.2024   -1.8256 H   0  0  0  0  0  0  0  0  0  0  0  0
   -3.6084   -1.6262    0.2345 H   0  0  0  0  0  0  0  0  0  0  0  0
   -5.2820   -1.4215    0.6946 H   0  0  0  0  0  0  0  0  0  0  0  0
   -4.7836    0.9745    1.3419 H   0  0  0  0  0  0  0  0  0  0  0  0
   -3.9398   -0.2431    2.2759 H   0  0  0  0  0  0  0  0  0  0  0  0
   -2.5041    1.6960    1.7055 H   0  0  0  0  0  0  0  0  0  0  0  0
   -2.7061    1.4006   -0.0101 H   0  0  0  0  0  0  0  0  0  0  0  0
   -0.0756   -1.6874    3.3490 H   0  0  0  0  0  0  0  0  0  0  0  0
    1.8863   -1.3099    2.6189 H   0  0  0  0  0  0  0  0  0  0  0  0
    4.0464   -2.1735    1.3276 H   0  0  0  0  0  0  0  0  0  0  0  0
    2.6611    1.2071   -0.7838 H   0  0  0  0  0  0  0  0  0  0  0  0
    5.0891    2.4753   -1.2004 H   0  0  0  0  0  0  0  0  0  0  0  0
    5.5066    1.1618   -2.3184 H   0  0  0  0  0  0  0  0  0  0  0  0
    6.9437    1.9418    0.2744 H   0  0  0  0  0  0  0  0  0  0  0  0
    7.6274    1.8613   -1.3600 H   0  0  0  0  0  0  0  0  0  0  0  0
    8.3538   -0.1277   -0.2348 H   0  0  0  0  0  0  0  0  0  0  0  0
    0.8374   -0.8139   -1.4272 H   0  0  0  0  0  0  0  0  0  0  0  0
   -1.4738   -0.3090   -1.1360 H   0  0  0  0  0  0  0  0  0  0  0  0
  1  2  1  0
  2  3  1  0
  3  4  1  0
  4  5  1  0
  5  6  1  0
  6  7  1  0
  7  8  2  0
  8  9  1  0
  9 10  1  0
 10 11  2  0
 11 12  1  0
 12 13  2  0
 13 14  1  0
 14 15  2  0
 15 16  1  0
 15 17  1  0
 17 18  1  0
 18 19  1  0
 19 20  1  0
 20 21  2  0
 11 22  1  0
 22 23  2  0
 23  7  1  0
 16 12  1  0
 20 14  1  0
  1 24  1  0
  1 25  1  0
  1 26  1  0
  2 27  1  0
  2 28  1  0
  3 29  1  0
  3 30  1  0
  4 31  1  0
  4 32  1  0
  5 33  1  0
  5 34  1  0
  6 35  1  0
  6 36  1  0
  9 37  1  0
 10 38  1  0
 13 39  1  0
 16 40  1  0
 17 41  1  0
 17 42  1  0
 18 43  1  0
 18 44  1  0
 19 45  1  0
 22 46  1  0
 23 47  1  0
M  END
$$$$
