
     RDKit          3D

 44 47  0  0  0  0  0  0  0  0999 V2000
    5.5800    0.7280    1.2406 C   0  0  0  0  0  0  0  0  0  0  0  0
    4.3030    1.2809    0.9479 O   0  0  0  0  0  0  0  0  0  0  0  0
    3.3516    0.4222    0.4721 C   0  0  0  0  0  0  0  0  0  0  0  0
    3.5240   -0.9301    0.2123 C   0  0  0  0  0  0  0  0  0  0  0  0
    2.4536   -1.6877   -0.2737 C   0  0  0  0  0  0  0  0  0  0  0  0
    1.1803   -1.1211   -0.5140 C   0  0  0  0  0  0  0  0  0  0  0  0
    1.0151    0.2544   -0.2590 C   0  0  0  0  0  0  0  0  0  0  0  0
    2.1040    1.0013    0.2356 C   0  0  0  0  0  0  0  0  0  0  0  0
   -0.2399    0.9741   -0.4703 C   0  0  0  0  0  0  0  0  0  0  0  0
   -0.3134    2.0364   -1.3422 N   0  0  0  0  0  0  0  0  0  0  0  0
   -1.5717    2.5801   -1.3521 C   0  0  0  0  0  0  0  0  0  0  0  0
   -2.0851    3.6550   -2.0664 C   0  0  0  0  0  0  0  0  0  0  0  0
   -3.3816    4.0003   -1.8985 N   0  0  0  0  0  0  0  0  0  0  0  0
   -4.1391    3.2830   -1.0406 C   0  0  0  0  0  0  0  0  0  0  0  0
   -3.6888    2.1999   -0.2995 C   0  0  0  0  0  0  0  0  0  0  0  0
   -2.3436    1.8357   -0.4654 C   0  0  0  0  0  0  0  0  0  0  0  0
   -1.5017    0.8109    0.0888 C   0  0  0  0  0  0  0  0  0  0  0  0
   -1.9395   -0.2317    1.0864 C   0  0  0  0  0  0  0  0  0  0  0  0
   -1.3714   -1.6557    0.8697 C   0  0  1  0  0  0  0  0  0  0  0  0
   -2.2850   -2.6884    1.5398 C   0  0  0  0  0  0  0  0  0  0  0  0
   -1.2582   -1.9493   -0.5615 N   0  0  0  0  0  0  0  0  0  0  0  0
    0.1129   -2.0634   -1.0722 C   0  0  0  0  0  0  0  0  0  0  0  0
    0.0654   -1.9481   -2.5994 C   0  0  0  0  0  0  0  0  0  0  0  0
    5.5096   -0.0400    2.0180 H   0  0  0  0  0  0  0  0  0  0  0  0
    6.0552    0.3336    0.3363 H   0  0  0  0  0  0  0  0  0  0  0  0
    6.2130    1.5336    1.6249 H   0  0  0  0  0  0  0  0  0  0  0  0
    4.4728   -1.4303    0.3737 H   0  0  0  0  0  0  0  0  0  0  0  0
    2.6237   -2.7453   -0.4714 H   0  0  0  0  0  0  0  0  0  0  0  0
    1.9760    2.0594    0.4589 H   0  0  0  0  0  0  0  0  0  0  0  0
    0.4612    2.3673   -1.8989 H   0  0  0  0  0  0  0  0  0  0  0  0
   -1.5032    4.2463   -2.7621 H   0  0  0  0  0  0  0  0  0  0  0  0
   -5.1706    3.6145   -0.9571 H   0  0  0  0  0  0  0  0  0  0  0  0
   -4.3515    1.6676    0.3705 H   0  0  0  0  0  0  0  0  0  0  0  0
   -3.0360   -0.2825    1.0646 H   0  0  0  0  0  0  0  0  0  0  0  0
   -1.6680    0.1133    2.0924 H   0  0  0  0  0  0  0  0  0  0  0  0
   -0.4047   -1.7355    1.3808 H   0  0  0  0  0  0  0  0  0  0  0  0
   -3.2885   -2.6884    1.0992 H   0  0  0  0  0  0  0  0  0  0  0  0
   -1.8713   -3.6980    1.4393 H   0  0  0  0  0  0  0  0  0  0  0  0
   -2.3872   -2.4748    2.6093 H   0  0  0  0  0  0  0  0  0  0  0  0
   -1.7936   -2.7721   -0.8262 H   0  0  0  0  0  0  0  0  0  0  0  0
    0.4256   -3.0889   -0.8321 H   0  0  0  0  0  0  0  0  0  0  0  0
    1.0544   -2.1219   -3.0387 H   0  0  0  0  0  0  0  0  0  0  0  0
   -0.6183   -2.6891   -3.0294 H   0  0  0  0  0  0  0  0  0  0  0  0
   -0.2696   -0.9555   -2.9220 H   0  0  0  0  0  0  0  0  0  0  0  0
  1  2  1  0
  2  3  1  0
  3  4  2  0
  4  5  1  0
  5  6  2  0
  6  7  1  0
  7  8  2  0
  7  9  1  0
  9 10  1  0
 10 11  1  0
 11 12  2  0
 12 13  1  0
 13 14  2  0
 14 15  1  0
 15 16  2  0
 16 17  1  0
 17 18  1  0
 18 19  1  0
 19 20  1  0
 19 21  1  0
 21 22  1  0
 22 23  1  0
  8  3  1  0
 17  9  2  0
 22  6  1  0
 16 11  1  0
  1 24  1  0
  1 25  1  0
  1 26  1  0
  4 27  1  0
  5 28  1  0
  8 29  1  0
 10 30  1  0
 12 31  1  0
 14 32  1  0
 15 33  1  0
 18 34  1  0
 18 35  1  0
 19 36  1  1
 20 37  1  0
 20 38  1  0
 20 39  1  0
 21 40  1  0
 22 41  1  0
 23 42  1  0
 23 43  1  0
 23 44  1  0
M  END
$$$$
