MODEL        9USER    Run = 9USERUSER    Estimated Free Energy of Binding    = -10.69 kcal/mol  [=(1)+(2)+(3)-(4)]USERUSER    (1) Final Intermolecular Energy     = -13.08 kcal/molUSER        vdW + Hbond + desolv Energy     = -12.97 kcal/molUSER        Electrostatic Energy            =  -0.11 kcal/molUSER        Moving Ligand-Fixed Receptor    = -13.08 kcal/molUSER        Moving Ligand-Moving Receptor   =  +0.00 kcal/molUSER    (2) Final Total Internal Energy     =  -1.62 kcal/molUSER    (3) Torsional Free Energy           =  +2.39 kcal/molUSER    (4) Unbound System's Energy         =  -1.62 kcal/molUSERUSERREMARK SMILES COc1ccc(O)c(C(=O)c2ccc(CN3CCC(n4c(O)nc5ccccc54)CC3)c(F)c2)c1FREMARK SMILES IDX 11 1 12 2 13 3 14 4 32 5 33 6 34 7 9 8 10 9 8 10 3 11 4 12REMARK SMILES IDX 35 13 5 14 6 15 36 16 2 17 1 18 7 19 15 21 16 22 17 23 31 24REMARK SMILES IDX 18 25 30 26 19 27 20 28 21 29 29 30 23 31 28 32 24 33 27 34REMARK SMILES IDX 25 35 26 36 22 37REMARK H PARENT 7 20 22 38USER                              x       y       z     vdW  Elec       q    TypeUSER                           _______ _______ _______ _____ _____    ______ ____ROOTATOM      1  C   UNL     1      39.224  47.021  16.377 -0.44 -0.01    +0.026 A  ATOM      2  C   UNL     1      38.263  46.249  17.040 -0.38 -0.00    +0.013 A  ATOM      3  C   UNL     1      38.573  45.661  18.270 -0.38 -0.00    +0.009 A  ATOM      4  C   UNL     1      39.836  45.848  18.854 -0.44 -0.00    +0.002 A  ATOM      5  C   UNL     1      40.773  46.634  18.173 -0.41 -0.01    +0.128 A  ATOM      6  F   UNL     1      41.992  46.826  18.698 -0.18 -0.01    -0.207 F  ATOM      7  C   UNL     1      40.476  47.233  16.954 -0.48 -0.01    +0.051 A  ENDROOTBRANCH   1   8ATOM      8  C   UNL     1      38.926  47.674  15.086 -0.41 -0.07    +0.199 C  ATOM      9  O   UNL     1      39.537  48.703  14.794 -0.36 +0.12    -0.288 OA BRANCH   8  10ATOM     10  C   UNL     1      37.901  47.168  14.146 -0.40 -0.04    +0.104 A  ATOM     11  C   UNL     1      36.891  45.368  12.843 -0.40 -0.06    +0.155 A  ATOM     12  C   UNL     1      35.947  46.265  12.338 -0.58 -0.03    +0.053 A  ATOM     13  C   UNL     1      37.864  45.831  13.741 -0.26 -0.06    +0.179 A  ATOM     14  C   UNL     1      35.986  47.610  12.719 -0.57 -0.03    +0.051 A  ATOM     15  C   UNL     1      36.964  48.058  13.604 -0.47 -0.06    +0.130 A  ATOM     16  F   UNL     1      38.790  44.964  14.186 -0.01 +0.05    -0.202 F  BRANCH  11  17ATOM     17  O   UNL     1      36.963  44.036  12.534 -0.15 +0.15    -0.494 OA ATOM     18  C   UNL     1      37.280  43.695  11.189 -0.33 -0.08    +0.278 C  ENDBRANCH  11  17BRANCH  15  19ATOM     19  O   UNL     1      36.948  49.395  13.898 -0.17 +0.34    -0.507 OA ATOM     20  H   UNL     1      37.828  49.634  14.270 -0.33 -0.25    +0.293 HD ENDBRANCH  15  19ENDBRANCH   8  10ENDBRANCH   1   8BRANCH   4  21ATOM     21  C   UNL     1      40.190  45.205  20.176 -0.36 +0.00    +0.123 C  BRANCH  21  22ATOM     22  N   UNL     1      39.186  45.303  21.233 -0.18 -0.01    -0.299 NA ATOM     23  C   UNL     1      39.655  45.705  22.552 -0.29 +0.01    +0.087 C  ATOM     24  C   UNL     1      38.144  44.282  21.196 -0.37 +0.00    +0.087 C  ATOM     25  C   UNL     1      39.550  44.602  23.606 -0.22 +0.00    +0.041 C  ATOM     26  C   UNL     1      37.279  44.320  22.453 -0.38 +0.00    +0.041 C  ATOM     27  C   UNL     1      38.138  43.991  23.681 -0.29 +0.01    +0.095 C  BRANCH  27  28ATOM     28  N   UNL     1      37.427  44.273  24.922 -0.16 -0.01    -0.291 N  ATOM     29  C   UNL     1      37.253  45.495  25.509 -0.16 +0.01    +0.295 A  ATOM     30  C   UNL     1      36.752  43.357  25.703 -0.32 -0.00    +0.072 A  ATOM     31  N   UNL     1      36.540  45.451  26.600 -0.19 +0.04    -0.195 NA ATOM     32  C   UNL     1      36.552  41.973  25.616 -0.39 -0.00    +0.029 A  ATOM     33  C   UNL     1      36.214  44.125  26.739 -0.34 -0.02    +0.092 A  ATOM     34  C   UNL     1      35.785  41.371  26.621 -0.55 -0.00    +0.002 A  ATOM     35  C   UNL     1      35.448  43.501  27.736 -0.52 -0.01    +0.031 A  ATOM     36  C   UNL     1      35.241  42.119  27.665 -0.59 -0.00    +0.002 A  BRANCH  29  37ATOM     37  O   UNL     1      37.733  46.630  25.046 -0.62 -0.07    -0.480 OA ATOM     38  H   UNL     1      37.794  47.162  25.856 +0.15 +0.01    +0.296 HD ENDBRANCH  29  37ENDBRANCH  27  28ENDBRANCH  21  22ENDBRANCH   4  21TORSDOF 8TERENDMDL