MODEL        1USER    Run = 1USERUSER    Estimated Free Energy of Binding    = -10.20 kcal/mol  [=(1)+(2)+(3)-(4)]USERUSER    (1) Final Intermolecular Energy     = -12.59 kcal/molUSER        vdW + Hbond + desolv Energy     = -12.38 kcal/molUSER        Electrostatic Energy            =  -0.21 kcal/molUSER        Moving Ligand-Fixed Receptor    = -12.59 kcal/molUSER        Moving Ligand-Moving Receptor   =  +0.00 kcal/molUSER    (2) Final Total Internal Energy     =  -1.50 kcal/molUSER    (3) Torsional Free Energy           =  +2.39 kcal/molUSER    (4) Unbound System's Energy         =  -1.50 kcal/molUSERUSERREMARK SMILES COc1ccc(O)c(C(=O)c2ccc(CN3CCC(n4c(O)nc5cc(F)ccc54)CC3)cc2)c1FREMARK SMILES IDX 11 1 12 2 13 3 14 4 33 5 34 6 9 7 10 8 8 9 3 10 4 11 35 12REMARK SMILES IDX 5 13 6 14 36 15 2 16 1 17 7 18 15 20 16 21 17 22 32 23 18 24REMARK SMILES IDX 31 25 19 26 20 27 21 28 30 29 23 30 29 31 24 32 28 33 25 34REMARK SMILES IDX 26 35 27 36 22 37REMARK H PARENT 7 19 22 38USER                              x       y       z     vdW  Elec       q    TypeUSER                           _______ _______ _______ _____ _____    ______ ____ROOTATOM      1  C   UNL     1      38.639  44.350  23.940 -0.24 +0.00    +0.023 A  ATOM      2  C   UNL     1      39.553  45.383  23.729 -0.21 +0.00    +0.012 A  ATOM      3  C   UNL     1      40.508  45.268  22.717 -0.22 +0.00    +0.006 A  ATOM      4  C   UNL     1      40.563  44.122  21.907 -0.26 -0.00    -0.034 A  ATOM      5  C   UNL     1      39.650  43.085  22.142 -0.11 +0.00    +0.006 A  ATOM      6  C   UNL     1      38.701  43.190  23.162 -0.28 +0.00    +0.012 A  ENDROOTBRANCH   1   7ATOM      7  C   UNL     1      37.634  44.431  25.023 -0.24 +0.01    +0.199 C  ATOM      8  O   UNL     1      36.941  45.443  25.117 -0.71 -0.03    -0.288 OA BRANCH   7   9ATOM      9  C   UNL     1      37.379  43.314  25.958 -0.25 -0.01    +0.104 A  ATOM     10  C   UNL     1      38.136  41.364  27.220 -0.33 -0.02    +0.155 A  ATOM     11  C   UNL     1      36.838  41.178  27.703 -0.49 -0.02    +0.053 A  ATOM     12  C   UNL     1      38.394  42.436  26.351 -0.19 -0.01    +0.179 A  ATOM     13  C   UNL     1      35.821  42.069  27.341 -0.52 -0.02    +0.051 A  ATOM     14  C   UNL     1      36.095  43.136  26.488 -0.34 -0.02    +0.130 A  ATOM     15  F   UNL     1      39.650  42.625  25.925 -0.04 +0.00    -0.202 F  BRANCH  10  16ATOM     16  O   UNL     1      39.214  40.572  27.519 -0.21 +0.00    -0.494 OA ATOM     17  C   UNL     1      40.256  41.152  28.292 -0.18 -0.01    +0.278 C  ENDBRANCH  10  16BRANCH  14  18ATOM     18  O   UNL     1      35.048  43.978  26.210 -0.04 +0.06    -0.507 OA ATOM     19  H   UNL     1      35.417  44.876  26.040 -0.31 -0.10    +0.293 HD ENDBRANCH  14  18ENDBRANCH   7   9ENDBRANCH   1   7BRANCH   4  20ATOM     20  C   UNL     1      41.574  44.027  20.783 -0.29 +0.01    +0.120 C  BRANCH  20  21ATOM     21  N   UNL     1      41.345  44.898  19.638 -0.20 -0.03    -0.299 NA ATOM     22  C   UNL     1      41.606  46.310  19.838 -0.42 +0.01    +0.087 C  ATOM     23  C   UNL     1      40.247  44.542  18.749 -0.41 -0.00    +0.087 C  ATOM     24  C   UNL     1      41.391  47.082  18.542 -0.54 -0.00    +0.041 C  ATOM     25  C   UNL     1      39.251  45.676  18.500 -0.45 -0.00    +0.041 C  ATOM     26  C   UNL     1      39.923  47.007  18.116 -0.31 -0.01    +0.095 C  BRANCH  26  27ATOM     27  N   UNL     1      39.755  47.392  16.722 -0.28 +0.08    -0.291 N  ATOM     28  C   UNL     1      40.531  48.272  16.018 -0.32 -0.06    +0.295 A  ATOM     29  C   UNL     1      38.726  47.009  15.882 -0.39 -0.03    +0.072 A  ATOM     30  N   UNL     1      40.078  48.519  14.818 -0.39 +0.06    -0.195 NA ATOM     31  C   UNL     1      37.637  46.137  16.022 -0.35 -0.01    +0.032 A  ATOM     32  C   UNL     1      38.950  47.744  14.713 -0.43 -0.03    +0.095 A  ATOM     33  C   UNL     1      36.763  46.030  14.936 -0.36 -0.02    +0.041 A  ATOM     34  C   UNL     1      38.062  47.626  13.633 -0.45 -0.02    +0.070 A  ATOM     35  C   UNL     1      36.976  46.763  13.769 -0.40 -0.06    +0.125 A  ATOM     36  F   UNL     1      36.110  46.639  12.751 -0.18 +0.11    -0.207 F  BRANCH  28  37ATOM     37  O   UNL     1      41.620  48.852  16.475 -0.76 -0.04    -0.480 OA ATOM     38  H   UNL     1      42.238  48.098  16.514 -0.29 +0.01    +0.296 HD ENDBRANCH  28  37ENDBRANCH  26  27ENDBRANCH  20  21ENDBRANCH   4  20TORSDOF 8TERENDMDL