REMARK SMILES COc1ccc(O)c(C(=O)c2ccc(CN3CCC(n4c(O)nc5cc(F)ccc54)CC3)cc2)c1F
REMARK SMILES IDX 11 1 12 2 13 3 14 4 33 5 34 6 9 7 10 8 8 9 3 10 4 11 35 12
REMARK SMILES IDX 5 13 6 14 36 15 2 16 1 17 7 18 15 20 16 21 17 22 32 23 18 24
REMARK SMILES IDX 31 25 19 26 20 27 21 28 30 29 23 30 29 31 24 32 28 33 25 34
REMARK SMILES IDX 26 35 27 36 22 37
REMARK H PARENT 7 19 22 38
ROOT
ATOM      1  C   UNL     1      -2.841  -0.456   0.972  1.00  0.00     0.023 A 
ATOM      2  C   UNL     1      -2.617   0.482  -0.037  1.00  0.00     0.012 A 
ATOM      3  C   UNL     1      -1.718   0.192  -1.066  1.00  0.00     0.006 A 
ATOM      4  C   UNL     1      -1.032  -1.033  -1.098  1.00  0.00    -0.034 A 
ATOM      5  C   UNL     1      -1.254  -1.958  -0.068  1.00  0.00     0.006 A 
ATOM      6  C   UNL     1      -2.143  -1.667   0.970  1.00  0.00     0.012 A 
ENDROOT
BRANCH   1   7
ATOM      7  C   UNL     1      -3.766  -0.166   2.090  1.00  0.00     0.199 C 
ATOM      8  O   UNL     1      -3.393  -0.382   3.242  1.00  0.00    -0.288 OA
BRANCH   7   9
ATOM      9  C   UNL     1      -5.100   0.439   1.883  1.00  0.00     0.104 A 
ATOM     10  C   UNL     1      -7.099   0.801   0.527  1.00  0.00     0.155 A 
ATOM     11  C   UNL     1      -7.611   1.646   1.515  1.00  0.00     0.053 A 
ATOM     12  C   UNL     1      -5.845   0.202   0.724  1.00  0.00     0.179 A 
ATOM     13  C   UNL     1      -6.888   1.866   2.693  1.00  0.00     0.051 A 
ATOM     14  C   UNL     1      -5.650   1.255   2.880  1.00  0.00     0.130 A 
ATOM     15  F   UNL     1      -5.382  -0.636  -0.214  1.00  0.00    -0.202 F 
BRANCH  10  16
ATOM     16  O   UNL     1      -7.722   0.495  -0.655  1.00  0.00    -0.494 OA
ATOM     17  C   UNL     1      -9.048   0.974  -0.837  1.00  0.00     0.278 C 
ENDBRANCH  10  16
BRANCH  14  18
ATOM     18  O   UNL     1      -5.024   1.500   4.076  1.00  0.00    -0.507 OA
ATOM     19  H   UNL     1      -4.271   0.870   4.160  1.00  0.00     0.293 HD
ENDBRANCH  14  18
ENDBRANCH   7   9
ENDBRANCH   1   7
BRANCH   4  20
ATOM     20  C   UNL     1      -0.093  -1.355  -2.242  1.00  0.00     0.120 C 
BRANCH  20  21
ATOM     21  N   UNL     1       1.323  -1.115  -1.996  1.00  0.00    -0.299 NA
ATOM     22  C   UNL     1       2.002  -2.070  -1.143  1.00  0.00     0.087 C 
ATOM     23  C   UNL     1       1.751   0.275  -1.914  1.00  0.00     0.087 C 
ATOM     24  C   UNL     1       3.484  -1.731  -1.034  1.00  0.00     0.041 C 
ATOM     25  C   UNL     1       2.534   0.615  -0.645  1.00  0.00     0.041 C 
ATOM     26  C   UNL     1       3.671  -0.379  -0.343  1.00  0.00     0.095 C 
BRANCH  26  27
ATOM     27  N   UNL     1       5.011   0.147  -0.561  1.00  0.00    -0.291 N 
ATOM     28  C   UNL     1       5.513   0.646  -1.732  1.00  0.00     0.295 A 
ATOM     29  C   UNL     1       6.050   0.153   0.352  1.00  0.00     0.072 A 
ATOM     30  N   UNL     1       6.784   0.938  -1.669  1.00  0.00    -0.195 NA
ATOM     31  C   UNL     1       6.156  -0.223   1.698  1.00  0.00     0.032 A 
ATOM     32  C   UNL     1       7.141   0.635  -0.379  1.00  0.00     0.095 A 
ATOM     33  C   UNL     1       7.415  -0.103   2.295  1.00  0.00     0.041 A 
ATOM     34  C   UNL     1       8.398   0.747   0.235  1.00  0.00     0.070 A 
ATOM     35  C   UNL     1       8.509   0.371   1.572  1.00  0.00     0.125 A 
ATOM     36  F   UNL     1       9.703   0.464   2.179  1.00  0.00    -0.207 F 
BRANCH  28  37
ATOM     37  O   UNL     1       4.823   0.810  -2.840  1.00  0.00    -0.480 OA
ATOM     38  H   UNL     1       5.510   1.143  -3.448  1.00  0.00     0.296 HD
ENDBRANCH  28  37
ENDBRANCH  26  27
ENDBRANCH  20  21
ENDBRANCH   4  20
TORSDOF 8
