REMARK SMILES COc1ccc(O)c(C(=O)c2ccc(CN3CCC(n4c(O)nc5ccccc54)CC3)c(F)c2)c1F
REMARK SMILES IDX 11 1 12 2 13 3 14 4 32 5 33 6 34 7 9 8 10 9 8 10 3 11 4 12
REMARK SMILES IDX 35 13 5 14 6 15 36 16 2 17 1 18 7 19 15 21 16 22 17 23 31 24
REMARK SMILES IDX 18 25 30 26 19 27 20 28 21 29 29 30 23 31 28 32 24 33 27 34
REMARK SMILES IDX 25 35 26 36 22 37
REMARK H PARENT 7 20 22 38
ROOT
ATOM      1  C   UNL     1       2.520  -0.788   0.926  1.00  0.00     0.026 A 
ATOM      2  C   UNL     1       2.341   0.140  -0.106  1.00  0.00     0.013 A 
ATOM      3  C   UNL     1       1.525  -0.182  -1.195  1.00  0.00     0.009 A 
ATOM      4  C   UNL     1       0.872  -1.423  -1.258  1.00  0.00     0.002 A 
ATOM      5  C   UNL     1       1.060  -2.326  -0.205  1.00  0.00     0.128 A 
ATOM      6  F   UNL     1       0.458  -3.524  -0.237  1.00  0.00    -0.207 F 
ATOM      7  C   UNL     1       1.861  -2.017   0.889  1.00  0.00     0.051 A 
ENDROOT
BRANCH   1   8
ATOM      8  C   UNL     1       3.357  -0.476   2.102  1.00  0.00     0.199 C 
ATOM      9  O   UNL     1       2.893  -0.680   3.225  1.00  0.00    -0.288 OA
BRANCH   8  10
ATOM     10  C   UNL     1       4.715   0.104   1.992  1.00  0.00     0.104 A 
ATOM     11  C   UNL     1       6.815   0.428   0.793  1.00  0.00     0.155 A 
ATOM     12  C   UNL     1       7.294   1.210   1.846  1.00  0.00     0.053 A 
ATOM     13  C   UNL     1       5.528  -0.122   0.879  1.00  0.00     0.179 A 
ATOM     14  C   UNL     1       6.498   1.427   2.975  1.00  0.00     0.051 A 
ATOM     15  C   UNL     1       5.226   0.866   3.051  1.00  0.00     0.130 A 
ATOM     16  F   UNL     1       5.098  -0.906  -0.125  1.00  0.00    -0.202 F 
BRANCH  11  17
ATOM     17  O   UNL     1       7.505   0.135  -0.353  1.00  0.00    -0.494 OA
ATOM     18  C   UNL     1       8.845   0.604  -0.446  1.00  0.00     0.278 C 
ENDBRANCH  11  17
BRANCH  15  19
ATOM     19  O   UNL     1       4.528   1.102   4.205  1.00  0.00    -0.507 OA
ATOM     20  H   UNL     1       3.749   0.500   4.217  1.00  0.00     0.293 HD
ENDBRANCH  15  19
ENDBRANCH   8  10
ENDBRANCH   1   8
BRANCH   4  21
ATOM     21  C   UNL     1       0.000  -1.790  -2.437  1.00  0.00     0.123 C 
BRANCH  21  22
ATOM     22  N   UNL     1      -1.406  -1.401  -2.348  1.00  0.00    -0.299 NA
ATOM     23  C   UNL     1      -1.704   0.021  -2.458  1.00  0.00     0.087 C 
ATOM     24  C   UNL     1      -2.201  -2.160  -1.389  1.00  0.00     0.087 C 
ATOM     25  C   UNL     1      -2.242   0.639  -1.167  1.00  0.00     0.041 C 
ATOM     26  C   UNL     1      -3.584  -1.544  -1.197  1.00  0.00     0.041 C 
ATOM     27  C   UNL     1      -3.444  -0.139  -0.597  1.00  0.00     0.095 C 
BRANCH  27  28
ATOM     28  N   UNL     1      -4.706   0.590  -0.642  1.00  0.00    -0.291 N 
ATOM     29  C   UNL     1      -5.297   1.142  -1.744  1.00  0.00     0.295 A 
ATOM     30  C   UNL     1      -5.561   0.808   0.419  1.00  0.00     0.072 A 
ATOM     31  N   UNL     1      -6.446   1.704  -1.491  1.00  0.00    -0.195 NA
ATOM     32  C   UNL     1      -5.520   0.473   1.779  1.00  0.00     0.029 A 
ATOM     33  C   UNL     1      -6.632   1.505  -0.146  1.00  0.00     0.092 A 
ATOM     34  C   UNL     1      -6.604   0.871   2.571  1.00  0.00     0.002 A 
ATOM     35  C   UNL     1      -7.709   1.894   0.666  1.00  0.00     0.031 A 
ATOM     36  C   UNL     1      -7.682   1.570   2.027  1.00  0.00     0.002 A 
BRANCH  29  37
ATOM     37  O   UNL     1      -4.793   1.121  -2.960  1.00  0.00    -0.480 OA
ATOM     38  H   UNL     1      -5.497   1.554  -3.471  1.00  0.00     0.296 HD
ENDBRANCH  29  37
ENDBRANCH  27  28
ENDBRANCH  21  22
ENDBRANCH   4  21
TORSDOF 8
