REMARK SMILES Cc1c(F)cccc1CO[C@@H]1CNCCN1C(=O)C1=CN=C(/C=C/c2ccccc2)NC1
REMARK SMILES IDX 11 1 12 2 13 3 14 4 15 5 16 6 10 8 9 9 8 10 2 11 3 12 5 13
REMARK SMILES IDX 7 14 6 15 1 16 4 17 17 18 18 19 19 20 20 21 32 22 21 23
REMARK SMILES IDX 31 24 22 25 23 27 24 28 25 29 26 30 30 31 27 32 29 33 28 34
REMARK H PARENT 13 7 31 26
ROOT
ATOM      1  C   UNL     1      -2.827   0.925   1.955  1.00  0.00     0.231 C 
ATOM      2  C   UNL     1      -3.119   2.401   2.387  1.00  0.00     0.136 C 
ATOM      3  N   UNL     1      -1.915   3.205   2.661  1.00  0.00    -0.311 NA
ATOM      4  C   UNL     1      -1.030   3.244   1.481  1.00  0.00     0.102 C 
ATOM      5  C   UNL     1      -1.147   2.023   0.539  1.00  0.00     0.138 C 
ATOM      6  N   UNL     1      -1.534   0.821   1.280  1.00  0.00    -0.310 N 
ATOM      7  H   UNL     1      -2.177   4.153   2.930  1.00  0.00     0.122 HD
ENDROOT
BRANCH   1   8
ATOM      8  O   UNL     1      -3.850   0.552   1.030  1.00  0.00    -0.352 OA
BRANCH   8   9
ATOM      9  C   UNL     1      -4.029  -0.857   0.937  1.00  0.00     0.199 C 
BRANCH   9  10
ATOM     10  C   UNL     1      -5.202  -1.117   0.019  1.00  0.00    -0.016 A 
ATOM     11  C   UNL     1      -5.105  -0.947  -1.380  1.00  0.00    -0.010 A 
ATOM     12  C   UNL     1      -6.236  -1.194  -2.168  1.00  0.00     0.126 A 
ATOM     13  C   UNL     1      -7.444  -1.598  -1.607  1.00  0.00     0.039 A 
ATOM     14  C   UNL     1      -6.431  -1.517   0.578  1.00  0.00     0.006 A 
ATOM     15  C   UNL     1      -7.543  -1.759  -0.230  1.00  0.00     0.003 A 
ATOM     16  C   UNL     1      -3.830  -0.497  -2.034  1.00  0.00     0.048 C 
ATOM     17  F   UNL     1      -6.173  -1.043  -3.500  1.00  0.00    -0.207 F 
ENDBRANCH   9  10
ENDBRANCH   8   9
ENDBRANCH   1   8
BRANCH   6  18
ATOM     18  C   UNL     1      -0.738  -0.271   1.547  1.00  0.00     0.255 C 
ATOM     19  O   UNL     1      -1.135  -1.272   2.142  1.00  0.00    -0.269 OA
BRANCH  18  20
ATOM     20  C   UNL     1       0.648  -0.262   1.047  1.00  0.00     0.055 C 
ATOM     21  C   UNL     1       1.565   0.560   1.569  1.00  0.00     0.124 C 
ATOM     22  C   UNL     1       1.005  -1.277   0.030  1.00  0.00     0.157 C 
ATOM     23  N   UNL     1       2.877   0.583   1.173  1.00  0.00    -0.239 NA
ATOM     24  N   UNL     1       2.318  -0.984  -0.518  1.00  0.00    -0.366 N 
ATOM     25  C   UNL     1       3.210  -0.179   0.162  1.00  0.00     0.126 C 
ATOM     26  H   UNL     1       2.716  -1.745  -1.053  1.00  0.00     0.162 HD
BRANCH  25  27
ATOM     27  C   UNL     1       4.656  -0.113  -0.215  1.00  0.00     0.047 C 
BRANCH  27  28
ATOM     28  C   UNL     1       5.162  -0.662  -1.329  1.00  0.00     0.012 C 
BRANCH  28  29
ATOM     29  C   UNL     1       6.586  -0.593  -1.685  1.00  0.00    -0.026 A 
ATOM     30  C   UNL     1       7.342   0.575  -1.514  1.00  0.00     0.008 A 
ATOM     31  C   UNL     1       7.197  -1.715  -2.261  1.00  0.00     0.008 A 
ATOM     32  C   UNL     1       8.688   0.612  -1.889  1.00  0.00     0.001 A 
ATOM     33  C   UNL     1       8.543  -1.678  -2.634  1.00  0.00     0.001 A 
ATOM     34  C   UNL     1       9.288  -0.515  -2.446  1.00  0.00     0.000 A 
ENDBRANCH  28  29
ENDBRANCH  27  28
ENDBRANCH  25  27
ENDBRANCH  18  20
ENDBRANCH   6  18
TORSDOF 8
