MODEL        10USER    Run = 10USERUSER    Estimated Free Energy of Binding    =  -7.60 kcal/mol  [=(1)+(2)+(3)-(4)]USERUSER    (1) Final Intermolecular Energy     =  -9.09 kcal/molUSER        vdW + Hbond + desolv Energy     =  -9.04 kcal/molUSER        Electrostatic Energy            =  -0.05 kcal/molUSER        Moving Ligand-Fixed Receptor    =  -9.09 kcal/molUSER        Moving Ligand-Moving Receptor   =  +0.00 kcal/molUSER    (2) Final Total Internal Energy     =  -1.11 kcal/molUSER    (3) Torsional Free Energy           =  +1.49 kcal/molUSER    (4) Unbound System's Energy         =  -1.11 kcal/molUSERUSERREMARK SMILES OC[C@@H]1CCC[C@@H]2c3ccc(O)cc3Oc3cc(O)cc(O)c3N12REMARK SMILES IDX 3 1 4 2 5 3 6 4 7 5 8 6 9 7 10 8 11 9 13 10 14 11 15 12REMARK SMILES IDX 16 13 17 14 18 15 20 16 21 17 23 18 24 19 2 20 1 21 22 23REMARK SMILES IDX 19 25 12 27REMARK H PARENT 1 22 22 24 19 26 12 28USER                              x       y       z     vdW  Elec       q    TypeUSER                           _______ _______ _______ _____ _____    ______ ____ROOTATOM      1  C   UNL     1      40.177  47.672  16.577 -0.51 -0.02    +0.108 C  ATOM      2  C   UNL     1      41.121  47.024  17.608 -0.54 -0.00    +0.027 C  ATOM      3  C   UNL     1      40.370  46.591  18.852 -0.42 -0.00    +0.005 C  ATOM      4  C   UNL     1      39.279  45.610  18.466 -0.46 -0.00    +0.030 C  ATOM      5  C   UNL     1      38.292  46.211  17.440 -0.36 -0.03    +0.117 C  ATOM      6  C   UNL     1      37.259  45.111  17.133 -0.34 -0.01    +0.017 A  ATOM      7  C   UNL     1      36.372  44.723  18.162 -0.33 -0.00    +0.013 A  ATOM      8  C   UNL     1      35.473  43.664  17.993 -0.29 -0.01    +0.047 A  ATOM      9  C   UNL     1      35.448  42.978  16.787 -0.34 -0.04    +0.119 A  ATOM     10  C   UNL     1      36.285  43.349  15.745 -0.37 -0.03    +0.093 A  ATOM     11  C   UNL     1      37.163  44.426  15.909 -0.25 -0.04    +0.136 A  ATOM     12  O   UNL     1      37.873  44.790  14.785 -0.07 +0.13    -0.454 OA ATOM     13  C   UNL     1      37.629  46.104  14.437 -0.30 -0.06    +0.158 A  ATOM     14  C   UNL     1      36.824  46.348  13.322 -0.45 -0.04    +0.095 A  ATOM     15  C   UNL     1      36.495  47.660  13.019 -0.53 -0.06    +0.123 A  ATOM     16  C   UNL     1      36.945  48.708  13.815 -0.43 -0.06    +0.094 A  ATOM     17  C   UNL     1      37.765  48.445  14.919 -0.42 -0.10    +0.146 A  ATOM     18  C   UNL     1      38.168  47.134  15.233 -0.35 -0.06    +0.124 A  ATOM     19  N   UNL     1      39.048  46.745  16.275 -0.18 +0.11    -0.353 N  ENDROOTBRANCH   1  20ATOM     20  C   UNL     1      41.011  48.002  15.306 -0.38 -0.02    +0.181 C  BRANCH  20  21ATOM     21  O   UNL     1      40.892  49.370  14.907 -0.38 +0.10    -0.394 OA ATOM     22  H   UNL     1      39.983  49.492  14.584 -0.04 -0.11    +0.210 HD ENDBRANCH  20  21ENDBRANCH   1  20BRANCH  17  23ATOM     23  O   UNL     1      38.145  49.496  15.713 -0.07 +0.43    -0.505 OA ATOM     24  H   UNL     1      38.840  49.998  15.257 -0.26 -0.28    +0.293 HD ENDBRANCH  17  23BRANCH  15  25ATOM     25  O   UNL     1      35.704  47.967  11.952 -0.24 +0.32    -0.508 OA ATOM     26  H   UNL     1      36.007  48.809  11.573 -0.25 -0.17    +0.293 HD ENDBRANCH  15  25BRANCH   9  27ATOM     27  O   UNL     1      34.596  41.933  16.580 -0.15 +0.27    -0.508 OA ATOM     28  H   UNL     1      35.042  41.112  16.843 -0.36 -0.25    +0.293 HD ENDBRANCH   9  27TORSDOF 5TERENDMDL