REMARK SMILES COC1=CC=CN=COC(c2ccc(O)c(O)c2)=C(O)C=C1c1ccccc1C
REMARK SMILES IDX 19 1 21 2 22 3 3 4 2 5 1 6 4 7 5 8 23 10 24 11 28 12 25 13
REMARK SMILES IDX 27 14 26 15 29 16 10 17 9 18 8 19 7 20 6 21 11 23 12 24
REMARK SMILES IDX 18 25 13 26 16 27 14 28 17 29 15 31 20 33
REMARK H PARENT 17 30 15 32 20 34
REMARK Flexibility Score:   44.900
ROOT
ATOM      1  C   UNL     1       0.845   1.176   0.355  1.00  0.00     0.159 C 
ENDROOT
BRANCH   1   2
ATOM      2  C   UNL     1      -0.574   1.302   0.019  1.00  0.00     0.062 C 
BRANCH   2   3
ATOM      3  C   UNL     1      -1.647   0.484   0.139  1.00  0.00     0.028 C 
BRANCH   3   4
ATOM      4  C   UNL     1      -1.586  -0.881   0.648  1.00  0.00     0.126 C 
BRANCH   4   5
ATOM      5  O   UNL     1      -1.174  -0.986   1.963  1.00  0.00    -0.496 OA
ATOM      6  C   UNL     1      -2.239  -1.432   2.798  1.00  0.00     0.278 C 
ENDBRANCH   4   5
BRANCH   4   7
ATOM      7  C   UNL     1      -1.635  -1.919  -0.210  1.00  0.00     0.048 C 
BRANCH   7   8
ATOM      8  C   UNL     1      -1.063  -3.218   0.066  1.00  0.00     0.024 CG0
ATOM      9  G   UNL     1       0.103  -3.612  -0.478  1.00  0.00     0.000 G0
ENDBRANCH   7   8
ENDBRANCH   4   7
ENDBRANCH   3   4
BRANCH   3  10
ATOM     10  C   UNL     1      -2.945   1.062  -0.306  1.00  0.00    -0.012 A 
ATOM     11  C   UNL     1      -3.808   1.547   0.694  1.00  0.00     0.009 A 
ATOM     12  C   UNL     1      -3.336   1.157  -1.659  1.00  0.00    -0.043 A 
ATOM     13  C   UNL     1      -5.045   2.103   0.369  1.00  0.00     0.001 A 
ATOM     14  C   UNL     1      -4.594   1.707  -1.966  1.00  0.00     0.004 A 
ATOM     15  C   UNL     1      -5.439   2.180  -0.962  1.00  0.00     0.000 A 
ATOM     16  C   UNL     1      -2.501   0.638  -2.798  1.00  0.00     0.045 C 
ENDBRANCH   3  10
ENDBRANCH   2   3
ENDBRANCH   1   2
BRANCH   1  17
ATOM     17  C   UNL     1       1.647   0.085   0.354  1.00  0.00     0.177 C 
BRANCH  17  18
ATOM     18  O   UNL     1       1.174  -1.223   0.195  1.00  0.00    -0.441 OA
BRANCH  18  19
ATOM     19  C   UNL     1       1.349  -1.768  -1.032  1.00  0.00     0.308 C 
BRANCH  19  20
ATOM     20  N   UNL     1       0.863  -2.916  -1.392  1.00  0.00    -0.229 NA
BRANCH  20  21
ATOM     21  C   UNL     1       0.103  -3.612  -0.478  1.00  0.00     0.114 CG0
ATOM     22  G   UNL     1      -1.063  -3.218   0.066  1.00  0.00     0.000 G0
ENDBRANCH  20  21
ENDBRANCH  19  20
ENDBRANCH  18  19
ENDBRANCH  17  18
BRANCH  17  23
ATOM     23  C   UNL     1       3.084   0.142   0.707  1.00  0.00     0.025 A 
ATOM     24  C   UNL     1       3.576  -0.658   1.755  1.00  0.00     0.016 A 
ATOM     25  C   UNL     1       3.979   0.943  -0.017  1.00  0.00     0.062 A 
ATOM     26  C   UNL     1       4.934  -0.651   2.090  1.00  0.00     0.051 A 
ATOM     27  C   UNL     1       5.326   0.941   0.319  1.00  0.00     0.158 A 
ATOM     28  C   UNL     1       5.803   0.154   1.364  1.00  0.00     0.157 A 
BRANCH  27  29
ATOM     29  O   UNL     1       6.192   1.722  -0.394  1.00  0.00    -0.504 OA
ATOM     30  H   UNL     1       7.062   1.564   0.024  1.00  0.00     0.293 HD
ENDBRANCH  27  29
BRANCH  28  31
ATOM     31  O   UNL     1       7.142   0.203   1.639  1.00  0.00    -0.504 OA
ATOM     32  H   UNL     1       7.318  -0.396   2.384  1.00  0.00     0.293 HD
ENDBRANCH  28  31
ENDBRANCH  17  23
ENDBRANCH   1  17
BRANCH   1  33
ATOM     33  O   UNL     1       1.409   2.415   0.650  1.00  0.00    -0.504 OA
ATOM     34  H   UNL     1       0.713   2.989   1.012  1.00  0.00     0.293 HD
ENDBRANCH   1  33
TORSDOF 6
