REMARK SMILES COc1cc(OCc2ccccc2)ccc1C(=O)NCCc1ccccc1
REMARK SMILES IDX 3 1 4 2 5 3 14 4 15 5 16 6 2 7 1 8 17 9 19 10 18 11 20 13
REMARK SMILES IDX 21 14 22 15 23 16 27 17 24 18 26 19 25 20 6 21 7 22 8 23
REMARK SMILES IDX 9 24 13 25 10 26 12 27 11 28
REMARK H PARENT 19 12
ROOT
ATOM      1  C   UNL     1       0.460   0.235  -0.327  1.00  0.00     0.135 A 
ATOM      2  C   UNL     1       1.865   0.176  -0.398  1.00  0.00     0.093 A 
ATOM      3  C   UNL     1       2.559  -0.975  -0.013  1.00  0.00     0.123 A 
ATOM      4  C   UNL     1       1.846  -2.079   0.447  1.00  0.00     0.047 A 
ATOM      5  C   UNL     1       0.454  -2.040   0.519  1.00  0.00     0.021 A 
ATOM      6  C   UNL     1      -0.256  -0.892   0.130  1.00  0.00     0.082 A 
ENDROOT
BRANCH   1   7
ATOM      7  O   UNL     1      -0.263   1.347  -0.688  1.00  0.00    -0.496 OA
ATOM      8  C   UNL     1       0.449   2.536  -1.015  1.00  0.00     0.278 C 
ENDBRANCH   1   7
BRANCH   6   9
ATOM      9  C   UNL     1      -1.752  -0.975   0.249  1.00  0.00     0.255 C 
ATOM     10  N   UNL     1      -2.494   0.051  -0.288  1.00  0.00    -0.352 N 
ATOM     11  O   UNL     1      -2.275  -1.936   0.806  1.00  0.00    -0.269 OA
ATOM     12  H   UNL     1      -1.997   0.851  -0.666  1.00  0.00     0.163 HD
BRANCH  10  13
ATOM     13  C   UNL     1      -3.938   0.104  -0.180  1.00  0.00     0.121 C 
BRANCH  13  14
ATOM     14  C   UNL     1      -4.394   0.597   1.195  1.00  0.00     0.057 C 
BRANCH  14  15
ATOM     15  C   UNL     1      -5.896   0.699   1.282  1.00  0.00    -0.046 A 
ATOM     16  C   UNL     1      -6.662  -0.433   1.593  1.00  0.00     0.004 A 
ATOM     17  C   UNL     1      -6.547   1.913   1.028  1.00  0.00     0.004 A 
ATOM     18  C   UNL     1      -8.053  -0.349   1.656  1.00  0.00     0.000 A 
ATOM     19  C   UNL     1      -7.939   1.995   1.091  1.00  0.00     0.000 A 
ATOM     20  C   UNL     1      -8.691   0.865   1.406  1.00  0.00     0.000 A 
ENDBRANCH  14  15
ENDBRANCH  13  14
ENDBRANCH  10  13
ENDBRANCH   6   9
BRANCH   3  21
ATOM     21  O   UNL     1       3.914  -1.149  -0.036  1.00  0.00    -0.489 OA
BRANCH  21  22
ATOM     22  C   UNL     1       4.713  -0.063  -0.499  1.00  0.00     0.265 C 
BRANCH  22  23
ATOM     23  C   UNL     1       6.160  -0.484  -0.439  1.00  0.00    -0.011 A 
ATOM     24  C   UNL     1       6.754  -1.145  -1.523  1.00  0.00     0.007 A 
ATOM     25  C   UNL     1       6.921  -0.253   0.716  1.00  0.00     0.007 A 
ATOM     26  C   UNL     1       8.090  -1.546  -1.462  1.00  0.00     0.000 A 
ATOM     27  C   UNL     1       8.257  -0.655   0.775  1.00  0.00     0.000 A 
ATOM     28  C   UNL     1       8.841  -1.298  -0.315  1.00  0.00     0.000 A 
ENDBRANCH  22  23
ENDBRANCH  21  22
ENDBRANCH   3  21
TORSDOF 8
