REMARK SMILES CCCOc1ccccc1C(=O)c1c[nH]c2ccc(OC)cc12
REMARK SMILES IDX 5 1 6 2 7 3 8 4 9 5 10 6 4 7 3 8 2 9 1 10 11 11 12 12 13 13
REMARK SMILES IDX 14 14 23 15 15 16 22 17 16 18 19 19 17 20 18 21 20 23 21 24
REMARK H PARENT 15 22
ROOT
ATOM      1  C   UNL     1       2.130  -0.712  -1.072  1.00  0.00     0.130 A 
ATOM      2  C   UNL     1       3.422  -1.144  -1.391  1.00  0.00     0.047 A 
ATOM      3  C   UNL     1       4.232  -0.395  -2.254  1.00  0.00     0.004 A 
ATOM      4  C   UNL     1       3.759   0.788  -2.818  1.00  0.00     0.001 A 
ATOM      5  C   UNL     1       2.475   1.230  -2.515  1.00  0.00     0.016 A 
ATOM      6  C   UNL     1       1.672   0.492  -1.633  1.00  0.00     0.065 A 
ENDROOT
BRANCH   1   7
ATOM      7  O   UNL     1       1.252  -1.392  -0.275  1.00  0.00    -0.493 OA
BRANCH   7   8
ATOM      8  C   UNL     1       1.678  -2.564   0.417  1.00  0.00     0.229 C 
BRANCH   8   9
ATOM      9  C   UNL     1       1.457  -3.806  -0.442  1.00  0.00     0.038 C 
ATOM     10  C   UNL     1       1.857  -5.074   0.291  1.00  0.00     0.007 C 
ENDBRANCH   8   9
ENDBRANCH   7   8
ENDBRANCH   1   7
BRANCH   6  11
ATOM     11  C   UNL     1       0.315   1.017  -1.357  1.00  0.00     0.198 C 
ATOM     12  O   UNL     1      -0.441   1.174  -2.314  1.00  0.00    -0.288 OA
BRANCH  11  13
ATOM     13  C   UNL     1      -0.044   1.392   0.013  1.00  0.00     0.048 A 
ATOM     14  C   UNL     1       0.820   1.536   1.087  1.00  0.00     0.095 A 
ATOM     15  C   UNL     1      -1.354   1.718   0.504  1.00  0.00     0.014 A 
ATOM     16  N   UNL     1       0.094   1.908   2.186  1.00  0.00    -0.360 N 
ATOM     17  C   UNL     1      -2.639   1.774  -0.078  1.00  0.00     0.057 A 
ATOM     18  C   UNL     1      -1.234   2.030   1.858  1.00  0.00     0.046 A 
ATOM     19  C   UNL     1      -3.753   2.132   0.695  1.00  0.00     0.119 A 
ATOM     20  C   UNL     1      -2.329   2.390   2.652  1.00  0.00     0.030 A 
ATOM     21  C   UNL     1      -3.591   2.436   2.045  1.00  0.00     0.048 A 
ATOM     22  H   UNL     1       0.474   2.078   3.106  1.00  0.00     0.166 HD
BRANCH  19  23
ATOM     23  O   UNL     1      -4.937   2.146   0.007  1.00  0.00    -0.497 OA
ATOM     24  C   UNL     1      -6.102   2.513   0.734  1.00  0.00     0.278 C 
ENDBRANCH  19  23
ENDBRANCH  11  13
ENDBRANCH   6  11
TORSDOF 6
