MODEL        1USER    Run = 1USERUSER    Estimated Free Energy of Binding    =  -4.60 kcal/mol  [=(1)+(2)+(3)-(4)]USERUSER    (1) Final Intermolecular Energy     =  -9.37 kcal/molUSER        vdW + Hbond + desolv Energy     =  -9.16 kcal/molUSER        Electrostatic Energy            =  -0.37 kcal/molUSER        Moving Ligand-Fixed Receptor    =  -9.53 kcal/molUSER        Moving Ligand-Moving Receptor   =  +0.16 kcal/molUSER    (2) Final Total Internal Energy     =  -2.88 kcal/molUSER    (3) Torsional Free Energy           =  +4.77 kcal/molUSER    (4) Unbound System's Energy         =  -2.88 kcal/molUSERUSERREMARK SMILES COC1=CC=CN=COC(c2ccc(O)c(O)c2)=C(O)C=C1c1ccccc1CREMARK SMILES IDX 19 1 21 2 22 3 3 4 2 5 1 6 4 7 5 8 23 10 24 11 28 12 25 13REMARK SMILES IDX 27 14 26 15 29 16 10 17 9 18 8 19 7 20 6 21 11 23 12 24REMARK SMILES IDX 18 25 13 26 16 27 14 28 17 29 15 31 20 33REMARK H PARENT 17 30 15 32 20 34REMARK Flexibility Score:   44.900USER                              x       y       z     vdW  Elec       q    TypeUSER                           _______ _______ _______ _____ _____    ______ ____ROOTATOM      1  C   UNL     1      40.192  45.445  26.022 -0.10 +0.01    +0.159 C  ENDROOTBRANCH   1   2ATOM      2  C   UNL     1      39.009  45.238  26.859 -0.19 -0.00    +0.062 C  BRANCH   2   3ATOM      3  C   UNL     1      37.742  45.716  26.834 -0.33 -0.00    +0.028 C  BRANCH   3   4ATOM      4  C   UNL     1      37.398  47.121  26.652 -0.32 -0.01    +0.126 C  BRANCH   4   5ATOM      5  O   UNL     1      36.741  47.403  25.469 -0.61 -0.03    -0.496 OA ATOM      6  C   UNL     1      35.989  48.608  25.578 -0.30 -0.03    +0.278 C  ENDBRANCH   4   5BRANCH   4   7ATOM      7  C   UNL     1      37.963  48.057  27.440 -0.25 -0.00    +0.048 C  BRANCH   7   8ATOM      8  C   UNL     1      38.607  49.249  26.937 -0.26 +0.00    +0.024 CG0ATOM      9  G   UNL     1      39.893  49.249  26.540 +0.00 +0.00    +0.000 G0 ENDBRANCH   7   8ENDBRANCH   4   7ENDBRANCH   3   4BRANCH   3  10ATOM     10  C   UNL     1      36.671  44.699  27.026 -0.38 +0.00    -0.012 A  ATOM     11  C   UNL     1      35.801  44.882  28.116 -0.45 -0.00    +0.009 A  ATOM     12  C   UNL     1      36.483  43.591  26.172 -0.35 +0.00    -0.043 A  ATOM     13  C   UNL     1      34.770  43.978  28.373 -0.63 -0.00    +0.001 A  ATOM     14  C   UNL     1      35.448  42.682  26.457 -0.42 -0.00    +0.004 A  ATOM     15  C   UNL     1      34.596  42.876  27.544 -0.54 -0.00    +0.000 A  ATOM     16  C   UNL     1      37.379  43.289  25.002 -0.36 +0.00    +0.045 C  ENDBRANCH   3  10ENDBRANCH   2   3ENDBRANCH   1   2BRANCH   1  17ATOM     17  C   UNL     1      41.283  46.218  26.232 -0.08 +0.01    +0.177 C  BRANCH  17  18ATOM     18  O   UNL     1      41.497  46.953  27.404 -0.44 -0.06    -0.441 OA BRANCH  18  19ATOM     19  C   UNL     1      41.837  48.252  27.232 -0.12 +0.02    +0.308 C  BRANCH  19  20ATOM     20  N   UNL     1      41.006  49.241  27.350 -0.19 -0.03    -0.229 NA BRANCH  20  21ATOM     21  C   UNL     1      39.892  49.250  26.539 -0.19 +0.02    +0.114 CG0ATOM     22  G   UNL     1      38.606  49.248  26.937 +0.00 +0.00    +0.000 G0 ENDBRANCH  20  21ENDBRANCH  19  20ENDBRANCH  18  19ENDBRANCH  17  18BRANCH  17  23ATOM     23  C   UNL     1      42.273  46.518  25.172 -0.08 +0.00    +0.025 A  ATOM     24  C   UNL     1      43.343  45.632  24.948 -0.05 +0.00    +0.016 A  ATOM     25  C   UNL     1      42.140  47.647  24.351 -0.21 +0.01    +0.062 A  ATOM     26  C   UNL     1      44.275  45.870  23.933 -0.08 +0.01    +0.051 A  ATOM     27  C   UNL     1      43.067  47.874  23.342 -0.25 +0.03    +0.158 A  ATOM     28  C   UNL     1      44.128  46.997  23.134 -0.17 +0.05    +0.157 A  BRANCH  27  29ATOM     29  O   UNL     1      42.927  48.974  22.544 -0.65 -0.13    -0.504 OA ATOM     30  H   UNL     1      43.810  49.096  22.142 -0.42 +0.02    +0.293 HD ENDBRANCH  27  29BRANCH  28  31ATOM     31  O   UNL     1      45.003  47.285  22.122 -0.49 -0.35    -0.504 OA ATOM     32  H   UNL     1      44.679  48.077  21.661 -0.37 +0.09    +0.293 HD ENDBRANCH  28  31ENDBRANCH  17  23ENDBRANCH   1  17BRANCH   1  33ATOM     33  O   UNL     1      40.153  44.646  24.882 +0.03 -0.01    -0.504 OA ATOM     34  H   UNL     1      40.104  43.716  25.161 +0.11 +0.00    +0.293 HD ENDBRANCH   1  33TORSDOF 6TERENDMDL