REMARK SMILES CC(C)NC[C@@H](CNC(=O)C=C1C=CC(N[C@H](C)c2ccc(Cl)cc2)=N1)C(N)=O
REMARK SMILES IDX 8 1 9 2 10 3 7 5 6 6 5 7 4 8 2 10 1 11 3 12 27 13 28 14
REMARK SMILES IDX 29 15 11 18 12 19 13 20 26 21 14 22 15 23 16 24 17 26 18 27
REMARK SMILES IDX 19 28 20 29 25 30 21 31 24 32 22 33 23 34
REMARK H PARENT 8 4 4 9 28 16 28 17 16 25
ROOT
ATOM      1  N   UNL     1      -1.638  -2.148  -0.246  1.00  0.00    -0.352 N 
ATOM      2  C   UNL     1      -0.659  -2.395   0.687  1.00  0.00     0.246 C 
ATOM      3  O   UNL     1      -0.852  -2.908   1.780  1.00  0.00    -0.270 OA
ATOM      4  H   UNL     1      -1.329  -1.971  -1.195  1.00  0.00     0.163 HD
ENDROOT
BRANCH   1   5
ATOM      5  C   UNL     1      -3.002  -2.610  -0.036  1.00  0.00     0.131 C 
BRANCH   5   6
ATOM      6  C   UNL     1      -4.022  -1.832  -0.874  1.00  0.00     0.111 C 
BRANCH   6   7
ATOM      7  C   UNL     1      -4.041  -0.316  -0.568  1.00  0.00     0.096 C 
BRANCH   7   8
ATOM      8  N   UNL     1      -4.081   0.003   0.862  1.00  0.00    -0.314 NA
ATOM      9  H   UNL     1      -3.215  -0.299   1.310  1.00  0.00     0.122 HD
BRANCH   8  10
ATOM     10  C   UNL     1      -4.333   1.408   1.201  1.00  0.00     0.047 C 
ATOM     11  C   UNL     1      -5.724   1.880   0.773  1.00  0.00     0.024 C 
ATOM     12  C   UNL     1      -3.245   2.353   0.688  1.00  0.00     0.024 C 
ENDBRANCH   8  10
ENDBRANCH   7   8
ENDBRANCH   6   7
BRANCH   6  13
ATOM     13  C   UNL     1      -5.420  -2.441  -0.776  1.00  0.00     0.223 C 
ATOM     14  N   UNL     1      -5.510  -3.781  -1.031  1.00  0.00    -0.369 N 
ATOM     15  O   UNL     1      -6.451  -1.809  -0.571  1.00  0.00    -0.275 OA
ATOM     16  H   UNL     1      -6.448  -4.163  -1.055  1.00  0.00     0.159 HD
ATOM     17  H   UNL     1      -4.780  -4.309  -1.485  1.00  0.00     0.159 HD
ENDBRANCH   6  13
ENDBRANCH   5   6
ENDBRANCH   1   5
BRANCH   2  18
ATOM     18  C   UNL     1       0.709  -2.089   0.226  1.00  0.00     0.099 C 
BRANCH  18  19
ATOM     19  C   UNL     1       1.107  -0.908  -0.257  1.00  0.00     0.071 C 
ATOM     20  C   UNL     1       0.355   0.305  -0.413  1.00  0.00     0.032 C 
ATOM     21  N   UNL     1       2.389  -0.669  -0.685  1.00  0.00    -0.232 NA
ATOM     22  C   UNL     1       1.132   1.261  -0.920  1.00  0.00     0.049 C 
ATOM     23  C   UNL     1       2.432   0.578  -1.069  1.00  0.00     0.127 C 
ATOM     24  N   UNL     1       3.528   1.230  -1.570  1.00  0.00    -0.364 N 
ATOM     25  H   UNL     1       3.445   2.240  -1.585  1.00  0.00     0.162 HD
BRANCH  24  26
ATOM     26  C   UNL     1       4.915   0.801  -1.428  1.00  0.00     0.108 C 
ATOM     27  C   UNL     1       5.166  -0.646  -1.849  1.00  0.00     0.036 C 
BRANCH  26  28
ATOM     28  C   UNL     1       5.441   1.163  -0.049  1.00  0.00    -0.026 A 
ATOM     29  C   UNL     1       5.120   0.404   1.088  1.00  0.00     0.007 A 
ATOM     30  C   UNL     1       6.244   2.305   0.116  1.00  0.00     0.007 A 
ATOM     31  C   UNL     1       5.598   0.764   2.350  1.00  0.00     0.021 A 
ATOM     32  C   UNL     1       6.724   2.666   1.378  1.00  0.00     0.021 A 
ATOM     33  C   UNL     1       6.400   1.893   2.490  1.00  0.00     0.041 A 
ATOM     34  Cl  UNL     1       6.989   2.339   4.043  1.00  0.00    -0.084 Cl
ENDBRANCH  26  28
ENDBRANCH  24  26
ENDBRANCH  18  19
ENDBRANCH   2  18
TORSDOF 10
