MODEL        10USER    Run = 10USERUSER    Estimated Free Energy of Binding    =  -8.12 kcal/mol  [=(1)+(2)+(3)-(4)]USERUSER    (1) Final Intermolecular Energy     = -11.10 kcal/molUSER        vdW + Hbond + desolv Energy     = -11.03 kcal/molUSER        Electrostatic Energy            =  -0.08 kcal/molUSER        Moving Ligand-Fixed Receptor    = -11.10 kcal/molUSER        Moving Ligand-Moving Receptor   =  +0.00 kcal/molUSER    (2) Final Total Internal Energy     =  -3.89 kcal/molUSER    (3) Torsional Free Energy           =  +2.98 kcal/molUSER    (4) Unbound System's Energy         =  -3.89 kcal/molUSERUSERREMARK SMILES CC(C)NC[C@@H](CNC(=O)C=C1C=CC(N[C@H](C)c2ccc(Cl)cc2)=N1)C(N)=OREMARK SMILES IDX 8 1 9 2 10 3 7 5 6 6 5 7 4 8 2 10 1 11 3 12 27 13 28 14REMARK SMILES IDX 29 15 11 18 12 19 13 20 26 21 14 22 15 23 16 24 17 26 18 27REMARK SMILES IDX 19 28 20 29 25 30 21 31 24 32 22 33 23 34REMARK H PARENT 8 4 4 9 28 16 28 17 16 25USER                              x       y       z     vdW  Elec       q    TypeUSER                           _______ _______ _______ _____ _____    ______ ____ROOTATOM      1  N   UNL     1      34.912  44.772  18.949 -0.15 +0.10    -0.352 N  ATOM      2  C   UNL     1      34.672  43.831  19.922 -0.25 -0.02    +0.246 C  ATOM      3  O   UNL     1      33.577  43.344  20.166 -0.85 -0.03    -0.270 OA ATOM      4  H   UNL     1      35.877  44.900  18.667 +0.11 -0.04    +0.163 HD ENDROOTBRANCH   1   5ATOM      5  C   UNL     1      33.861  45.175  18.027 -0.36 -0.06    +0.131 C  BRANCH   5   6ATOM      6  C   UNL     1      33.678  44.183  16.873 -0.29 -0.05    +0.111 C  BRANCH   6   7ATOM      7  C   UNL     1      32.377  43.353  16.976 -0.30 -0.03    +0.096 C  BRANCH   7   8ATOM      8  N   UNL     1      32.435  42.275  17.968 -0.12 +0.07    -0.314 NA ATOM      9  H   UNL     1      32.042  42.597  18.854 +0.08 -0.01    +0.122 HD BRANCH   8  10ATOM     10  C   UNL     1      31.792  41.014  17.586 -0.38 -0.01    +0.047 C  ATOM     11  C   UNL     1      30.441  41.223  16.899 -0.38 -0.01    +0.024 C  ATOM     12  C   UNL     1      31.676  40.024  18.747 -0.46 +0.00    +0.024 C  ENDBRANCH   8  10ENDBRANCH   7   8ENDBRANCH   6   7BRANCH   6  13ATOM     13  C   UNL     1      34.903  43.287  16.695 -0.29 -0.09    +0.223 C  ATOM     14  N   UNL     1      34.651  41.991  16.340 -0.05 +0.19    -0.369 N  ATOM     15  O   UNL     1      36.060  43.622  16.926 -0.21 +0.09    -0.275 OA ATOM     16  H   UNL     1      35.457  41.378  16.312 -0.40 -0.11    +0.159 HD ATOM     17  H   UNL     1      33.741  41.562  16.415 -0.42 -0.12    +0.159 HD ENDBRANCH   6  13ENDBRANCH   5   6ENDBRANCH   1   5BRANCH   2  18ATOM     18  C   UNL     1      35.884  43.348  20.611 -0.41 +0.00    +0.099 C  BRANCH  18  19ATOM     19  C   UNL     1      36.996  44.066  20.797 -0.41 -0.00    +0.071 C  ATOM     20  C   UNL     1      37.579  44.528  22.025 -0.39 +0.00    +0.032 C  ATOM     21  N   UNL     1      37.802  44.477  19.765 -0.22 +0.01    -0.232 NA ATOM     22  C   UNL     1      38.701  45.201  21.772 -0.36 +0.00    +0.049 C  ATOM     23  C   UNL     1      38.797  45.131  20.301 -0.33 -0.00    +0.127 C  ATOM     24  N   UNL     1      39.836  45.715  19.625 -0.17 +0.01    -0.364 N  ATOM     25  H   UNL     1      40.629  45.962  20.206 +0.09 +0.01    +0.162 HD BRANCH  24  26ATOM     26  C   UNL     1      40.238  45.416  18.255 -0.44 -0.01    +0.108 C  ATOM     27  C   UNL     1      41.745  45.496  18.016 -0.32 +0.00    +0.036 C  BRANCH  26  28ATOM     28  C   UNL     1      39.395  46.210  17.271 -0.42 +0.01    -0.026 A  ATOM     29  C   UNL     1      38.057  45.874  17.004 -0.38 -0.00    +0.007 A  ATOM     30  C   UNL     1      39.963  47.291  16.576 -0.50 -0.00    +0.007 A  ATOM     31  C   UNL     1      37.304  46.605  16.082 -0.38 -0.01    +0.021 A  ATOM     32  C   UNL     1      39.211  48.024  15.654 -0.50 -0.01    +0.021 A  ATOM     33  C   UNL     1      37.884  47.678  15.412 -0.44 -0.02    +0.041 A  ATOM     34  Cl  UNL     1      36.959  48.579  14.275 -0.70 +0.06    -0.084 Cl ENDBRANCH  26  28ENDBRANCH  24  26ENDBRANCH  18  19ENDBRANCH   2  18TORSDOF 10TERENDMDL