MODEL        5USER    Run = 5USERUSER    Estimated Free Energy of Binding    =  -7.59 kcal/mol  [=(1)+(2)+(3)-(4)]USERUSER    (1) Final Intermolecular Energy     = -10.87 kcal/molUSER        vdW + Hbond + desolv Energy     = -10.00 kcal/molUSER        Electrostatic Energy            =  -0.88 kcal/molUSER        Moving Ligand-Fixed Receptor    = -10.87 kcal/molUSER        Moving Ligand-Moving Receptor   =  +0.00 kcal/molUSER    (2) Final Total Internal Energy     =  -1.29 kcal/molUSER    (3) Torsional Free Energy           =  +3.28 kcal/molUSER    (4) Unbound System's Energy         =  -1.29 kcal/molUSERUSERREMARK SMILES NCCCCCCNc1cc(O)ccc1C(=O)c1c(F)cccc1FREMARK SMILES IDX 6 1 5 2 4 3 3 4 2 5 1 6 7 9 8 10 9 12 10 13 15 14 11 15REMARK SMILES IDX 14 16 13 17 16 18 17 19 18 20 19 21 24 22 21 23 23 24 22 25REMARK SMILES IDX 20 26 25 27 12 28REMARK H PARENT 1 7 1 8 8 11 12 29USER                              x       y       z     vdW  Elec       q    TypeUSER                           _______ _______ _______ _____ _____    ______ ____ROOTATOM      1  C   UNL     1      30.323  36.704  20.960 -0.41 +0.00    +0.021 C  ENDROOTBRANCH   1   2ATOM      2  C   UNL     1      31.587  37.487  20.593 -0.59 +0.00    +0.002 C  BRANCH   2   3ATOM      3  C   UNL     1      31.580  38.004  19.152 -0.57 +0.00    +0.001 C  BRANCH   3   4ATOM      4  C   UNL     1      31.617  39.534  19.057 -0.48 +0.00    +0.015 C  BRANCH   4   5ATOM      5  C   UNL     1      31.883  40.043  17.641 -0.40 -0.02    +0.077 C  BRANCH   5   6ATOM      6  N   UNL     1      33.121  40.814  17.607 -0.19 +0.13    -0.330 NA ATOM      7  H   UNL     1      33.920  40.181  17.580 -0.47 -0.07    +0.118 HD ATOM      8  H   UNL     1      33.158  41.357  16.746 -0.44 -0.08    +0.118 HD ENDBRANCH   5   6ENDBRANCH   4   5ENDBRANCH   3   4ENDBRANCH   2   3ENDBRANCH   1   2BRANCH   1   9ATOM      9  C   UNL     1      30.170  36.466  22.465 -0.38 +0.01    +0.113 C  BRANCH   9  10ATOM     10  N   UNL     1      28.820  35.981  22.740 -0.13 -0.02    -0.384 N  ATOM     11  H   UNL     1      28.748  35.563  23.679 +0.10 +0.07    +0.160 HD BRANCH  10  12ATOM     12  C   UNL     1      28.203  35.121  21.808 -0.34 -0.01    +0.049 A  ATOM     13  C   UNL     1      27.438  35.614  20.740 -0.28 -0.05    +0.072 A  ATOM     14  C   UNL     1      28.207  33.718  22.012 -0.39 -0.01    +0.046 A  ATOM     15  C   UNL     1      26.773  34.751  19.870 -0.26 -0.11    +0.117 A  ATOM     16  C   UNL     1      27.543  32.856  21.119 -0.37 -0.01    +0.018 A  ATOM     17  C   UNL     1      26.826  33.375  20.044 -0.39 -0.05    +0.047 A  BRANCH  14  18ATOM     18  C   UNL     1      28.972  33.129  23.149 -0.33 +0.07    +0.201 C  ATOM     19  O   UNL     1      29.721  33.836  23.820 -0.07 -0.21    -0.288 OA BRANCH  18  20ATOM     20  C   UNL     1      28.838  31.705  23.495 -0.39 +0.03    +0.094 A  ATOM     21  C   UNL     1      29.642  30.759  22.863 -0.41 -0.00    +0.137 A  ATOM     22  C   UNL     1      27.942  31.285  24.476 -0.36 +0.09    +0.137 A  ATOM     23  C   UNL     1      29.546  29.408  23.197 -0.50 -0.01    +0.040 A  ATOM     24  C   UNL     1      27.840  29.937  24.818 -0.52 +0.01    +0.040 A  ATOM     25  C   UNL     1      28.644  28.994  24.177 -0.52 -0.00    +0.006 A  ATOM     26  F   UNL     1      30.497  31.115  21.894 -0.17 +0.03    -0.206 F  ATOM     27  F   UNL     1      27.164  32.165  25.121 -0.15 -0.27    -0.206 F  ENDBRANCH  18  20ENDBRANCH  14  18BRANCH  15  28ATOM     28  O   UNL     1      26.067  35.307  18.843 -0.28 +0.34    -0.508 OA ATOM     29  H   UNL     1      25.305  35.787  19.208 -0.28 -0.73    +0.293 HD ENDBRANCH  15  28ENDBRANCH  10  12ENDBRANCH   9  10ENDBRANCH   1   9TORSDOF 11TERENDMDL