MODEL        8USER    Run = 8USERUSER    Estimated Free Energy of Binding    =  -8.27 kcal/mol  [=(1)+(2)+(3)-(4)]USERUSER    (1) Final Intermolecular Energy     = -10.06 kcal/molUSER        vdW + Hbond + desolv Energy     =  -9.86 kcal/molUSER        Electrostatic Energy            =  -0.20 kcal/molUSER        Moving Ligand-Fixed Receptor    = -10.06 kcal/molUSER        Moving Ligand-Moving Receptor   =  +0.00 kcal/molUSER    (2) Final Total Internal Energy     =  -1.84 kcal/molUSER    (3) Torsional Free Energy           =  +1.79 kcal/molUSER    (4) Unbound System's Energy         =  -1.84 kcal/molUSERUSERREMARK SMILES CNC1=C(NCc2ccncc2)C(Nc2cccc(OC)c2)=NC1=OREMARK SMILES IDX 3 1 4 2 13 3 14 4 23 5 24 6 25 7 2 9 1 10 5 12 6 14 7 15REMARK SMILES IDX 8 16 12 17 9 18 11 19 10 20 15 21 16 22 22 23 17 24 19 25REMARK SMILES IDX 18 26 20 27 21 28REMARK H PARENT 14 8 2 11 5 13USER                              x       y       z     vdW  Elec       q    TypeUSER                           _______ _______ _______ _____ _____    ______ ____ROOTATOM      1  C   UNL     1      34.658  43.736  16.241 -0.33 -0.06    +0.129 C  ATOM      2  C   UNL     1      35.109  44.983  16.079 -0.31 -0.06    +0.107 C  ATOM      3  C   UNL     1      36.510  44.969  16.610 -0.29 -0.07    +0.160 C  ATOM      4  N   UNL     1      37.230  46.137  16.700 -0.15 +0.16    -0.338 N  ATOM      5  N   UNL     1      36.883  43.778  16.969 -0.21 +0.05    -0.188 NA ATOM      6  C   UNL     1      35.816  42.948  16.777 -0.25 -0.10    +0.297 C  ATOM      7  O   UNL     1      35.755  41.750  17.011 -0.21 +0.13    -0.265 OA ATOM      8  H   UNL     1      36.667  46.974  16.608 +0.11 -0.13    +0.168 HD ENDROOTBRANCH   1   9ATOM      9  N   UNL     1      33.444  43.120  15.969 -0.10 +0.19    -0.382 N  ATOM     10  C   UNL     1      32.160  43.591  16.439 -0.28 -0.06    +0.140 C  ATOM     11  H   UNL     1      33.554  42.104  16.057 -0.48 -0.11    +0.160 HD ENDBRANCH   1   9BRANCH   2  12ATOM     12  N   UNL     1      34.507  46.121  15.555 +0.08 +0.46    -0.376 N  ATOM     13  H   UNL     1      33.598  46.230  16.005 -0.24 -0.27    +0.161 HD BRANCH  12  14ATOM     14  C   UNL     1      34.299  46.239  14.108 -0.21 -0.14    +0.149 C  BRANCH  14  15ATOM     15  C   UNL     1      35.594  46.639  13.448 -0.50 +0.02    -0.026 A  ATOM     16  C   UNL     1      36.524  47.442  14.119 -0.47 -0.02    +0.025 A  ATOM     17  C   UNL     1      35.902  46.208  12.155 -0.58 -0.01    +0.025 A  ATOM     18  C   UNL     1      37.703  47.779  13.473 -0.44 -0.04    +0.111 A  ATOM     19  C   UNL     1      37.109  46.597  11.593 -0.51 -0.03    +0.111 A  ATOM     20  N   UNL     1      38.014  47.374  12.225 -0.72 +0.01    -0.265 NA ENDBRANCH  14  15ENDBRANCH  12  14ENDBRANCH   2  12BRANCH   4  21ATOM     21  C   UNL     1      38.535  46.359  17.177 -0.37 -0.01    +0.043 A  ATOM     22  C   UNL     1      39.144  45.582  18.166 -0.41 -0.00    +0.026 A  ATOM     23  C   UNL     1      39.295  47.389  16.586 -0.41 -0.02    +0.072 A  ATOM     24  C   UNL     1      40.456  45.835  18.575 -0.47 -0.00    +0.006 A  ATOM     25  C   UNL     1      40.609  47.650  16.990 -0.44 -0.02    +0.120 A  ATOM     26  C   UNL     1      41.182  46.867  17.988 -0.49 -0.00    +0.046 A  BRANCH  25  27ATOM     27  O   UNL     1      41.428  48.625  16.489 -0.73 +0.01    -0.497 OA ATOM     28  C   UNL     1      40.916  49.422  15.430 -0.48 -0.06    +0.278 C  ENDBRANCH  25  27ENDBRANCH   4  21TORSDOF 6TERENDMDL