MODEL        7USER    Run = 7USERUSER    Estimated Free Energy of Binding    =  -8.83 kcal/mol  [=(1)+(2)+(3)-(4)]USERUSER    (1) Final Intermolecular Energy     = -11.52 kcal/molUSER        vdW + Hbond + desolv Energy     = -11.39 kcal/molUSER        Electrostatic Energy            =  -0.13 kcal/molUSER        Moving Ligand-Fixed Receptor    = -11.52 kcal/molUSER        Moving Ligand-Moving Receptor   =  +0.00 kcal/molUSER    (2) Final Total Internal Energy     =  -1.63 kcal/molUSER    (3) Torsional Free Energy           =  +2.68 kcal/molUSER    (4) Unbound System's Energy         =  -1.63 kcal/molUSERUSERREMARK SMILES CCNC(=O)Nc1cccc(/C(=C\C=C/c2ccccc2)ONC)c1REMARK SMILES IDX 12 1 11 2 7 3 8 4 25 5 9 6 10 7 6 8 3 9 4 10 5 12 2 14 1 15REMARK SMILES IDX 13 16 14 17 15 18 16 19 17 20 21 21 18 22 20 23 19 24 22 25REMARK SMILES IDX 23 26 24 27REMARK H PARENT 3 11 6 13 23 28USER                              x       y       z     vdW  Elec       q    TypeUSER                           _______ _______ _______ _____ _____    ______ ____ROOTATOM      1  C   UNL     1      40.513  48.268  15.866 -0.52 -0.03    +0.154 C  ENDROOTBRANCH   1   2ATOM      2  C   UNL     1      40.444  47.306  16.983 -0.50 -0.00    +0.021 A  ATOM      3  C   UNL     1      39.315  45.452  18.094 -0.40 -0.01    +0.043 A  ATOM      4  C   UNL     1      40.288  45.477  19.094 -0.43 -0.00    +0.026 A  ATOM      5  C   UNL     1      39.397  46.374  17.042 -0.42 -0.01    +0.038 A  ATOM      6  C   UNL     1      41.333  46.403  19.043 -0.48 +0.00    +0.003 A  ATOM      7  C   UNL     1      41.411  47.316  17.993 -0.52 -0.00    +0.012 A  BRANCH   3   8ATOM      8  N   UNL     1      38.225  44.560  18.088 -0.17 +0.05    -0.308 N  ATOM      9  N   UNL     1      36.153  43.685  17.805 -0.10 +0.09    -0.338 N  ATOM     10  C   UNL     1      36.903  44.849  17.827 -0.19 -0.09    +0.319 C  ATOM     11  H   UNL     1      36.650  42.887  17.436 +0.12 -0.04    +0.165 HD ATOM     12  O   UNL     1      36.411  45.953  17.652 -0.26 +0.12    -0.249 OA ATOM     13  H   UNL     1      38.393  43.641  18.469 +0.11 -0.02    +0.171 HD BRANCH   9  14ATOM     14  C   UNL     1      34.742  43.760  17.476 -0.29 -0.04    +0.114 C  ATOM     15  C   UNL     1      34.534  44.127  16.020 -0.37 -0.01    +0.027 C  ENDBRANCH   9  14ENDBRANCH   3   8ENDBRANCH   1   2BRANCH   1  16ATOM     16  C   UNL     1      39.507  48.493  15.003 -0.58 -0.02    +0.050 C  BRANCH  16  17ATOM     17  C   UNL     1      38.144  48.865  15.334 -0.56 -0.00    +0.005 C  BRANCH  17  18ATOM     18  C   UNL     1      37.044  48.139  15.079 -0.53 -0.01    +0.008 C  BRANCH  18  19ATOM     19  C   UNL     1      36.902  47.141  14.018 -0.47 +0.01    -0.026 A  ATOM     20  C   UNL     1      36.577  47.536  12.714 -0.67 -0.00    +0.008 A  ATOM     21  C   UNL     1      37.098  45.785  14.301 -0.41 -0.00    +0.008 A  ATOM     22  C   UNL     1      36.444  46.580  11.705 -0.65 -0.00    +0.001 A  ATOM     23  C   UNL     1      36.966  44.831  13.289 -0.44 -0.00    +0.001 A  ATOM     24  C   UNL     1      36.636  45.228  11.993 -0.56 -0.00    +0.000 A  ENDBRANCH  18  19ENDBRANCH  17  18ENDBRANCH  16  17ENDBRANCH   1  16BRANCH   1  25ATOM     25  O   UNL     1      41.752  48.865  15.640 -0.63 -0.03    -0.408 OA BRANCH  25  26ATOM     26  N   UNL     1      41.585  50.315  15.651 -0.87 +0.02    -0.160 NA ATOM     27  C   UNL     1      42.456  50.798  14.587 -0.52 -0.03    +0.148 C  ATOM     28  H   UNL     1      40.610  50.405  15.364 -0.07 -0.08    +0.168 HD ENDBRANCH  25  26ENDBRANCH   1  25TORSDOF 9TERENDMDL