MODEL        6USER    Run = 6USERUSER    Estimated Free Energy of Binding    =  -7.43 kcal/mol  [=(1)+(2)+(3)-(4)]USERUSER    (1) Final Intermolecular Energy     =  -9.22 kcal/molUSER        vdW + Hbond + desolv Energy     =  -9.16 kcal/molUSER        Electrostatic Energy            =  -0.06 kcal/molUSER        Moving Ligand-Fixed Receptor    =  -9.22 kcal/molUSER        Moving Ligand-Moving Receptor   =  +0.00 kcal/molUSER    (2) Final Total Internal Energy     =  -1.16 kcal/molUSER    (3) Torsional Free Energy           =  +1.79 kcal/molUSER    (4) Unbound System's Energy         =  -1.16 kcal/molUSERUSERREMARK SMILES CCCOc1ccccc1C(=O)c1c[nH]c2ccc(OC)cc12REMARK SMILES IDX 5 1 6 2 7 3 8 4 9 5 10 6 4 7 3 8 2 9 1 10 11 11 12 12 13 13REMARK SMILES IDX 14 14 23 15 15 16 22 17 16 18 19 19 17 20 18 21 20 23 21 24REMARK H PARENT 15 22USER                              x       y       z     vdW  Elec       q    TypeUSER                           _______ _______ _______ _____ _____    ______ ____ROOTATOM      1  C   UNL     1      36.940  45.427  14.422 -0.31 -0.05    +0.130 A  ATOM      2  C   UNL     1      37.083  45.702  13.057 -0.47 -0.02    +0.047 A  ATOM      3  C   UNL     1      37.156  47.024  12.600 -0.63 -0.00    +0.004 A  ATOM      4  C   UNL     1      37.075  48.087  13.496 -0.59 -0.00    +0.001 A  ATOM      5  C   UNL     1      36.928  47.832  14.856 -0.45 -0.01    +0.016 A  ATOM      6  C   UNL     1      36.878  46.508  15.317 -0.34 -0.04    +0.065 A  ENDROOTBRANCH   1   7ATOM      7  O   UNL     1      36.818  44.176  14.959 -0.10 +0.17    -0.493 OA BRANCH   7   8ATOM      8  C   UNL     1      35.579  43.762  15.530 -0.19 -0.09    +0.229 C  BRANCH   8   9ATOM      9  C   UNL     1      35.782  42.555  16.441 -0.47 -0.01    +0.038 C  ATOM     10  C   UNL     1      34.985  42.682  17.727 -0.45 -0.00    +0.007 C  ENDBRANCH   8   9ENDBRANCH   7   8ENDBRANCH   1   7BRANCH   6  11ATOM     11  C   UNL     1      36.716  46.308  16.775 -0.28 -0.12    +0.198 C  ATOM     12  O   UNL     1      35.601  46.498  17.256 -0.28 +0.25    -0.288 OA BRANCH  11  13ATOM     13  C   UNL     1      37.887  45.967  17.586 -0.33 -0.01    +0.048 A  ATOM     14  C   UNL     1      37.991  44.928  18.498 -0.32 -0.01    +0.095 A  ATOM     15  C   UNL     1      39.167  46.619  17.572 -0.42 -0.00    +0.014 A  ATOM     16  N   UNL     1      39.250  44.942  19.035 -0.17 +0.02    -0.360 N  ATOM     17  C   UNL     1      39.707  47.716  16.866 -0.39 -0.02    +0.057 A  ATOM     18  C   UNL     1      39.990  45.960  18.486 -0.42 -0.00    +0.046 A  ATOM     19  C   UNL     1      41.030  48.122  17.088 -0.43 -0.01    +0.119 A  ATOM     20  C   UNL     1      41.314  46.345  18.727 -0.48 +0.00    +0.030 A  ATOM     21  C   UNL     1      41.819  47.438  18.011 -0.43 -0.00    +0.048 A  ATOM     22  H   UNL     1      39.595  44.295  19.730 +0.10 -0.00    +0.166 HD BRANCH  19  23ATOM     23  O   UNL     1      41.425  49.198  16.339 -0.85 -0.00    -0.497 OA ATOM     24  C   UNL     1      40.816  49.356  15.065 -0.46 -0.07    +0.278 C  ENDBRANCH  19  23ENDBRANCH  11  13ENDBRANCH   6  11TORSDOF 6TERENDMDL