REMARK SMILES CCNC(=O)Nc1cccc(/C(=C\C=C/c2ccccc2)ONC)c1
REMARK SMILES IDX 12 1 11 2 7 3 8 4 25 5 9 6 10 7 6 8 3 9 4 10 5 12 2 14 1 15
REMARK SMILES IDX 13 16 14 17 15 18 16 19 17 20 21 21 18 22 20 23 19 24 22 25
REMARK SMILES IDX 23 26 24 27
REMARK H PARENT 3 11 6 13 23 28
ROOT
ATOM      1  C   UNL     1      -1.260  -1.098  -0.508  1.00  0.00     0.154 C 
ENDROOT
BRANCH   1   2
ATOM      2  C   UNL     1       0.077  -0.660  -0.955  1.00  0.00     0.021 A 
ATOM      3  C   UNL     1       2.362  -0.002  -0.417  1.00  0.00     0.043 A 
ATOM      4  C   UNL     1       2.616   0.177  -1.778  1.00  0.00     0.026 A 
ATOM      5  C   UNL     1       1.087  -0.417  -0.012  1.00  0.00     0.038 A 
ATOM      6  C   UNL     1       1.615  -0.061  -2.723  1.00  0.00     0.003 A 
ATOM      7  C   UNL     1       0.349  -0.477  -2.314  1.00  0.00     0.012 A 
BRANCH   3   8
ATOM      8  N   UNL     1       3.316   0.235   0.592  1.00  0.00    -0.308 N 
ATOM      9  N   UNL     1       5.243   0.777   1.656  1.00  0.00    -0.338 N 
ATOM     10  C   UNL     1       4.663   0.479   0.434  1.00  0.00     0.319 C 
ATOM     11  H   UNL     1       4.636   1.288   2.281  1.00  0.00     0.165 HD
ATOM     12  O   UNL     1       5.304   0.433  -0.605  1.00  0.00    -0.249 OA
ATOM     13  H   UNL     1       3.024   0.053   1.540  1.00  0.00     0.171 HD
BRANCH   9  14
ATOM     14  C   UNL     1       6.648   1.136   1.703  1.00  0.00     0.114 C 
ATOM     15  C   UNL     1       7.151   1.208   3.131  1.00  0.00     0.027 C 
ENDBRANCH   9  14
ENDBRANCH   3   8
ENDBRANCH   1   2
BRANCH   1  16
ATOM     16  C   UNL     1      -2.317  -0.277  -0.380  1.00  0.00     0.050 C 
BRANCH  16  17
ATOM     17  C   UNL     1      -2.362   1.138  -0.696  1.00  0.00     0.005 C 
BRANCH  17  18
ATOM     18  C   UNL     1      -3.427   1.944  -0.558  1.00  0.00     0.008 C 
BRANCH  18  19
ATOM     19  C   UNL     1      -4.748   1.543  -0.072  1.00  0.00    -0.026 A 
ATOM     20  C   UNL     1      -5.679   0.966  -0.946  1.00  0.00     0.008 A 
ATOM     21  C   UNL     1      -5.086   1.728   1.273  1.00  0.00     0.008 A 
ATOM     22  C   UNL     1      -6.937   0.584  -0.477  1.00  0.00     0.001 A 
ATOM     23  C   UNL     1      -6.345   1.344   1.739  1.00  0.00     0.001 A 
ATOM     24  C   UNL     1      -7.271   0.775   0.864  1.00  0.00     0.000 A 
ENDBRANCH  18  19
ENDBRANCH  17  18
ENDBRANCH  16  17
ENDBRANCH   1  16
BRANCH   1  25
ATOM     25  O   UNL     1      -1.365  -2.419  -0.075  1.00  0.00    -0.408 OA
BRANCH  25  26
ATOM     26  N   UNL     1      -1.068  -3.306  -1.195  1.00  0.00    -0.160 NA
ATOM     27  C   UNL     1      -0.098  -4.258  -0.669  1.00  0.00     0.148 C 
ATOM     28  H   UNL     1      -1.968  -3.768  -1.327  1.00  0.00     0.168 HD
ENDBRANCH  25  26
ENDBRANCH   1  25
TORSDOF 9
