REMARK SMILES NCCCCCCNc1cc(O)ccc1C(=O)c1c(F)cccc1F
REMARK SMILES IDX 6 1 5 2 4 3 3 4 2 5 1 6 7 9 8 10 9 12 10 13 15 14 11 15
REMARK SMILES IDX 14 16 13 17 16 18 17 19 18 20 19 21 24 22 21 23 23 24 22 25
REMARK SMILES IDX 20 26 25 27 12 28
REMARK H PARENT 1 7 1 8 8 11 12 29
ROOT
ATOM      1  C   UNL     1       1.996   0.746  -1.106  1.00  0.00     0.021 C 
ENDROOT
BRANCH   1   2
ATOM      2  C   UNL     1       3.518   0.624  -0.987  1.00  0.00     0.002 C 
BRANCH   2   3
ATOM      3  C   UNL     1       4.058   1.096   0.366  1.00  0.00     0.001 C 
BRANCH   3   4
ATOM      4  C   UNL     1       5.588   1.185   0.410  1.00  0.00     0.015 C 
BRANCH   4   5
ATOM      5  C   UNL     1       6.274  -0.174   0.275  1.00  0.00     0.077 C 
BRANCH   5   6
ATOM      6  N   UNL     1       7.719  -0.024   0.410  1.00  0.00    -0.330 NA
ATOM      7  H   UNL     1       7.941   0.359   1.328  1.00  0.00     0.118 HD
ATOM      8  H   UNL     1       8.160  -0.942   0.369  1.00  0.00     0.118 HD
ENDBRANCH   5   6
ENDBRANCH   4   5
ENDBRANCH   3   4
ENDBRANCH   2   3
ENDBRANCH   1   2
BRANCH   1   9
ATOM      9  C   UNL     1       1.235  -0.160  -0.134  1.00  0.00     0.113 C 
BRANCH   9  10
ATOM     10  N   UNL     1      -0.195  -0.074  -0.417  1.00  0.00    -0.384 N 
ATOM     11  H   UNL     1      -0.496   0.899  -0.573  1.00  0.00     0.160 HD
BRANCH  10  12
ATOM     12  C   UNL     1      -1.103  -0.697   0.465  1.00  0.00     0.049 A 
ATOM     13  C   UNL     1      -0.768  -1.864   1.169  1.00  0.00     0.072 A 
ATOM     14  C   UNL     1      -2.444  -0.248   0.551  1.00  0.00     0.046 A 
ATOM     15  C   UNL     1      -1.700  -2.510   1.980  1.00  0.00     0.117 A 
ATOM     16  C   UNL     1      -3.373  -0.900   1.384  1.00  0.00     0.018 A 
ATOM     17  C   UNL     1      -2.998  -2.033   2.102  1.00  0.00     0.047 A 
BRANCH  14  18
ATOM     18  C   UNL     1      -2.877   0.967  -0.199  1.00  0.00     0.201 C 
ATOM     19  O   UNL     1      -2.101   1.909  -0.347  1.00  0.00    -0.288 OA
BRANCH  18  20
ATOM     20  C   UNL     1      -4.225   1.057  -0.781  1.00  0.00     0.094 A 
ATOM     21  C   UNL     1      -4.990   2.205  -0.587  1.00  0.00     0.137 A 
ATOM     22  C   UNL     1      -4.742   0.024  -1.561  1.00  0.00     0.137 A 
ATOM     23  C   UNL     1      -6.260   2.318  -1.153  1.00  0.00     0.040 A 
ATOM     24  C   UNL     1      -6.010   0.128  -2.132  1.00  0.00     0.040 A 
ATOM     25  C   UNL     1      -6.773   1.278  -1.928  1.00  0.00     0.006 A 
ATOM     26  F   UNL     1      -4.544   3.211   0.179  1.00  0.00    -0.206 F 
ATOM     27  F   UNL     1      -4.032  -1.089  -1.788  1.00  0.00    -0.206 F 
ENDBRANCH  18  20
ENDBRANCH  14  18
BRANCH  15  28
ATOM     28  O   UNL     1      -1.291  -3.627   2.648  1.00  0.00    -0.508 OA
ATOM     29  H   UNL     1      -2.040  -3.984   3.153  1.00  0.00     0.293 HD
ENDBRANCH  15  28
ENDBRANCH  10  12
ENDBRANCH   9  10
ENDBRANCH   1   9
TORSDOF 11
