MODEL        6USER    Run = 6USERUSER    Estimated Free Energy of Binding    =  -8.35 kcal/mol  [=(1)+(2)+(3)-(4)]USERUSER    (1) Final Intermolecular Energy     = -10.74 kcal/molUSER        vdW + Hbond + desolv Energy     = -10.64 kcal/molUSER        Electrostatic Energy            =  -0.10 kcal/molUSER        Moving Ligand-Fixed Receptor    = -10.74 kcal/molUSER        Moving Ligand-Moving Receptor   =  +0.00 kcal/molUSER    (2) Final Total Internal Energy     =  -1.77 kcal/molUSER    (3) Torsional Free Energy           =  +2.39 kcal/molUSER    (4) Unbound System's Energy         =  -1.77 kcal/molUSERUSERREMARK SMILES COc1cc(OCc2ccccc2)ccc1C(=O)NCCc1ccccc1REMARK SMILES IDX 3 1 4 2 5 3 14 4 15 5 16 6 2 7 1 8 17 9 19 10 18 11 20 13REMARK SMILES IDX 21 14 22 15 23 16 27 17 24 18 26 19 25 20 6 21 7 22 8 23REMARK SMILES IDX 9 24 13 25 10 26 12 27 11 28REMARK H PARENT 19 12USER                              x       y       z     vdW  Elec       q    TypeUSER                           _______ _______ _______ _____ _____    ______ ____ROOTATOM      1  C   UNL     1      40.275  45.837  18.140 -0.38 -0.01    +0.135 A  ATOM      2  C   UNL     1      40.633  45.051  19.251 -0.37 +0.00    +0.093 A  ATOM      3  C   UNL     1      41.686  45.426  20.092 -0.28 +0.02    +0.123 A  ATOM      4  C   UNL     1      42.388  46.598  19.823 -0.41 +0.01    +0.047 A  ATOM      5  C   UNL     1      42.043  47.392  18.730 -0.52 +0.00    +0.021 A  ATOM      6  C   UNL     1      40.984  47.029  17.881 -0.46 -0.01    +0.082 A  ENDROOTBRANCH   1   7ATOM      7  O   UNL     1      39.253  45.504  17.284 -0.09 +0.08    -0.496 OA ATOM      8  C   UNL     1      37.957  45.290  17.833 -0.25 -0.06    +0.278 C  ENDBRANCH   1   7BRANCH   6   9ATOM      9  C   UNL     1      40.707  47.969  16.741 -0.40 -0.04    +0.255 C  ATOM     10  N   UNL     1      39.584  47.739  15.982 -0.22 +0.11    -0.352 N  ATOM     11  O   UNL     1      41.467  48.906  16.514 -1.01 -0.01    -0.269 OA ATOM     12  H   UNL     1      39.041  46.904  16.175 +0.11 -0.05    +0.163 HD BRANCH  10  13ATOM     13  C   UNL     1      39.250  48.545  14.824 -0.49 -0.05    +0.121 C  BRANCH  13  14ATOM     14  C   UNL     1      37.746  48.556  14.545 -0.56 -0.04    +0.057 C  BRANCH  14  15ATOM     15  C   UNL     1      37.337  47.418  13.643 -0.51 +0.02    -0.046 A  ATOM     16  C   UNL     1      36.600  47.673  12.478 -0.67 -0.00    +0.004 A  ATOM     17  C   UNL     1      37.662  46.095  13.967 -0.44 -0.00    +0.004 A  ATOM     18  C   UNL     1      36.203  46.624  11.650 -0.61 -0.00    +0.000 A  ATOM     19  C   UNL     1      37.263  45.046  13.137 -0.46 -0.00    +0.000 A  ATOM     20  C   UNL     1      36.535  45.311  11.979 -0.57 -0.00    +0.000 A  ENDBRANCH  14  15ENDBRANCH  13  14ENDBRANCH  10  13ENDBRANCH   6   9BRANCH   3  21ATOM     21  O   UNL     1      42.124  44.747  21.193 -0.08 -0.09    -0.489 OA BRANCH  21  22ATOM     22  C   UNL     1      41.473  45.007  22.434 -0.13 +0.02    +0.265 C  BRANCH  22  23ATOM     23  C   UNL     1      40.076  44.444  22.360 -0.24 -0.00    -0.011 A  ATOM     24  C   UNL     1      38.982  45.286  22.118 -0.33 +0.00    +0.007 A  ATOM     25  C   UNL     1      39.848  43.076  22.570 -0.26 +0.00    +0.007 A  ATOM     26  C   UNL     1      37.687  44.766  22.062 -0.35 +0.00    +0.000 A  ATOM     27  C   UNL     1      38.552  42.558  22.514 -0.31 +0.00    +0.000 A  ATOM     28  C   UNL     1      37.474  43.403  22.257 -0.39 +0.00    +0.000 A  ENDBRANCH  22  23ENDBRANCH  21  22ENDBRANCH   3  21TORSDOF 8TERENDMDL