REMARK SMILES Cc1cccc(F)c1N1Cc2c(C)nc(N3CC[C@H](N)C3)nc2[C@@H]1C#N
REMARK SMILES IDX 9 1 10 2 11 3 12 4 13 5 14 6 15 7 22 8 23 9 24 10 8 11 2 12
REMARK SMILES IDX 3 13 4 14 6 15 5 16 1 17 7 18 25 19 26 20 16 21 17 22 21 23
REMARK SMILES IDX 18 24 19 25 20 26
REMARK H PARENT 20 27 20 28
ROOT
ATOM      1  N   UNL     1      -2.411  -0.345   0.110  1.00  0.00    -0.344 N 
ATOM      2  C   UNL     1      -1.762  -0.766  -1.158  1.00  0.00     0.158 C 
ATOM      3  C   UNL     1      -0.309  -0.637  -0.885  1.00  0.00     0.018 A 
ATOM      4  C   UNL     1       0.783  -0.953  -1.640  1.00  0.00     0.048 A 
ATOM      5  C   UNL     1       0.656  -1.569  -2.997  1.00  0.00     0.067 C 
ATOM      6  N   UNL     1       2.031  -0.709  -1.181  1.00  0.00    -0.218 NA
ATOM      7  C   UNL     1       2.188  -0.138   0.034  1.00  0.00     0.225 A 
ATOM      8  N   UNL     1       1.154   0.208   0.819  1.00  0.00    -0.214 NA
ATOM      9  C   UNL     1      -0.069  -0.067   0.340  1.00  0.00     0.088 A 
ATOM     10  C   UNL     1      -1.376   0.256   1.031  1.00  0.00     0.237 C 
ENDROOT
BRANCH   1  11
ATOM     11  C   UNL     1      -3.551   0.465  -0.076  1.00  0.00     0.078 A 
ATOM     12  C   UNL     1      -4.809  -0.014   0.341  1.00  0.00    -0.025 A 
ATOM     13  C   UNL     1      -5.951   0.791   0.173  1.00  0.00     0.006 A 
ATOM     14  C   UNL     1      -5.859   2.055  -0.413  1.00  0.00     0.003 A 
ATOM     15  C   UNL     1      -3.492   1.744  -0.666  1.00  0.00     0.146 A 
ATOM     16  C   UNL     1      -4.624   2.533  -0.835  1.00  0.00     0.041 A 
ATOM     17  C   UNL     1      -4.950  -1.365   0.990  1.00  0.00     0.047 C 
ATOM     18  F   UNL     1      -2.309   2.229  -1.077  1.00  0.00    -0.205 F 
ENDBRANCH   1  11
BRANCH  10  19
ATOM     19  C   UNL     1      -1.446  -0.342   2.382  1.00  0.00     0.094 C 
ATOM     20  N   UNL     1      -1.524  -0.801   3.449  1.00  0.00    -0.196 NA
ENDBRANCH  10  19
BRANCH   7  21
ATOM     21  N   UNL     1       3.459   0.127   0.476  1.00  0.00    -0.339 N 
ATOM     22  C   UNL     1       3.705   0.294   1.902  1.00  0.00     0.121 C 
ATOM     23  C   UNL     1       4.593  -0.498  -0.197  1.00  0.00     0.138 C 
ATOM     24  C   UNL     1       5.129  -0.236   2.104  1.00  0.00     0.042 C 
ATOM     25  C   UNL     1       5.780  -0.134   0.723  1.00  0.00     0.072 C 
BRANCH  25  26
ATOM     26  N   UNL     1       6.283   1.225   0.464  1.00  0.00    -0.326 NA
ATOM     27  H   UNL     1       5.480   1.850   0.363  1.00  0.00     0.119 HD
ATOM     28  H   UNL     1       6.812   1.560   1.267  1.00  0.00     0.119 HD
ENDBRANCH  25  26
ENDBRANCH   7  21
TORSDOF 4
