REMARK SMILES CNC1=C(NCc2ccncc2)C(Nc2cccc(OC)c2)=NC1=O
REMARK SMILES IDX 3 1 4 2 13 3 14 4 23 5 24 6 25 7 2 9 1 10 5 12 6 14 7 15
REMARK SMILES IDX 8 16 12 17 9 18 11 19 10 20 15 21 16 22 22 23 17 24 19 25
REMARK SMILES IDX 18 26 20 27 21 28
REMARK H PARENT 14 8 2 11 5 13
ROOT
ATOM      1  C   UNL     1      -0.766   3.068   0.688  1.00  0.00     0.129 C 
ATOM      2  C   UNL     1      -0.596   1.825   0.227  1.00  0.00     0.107 C 
ATOM      3  C   UNL     1       0.743   1.393   0.744  1.00  0.00     0.160 C 
ATOM      4  N   UNL     1       1.282   0.190   0.353  1.00  0.00    -0.338 N 
ATOM      5  N   UNL     1       1.273   2.282   1.528  1.00  0.00    -0.188 NA
ATOM      6  C   UNL     1       0.420   3.348   1.561  1.00  0.00     0.297 C 
ATOM      7  O   UNL     1       0.565   4.397   2.171  1.00  0.00    -0.265 OA
ATOM      8  H   UNL     1       0.824  -0.223  -0.451  1.00  0.00     0.168 HD
ENDROOT
BRANCH   1   9
ATOM      9  N   UNL     1      -1.780   4.005   0.543  1.00  0.00    -0.382 N 
ATOM     10  C   UNL     1      -2.547   4.207  -0.666  1.00  0.00     0.140 C 
ATOM     11  H   UNL     1      -1.491   4.885   0.986  1.00  0.00     0.160 HD
ENDBRANCH   1   9
BRANCH   2  12
ATOM     12  N   UNL     1      -1.401   1.016  -0.564  1.00  0.00    -0.376 N 
ATOM     13  H   UNL     1      -2.190   1.577  -0.886  1.00  0.00     0.161 HD
BRANCH  12  14
ATOM     14  C   UNL     1      -1.943  -0.234  -0.020  1.00  0.00     0.149 C 
BRANCH  14  15
ATOM     15  C   UNL     1      -2.912  -0.831  -1.009  1.00  0.00    -0.026 A 
ATOM     16  C   UNL     1      -2.502  -1.161  -2.306  1.00  0.00     0.025 A 
ATOM     17  C   UNL     1      -4.239  -1.081  -0.650  1.00  0.00     0.025 A 
ATOM     18  C   UNL     1      -3.427  -1.712  -3.178  1.00  0.00     0.111 A 
ATOM     19  C   UNL     1      -5.090  -1.638  -1.593  1.00  0.00     0.111 A 
ATOM     20  N   UNL     1      -4.712  -1.957  -2.849  1.00  0.00    -0.265 NA
ENDBRANCH  14  15
ENDBRANCH  12  14
ENDBRANCH   2  12
BRANCH   4  21
ATOM     21  C   UNL     1       2.513  -0.401   0.693  1.00  0.00     0.043 A 
ATOM     22  C   UNL     1       3.357   0.083   1.696  1.00  0.00     0.026 A 
ATOM     23  C   UNL     1       2.894  -1.582   0.023  1.00  0.00     0.072 A 
ATOM     24  C   UNL     1       4.554  -0.568   2.007  1.00  0.00     0.006 A 
ATOM     25  C   UNL     1       4.090  -2.240   0.327  1.00  0.00     0.120 A 
ATOM     26  C   UNL     1       4.917  -1.724   1.322  1.00  0.00     0.046 A 
BRANCH  25  27
ATOM     27  O   UNL     1       4.555  -3.383  -0.264  1.00  0.00    -0.497 OA
ATOM     28  C   UNL     1       3.760  -3.949  -1.297  1.00  0.00     0.278 C 
ENDBRANCH  25  27
ENDBRANCH   4  21
TORSDOF 6
