REMARK SMILES OC[C@@H]1CCC[C@@H]2c3ccc(O)cc3Oc3cc(O)cc(O)c3N12
REMARK SMILES IDX 3 1 4 2 5 3 6 4 7 5 8 6 9 7 10 8 11 9 13 10 14 11 15 12
REMARK SMILES IDX 16 13 17 14 18 15 20 16 21 17 23 18 24 19 2 20 1 21 22 23
REMARK SMILES IDX 19 25 12 27
REMARK H PARENT 1 22 22 24 19 26 12 28
ROOT
ATOM      1  C   UNL     1      -2.255  -0.860   0.068  1.00  0.00     0.108 C 
ATOM      2  C   UNL     1      -2.285  -2.374   0.354  1.00  0.00     0.027 C 
ATOM      3  C   UNL     1      -1.320  -3.126  -0.542  1.00  0.00     0.005 C 
ATOM      4  C   UNL     1       0.084  -2.591  -0.333  1.00  0.00     0.030 C 
ATOM      5  C   UNL     1       0.178  -1.075  -0.618  1.00  0.00     0.117 C 
ATOM      6  C   UNL     1       1.640  -0.671  -0.354  1.00  0.00     0.017 A 
ATOM      7  C   UNL     1       2.636  -1.169  -1.223  1.00  0.00     0.013 A 
ATOM      8  C   UNL     1       3.995  -0.929  -0.992  1.00  0.00     0.047 A 
ATOM      9  C   UNL     1       4.377  -0.184   0.115  1.00  0.00     0.119 A 
ATOM     10  C   UNL     1       3.425   0.344   0.974  1.00  0.00     0.093 A 
ATOM     11  C   UNL     1       2.066   0.125   0.724  1.00  0.00     0.136 A 
ATOM     12  O   UNL     1       1.193   0.780   1.566  1.00  0.00    -0.454 OA
ATOM     13  C   UNL     1       0.346   1.616   0.866  1.00  0.00     0.158 A 
ATOM     14  C   UNL     1       0.571   2.992   0.944  1.00  0.00     0.095 A 
ATOM     15  C   UNL     1      -0.213   3.834   0.171  1.00  0.00     0.123 A 
ATOM     16  C   UNL     1      -1.192   3.320  -0.673  1.00  0.00     0.094 A 
ATOM     17  C   UNL     1      -1.414   1.938  -0.724  1.00  0.00     0.146 A 
ATOM     18  C   UNL     1      -0.679   1.050   0.082  1.00  0.00     0.124 A 
ATOM     19  N   UNL     1      -0.856  -0.354   0.174  1.00  0.00    -0.353 N 
ENDROOT
BRANCH   1  20
ATOM     20  C   UNL     1      -3.202  -0.162   1.086  1.00  0.00     0.181 C 
BRANCH  20  21
ATOM     21  O   UNL     1      -4.517  -0.724   1.091  1.00  0.00    -0.394 OA
ATOM     22  H   UNL     1      -4.492  -1.496   1.682  1.00  0.00     0.210 HD
ENDBRANCH  20  21
ENDBRANCH   1  20
BRANCH  17  23
ATOM     23  O   UNL     1      -2.349   1.462  -1.606  1.00  0.00    -0.505 OA
ATOM     24  H   UNL     1      -2.789   2.214  -2.034  1.00  0.00     0.293 HD
ENDBRANCH  17  23
BRANCH  15  25
ATOM     25  O   UNL     1      -0.038   5.186   0.190  1.00  0.00    -0.508 OA
ATOM     26  H   UNL     1       0.673   5.398   0.818  1.00  0.00     0.293 HD
ENDBRANCH  15  25
BRANCH   9  27
ATOM     27  O   UNL     1       5.690   0.067   0.386  1.00  0.00    -0.508 OA
ATOM     28  H   UNL     1       6.235  -0.367  -0.290  1.00  0.00     0.293 HD
ENDBRANCH   9  27
TORSDOF 5
