MODEL        7USER    Run = 7USERUSER    Estimated Free Energy of Binding    =  -8.35 kcal/mol  [=(1)+(2)+(3)-(4)]USERUSER    (1) Final Intermolecular Energy     =  -9.55 kcal/molUSER        vdW + Hbond + desolv Energy     =  -9.52 kcal/molUSER        Electrostatic Energy            =  -0.03 kcal/molUSER        Moving Ligand-Fixed Receptor    =  -9.55 kcal/molUSER        Moving Ligand-Moving Receptor   =  +0.00 kcal/molUSER    (2) Final Total Internal Energy     =  -1.08 kcal/molUSER    (3) Torsional Free Energy           =  +1.19 kcal/molUSER    (4) Unbound System's Energy         =  -1.08 kcal/molUSERUSERREMARK SMILES Cc1cccc(F)c1N1Cc2c(C)nc(N3CC[C@H](N)C3)nc2[C@@H]1C#NREMARK SMILES IDX 9 1 10 2 11 3 12 4 13 5 14 6 15 7 22 8 23 9 24 10 8 11 2 12REMARK SMILES IDX 3 13 4 14 6 15 5 16 1 17 7 18 25 19 26 20 16 21 17 22 21 23REMARK SMILES IDX 18 24 19 25 20 26REMARK H PARENT 20 27 20 28USER                              x       y       z     vdW  Elec       q    TypeUSER                           _______ _______ _______ _____ _____    ______ ____ROOTATOM      1  N   UNL     1      37.639  46.628  16.013 -0.15 +0.17    -0.344 N  ATOM      2  C   UNL     1      36.775  45.878  16.961 -0.31 -0.08    +0.158 C  ATOM      3  C   UNL     1      37.705  45.433  18.028 -0.35 -0.00    +0.018 A  ATOM      4  C   UNL     1      37.482  44.774  19.203 -0.30 -0.01    +0.048 A  ATOM      5  C   UNL     1      36.107  44.385  19.644 -0.39 -0.01    +0.067 C  ATOM      6  N   UNL     1      38.513  44.442  20.012 -0.23 +0.01    -0.218 NA ATOM      7  C   UNL     1      39.773  44.762  19.641 -0.25 -0.00    +0.225 A  ATOM      8  N   UNL     1      40.059  45.398  18.493 -0.29 +0.01    -0.214 NA ATOM      9  C   UNL     1      39.010  45.729  17.724 -0.36 -0.02    +0.088 A  ATOM     10  C   UNL     1      39.089  46.421  16.381 -0.32 -0.06    +0.237 C  ENDROOTBRANCH   1  11ATOM     11  C   UNL     1      37.350  46.372  14.656 -0.35 -0.04    +0.078 A  ATOM     12  C   UNL     1      37.218  47.456  13.766 -0.52 +0.01    -0.025 A  ATOM     13  C   UNL     1      36.944  47.212  12.407 -0.66 -0.00    +0.006 A  ATOM     14  C   UNL     1      36.788  45.909  11.929 -0.62 -0.00    +0.003 A  ATOM     15  C   UNL     1      37.185  45.069  14.142 -0.29 -0.05    +0.146 A  ATOM     16  C   UNL     1      36.909  44.833  12.801 -0.46 -0.01    +0.041 A  ATOM     17  C   UNL     1      37.392  48.875  14.238 -0.54 -0.03    +0.047 C  ATOM     18  F   UNL     1      37.302  44.014  14.965 -0.01 +0.06    -0.205 F  ENDBRANCH   1  11BRANCH  10  19ATOM     19  C   UNL     1      39.811  47.709  16.468 -0.50 -0.03    +0.094 C  ATOM     20  N   UNL     1      40.398  48.713  16.520 -0.40 +0.05    -0.196 NA ENDBRANCH  10  19BRANCH   7  21ATOM     21  N   UNL     1      40.811  44.396  20.460 -0.15 -0.02    -0.339 N  ATOM     22  C   UNL     1      41.954  45.287  20.614 -0.27 +0.02    +0.121 C  ATOM     23  C   UNL     1      40.526  43.666  21.691 -0.23 +0.01    +0.138 C  ATOM     24  C   UNL     1      42.430  45.044  22.051 -0.26 +0.01    +0.042 C  ATOM     25  C   UNL     1      41.896  43.654  22.406 -0.30 +0.00    +0.072 C  BRANCH  25  26ATOM     26  N   UNL     1      42.777  42.592  21.896 -0.03 +0.01    -0.326 NA ATOM     27  H   UNL     1      42.625  41.752  22.458 -0.56 -0.03    +0.119 HD ATOM     28  H   UNL     1      42.517  42.352  20.941 -0.41 -0.01    +0.119 HD ENDBRANCH  25  26ENDBRANCH   7  21TORSDOF 4TERENDMDL