MODEL        2USER    Run = 2USERUSER    Estimated Free Energy of Binding    = -10.00 kcal/mol  [=(1)+(2)+(3)-(4)]USERUSER    (1) Final Intermolecular Energy     = -12.38 kcal/molUSER        vdW + Hbond + desolv Energy     = -12.37 kcal/molUSER        Electrostatic Energy            =  -0.02 kcal/molUSER        Moving Ligand-Fixed Receptor    = -12.38 kcal/molUSER        Moving Ligand-Moving Receptor   =  +0.00 kcal/molUSER    (2) Final Total Internal Energy     =  -1.23 kcal/molUSER    (3) Torsional Free Energy           =  +2.39 kcal/molUSER    (4) Unbound System's Energy         =  -1.23 kcal/molUSERUSERREMARK SMILES Cc1c(F)cccc1CO[C@@H]1CNCCN1C(=O)C1=CN=C(/C=C/c2ccccc2)NC1REMARK SMILES IDX 11 1 12 2 13 3 14 4 15 5 16 6 10 8 9 9 8 10 2 11 3 12 5 13REMARK SMILES IDX 7 14 6 15 1 16 4 17 17 18 18 19 19 20 20 21 32 22 21 23REMARK SMILES IDX 31 24 22 25 23 27 24 28 25 29 26 30 30 31 27 32 29 33 28 34REMARK H PARENT 13 7 31 26USER                              x       y       z     vdW  Elec       q    TypeUSER                           _______ _______ _______ _____ _____    ______ ____ROOTATOM      1  C   UNL     1      36.644  43.998  17.982 -0.21 -0.05    +0.231 C  ATOM      2  C   UNL     1      35.727  42.993  17.207 -0.33 -0.04    +0.136 C  ATOM      3  N   UNL     1      35.344  41.798  17.980 -0.36 +0.10    -0.311 NA ATOM      4  C   UNL     1      34.650  42.179  19.226 -0.38 -0.01    +0.102 C  ATOM      5  C   UNL     1      35.026  43.572  19.780 -0.38 -0.01    +0.138 C  ATOM      6  N   UNL     1      36.400  43.929  19.422 -0.17 +0.04    -0.310 N  ATOM      7  H   UNL     1      34.745  41.192  17.420 -0.46 -0.07    +0.122 HD ENDROOTBRANCH   1   8ATOM      8  O   UNL     1      36.302  45.308  17.528 -0.15 +0.14    -0.352 OA BRANCH   8   9ATOM      9  C   UNL     1      36.749  45.573  16.203 -0.27 -0.10    +0.199 C  BRANCH   9  10ATOM     10  C   UNL     1      38.031  46.370  16.296 -0.38 +0.01    -0.016 A  ATOM     11  C   UNL     1      38.392  47.317  15.312 -0.45 +0.00    -0.010 A  ATOM     12  C   UNL     1      39.601  48.009  15.456 -0.44 -0.04    +0.126 A  ATOM     13  C   UNL     1      40.448  47.784  16.537 -0.51 -0.01    +0.039 A  ATOM     14  C   UNL     1      38.899  46.142  17.381 -0.41 -0.00    +0.006 A  ATOM     15  C   UNL     1      40.097  46.847  17.502 -0.49 -0.00    +0.003 A  ATOM     16  C   UNL     1      37.522  47.585  14.118 -0.55 -0.02    +0.048 C  ATOM     17  F   UNL     1      39.969  48.917  14.538 -0.15 +0.08    -0.207 F  ENDBRANCH   9  10ENDBRANCH   8   9ENDBRANCH   1   8BRANCH   6  18ATOM     18  C   UNL     1      37.478  44.007  20.277 -0.26 -0.01    +0.255 C  ATOM     19  O   UNL     1      38.556  44.512  19.966 -0.24 +0.01    -0.269 OA BRANCH  18  20ATOM     20  C   UNL     1      37.313  43.509  21.653 -0.42 +0.00    +0.055 C  ATOM     21  C   UNL     1      37.014  42.227  21.892 -0.47 +0.01    +0.124 C  ATOM     22  C   UNL     1      37.607  44.455  22.754 -0.30 +0.02    +0.157 C  ATOM     23  N   UNL     1      36.890  41.698  23.151 -0.34 -0.01    -0.239 NA ATOM     24  N   UNL     1      37.175  43.887  24.019 -0.14 -0.04    -0.366 N  ATOM     25  C   UNL     1      36.976  42.528  24.159 -0.38 +0.01    +0.126 C  ATOM     26  H   UNL     1      37.535  44.375  24.829 +0.09 +0.01    +0.162 HD BRANCH  25  27ATOM     27  C   UNL     1      36.840  41.887  25.504 -0.40 -0.01    +0.047 C  BRANCH  27  28ATOM     28  C   UNL     1      35.748  41.998  26.275 -0.55 -0.00    +0.012 C  BRANCH  28  29ATOM     29  C   UNL     1      35.512  43.132  27.178 -0.51 +0.01    -0.026 A  ATOM     30  C   UNL     1      34.346  43.242  27.949 -0.47 -0.00    +0.008 A  ATOM     31  C   UNL     1      36.458  44.164  27.233 -0.42 -0.00    +0.008 A  ATOM     32  C   UNL     1      34.143  44.350  28.777 -0.63 -0.00    +0.001 A  ATOM     33  C   UNL     1      36.256  45.270  28.063 -0.41 -0.00    +0.001 A  ATOM     34  C   UNL     1      35.099  45.362  28.835 -0.41 -0.00    +0.000 A  ENDBRANCH  28  29ENDBRANCH  27  28ENDBRANCH  25  27ENDBRANCH  18  20ENDBRANCH   6  18TORSDOF 8TERENDMDL