MODEL        4USER    Run = 4USERUSER    Estimated Free Energy of Binding    =  -7.75 kcal/mol  [=(1)+(2)+(3)-(4)]USERUSER    (1) Final Intermolecular Energy     = -11.92 kcal/molUSER        vdW + Hbond + desolv Energy     = -12.58 kcal/molUSER        Electrostatic Energy            =  -0.23 kcal/molUSER        Moving Ligand-Fixed Receptor    = -12.81 kcal/molUSER        Moving Ligand-Moving Receptor   =  +0.89 kcal/molUSER    (2) Final Total Internal Energy     =  -2.10 kcal/molUSER    (3) Torsional Free Energy           =  +4.18 kcal/molUSER    (4) Unbound System's Energy         =  -2.10 kcal/molUSERUSERREMARK SMILES COc1ccc(O)c(C(=O)c2ccc(C(=O)N[C@@H]3CCCNC[C@H]3NC(=O)c3cncc(F)c3)cc2)c1FREMARK SMILES IDX 15 1 16 2 17 3 14 5 11 6 12 7 36 8 13 9 35 10 9 11 10 12REMARK SMILES IDX 8 13 3 14 4 15 37 16 5 17 6 18 38 19 2 20 1 21 7 22 18 24REMARK SMILES IDX 19 25 24 27 23 28 22 29 21 31 20 32 25 34 26 35 27 37 28 38REMARK SMILES IDX 29 39 34 40 30 41 32 42 31 43 33 44REMARK H PARENT 17 4 7 23 22 30 25 36REMARK Flexibility Score:   88.900USER                              x       y       z     vdW  Elec       q    TypeUSER                           _______ _______ _______ _____ _____    ______ ____ROOTATOM      1  C   UNL     1      38.742  44.611  19.792 -0.26 -0.01    +0.251 C  ATOM      2  O   UNL     1      38.644  43.601  19.109 -0.04 +0.01    -0.269 OA ATOM      3  N   UNL     1      39.263  45.809  19.346 -0.19 +0.02    -0.347 N  ATOM      4  H   UNL     1      39.588  46.431  20.073 +0.08 -0.00    +0.164 HD ENDROOTBRANCH   1   5ATOM      5  C   UNL     1      38.299  44.592  21.210 -0.34 +0.00    +0.039 A  ATOM      6  C   UNL     1      37.537  44.583  23.905 -0.30 +0.00    +0.023 A  ATOM      7  C   UNL     1      38.454  45.535  23.440 -0.31 +0.00    +0.013 A  ATOM      8  C   UNL     1      36.984  43.652  23.014 -0.33 +0.00    +0.013 A  ATOM      9  C   UNL     1      38.845  45.528  22.098 -0.33 +0.00    +0.014 A  ATOM     10  C   UNL     1      37.370  43.648  21.671 -0.38 +0.00    +0.014 A  BRANCH   6  11ATOM     11  C   UNL     1      37.071  44.567  25.311 -0.26 +0.01    +0.199 C  ATOM     12  O   UNL     1      36.781  45.636  25.849 -0.46 +0.02    -0.288 OA BRANCH  11  13ATOM     13  C   UNL     1      36.980  43.334  26.127 -0.28 -0.01    +0.104 A  ATOM     14  C   UNL     1      37.942  41.270  27.003 -0.33 -0.02    +0.155 A  ATOM     15  C   UNL     1      36.760  41.019  27.702 -0.50 -0.02    +0.053 A  ATOM     16  C   UNL     1      38.036  42.425  26.211 -0.20 -0.01    +0.179 A  ATOM     17  C   UNL     1      35.684  41.903  27.598 -0.52 -0.02    +0.051 A  ATOM     18  C   UNL     1      35.791  43.044  26.807 -0.38 -0.02    +0.130 A  ATOM     19  F   UNL     1      39.163  42.635  25.511 -0.04 -0.00    -0.202 F  BRANCH  14  20ATOM     20  O   UNL     1      39.060  40.478  27.020 -0.17 +0.01    -0.494 OA ATOM     21  C   UNL     1      40.153  40.913  27.819 -0.18 -0.02    +0.278 C  ENDBRANCH  14  20BRANCH  18  22ATOM     22  O   UNL     1      34.681  43.844  26.739 -0.13 +0.08    -0.507 OA ATOM     23  H   UNL     1      34.984  44.763  26.558 -0.15 -0.15    +0.293 HD ENDBRANCH  18  22ENDBRANCH  11  13ENDBRANCH   6  11ENDBRANCH   1   5BRANCH   3  24ATOM     24  C   UNL     1      39.939  45.931  18.042 -0.44 -0.01    +0.106 C  BRANCH  24  25ATOM     25  C   UNL     1      41.410  45.495  18.188 -0.49 +0.00    +0.028 CG0ATOM     26  G   UNL     1      42.360  46.354  19.029 +0.00 +0.00    +0.000 G0 ENDBRANCH  24  25BRANCH  24  27ATOM     27  C   UNL     1      39.753  47.306  17.332 -0.39 -0.03    +0.118 C  BRANCH  27  28ATOM     28  C   UNL     1      41.082  47.921  16.842 -0.49 -0.01    +0.108 C  BRANCH  28  29ATOM     29  N   UNL     1      41.906  48.522  17.907 -0.42 -0.01    -0.315 NA ATOM     30  H   UNL     1      41.278  48.735  18.685 +0.21 -0.00    +0.122 HD BRANCH  29  31ATOM     31  C   UNL     1      42.943  47.612  18.396 -0.20 +0.00    +0.081 C  BRANCH  31  32ATOM     32  C   UNL     1      42.360  46.350  19.025 -0.43 +0.00    +0.017 CG0ATOM     33  G   UNL     1      41.414  45.494  18.176 +0.00 +0.00    +0.000 G0 ENDBRANCH  31  32ENDBRANCH  29  31ENDBRANCH  28  29ENDBRANCH  27  28BRANCH  27  34ATOM     34  N   UNL     1      38.820  47.234  16.197 -0.19 +0.13    -0.346 N  ATOM     35  C   UNL     1      39.090  46.533  15.047 -0.31 -0.06    +0.253 C  ATOM     36  H   UNL     1      37.983  47.795  16.306 +0.11 -0.11    +0.164 HD ATOM     37  O   UNL     1      40.103  45.865  14.889 -0.32 +0.02    -0.269 OA BRANCH  35  38ATOM     38  C   UNL     1      38.083  46.611  13.963 -0.41 -0.02    +0.061 A  ATOM     39  C   UNL     1      37.581  47.864  13.618 -0.44 -0.05    +0.125 A  ATOM     40  C   UNL     1      37.588  45.496  13.283 -0.34 -0.02    +0.056 A  ATOM     41  N   UNL     1      36.655  48.072  12.645 -0.89 +0.10    -0.261 NA ATOM     42  C   UNL     1      36.639  45.688  12.290 -0.48 -0.05    +0.142 A  ATOM     43  C   UNL     1      36.204  46.970  12.001 -0.55 -0.07    +0.150 A  ATOM     44  F   UNL     1      36.149  44.637  11.621 -0.10 +0.07    -0.205 F  ENDBRANCH  35  38ENDBRANCH  27  34ENDBRANCH  24  27ENDBRANCH   3  24TORSDOF 8TERENDMDL