REMARK SMILES Nc1ccc(-c2nc3ccc(F)cc3nc2-c2ccc(CN3CCC(n4c(O)nc5ccccc54)CC3)cc2)cc1
REMARK SMILES IDX 17 1 18 2 19 3 20 4 38 5 39 6 16 7 6 8 7 9 8 10 15 11 9 12
REMARK SMILES IDX 14 13 10 14 13 15 11 16 12 17 5 18 2 19 3 20 41 21 4 22
REMARK SMILES IDX 40 23 1 24 21 27 22 28 23 29 37 30 24 31 36 32 25 33 26 34
REMARK SMILES IDX 27 35 35 36 29 37 34 38 30 39 33 40 31 41 32 42 28 43
REMARK H PARENT 1 25 1 26 28 44
ROOT
ATOM      1  C   UNL     1      -2.578  -0.464   0.117  1.00  0.00     0.002 A 
ATOM      2  C   UNL     1      -2.052   0.827   0.284  1.00  0.00     0.011 A 
ATOM      3  C   UNL     1      -0.880   1.044   1.018  1.00  0.00     0.006 A 
ATOM      4  C   UNL     1      -0.187  -0.029   1.592  1.00  0.00    -0.034 A 
ATOM      5  C   UNL     1      -0.696  -1.322   1.421  1.00  0.00     0.006 A 
ATOM      6  C   UNL     1      -1.869  -1.534   0.690  1.00  0.00     0.011 A 
ENDROOT
BRANCH   1   7
ATOM      7  C   UNL     1      -3.814  -0.714  -0.648  1.00  0.00     0.097 A 
ATOM      8  C   UNL     1      -5.032  -0.040  -0.465  1.00  0.00     0.097 A 
ATOM      9  N   UNL     1      -6.105  -0.295  -1.269  1.00  0.00    -0.244 NA
ATOM     10  C   UNL     1      -5.964  -1.233  -2.219  1.00  0.00     0.090 A 
ATOM     11  N   UNL     1      -3.682  -1.676  -1.606  1.00  0.00    -0.244 NA
ATOM     12  C   UNL     1      -7.037  -1.529  -3.051  1.00  0.00     0.033 A 
ATOM     13  C   UNL     1      -4.745  -1.932  -2.387  1.00  0.00     0.092 A 
ATOM     14  C   UNL     1      -6.930  -2.499  -4.046  1.00  0.00     0.041 A 
ATOM     15  C   UNL     1      -4.646  -2.896  -3.378  1.00  0.00     0.069 A 
ATOM     16  C   UNL     1      -5.730  -3.175  -4.199  1.00  0.00     0.125 A 
ATOM     17  F   UNL     1      -5.615  -4.110  -5.151  1.00  0.00    -0.207 F 
BRANCH   8  18
ATOM     18  C   UNL     1      -5.302   0.962   0.582  1.00  0.00     0.003 A 
ATOM     19  C   UNL     1      -5.871   2.907   2.570  1.00  0.00     0.031 A 
ATOM     20  C   UNL     1      -5.312   1.677   2.916  1.00  0.00     0.026 A 
ATOM     21  C   UNL     1      -6.080   3.187   1.220  1.00  0.00     0.026 A 
ATOM     22  C   UNL     1      -5.056   0.706   1.940  1.00  0.00     0.012 A 
ATOM     23  C   UNL     1      -5.825   2.220   0.242  1.00  0.00     0.012 A 
BRANCH  19  24
ATOM     24  N   UNL     1      -6.011   3.915   3.530  1.00  0.00    -0.399 N 
ATOM     25  H   UNL     1      -6.693   4.625   3.281  1.00  0.00     0.156 HD
ATOM     26  H   UNL     1      -6.150   3.565   4.473  1.00  0.00     0.156 HD
ENDBRANCH  19  24
ENDBRANCH   8  18
ENDBRANCH   1   7
BRANCH   4  27
ATOM     27  C   UNL     1       1.084   0.206   2.382  1.00  0.00     0.120 C 
BRANCH  27  28
ATOM     28  N   UNL     1       2.350   0.178   1.631  1.00  0.00    -0.299 NA
ATOM     29  C   UNL     1       2.655  -1.136   1.060  1.00  0.00     0.087 C 
ATOM     30  C   UNL     1       2.455   1.248   0.635  1.00  0.00     0.087 C 
ATOM     31  C   UNL     1       4.085  -1.165   0.521  1.00  0.00     0.041 C 
ATOM     32  C   UNL     1       3.876   1.320   0.078  1.00  0.00     0.041 C 
ATOM     33  C   UNL     1       4.301  -0.038  -0.494  1.00  0.00     0.095 C 
BRANCH  33  34
ATOM     34  N   UNL     1       5.650  -0.022  -1.043  1.00  0.00    -0.291 N 
ATOM     35  C   UNL     1       5.958  -0.236  -2.359  1.00  0.00     0.295 A 
ATOM     36  C   UNL     1       6.842   0.205  -0.387  1.00  0.00     0.072 A 
ATOM     37  N   UNL     1       7.235  -0.164  -2.612  1.00  0.00    -0.195 NA
ATOM     38  C   UNL     1       7.183   0.477   0.946  1.00  0.00     0.029 A 
ATOM     39  C   UNL     1       7.806   0.112  -1.394  1.00  0.00     0.092 A 
ATOM     40  C   UNL     1       8.540   0.657   1.241  1.00  0.00     0.002 A 
ATOM     41  C   UNL     1       9.161   0.297  -1.077  1.00  0.00     0.031 A 
ATOM     42  C   UNL     1       9.515   0.570   0.249  1.00  0.00     0.002 A 
BRANCH  35  43
ATOM     43  O   UNL     1       5.079  -0.494  -3.305  1.00  0.00    -0.480 OA
ATOM     44  H   UNL     1       5.659  -0.587  -4.082  1.00  0.00     0.296 HD
ENDBRANCH  35  43
ENDBRANCH  33  34
ENDBRANCH  27  28
ENDBRANCH   4  27
TORSDOF 7
