MODEL        2USER    Run = 2USERUSER    Estimated Free Energy of Binding    = -13.10 kcal/mol  [=(1)+(2)+(3)-(4)]USERUSER    (1) Final Intermolecular Energy     = -15.19 kcal/molUSER        vdW + Hbond + desolv Energy     = -15.00 kcal/molUSER        Electrostatic Energy            =  -0.19 kcal/molUSER        Moving Ligand-Fixed Receptor    = -15.19 kcal/molUSER        Moving Ligand-Moving Receptor   =  +0.00 kcal/molUSER    (2) Final Total Internal Energy     =  -2.43 kcal/molUSER    (3) Torsional Free Energy           =  +2.09 kcal/molUSER    (4) Unbound System's Energy         =  -2.43 kcal/molUSERUSERREMARK SMILES Oc1ccc(-c2nc3ccc(F)cc3nc2-c2ccc(CN3CCC(n4c(O)nc5ccccc54)CC3)cc2)cc1REMARK SMILES IDX 17 1 18 2 19 3 20 4 38 5 39 6 16 7 6 8 7 9 8 10 15 11 9 12REMARK SMILES IDX 14 13 10 14 13 15 11 16 12 17 5 18 2 19 3 20 41 21 4 22REMARK SMILES IDX 40 23 1 24 21 26 22 27 23 28 37 29 24 30 36 31 25 32 26 33REMARK SMILES IDX 27 34 35 35 29 36 34 37 30 38 33 39 31 40 32 41 28 42REMARK H PARENT 1 25 28 43USER                              x       y       z     vdW  Elec       q    TypeUSER                           _______ _______ _______ _____ _____    ______ ____ROOTATOM      1  C   UNL     1      35.695  44.535  17.540 -0.31 -0.00    +0.002 A  ATOM      2  C   UNL     1      35.673  43.847  16.314 -0.37 -0.00    +0.011 A  ATOM      3  C   UNL     1      35.592  44.531  15.097 -0.24 -0.00    +0.006 A  ATOM      4  C   UNL     1      35.525  45.928  15.073 -0.35 +0.03    -0.034 A  ATOM      5  C   UNL     1      35.525  46.624  16.289 -0.25 -0.01    +0.006 A  ATOM      6  C   UNL     1      35.601  45.937  17.505 -0.36 -0.01    +0.011 A  ENDROOTBRANCH   1   7ATOM      7  C   UNL     1      35.792  43.788  18.808 -0.29 -0.02    +0.097 A  ATOM      8  C   UNL     1      34.908  42.782  19.229 -0.34 -0.01    +0.097 A  ATOM      9  N   UNL     1      35.121  42.103  20.394 -0.31 -0.01    -0.244 NA ATOM     10  C   UNL     1      36.179  42.458  21.141 -0.42 +0.00    +0.090 A  ATOM     11  N   UNL     1      36.860  44.151  19.576 -0.22 +0.02    -0.244 NA ATOM     12  C   UNL     1      36.418  41.803  22.343 -0.50 +0.00    +0.033 A  ATOM     13  C   UNL     1      37.052  43.494  20.732 -0.34 -0.00    +0.092 A  ATOM     14  C   UNL     1      37.499  42.153  23.152 -0.39 +0.00    +0.041 A  ATOM     15  C   UNL     1      38.126  43.836  21.541 -0.31 +0.00    +0.069 A  ATOM     16  C   UNL     1      38.344  43.172  22.740 -0.25 +0.01    +0.125 A  ATOM     17  F   UNL     1      39.383  43.519  23.510 -0.03 -0.01    -0.207 F  BRANCH   8  18ATOM     18  C   UNL     1      33.675  42.374  18.526 -0.39 -0.00    +0.003 A  ATOM     19  C   UNL     1      31.332  41.641  17.152 -0.22 -0.04    +0.115 A  ATOM     20  C   UNL     1      31.592  42.985  17.393 -0.27 -0.01    +0.047 A  ATOM     21  C   UNL     1      32.219  40.660  17.573 -0.29 -0.01    +0.047 A  ATOM     22  C   UNL     1      32.760  43.345  18.074 -0.32 -0.00    +0.014 A  ATOM     23  C   UNL     1      33.387  41.024  18.248 -0.20 -0.00    +0.014 A  BRANCH  19  24ATOM     24  O   UNL     1      30.209  41.242  16.491 -0.10 +0.15    -0.508 OA ATOM     25  H   UNL     1      30.468  40.882  15.629 -0.08 -0.13    +0.293 HD ENDBRANCH  19  24ENDBRANCH   8  18ENDBRANCH   1   7BRANCH   4  26ATOM     26  C   UNL     1      35.436  46.675  13.759 -0.44 -0.09    +0.120 C  BRANCH  26  27ATOM     27  N   UNL     1      36.743  46.996  13.161 -0.35 +0.14    -0.299 NA ATOM     28  C   UNL     1      37.246  48.331  13.507 -0.53 -0.04    +0.087 C  ATOM     29  C   UNL     1      37.726  45.931  13.419 -0.40 -0.03    +0.087 C  ATOM     30  C   UNL     1      37.726  48.453  14.953 -0.58 -0.03    +0.041 C  ATOM     31  C   UNL     1      38.984  46.382  14.171 -0.41 -0.01    +0.041 C  ATOM     32  C   UNL     1      38.595  47.253  15.370 -0.45 -0.04    +0.095 C  BRANCH  32  33ATOM     33  N   UNL     1      39.743  47.638  16.180 -0.28 +0.08    -0.291 N  ATOM     34  C   UNL     1      40.557  48.717  15.971 -0.34 -0.07    +0.295 A  ATOM     35  C   UNL     1      40.219  46.985  17.298 -0.45 -0.01    +0.072 A  ATOM     36  N   UNL     1      41.520  48.815  16.846 -0.92 -0.01    -0.195 NA ATOM     37  C   UNL     1      39.812  45.840  17.996 -0.43 -0.00    +0.029 A  ATOM     38  C   UNL     1      41.328  47.743  17.685 -0.45 -0.01    +0.092 A  ATOM     39  C   UNL     1      40.566  45.471  19.117 -0.45 +0.00    +0.002 A  ATOM     40  C   UNL     1      42.071  47.354  18.809 -0.51 +0.00    +0.031 A  ATOM     41  C   UNL     1      41.678  46.213  19.519 -0.45 +0.00    +0.002 A  BRANCH  34  42ATOM     42  O   UNL     1      40.407  49.594  15.000 -0.23 +0.20    -0.480 OA ATOM     43  H   UNL     1      39.650  50.115  15.328 -0.19 -0.23    +0.296 HD ENDBRANCH  34  42ENDBRANCH  32  33ENDBRANCH  26  27ENDBRANCH   4  26TORSDOF 7TERENDMDL