MODEL        2USER    Run = 2USERUSER    Estimated Free Energy of Binding    =  -7.35 kcal/mol  [=(1)+(2)+(3)-(4)]USERUSER    (1) Final Intermolecular Energy     = -11.53 kcal/molUSER        vdW + Hbond + desolv Energy     = -12.05 kcal/molUSER        Electrostatic Energy            =  -0.44 kcal/molUSER        Moving Ligand-Fixed Receptor    = -12.49 kcal/molUSER        Moving Ligand-Moving Receptor   =  +0.96 kcal/molUSER    (2) Final Total Internal Energy     =  -2.52 kcal/molUSER    (3) Torsional Free Energy           =  +4.18 kcal/molUSER    (4) Unbound System's Energy         =  -2.52 kcal/molUSERUSERREMARK SMILES COc1ccc(O)c(C(=O)c2ccc(C(=O)N[C@@H]3CCCN(C)C[C@H]3NC(=O)c3ccncc3)cc2)c1FREMARK SMILES IDX 15 1 16 2 17 3 14 5 11 6 12 7 36 8 13 9 35 10 9 11 10 12REMARK SMILES IDX 8 13 3 14 4 15 37 16 5 17 6 18 38 19 2 20 1 21 7 22 18 24REMARK SMILES IDX 19 25 25 27 24 28 22 29 23 30 21 31 20 32 26 34 27 35 28 37REMARK SMILES IDX 29 38 30 39 34 40 31 41 33 42 32 43REMARK H PARENT 17 4 7 23 26 36REMARK Flexibility Score:   88.900USER                              x       y       z     vdW  Elec       q    TypeUSER                           _______ _______ _______ _____ _____    ______ ____ROOTATOM      1  C   UNL     1      37.853  44.320  19.719 -0.25 -0.02    +0.251 C  ATOM      2  O   UNL     1      37.471  43.377  20.401 -0.23 +0.01    -0.269 OA ATOM      3  N   UNL     1      37.129  44.875  18.680 -0.14 +0.06    -0.347 N  ATOM      4  H   UNL     1      37.372  45.827  18.435 +0.09 -0.04    +0.164 HD ENDROOTBRANCH   1   5ATOM      5  C   UNL     1      39.160  44.966  20.015 -0.35 -0.00    +0.039 A  ATOM      6  C   UNL     1      41.600  46.243  20.520 -0.35 +0.00    +0.023 A  ATOM      7  C   UNL     1      40.812  46.646  19.434 -0.18 +0.00    +0.013 A  ATOM      8  C   UNL     1      41.149  45.228  21.373 -0.30 +0.00    +0.013 A  ATOM      9  C   UNL     1      39.595  46.005  19.184 -0.35 -0.00    +0.014 A  ATOM     10  C   UNL     1      39.933  44.585  21.120 -0.31 +0.00    +0.014 A  BRANCH   6  11ATOM     11  C   UNL     1      42.876  46.923  20.847 -0.32 +0.05    +0.199 C  ATOM     12  O   UNL     1      43.764  46.967  19.995 -0.32 -0.17    -0.288 OA BRANCH  11  13ATOM     13  C   UNL     1      43.160  47.506  22.175 -0.28 +0.02    +0.104 A  ATOM     14  C   UNL     1      42.429  48.296  24.364 -0.25 +0.03    +0.155 A  ATOM     15  C   UNL     1      43.753  48.591  24.695 -0.26 +0.01    +0.053 A  ATOM     16  C   UNL     1      42.144  47.758  23.100 -0.21 +0.03    +0.179 A  ATOM     17  C   UNL     1      44.773  48.374  23.764 -0.20 +0.01    +0.051 A  ATOM     18  C   UNL     1      44.474  47.852  22.508 -0.20 +0.04    +0.130 A  ATOM     19  F   UNL     1      40.864  47.511  22.776 +0.03 -0.02    -0.202 F  BRANCH  14  20ATOM     20  O   UNL     1      41.346  48.484  25.180 -0.10 -0.07    -0.494 OA ATOM     21  C   UNL     1      40.757  47.325  25.759 -0.10 +0.02    +0.278 C  ENDBRANCH  14  20BRANCH  18  22ATOM     22  O   UNL     1      45.525  47.702  21.643 -0.65 -0.46    -0.507 OA ATOM     23  H   UNL     1      45.318  48.212  20.827 -0.28 +0.15    +0.293 HD ENDBRANCH  18  22ENDBRANCH  11  13ENDBRANCH   6  11ENDBRANCH   1   5BRANCH   3  24ATOM     24  C   UNL     1      35.759  44.432  18.376 -0.32 -0.03    +0.106 C  BRANCH  24  25ATOM     25  C   UNL     1      35.074  43.780  19.598 -0.45 -0.00    +0.028 CG0ATOM     26  G   UNL     1      33.566  43.602  19.444 +0.00 +0.00    +0.000 G0 ENDBRANCH  24  25BRANCH  24  27ATOM     27  C   UNL     1      35.727  43.543  17.103 -0.33 -0.04    +0.118 C  BRANCH  27  28ATOM     28  C   UNL     1      34.448  42.683  16.948 -0.39 -0.05    +0.111 C  BRANCH  28  29ATOM     29  N   UNL     1      33.239  43.527  16.908 -0.11 +0.12    -0.304 NA ATOM     30  C   UNL     1      32.067  42.753  16.489 -0.28 -0.05    +0.105 C  BRANCH  29  31ATOM     31  C   UNL     1      32.954  44.202  18.182 -0.34 -0.02    +0.084 C  BRANCH  31  32ATOM     32  C   UNL     1      33.568  43.604  19.452 -0.48 -0.00    +0.018 CG0ATOM     33  G   UNL     1      35.076  43.791  19.593 +0.00 +0.00    +0.000 G0 ENDBRANCH  31  32ENDBRANCH  29  31ENDBRANCH  28  29ENDBRANCH  27  28BRANCH  27  34ATOM     34  N   UNL     1      35.902  44.355  15.892 -0.13 +0.15    -0.346 N  ATOM     35  C   UNL     1      37.008  45.140  15.679 -0.24 -0.10    +0.251 C  ATOM     36  H   UNL     1      35.102  44.363  15.272 +0.11 -0.08    +0.164 HD ATOM     37  O   UNL     1      37.995  45.110  16.408 -0.22 +0.08    -0.269 OA BRANCH  35  38ATOM     38  C   UNL     1      36.982  46.037  14.494 -0.38 -0.02    +0.042 A  ATOM     39  C   UNL     1      37.109  47.411  14.709 -0.44 -0.02    +0.034 A  ATOM     40  C   UNL     1      36.802  45.561  13.194 -0.48 -0.01    +0.034 A  ATOM     41  C   UNL     1      37.073  48.250  13.611 -0.47 -0.05    +0.112 A  ATOM     42  C   UNL     1      36.780  46.484  12.163 -0.56 -0.04    +0.112 A  ATOM     43  N   UNL     1      36.918  47.815  12.342 -1.03 +0.07    -0.265 NA ENDBRANCH  35  38ENDBRANCH  27  34ENDBRANCH  24  27ENDBRANCH   3  24TORSDOF 8TERENDMDL