MODEL        2USER    Run = 2USERUSER    Estimated Free Energy of Binding    = -12.73 kcal/mol  [=(1)+(2)+(3)-(4)]USERUSER    (1) Final Intermolecular Energy     = -14.82 kcal/molUSER        vdW + Hbond + desolv Energy     = -14.60 kcal/molUSER        Electrostatic Energy            =  -0.23 kcal/molUSER        Moving Ligand-Fixed Receptor    = -14.82 kcal/molUSER        Moving Ligand-Moving Receptor   =  +0.00 kcal/molUSER    (2) Final Total Internal Energy     =  -1.41 kcal/molUSER    (3) Torsional Free Energy           =  +2.09 kcal/molUSER    (4) Unbound System's Energy         =  -1.41 kcal/molUSERUSERREMARK SMILES Nc1ccc(-c2nc3ccc(F)cc3nc2-c2ccc(CN3CCC(n4c(O)nc5ccccc54)CC3)cc2)cc1REMARK SMILES IDX 17 1 18 2 19 3 20 4 38 5 39 6 16 7 6 8 7 9 8 10 15 11 9 12REMARK SMILES IDX 14 13 10 14 13 15 11 16 12 17 5 18 2 19 3 20 41 21 4 22REMARK SMILES IDX 40 23 1 24 21 27 22 28 23 29 37 30 24 31 36 32 25 33 26 34REMARK SMILES IDX 27 35 35 36 29 37 34 38 30 39 33 40 31 41 32 42 28 43REMARK H PARENT 1 25 1 26 28 44USER                              x       y       z     vdW  Elec       q    TypeUSER                           _______ _______ _______ _____ _____    ______ ____ROOTATOM      1  C   UNL     1      36.113  44.652  17.248 -0.32 -0.00    +0.002 A  ATOM      2  C   UNL     1      34.949  45.296  17.698 -0.36 -0.01    +0.011 A  ATOM      3  C   UNL     1      33.681  44.757  17.452 -0.33 -0.00    +0.006 A  ATOM      4  C   UNL     1      33.540  43.546  16.763 -0.31 +0.01    -0.034 A  ATOM      5  C   UNL     1      34.695  42.889  16.321 -0.41 -0.00    +0.006 A  ATOM      6  C   UNL     1      35.960  43.432  16.566 -0.39 -0.00    +0.011 A  ENDROOTBRANCH   1   7ATOM      7  C   UNL     1      37.459  45.205  17.492 -0.30 -0.03    +0.097 A  ATOM      8  C   UNL     1      38.085  46.190  16.712 -0.32 -0.03    +0.097 A  ATOM      9  N   UNL     1      39.308  46.688  17.057 -0.28 +0.06    -0.244 NA ATOM     10  C   UNL     1      39.903  46.182  18.148 -0.40 -0.01    +0.090 A  ATOM     11  N   UNL     1      38.075  44.685  18.592 -0.22 +0.03    -0.244 NA ATOM     12  C   UNL     1      41.154  46.655  18.526 -0.49 -0.00    +0.033 A  ATOM     13  C   UNL     1      39.284  45.170  18.920 -0.35 -0.01    +0.092 A  ATOM     14  C   UNL     1      41.804  46.152  19.651 -0.41 +0.01    +0.041 A  ATOM     15  C   UNL     1      39.938  44.673  20.037 -0.33 +0.00    +0.069 A  ATOM     16  C   UNL     1      41.186  45.161  20.398 -0.29 +0.01    +0.125 A  ATOM     17  F   UNL     1      41.801  44.668  21.480 -0.06 -0.03    -0.207 F  BRANCH   8  18ATOM     18  C   UNL     1      37.540  46.767  15.470 -0.40 -0.00    +0.003 A  ATOM     19  C   UNL     1      36.534  47.916  13.077 -0.60 -0.01    +0.031 A  ATOM     20  C   UNL     1      36.490  46.537  13.278 -0.53 -0.01    +0.026 A  ATOM     21  C   UNL     1      37.019  48.724  14.105 -0.49 -0.02    +0.026 A  ATOM     22  C   UNL     1      37.011  45.966  14.446 -0.40 -0.01    +0.012 A  ATOM     23  C   UNL     1      37.539  48.157  15.273 -0.49 -0.01    +0.012 A  BRANCH  19  24ATOM     24  N   UNL     1      35.905  48.489  11.966 -0.01 +0.21    -0.399 N  ATOM     25  H   UNL     1      36.517  49.075  11.406 -0.38 -0.06    +0.156 HD ATOM     26  H   UNL     1      35.390  47.823  11.399 -0.17 -0.13    +0.156 HD ENDBRANCH  19  24ENDBRANCH   8  18ENDBRANCH   1   7BRANCH   4  27ATOM     27  C   UNL     1      32.167  42.961  16.502 -0.30 -0.05    +0.120 C  BRANCH  27  28ATOM     28  N   UNL     1      31.656  41.993  17.487 -0.12 +0.09    -0.299 NA ATOM     29  C   UNL     1      30.806  40.959  16.894 -0.31 -0.02    +0.087 C  ATOM     30  C   UNL     1      32.707  41.423  18.335 -0.41 -0.01    +0.087 C  ATOM     31  C   UNL     1      30.108  40.150  17.987 -0.35 +0.00    +0.041 C  ATOM     32  C   UNL     1      32.090  40.634  19.489 -0.30 +0.01    +0.041 C  ATOM     33  C   UNL     1      31.135  39.557  18.957 -0.39 +0.01    +0.095 C  BRANCH  33  34ATOM     34  N   UNL     1      30.522  38.772  20.020 -0.19 -0.04    -0.291 N  ATOM     35  C   UNL     1      31.151  38.405  21.179 -0.26 +0.04    +0.295 A  ATOM     36  C   UNL     1      29.242  38.262  20.083 -0.28 +0.01    +0.072 A  ATOM     37  N   UNL     1      30.395  37.710  21.982 -0.28 -0.00    -0.195 NA ATOM     38  C   UNL     1      28.138  38.295  19.219 -0.25 +0.00    +0.029 A  ATOM     39  C   UNL     1      29.197  37.610  21.318 -0.22 -0.00    +0.092 A  ATOM     40  C   UNL     1      26.971  37.646  19.639 -0.24 -0.00    +0.002 A  ATOM     41  C   UNL     1      28.017  36.967  21.720 -0.30 -0.01    +0.031 A  ATOM     42  C   UNL     1      26.907  36.993  20.868 -0.29 -0.00    +0.002 A  BRANCH  35  43ATOM     43  O   UNL     1      32.396  38.703  21.486 -0.78 -0.20    -0.480 OA ATOM     44  H   UNL     1      32.384  38.593  22.454 -0.28 -0.01    +0.296 HD ENDBRANCH  35  43ENDBRANCH  33  34ENDBRANCH  27  28ENDBRANCH   4  27TORSDOF 7TERENDMDL