REMARK SMILES N#Cc1c(-c2ccc(-c3ccc(O)c(Cl)c3)cc2)ccnc1N
REMARK SMILES IDX 5 1 6 2 7 3 8 4 17 5 18 6 4 7 3 8 22 9 19 10 21 11 20 12
REMARK SMILES IDX 2 13 1 14 23 15 9 18 10 19 16 20 11 21 14 22 12 23 15 24
REMARK SMILES IDX 13 25
REMARK H PARENT 23 16 23 17 13 26
ROOT
ATOM      1  C   UNL     1      -1.396   0.404   0.216  1.00  0.00    -0.017 A 
ATOM      2  C   UNL     1      -0.628   0.257   1.378  1.00  0.00     0.009 A 
ATOM      3  C   UNL     1       0.759   0.087   1.302  1.00  0.00     0.009 A 
ATOM      4  C   UNL     1       1.419   0.062   0.064  1.00  0.00    -0.018 A 
ATOM      5  C   UNL     1       0.646   0.215  -1.096  1.00  0.00     0.009 A 
ATOM      6  C   UNL     1      -0.742   0.384  -1.023  1.00  0.00     0.009 A 
ENDROOT
BRANCH   1   7
ATOM      7  C   UNL     1      -2.851   0.581   0.296  1.00  0.00     0.005 A 
ATOM      8  C   UNL     1      -3.757  -0.483   0.115  1.00  0.00     0.102 A 
ATOM      9  C   UNL     1      -5.132  -0.231   0.207  1.00  0.00     0.141 A 
ATOM     10  C   UNL     1      -3.369   1.853   0.564  1.00  0.00     0.030 A 
ATOM     11  N   UNL     1      -5.615   1.000   0.464  1.00  0.00    -0.238 NA
ATOM     12  C   UNL     1      -4.739   2.010   0.636  1.00  0.00     0.114 A 
BRANCH   8  13
ATOM     13  C   UNL     1      -3.292  -1.811  -0.153  1.00  0.00     0.104 C 
ATOM     14  N   UNL     1      -2.954  -2.899  -0.374  1.00  0.00    -0.192 NA
ENDBRANCH   8  13
BRANCH   9  15
ATOM     15  N   UNL     1      -6.098  -1.232   0.042  1.00  0.00    -0.383 N 
ATOM     16  H   UNL     1      -6.028  -1.656  -0.879  1.00  0.00     0.158 HD
ATOM     17  H   UNL     1      -5.980  -1.968   0.733  1.00  0.00     0.158 HD
ENDBRANCH   9  15
ENDBRANCH   1   7
BRANCH   4  18
ATOM     18  C   UNL     1       2.878  -0.119  -0.014  1.00  0.00    -0.017 A 
ATOM     19  C   UNL     1       3.503  -1.218   0.603  1.00  0.00     0.012 A 
ATOM     20  C   UNL     1       3.684   0.801  -0.706  1.00  0.00     0.033 A 
ATOM     21  C   UNL     1       4.888  -1.396   0.534  1.00  0.00     0.048 A 
ATOM     22  C   UNL     1       5.067   0.624  -0.775  1.00  0.00     0.083 A 
ATOM     23  C   UNL     1       5.664  -0.473  -0.155  1.00  0.00     0.134 A 
ATOM     24  Cl  UNL     1       6.028   1.773  -1.630  1.00  0.00    -0.080 Cl
BRANCH  23  25
ATOM     25  O   UNL     1       7.013  -0.688  -0.195  1.00  0.00    -0.506 OA
ATOM     26  H   UNL     1       7.405   0.040  -0.713  1.00  0.00     0.293 HD
ENDBRANCH  23  25
ENDBRANCH   4  18
TORSDOF 5
