MODEL        7USER    Run = 7USERUSER    Estimated Free Energy of Binding    =  -8.17 kcal/mol  [=(1)+(2)+(3)-(4)]USERUSER    (1) Final Intermolecular Energy     =  -9.66 kcal/molUSER        vdW + Hbond + desolv Energy     =  -9.54 kcal/molUSER        Electrostatic Energy            =  -0.12 kcal/molUSER        Moving Ligand-Fixed Receptor    =  -9.66 kcal/molUSER        Moving Ligand-Moving Receptor   =  +0.00 kcal/molUSER    (2) Final Total Internal Energy     =  -0.71 kcal/molUSER    (3) Torsional Free Energy           =  +1.49 kcal/molUSER    (4) Unbound System's Energy         =  -0.71 kcal/molUSERUSERREMARK SMILES N#Cc1c(-c2ccc(-c3ccc(O)c(Cl)c3)cc2)ccnc1NREMARK SMILES IDX 5 1 6 2 7 3 8 4 17 5 18 6 4 7 3 8 22 9 19 10 21 11 20 12REMARK SMILES IDX 2 13 1 14 23 15 9 18 10 19 16 20 11 21 14 22 12 23 15 24REMARK SMILES IDX 13 25REMARK H PARENT 23 16 23 17 13 26USER                              x       y       z     vdW  Elec       q    TypeUSER                           _______ _______ _______ _____ _____    ______ ____ROOTATOM      1  C   UNL     1      34.454  45.374  15.858 -0.31 +0.01    -0.017 A  ATOM      2  C   UNL     1      34.874  45.543  17.184 -0.35 -0.01    +0.009 A  ATOM      3  C   UNL     1      36.160  46.015  17.472 -0.33 -0.00    +0.009 A  ATOM      4  C   UNL     1      37.061  46.334  16.445 -0.37 +0.01    -0.018 A  ATOM      5  C   UNL     1      36.634  46.168  15.120 -0.38 -0.01    +0.009 A  ATOM      6  C   UNL     1      35.348  45.695  14.829 -0.37 -0.01    +0.009 A  ENDROOTBRANCH   1   7ATOM      7  C   UNL     1      33.106  44.879  15.556 -0.32 -0.00    +0.005 A  ATOM      8  C   UNL     1      32.697  43.562  15.849 -0.26 -0.05    +0.102 A  ATOM      9  C   UNL     1      31.392  43.166  15.529 -0.26 -0.08    +0.141 A  ATOM     10  C   UNL     1      32.181  45.740  14.955 -0.37 -0.03    +0.030 A  ATOM     11  N   UNL     1      30.514  44.008  14.949 -0.20 +0.18    -0.238 NA ATOM     12  C   UNL     1      30.916  45.265  14.674 -0.38 -0.08    +0.114 A  BRANCH   8  13ATOM     13  C   UNL     1      33.591  42.633  16.473 -0.29 -0.05    +0.104 C  ATOM     14  N   UNL     1      34.310  41.899  17.013 -0.31 +0.09    -0.192 NA ENDBRANCH   8  13BRANCH   9  15ATOM     15  N   UNL     1      30.906  41.878  15.788 -0.07 +0.21    -0.383 N  ATOM     16  H   UNL     1      30.868  41.326  14.936 -0.44 -0.11    +0.158 HD ATOM     17  H   UNL     1      31.506  41.390  16.448 -0.33 -0.09    +0.158 HD ENDBRANCH   9  15ENDBRANCH   1   7BRANCH   4  18ATOM     18  C   UNL     1      38.414  46.828  16.750 -0.38 +0.01    -0.017 A  ATOM     19  C   UNL     1      39.161  46.280  17.809 -0.42 -0.00    +0.012 A  ATOM     20  C   UNL     1      38.995  47.859  15.992 -0.45 -0.01    +0.033 A  ATOM     21  C   UNL     1      40.446  46.745  18.106 -0.45 -0.00    +0.048 A  ATOM     22  C   UNL     1      40.278  48.323  16.287 -0.48 -0.02    +0.083 A  ATOM     23  C   UNL     1      40.998  47.765  17.342 -0.42 -0.02    +0.134 A  ATOM     24  Cl  UNL     1      40.961  49.592  15.338 -0.93 +0.02    -0.080 Cl BRANCH  23  25ATOM     25  O   UNL     1      42.257  48.187  17.670 -0.30 -0.02    -0.506 OA ATOM     26  H   UNL     1      42.852  47.421  17.569 -0.38 -0.08    +0.293 HD ENDBRANCH  23  25ENDBRANCH   4  18TORSDOF 5TERENDMDL