MODEL        10USER    Run = 10USERUSER    Estimated Free Energy of Binding    =  -8.40 kcal/mol  [=(1)+(2)+(3)-(4)]USERUSER    (1) Final Intermolecular Energy     = -10.19 kcal/molUSER        vdW + Hbond + desolv Energy     =  -9.69 kcal/molUSER        Electrostatic Energy            =  -0.50 kcal/molUSER        Moving Ligand-Fixed Receptor    = -10.19 kcal/molUSER        Moving Ligand-Moving Receptor   =  +0.00 kcal/molUSER    (2) Final Total Internal Energy     =  -0.81 kcal/molUSER    (3) Torsional Free Energy           =  +1.79 kcal/molUSER    (4) Unbound System's Energy         =  -0.81 kcal/molUSERUSERREMARK SMILES COc1ccc(O)c(C(=O)c2ccc(C(=O)N[C@H]3CCN(C)C3)cc2)c1FREMARK SMILES IDX 11 1 12 2 13 3 14 4 24 5 25 6 9 7 10 8 8 9 3 10 4 11 26 12REMARK SMILES IDX 5 13 6 14 27 15 2 16 1 17 7 18 15 20 17 21 16 22 18 24 19 25REMARK SMILES IDX 23 26 20 27 21 28 22 29REMARK H PARENT 7 19 17 23USER                              x       y       z     vdW  Elec       q    TypeUSER                           _______ _______ _______ _____ _____    ______ ____ROOTATOM      1  C   UNL     1      34.073  44.505  18.107 -0.33 -0.01    +0.023 A  ATOM      2  C   UNL     1      32.972  44.357  18.958 -0.40 -0.00    +0.013 A  ATOM      3  C   UNL     1      32.455  43.083  19.208 -0.39 -0.00    +0.014 A  ATOM      4  C   UNL     1      33.017  41.954  18.594 -0.37 -0.01    +0.039 A  ATOM      5  C   UNL     1      34.116  42.107  17.740 -0.41 -0.00    +0.014 A  ATOM      6  C   UNL     1      34.635  43.380  17.490 -0.33 -0.00    +0.013 A  ENDROOTBRANCH   1   7ATOM      7  C   UNL     1      34.634  45.838  17.782 -0.34 -0.14    +0.199 C  ATOM      8  O   UNL     1      34.397  46.780  18.540 -0.80 +0.21    -0.288 OA BRANCH   7   9ATOM      9  C   UNL     1      35.516  46.086  16.621 -0.28 -0.09    +0.104 A  ATOM     10  C   UNL     1      37.709  46.552  15.660 -0.28 -0.07    +0.155 A  ATOM     11  C   UNL     1      37.142  46.566  14.383 -0.39 -0.03    +0.053 A  ATOM     12  C   UNL     1      36.886  46.304  16.769 -0.24 -0.10    +0.179 A  ATOM     13  C   UNL     1      35.778  46.315  14.220 -0.40 -0.04    +0.051 A  ATOM     14  C   UNL     1      34.976  46.062  15.330 -0.18 -0.13    +0.130 A  ATOM     15  F   UNL     1      37.448  46.253  17.989 -0.08 +0.07    -0.202 F  BRANCH  10  16ATOM     16  O   UNL     1      39.031  46.764  15.944 -0.10 +0.15    -0.494 OA ATOM     17  C   UNL     1      39.516  48.097  15.845 -0.36 -0.10    +0.278 C  ENDBRANCH  10  16BRANCH  14  18ATOM     18  O   UNL     1      33.657  45.795  15.079 -0.06 +0.54    -0.507 OA ATOM     19  H   UNL     1      33.133  46.584  15.349 -0.24 -0.64    +0.293 HD ENDBRANCH  14  18ENDBRANCH   7   9ENDBRANCH   1   7BRANCH   4  20ATOM     20  C   UNL     1      32.426  40.620  18.892 -0.18 +0.01    +0.251 C  ATOM     21  N   UNL     1      32.070  39.850  17.801 -0.22 +0.06    -0.348 N  ATOM     22  O   UNL     1      32.244  40.273  20.053 -0.79 -0.10    -0.269 OA ATOM     23  H   UNL     1      31.987  40.309  16.904 -0.25 -0.08    +0.164 HD BRANCH  21  24ATOM     24  C   UNL     1      31.355  38.590  17.977 -0.23 +0.01    +0.097 C  ATOM     25  C   UNL     1      32.296  37.465  18.413 -0.47 +0.01    +0.042 C  ATOM     26  C   UNL     1      30.304  38.677  19.101 -0.38 +0.02    +0.109 C  ATOM     27  C   UNL     1      32.024  37.314  19.901 -0.52 +0.02    +0.086 C  ATOM     28  N   UNL     1      30.581  37.529  19.973 -0.31 -0.07    -0.304 NA ATOM     29  C   UNL     1      30.106  37.726  21.334 -0.36 +0.00    +0.105 C  ENDBRANCH  21  24ENDBRANCH   4  20TORSDOF 6TERENDMDL