REMARK SMILES Cn1ccnccc(-c2cccc(-c3ccc(O)c(Br)c3)c2)cc1
REMARK SMILES IDX 9 1 10 2 11 3 12 4 13 5 22 6 8 7 2 8 3 9 24 10 4 11 23 12
REMARK SMILES IDX 5 13 6 14 7 15 1 16 14 17 15 18 21 19 16 20 19 21 17 22
REMARK SMILES IDX 20 23 18 24
REMARK H PARENT 18 25
ROOT
ATOM      1  C   UNL     1      -0.273  -1.200  -0.501  1.00  0.00    -0.018 A 
ATOM      2  C   UNL     1      -0.134  -2.351  -1.287  1.00  0.00     0.009 A 
ATOM      3  C   UNL     1       1.133  -2.797  -1.655  1.00  0.00     0.001 A 
ATOM      4  C   UNL     1       2.269  -2.096  -1.240  1.00  0.00     0.009 A 
ATOM      5  C   UNL     1       2.165  -0.940  -0.445  1.00  0.00    -0.018 A 
ATOM      6  C   UNL     1       0.877  -0.509  -0.082  1.00  0.00     0.017 A 
ENDROOT
BRANCH   1   7
ATOM      7  C   UNL     1      -1.637  -0.708  -0.118  1.00  0.00    -0.015 A 
ATOM      8  N   UNL     1      -3.997   1.435   0.043  1.00  0.00    -0.356 N 
ATOM      9  C   UNL     1      -5.088   0.595   0.139  1.00  0.00     0.105 A 
ATOM     10  C   UNL     1      -3.054   1.124  -0.913  1.00  0.00     0.086 A 
ATOM     11  C   UNL     1      -5.268  -0.528   0.841  1.00  0.00     0.129 A 
ATOM     12  C   UNL     1      -2.066   0.230  -0.974  1.00  0.00     0.026 A 
ATOM     13  N   UNL     1      -4.578  -1.320   1.668  1.00  0.00    -0.263 NA
ATOM     14  C   UNL     1      -3.245  -1.485   1.667  1.00  0.00     0.111 A 
ATOM     15  C   UNL     1      -2.095  -1.301   0.995  1.00  0.00     0.029 A 
ATOM     16  C   UNL     1      -4.260   2.854   0.296  1.00  0.00     0.149 C 
ENDBRANCH   1   7
BRANCH   5  17
ATOM     17  C   UNL     1       3.365  -0.200  -0.012  1.00  0.00    -0.017 A 
ATOM     18  C   UNL     1       3.441   1.197  -0.152  1.00  0.00     0.012 A 
ATOM     19  C   UNL     1       4.467  -0.865   0.552  1.00  0.00     0.028 A 
ATOM     20  C   UNL     1       4.575   1.908   0.254  1.00  0.00     0.048 A 
ATOM     21  C   UNL     1       5.605  -0.159   0.956  1.00  0.00     0.060 A 
ATOM     22  C   UNL     1       5.656   1.227   0.807  1.00  0.00     0.129 A 
ATOM     23  Br  UNL     1       7.053  -1.128   1.706  1.00  0.00    -0.047 Br
BRANCH  22  24
ATOM     24  O   UNL     1       6.765   1.923   1.201  1.00  0.00    -0.507 OA
ATOM     25  H   UNL     1       6.597   2.872   1.085  1.00  0.00     0.293 HD
ENDBRANCH  22  24
ENDBRANCH   5  17
TORSDOF 3
