MODEL        2USER    Run = 2USERUSER    Estimated Free Energy of Binding    =  -9.72 kcal/mol  [=(1)+(2)+(3)-(4)]USERUSER    (1) Final Intermolecular Energy     = -10.62 kcal/molUSER        vdW + Hbond + desolv Energy     = -10.21 kcal/molUSER        Electrostatic Energy            =  -0.40 kcal/molUSER        Moving Ligand-Fixed Receptor    = -10.62 kcal/molUSER        Moving Ligand-Moving Receptor   =  +0.00 kcal/molUSER    (2) Final Total Internal Energy     =  -0.66 kcal/molUSER    (3) Torsional Free Energy           =  +0.89 kcal/molUSER    (4) Unbound System's Energy         =  -0.66 kcal/molUSERUSERREMARK SMILES Cn1ccnccc(-c2cccc(-c3ccc(O)c(Br)c3)c2)cc1REMARK SMILES IDX 9 1 10 2 11 3 12 4 13 5 22 6 8 7 2 8 3 9 24 10 4 11 23 12REMARK SMILES IDX 5 13 6 14 7 15 1 16 14 17 15 18 21 19 16 20 19 21 17 22REMARK SMILES IDX 20 23 18 24REMARK H PARENT 18 25USER                              x       y       z     vdW  Elec       q    TypeUSER                           _______ _______ _______ _____ _____    ______ ____ROOTATOM      1  C   UNL     1      37.974  45.588  16.999 -0.36 +0.01    -0.018 A  ATOM      2  C   UNL     1      37.054  44.953  17.842 -0.34 -0.00    +0.009 A  ATOM      3  C   UNL     1      37.375  44.720  19.177 -0.34 -0.00    +0.001 A  ATOM      4  C   UNL     1      38.617  45.121  19.678 -0.36 -0.00    +0.009 A  ATOM      5  C   UNL     1      39.561  45.767  18.859 -0.42 +0.00    -0.018 A  ATOM      6  C   UNL     1      39.216  45.995  17.516 -0.42 -0.00    +0.017 A  ENDROOTBRANCH   1   7ATOM      7  C   UNL     1      37.637  45.825  15.556 -0.36 +0.01    -0.015 A  ATOM      8  N   UNL     1      36.904  44.944  12.577 -0.25 +0.12    -0.356 N  ATOM      9  C   UNL     1      36.217  46.062  12.150 -0.53 -0.05    +0.105 A  ATOM     10  C   UNL     1      36.580  44.453  13.825 -0.15 -0.03    +0.086 A  ATOM     11  C   UNL     1      36.466  47.363  12.332 -0.58 -0.06    +0.129 A  ATOM     12  C   UNL     1      36.893  44.822  15.068 -0.36 -0.01    +0.026 A  ATOM     13  N   UNL     1      37.358  48.141  12.954 -0.85 +0.06    -0.263 NA ATOM     14  C   UNL     1      38.053  47.812  14.055 -0.44 -0.04    +0.111 A  ATOM     15  C   UNL     1      38.173  46.963  15.091 -0.41 -0.01    +0.029 A  ATOM     16  C   UNL     1      37.248  43.971  11.538 -0.39 -0.04    +0.149 C  ENDBRANCH   1   7BRANCH   5  17ATOM     17  C   UNL     1      40.873  46.185  19.389 -0.42 -0.00    -0.017 A  ATOM     18  C   UNL     1      41.729  47.004  18.632 -0.53 -0.00    +0.012 A  ATOM     19  C   UNL     1      41.307  45.780  20.663 -0.34 +0.00    +0.028 A  ATOM     20  C   UNL     1      42.976  47.404  19.124 -0.51 +0.01    +0.048 A  ATOM     21  C   UNL     1      42.554  46.175  21.158 -0.30 +0.02    +0.060 A  ATOM     22  C   UNL     1      43.385  46.988  20.388 -0.29 +0.05    +0.129 A  ATOM     23  Br  UNL     1      43.070  45.586  22.886 -0.35 -0.01    -0.047 Br BRANCH  22  24ATOM     24  O   UNL     1      44.605  47.378  20.867 -0.48 -0.43    -0.507 OA ATOM     25  H   UNL     1      44.503  48.224  21.332 -0.42 +0.02    +0.293 HD ENDBRANCH  22  24ENDBRANCH   5  17TORSDOF 3TERENDMDL