REMARK SMILES COc1ccc(O)c(C(=O)c2ccc(C(=O)N[C@H]3CCN(C)C3)cc2)c1F
REMARK SMILES IDX 11 1 12 2 13 3 14 4 24 5 25 6 9 7 10 8 8 9 3 10 4 11 26 12
REMARK SMILES IDX 5 13 6 14 27 15 2 16 1 17 7 18 15 20 17 21 16 22 18 24 19 25
REMARK SMILES IDX 23 26 20 27 21 28 22 29
REMARK H PARENT 7 19 17 23
ROOT
ATOM      1  C   UNL     1       1.488   0.474   1.054  1.00  0.00     0.023 A 
ATOM      2  C   UNL     1       1.382  -0.816   0.522  1.00  0.00     0.013 A 
ATOM      3  C   UNL     1       0.288  -1.148  -0.282  1.00  0.00     0.014 A 
ATOM      4  C   UNL     1      -0.716  -0.204  -0.541  1.00  0.00     0.039 A 
ATOM      5  C   UNL     1      -0.609   1.085  -0.004  1.00  0.00     0.014 A 
ATOM      6  C   UNL     1       0.485   1.418   0.800  1.00  0.00     0.013 A 
ENDROOT
BRANCH   1   7
ATOM      7  C   UNL     1       2.609   0.862   1.942  1.00  0.00     0.199 C 
ATOM      8  O   UNL     1       2.370   1.570   2.922  1.00  0.00    -0.288 OA
BRANCH   7   9
ATOM      9  C   UNL     1       3.998   0.393   1.747  1.00  0.00     0.104 A 
ATOM     10  C   UNL     1       5.842  -0.298   0.308  1.00  0.00     0.155 A 
ATOM     11  C   UNL     1       6.638  -0.512   1.436  1.00  0.00     0.053 A 
ATOM     12  C   UNL     1       4.527   0.161   0.477  1.00  0.00     0.179 A 
ATOM     13  C   UNL     1       6.130  -0.251   2.711  1.00  0.00     0.051 A 
ATOM     14  C   UNL     1       4.825   0.212   2.862  1.00  0.00     0.130 A 
ATOM     15  F   UNL     1       3.784   0.402  -0.616  1.00  0.00    -0.202 F 
BRANCH  10  16
ATOM     16  O   UNL     1       6.233  -0.498  -0.988  1.00  0.00    -0.494 OA
ATOM     17  C   UNL     1       7.568  -0.938  -1.208  1.00  0.00     0.278 C 
ENDBRANCH  10  16
BRANCH  14  18
ATOM     18  O   UNL     1       4.417   0.473   4.143  1.00  0.00    -0.507 OA
ATOM     19  H   UNL     1       3.580   0.990   4.093  1.00  0.00     0.293 HD
ENDBRANCH  14  18
ENDBRANCH   7   9
ENDBRANCH   1   7
BRANCH   4  20
ATOM     20  C   UNL     1      -1.862  -0.610  -1.402  1.00  0.00     0.251 C 
ATOM     21  N   UNL     1      -3.054   0.055  -1.188  1.00  0.00    -0.348 N 
ATOM     22  O   UNL     1      -1.728  -1.514  -2.218  1.00  0.00    -0.269 OA
ATOM     23  H   UNL     1      -3.160   0.573  -0.326  1.00  0.00     0.164 HD
BRANCH  21  24
ATOM     24  C   UNL     1      -4.274  -0.358  -1.875  1.00  0.00     0.097 C 
ATOM     25  C   UNL     1      -4.938  -1.547  -1.177  1.00  0.00     0.042 C 
ATOM     26  C   UNL     1      -5.345   0.750  -1.860  1.00  0.00     0.109 C 
ATOM     27  C   UNL     1      -6.102  -0.927  -0.422  1.00  0.00     0.086 C 
ATOM     28  N   UNL     1      -6.560   0.101  -1.354  1.00  0.00    -0.304 NA
ATOM     29  C   UNL     1      -7.490   1.040  -0.746  1.00  0.00     0.105 C 
ENDBRANCH  21  24
ENDBRANCH   4  20
TORSDOF 6
