MODEL        5USER    Run = 5USERUSER    Estimated Free Energy of Binding    =  -8.86 kcal/mol  [=(1)+(2)+(3)-(4)]USERUSER    (1) Final Intermolecular Energy     =  -9.75 kcal/molUSER        vdW + Hbond + desolv Energy     =  -9.42 kcal/molUSER        Electrostatic Energy            =  -0.34 kcal/molUSER        Moving Ligand-Fixed Receptor    =  -9.75 kcal/molUSER        Moving Ligand-Moving Receptor   =  +0.00 kcal/molUSER    (2) Final Total Internal Energy     =  -0.60 kcal/molUSER    (3) Torsional Free Energy           =  +0.89 kcal/molUSER    (4) Unbound System's Energy         =  -0.60 kcal/molUSERUSERREMARK SMILES Cn1ccnccc(-c2cccc(-c3ccc(O)cc3)c2)cc1REMARK SMILES IDX 9 1 10 2 11 3 12 4 13 5 21 6 8 7 2 8 3 9 23 10 4 11 22 12REMARK SMILES IDX 5 13 6 14 7 15 1 16 14 17 15 18 20 19 16 20 19 21 17 22REMARK SMILES IDX 18 23REMARK H PARENT 18 24USER                              x       y       z     vdW  Elec       q    TypeUSER                           _______ _______ _______ _____ _____    ______ ____ROOTATOM      1  C   UNL     1      37.607  45.532  16.933 -0.35 +0.01    -0.018 A  ATOM      2  C   UNL     1      36.839  44.676  17.733 -0.33 -0.00    +0.009 A  ATOM      3  C   UNL     1      37.309  44.271  18.981 -0.35 -0.00    +0.001 A  ATOM      4  C   UNL     1      38.550  44.721  19.438 -0.37 -0.00    +0.009 A  ATOM      5  C   UNL     1      39.344  45.582  18.660 -0.41 +0.00    -0.018 A  ATOM      6  C   UNL     1      38.853  45.977  17.404 -0.40 -0.00    +0.017 A  ENDROOTBRANCH   1   7ATOM      7  C   UNL     1      37.104  45.967  15.607 -0.36 +0.01    -0.015 A  ATOM      8  N   UNL     1      36.573  44.945  12.320 -0.24 +0.12    -0.356 N  ATOM      9  C   UNL     1      37.008  46.070  11.614 -0.43 -0.03    +0.105 A  ATOM     10  C   UNL     1      36.197  45.238  13.614 -0.29 -0.04    +0.086 A  ATOM     11  C   UNL     1      37.108  47.375  11.962 -0.45 -0.03    +0.129 A  ATOM     12  C   UNL     1      36.927  44.989  14.703 -0.37 -0.01    +0.026 A  ATOM     13  N   UNL     1      36.953  48.250  12.984 -0.84 +0.09    -0.263 NA ATOM     14  C   UNL     1      36.895  48.113  14.332 -0.42 -0.08    +0.111 A  ATOM     15  C   UNL     1      36.972  47.298  15.414 -0.40 -0.02    +0.029 A  ATOM     16  C   UNL     1      37.084  43.631  11.956 -0.11 -0.04    +0.149 C  ENDBRANCH   1   7BRANCH   5  17ATOM     17  C   UNL     1      40.652  46.052  19.146 -0.44 +0.00    -0.018 A  ATOM     18  C   UNL     1      41.137  45.667  20.407 -0.37 +0.00    +0.012 A  ATOM     19  C   UNL     1      41.454  46.899  18.360 -0.53 -0.00    +0.012 A  ATOM     20  C   UNL     1      42.378  46.116  20.869 -0.31 +0.01    +0.047 A  ATOM     21  C   UNL     1      42.696  47.349  18.817 -0.51 +0.00    +0.047 A  ATOM     22  C   UNL     1      43.147  46.952  20.071 -0.32 +0.04    +0.115 A  BRANCH  22  23ATOM     23  O   UNL     1      44.352  47.367  20.555 -0.38 -0.36    -0.508 OA ATOM     24  H   UNL     1      44.198  48.116  21.154 -0.42 +0.01    +0.293 HD ENDBRANCH  22  23ENDBRANCH   5  17TORSDOF 3TERENDMDL