MODEL        8USER    Run = 8USERUSER    Estimated Free Energy of Binding    = -10.51 kcal/mol  [=(1)+(2)+(3)-(4)]USERUSER    (1) Final Intermolecular Energy     = -12.60 kcal/molUSER        vdW + Hbond + desolv Energy     = -12.39 kcal/molUSER        Electrostatic Energy            =  -0.21 kcal/molUSER        Moving Ligand-Fixed Receptor    = -12.60 kcal/molUSER        Moving Ligand-Moving Receptor   =  +0.00 kcal/molUSER    (2) Final Total Internal Energy     =  -1.62 kcal/molUSER    (3) Torsional Free Energy           =  +2.09 kcal/molUSER    (4) Unbound System's Energy         =  -1.62 kcal/molUSERUSERREMARK SMILES O=C(CCC1N=NN=N1)Cc1ccc(-c2ccc3ncccc3c2)cc1OREMARK SMILES IDX 1 1 2 2 3 3 4 4 5 5 6 6 9 7 7 8 8 9 10 10 11 11 12 12 26 13REMARK SMILES IDX 13 14 25 15 14 16 27 17 15 19 16 20 24 21 17 22 23 23 18 24REMARK SMILES IDX 22 25 19 26 21 27 20 28REMARK H PARENT 27 18USER                              x       y       z     vdW  Elec       q    TypeUSER                           _______ _______ _______ _____ _____    ______ ____ROOTATOM      1  O   UNL     1      42.996  47.960  22.233 -0.32 -0.05    -0.299 OA ATOM      2  C   UNL     1      42.119  47.109  22.399 -0.23 +0.02    +0.137 C  ENDROOTBRANCH   2   3ATOM      3  C   UNL     1      41.106  47.254  23.513 -0.25 +0.01    +0.080 C  BRANCH   3   4ATOM      4  C   UNL     1      40.191  46.034  23.542 -0.23 +0.00    +0.063 C  BRANCH   4   5ATOM      5  C   UNL     1      38.720  46.422  23.449 -0.21 +0.04    +0.270 C  ATOM      6  N   UNL     1      37.895  45.497  24.211 -0.46 -0.02    -0.138 NA ATOM      7  N   UNL     1      38.507  47.703  24.105 -0.39 -0.02    -0.138 NA ATOM      8  N   UNL     1      37.300  46.163  25.086 -0.91 -0.00    -0.027 NA ATOM      9  N   UNL     1      37.683  47.517  25.029 -0.74 -0.00    -0.027 NA ENDBRANCH   4   5ENDBRANCH   3   4ENDBRANCH   2   3BRANCH   2  10ATOM     10  C   UNL     1      42.037  45.877  21.522 -0.28 +0.02    +0.115 C  BRANCH  10  11ATOM     11  C   UNL     1      41.400  46.171  20.189 -0.38 +0.00    +0.001 A  ATOM     12  C   UNL     1      40.126  45.663  19.907 -0.38 +0.00    +0.008 A  ATOM     13  C   UNL     1      42.051  46.918  19.205 -0.42 +0.01    +0.119 A  ATOM     14  C   UNL     1      39.515  45.916  18.675 -0.42 -0.00    +0.009 A  ATOM     15  C   UNL     1      41.444  47.176  17.973 -0.47 -0.00    +0.055 A  ATOM     16  C   UNL     1      40.161  46.681  17.690 -0.48 +0.00    -0.015 A  BRANCH  13  17ATOM     17  O   UNL     1      43.303  47.399  19.467 -0.28 -0.12    -0.508 OA ATOM     18  H   UNL     1      43.232  48.137  20.101 -0.37 -0.03    +0.293 HD ENDBRANCH  13  17BRANCH  16  19ATOM     19  C   UNL     1      39.509  46.951  16.398 -0.46 +0.00    -0.018 A  ATOM     20  C   UNL     1      39.702  48.163  15.725 -0.53 -0.00    +0.011 A  ATOM     21  C   UNL     1      38.670  45.999  15.795 -0.37 -0.01    +0.019 A  ATOM     22  C   UNL     1      39.077  48.413  14.495 -0.49 -0.01    +0.029 A  ATOM     23  C   UNL     1      38.042  46.253  14.559 -0.42 -0.00    +0.001 A  ATOM     24  C   UNL     1      38.246  47.480  13.896 -0.44 -0.02    +0.070 A  ATOM     25  C   UNL     1      37.206  45.309  13.949 -0.42 -0.00    +0.012 A  ATOM     26  N   UNL     1      37.669  47.768  12.715 -0.90 +0.03    -0.256 NA ATOM     27  C   UNL     1      36.609  45.600  12.728 -0.54 -0.01    +0.021 A  ATOM     28  C   UNL     1      36.870  46.833  12.157 -0.58 -0.04    +0.112 A  ENDBRANCH  16  19ENDBRANCH  10  11ENDBRANCH   2  10TORSDOF 7TERENDMDL