REMARK SMILES O=C(CCC1N=NN=N1)Cc1ccc(-c2ccc3ncccc3c2)cc1O
REMARK SMILES IDX 1 1 2 2 3 3 4 4 5 5 6 6 9 7 7 8 8 9 10 10 11 11 12 12 26 13
REMARK SMILES IDX 13 14 25 15 14 16 27 17 15 19 16 20 24 21 17 22 23 23 18 24
REMARK SMILES IDX 22 25 19 26 21 27 20 28
REMARK H PARENT 27 18
ROOT
ATOM      1  O   UNL     1      -3.451  -2.739  -0.384  1.00  0.00    -0.299 OA
ATOM      2  C   UNL     1      -3.440  -1.512  -0.259  1.00  0.00     0.137 C 
ENDROOT
BRANCH   2   3
ATOM      3  C   UNL     1      -4.182  -0.847   0.879  1.00  0.00     0.080 C 
BRANCH   3   4
ATOM      4  C   UNL     1      -5.648  -0.661   0.501  1.00  0.00     0.063 C 
BRANCH   4   5
ATOM      5  C   UNL     1      -6.469  -0.105   1.658  1.00  0.00     0.270 C 
ATOM      6  N   UNL     1      -6.097   1.273   1.938  1.00  0.00    -0.138 NA
ATOM      7  N   UNL     1      -7.869  -0.018   1.271  1.00  0.00    -0.138 NA
ATOM      8  N   UNL     1      -7.121   1.974   1.784  1.00  0.00    -0.027 NA
ATOM      9  N   UNL     1      -8.208   1.183   1.364  1.00  0.00    -0.027 NA
ENDBRANCH   4   5
ENDBRANCH   3   4
ENDBRANCH   2   3
BRANCH   2  10
ATOM     10  C   UNL     1      -2.714  -0.624  -1.248  1.00  0.00     0.115 C 
BRANCH  10  11
ATOM     11  C   UNL     1      -1.279  -0.392  -0.856  1.00  0.00     0.001 A 
ATOM     12  C   UNL     1      -0.324  -1.382  -1.117  1.00  0.00     0.008 A 
ATOM     13  C   UNL     1      -0.866   0.777  -0.212  1.00  0.00     0.119 A 
ATOM     14  C   UNL     1       1.014  -1.194  -0.758  1.00  0.00     0.009 A 
ATOM     15  C   UNL     1       0.470   0.971   0.147  1.00  0.00     0.055 A 
ATOM     16  C   UNL     1       1.435  -0.013  -0.125  1.00  0.00    -0.015 A 
BRANCH  13  17
ATOM     17  O   UNL     1      -1.797   1.738   0.064  1.00  0.00    -0.508 OA
ATOM     18  H   UNL     1      -1.347   2.513   0.449  1.00  0.00     0.293 HD
ENDBRANCH  13  17
BRANCH  16  19
ATOM     19  C   UNL     1       2.847   0.183   0.243  1.00  0.00    -0.018 A 
ATOM     20  C   UNL     1       3.217   0.527   1.548  1.00  0.00     0.011 A 
ATOM     21  C   UNL     1       3.872   0.030  -0.705  1.00  0.00     0.019 A 
ATOM     22  C   UNL     1       4.564   0.713   1.890  1.00  0.00     0.029 A 
ATOM     23  C   UNL     1       5.225   0.217  -0.359  1.00  0.00     0.001 A 
ATOM     24  C   UNL     1       5.580   0.566   0.960  1.00  0.00     0.070 A 
ATOM     25  C   UNL     1       6.254   0.064  -1.297  1.00  0.00     0.012 A 
ATOM     26  N   UNL     1       6.858   0.755   1.338  1.00  0.00    -0.256 NA
ATOM     27  C   UNL     1       7.576   0.256  -0.911  1.00  0.00     0.021 A 
ATOM     28  C   UNL     1       7.823   0.598   0.406  1.00  0.00     0.112 A 
ENDBRANCH  16  19
ENDBRANCH  10  11
ENDBRANCH   2  10
TORSDOF 7
