MODEL        6USER    Run = 6USERUSER    Estimated Free Energy of Binding    =  -6.16 kcal/mol  [=(1)+(2)+(3)-(4)]USERUSER    (1) Final Intermolecular Energy     = -10.63 kcal/molUSER        vdW + Hbond + desolv Energy     = -10.71 kcal/molUSER        Electrostatic Energy            =  -0.09 kcal/molUSER        Moving Ligand-Fixed Receptor    = -10.80 kcal/molUSER        Moving Ligand-Moving Receptor   =  +0.17 kcal/molUSER    (2) Final Total Internal Energy     =  -2.85 kcal/molUSER    (3) Torsional Free Energy           =  +4.47 kcal/molUSER    (4) Unbound System's Energy         =  -2.85 kcal/molUSERUSERREMARK SMILES COc1ccc(O)c(C(=O)c2ccc(CO[C@@H]3CCCNC[C@@H]3NC(=O)c3ccncc3)cc2)c1FREMARK SMILES IDX 16 1 15 2 14 3 11 4 12 5 34 6 13 7 33 8 9 9 10 10 8 11 3 12REMARK SMILES IDX 4 13 35 14 5 15 6 16 36 17 2 18 1 19 7 20 17 22 18 23 23 25REMARK SMILES IDX 22 26 21 27 20 29 19 30 24 32 25 33 26 35 27 36 28 37 32 38REMARK SMILES IDX 29 39 31 40 30 41REMARK H PARENT 7 21 21 28 24 34REMARK Flexibility Score:   99.900USER                              x       y       z     vdW  Elec       q    TypeUSER                           _______ _______ _______ _____ _____    ______ ____ROOTATOM      1  O   UNL     1      38.559  46.585  16.447 -0.19 +0.13    -0.371 OA ENDROOTBRANCH   1   2ATOM      2  C   UNL     1      39.692  47.423  16.667 -0.40 -0.05    +0.196 C  BRANCH   2   3ATOM      3  C   UNL     1      40.417  46.923  17.889 -0.48 +0.00    -0.022 A  ATOM      4  C   UNL     1      41.742  45.995  20.187 -0.38 +0.00    +0.023 A  ATOM      5  C   UNL     1      40.553  45.387  19.772 -0.41 +0.00    +0.012 A  ATOM      6  C   UNL     1      42.285  47.043  19.436 -0.48 +0.00    +0.012 A  ATOM      7  C   UNL     1      39.894  45.855  18.633 -0.45 -0.00    +0.007 A  ATOM      8  C   UNL     1      41.624  47.508  18.298 -0.51 -0.00    +0.007 A  BRANCH   4   9ATOM      9  C   UNL     1      42.495  45.511  21.369 -0.21 +0.05    +0.199 C  ATOM     10  O   UNL     1      43.727  45.571  21.359 -0.06 -0.18    -0.288 OA BRANCH   9  11ATOM     11  C   UNL     1      41.848  44.896  22.547 -0.16 +0.01    +0.104 A  ATOM     12  C   UNL     1      40.278  44.972  24.411 -0.08 +0.01    +0.155 A  ATOM     13  C   UNL     1      40.640  43.671  24.767 -0.14 +0.00    +0.053 A  ATOM     14  C   UNL     1      40.893  45.576  23.305 -0.10 +0.01    +0.179 A  ATOM     15  C   UNL     1      41.619  42.993  24.036 -0.18 -0.00    +0.051 A  ATOM     16  C   UNL     1      42.227  43.608  22.944 -0.20 +0.01    +0.130 A  ATOM     17  F   UNL     1      40.562  46.840  22.995 -0.06 -0.02    -0.202 F  BRANCH  12  18ATOM     18  O   UNL     1      39.347  45.740  25.059 +0.00 -0.02    -0.494 OA ATOM     19  C   UNL     1      38.016  45.713  24.559 -0.17 +0.04    +0.278 C  ENDBRANCH  12  18BRANCH  16  20ATOM     20  O   UNL     1      43.197  42.886  22.301 -0.15 -0.02    -0.507 OA ATOM     21  H   UNL     1      43.893  43.516  22.002 +0.11 +0.08    +0.293 HD ENDBRANCH  16  20ENDBRANCH   9  11ENDBRANCH   4   9ENDBRANCH   2   3ENDBRANCH   1   2BRANCH   1  22ATOM     22  C   UNL     1      38.167  46.502  15.059 -0.37 -0.05    +0.142 C  BRANCH  22  23ATOM     23  C   UNL     1      37.379  47.794  14.801 -0.54 -0.02    +0.035 CG0ATOM     24  G   UNL     1      37.275  48.332  13.378 +0.00 +0.00    +0.000 G0 ENDBRANCH  22  23BRANCH  22  25ATOM     25  C   UNL     1      37.398  45.180  14.823 -0.35 -0.05    +0.125 C  BRANCH  25  26ATOM     26  C   UNL     1      36.589  45.237  13.503 -0.43 -0.04    +0.108 C  BRANCH  26  27ATOM     27  N   UNL     1      37.148  46.048  12.423 -0.31 +0.10    -0.315 NA ATOM     28  H   UNL     1      36.994  45.558  11.540 +0.08 -0.04    +0.122 HD BRANCH  27  29ATOM     29  C   UNL     1      36.630  47.406  12.355 -0.69 -0.03    +0.081 C  BRANCH  29  30ATOM     30  C   UNL     1      37.276  48.332  13.376 -0.51 -0.01    +0.018 CG0ATOM     31  G   UNL     1      37.379  47.794  14.799 +0.00 +0.00    +0.000 G0 ENDBRANCH  29  30ENDBRANCH  27  29ENDBRANCH  26  27ENDBRANCH  25  26BRANCH  25  32ATOM     32  N   UNL     1      36.603  44.810  16.002 -0.12 +0.14    -0.345 N  ATOM     33  C   UNL     1      36.077  43.542  16.143 -0.30 -0.09    +0.251 C  ATOM     34  H   UNL     1      36.886  45.267  16.860 +0.11 -0.06    +0.164 HD ATOM     35  O   UNL     1      36.136  42.681  15.275 -0.36 +0.09    -0.269 OA BRANCH  33  36ATOM     36  C   UNL     1      35.446  43.234  17.455 -0.33 -0.01    +0.042 A  ATOM     37  C   UNL     1      34.334  42.392  17.473 -0.39 -0.01    +0.034 A  ATOM     38  C   UNL     1      35.912  43.786  18.648 -0.32 -0.01    +0.034 A  ATOM     39  C   UNL     1      33.742  42.123  18.693 -0.33 -0.02    +0.112 A  ATOM     40  C   UNL     1      35.247  43.456  19.816 -0.34 -0.01    +0.112 A  ATOM     41  N   UNL     1      34.178  42.634  19.864 -0.53 -0.02    -0.265 NA ENDBRANCH  33  36ENDBRANCH  25  32ENDBRANCH  22  25ENDBRANCH   1  22TORSDOF 9TERENDMDL