MODEL        6USER    Run = 6USERUSER    Estimated Free Energy of Binding    =  -6.99 kcal/mol  [=(1)+(2)+(3)-(4)]USERUSER    (1) Final Intermolecular Energy     = -11.47 kcal/molUSER        vdW + Hbond + desolv Energy     = -12.17 kcal/molUSER        Electrostatic Energy            =  -0.20 kcal/molUSER        Moving Ligand-Fixed Receptor    = -12.37 kcal/molUSER        Moving Ligand-Moving Receptor   =  +0.90 kcal/molUSER    (2) Final Total Internal Energy     =  -2.84 kcal/molUSER    (3) Torsional Free Energy           =  +4.47 kcal/molUSER    (4) Unbound System's Energy         =  -2.84 kcal/molUSERUSERREMARK SMILES COc1ccc(O)c(C(=O)c2ccc(CN[C@@H]3CCCNC[C@H]3NC(=O)c3ccncc3)cc2)c1FREMARK SMILES IDX 16 1 15 3 14 4 11 5 12 6 34 7 13 8 33 9 9 10 10 11 8 12 3 13REMARK SMILES IDX 4 14 35 15 5 16 6 17 36 18 2 19 1 20 7 21 17 23 18 24 23 26REMARK SMILES IDX 22 27 21 28 20 30 19 31 24 33 25 34 26 36 27 37 28 38 32 39REMARK SMILES IDX 29 40 31 41 30 42REMARK H PARENT 16 2 7 22 21 29 24 35REMARK Flexibility Score:   99.900USER                              x       y       z     vdW  Elec       q    TypeUSER                           _______ _______ _______ _____ _____    ______ ____ROOTATOM      1  N   UNL     1      39.520  45.839  20.412 -0.17 -0.00    -0.308 NA ATOM      2  H   UNL     1      39.073  46.445  19.720 +0.04 -0.00    +0.123 HD ENDROOTBRANCH   1   3ATOM      3  C   UNL     1      38.950  44.495  20.295 -0.33 -0.00    +0.117 C  BRANCH   3   4ATOM      4  C   UNL     1      37.735  44.428  19.402 -0.34 +0.00    -0.034 A  ATOM      5  C   UNL     1      35.483  44.297  17.722 -0.29 -0.01    +0.023 A  ATOM      6  C   UNL     1      36.765  44.387  17.169 -0.33 -0.00    +0.012 A  ATOM      7  C   UNL     1      35.327  44.300  19.113 -0.37 -0.00    +0.012 A  ATOM      8  C   UNL     1      37.882  44.443  18.007 -0.34 -0.00    +0.006 A  ATOM      9  C   UNL     1      36.446  44.358  19.947 -0.37 -0.00    +0.006 A  BRANCH   5  10ATOM     10  C   UNL     1      34.265  44.277  16.877 -0.23 -0.09    +0.199 C  ATOM     11  O   UNL     1      34.221  44.991  15.874 -0.20 +0.20    -0.288 OA BRANCH  10  12ATOM     12  C   UNL     1      33.110  43.392  17.140 -0.25 -0.04    +0.104 A  ATOM     13  C   UNL     1      32.161  41.273  17.888 -0.27 -0.04    +0.155 A  ATOM     14  C   UNL     1      30.879  41.753  17.609 -0.26 -0.01    +0.053 A  ATOM     15  C   UNL     1      33.267  42.104  17.656 -0.26 -0.06    +0.179 A  ATOM     16  C   UNL     1      30.707  43.053  17.126 -0.24 -0.01    +0.051 A  ATOM     17  C   UNL     1      31.814  43.870  16.910 -0.21 -0.04    +0.130 A  ATOM     18  F   UNL     1      34.492  41.647  17.964 -0.12 +0.06    -0.202 F  BRANCH  13  19ATOM     19  O   UNL     1      32.452  40.030  18.383 -0.29 +0.03    -0.494 OA ATOM     20  C   UNL     1      31.400  39.074  18.401 -0.31 +0.02    +0.278 C  ENDBRANCH  13  19BRANCH  17  21ATOM     21  O   UNL     1      31.556  45.141  16.471 -0.61 +0.16    -0.507 OA ATOM     22  H   UNL     1      32.408  45.534  16.172 +0.15 -0.22    +0.293 HD ENDBRANCH  17  21ENDBRANCH  10  12ENDBRANCH   5  10ENDBRANCH   3   4ENDBRANCH   1   3BRANCH   1  23ATOM     23  C   UNL     1      40.991  45.889  20.194 -0.39 +0.01    +0.077 C  BRANCH  23  24ATOM     24  C   UNL     1      41.648  46.065  21.569 -0.33 +0.00    +0.022 CG0ATOM     25  G   UNL     1      42.623  47.237  21.682 +0.00 +0.00    +0.000 G0 ENDBRANCH  23  24BRANCH  23  26ATOM     26  C   UNL     1      41.341  47.028  19.186 -0.25 +0.00    +0.113 C  BRANCH  26  27ATOM     27  C   UNL     1      42.798  46.916  18.673 -0.36 +0.01    +0.107 C  BRANCH  27  28ATOM     28  N   UNL     1      43.878  47.441  19.502 -0.18 -0.13    -0.315 NA ATOM     29  H   UNL     1      43.857  48.463  19.466 -0.55 -0.03    +0.122 HD BRANCH  28  30ATOM     30  C   UNL     1      43.916  47.031  20.898 -0.30 +0.05    +0.081 C  BRANCH  30  31ATOM     31  C   UNL     1      42.626  47.239  21.685 -0.34 +0.00    +0.017 CG0ATOM     32  G   UNL     1      41.660  46.061  21.565 +0.00 +0.00    +0.000 G0 ENDBRANCH  30  31ENDBRANCH  28  30ENDBRANCH  27  28ENDBRANCH  26  27BRANCH  26  33ATOM     33  N   UNL     1      40.409  46.978  18.043 -0.25 +0.04    -0.346 N  ATOM     34  C   UNL     1      40.574  47.793  16.944 -0.39 -0.04    +0.251 C  ATOM     35  H   UNL     1      39.696  46.264  18.053 +0.10 -0.02    +0.164 HD ATOM     36  O   UNL     1      41.430  48.666  16.877 -0.94 +0.00    -0.269 OA BRANCH  34  37ATOM     37  C   UNL     1      39.630  47.592  15.814 -0.48 -0.01    +0.042 A  ATOM     38  C   UNL     1      39.238  48.712  15.080 -0.47 -0.02    +0.034 A  ATOM     39  C   UNL     1      39.157  46.330  15.453 -0.40 -0.01    +0.034 A  ATOM     40  C   UNL     1      38.361  48.528  14.029 -0.34 -0.05    +0.112 A  ATOM     41  C   UNL     1      38.284  46.251  14.382 -0.34 -0.03    +0.112 A  ATOM     42  N   UNL     1      37.869  47.321  13.671 -0.37 +0.09    -0.265 NA ENDBRANCH  34  37ENDBRANCH  26  33ENDBRANCH  23  26ENDBRANCH   1  23TORSDOF 9TERENDMDL