MODEL        5USER    Run = 5USERUSER    Estimated Free Energy of Binding    =  -7.31 kcal/mol  [=(1)+(2)+(3)-(4)]USERUSER    (1) Final Intermolecular Energy     = -11.48 kcal/molUSER        vdW + Hbond + desolv Energy     = -12.47 kcal/molUSER        Electrostatic Energy            =  -0.17 kcal/molUSER        Moving Ligand-Fixed Receptor    = -12.64 kcal/molUSER        Moving Ligand-Moving Receptor   =  +1.16 kcal/molUSER    (2) Final Total Internal Energy     =  -2.01 kcal/molUSER    (3) Torsional Free Energy           =  +4.18 kcal/molUSER    (4) Unbound System's Energy         =  -2.01 kcal/molUSERUSERREMARK SMILES COc1ccc(O)c(C(=O)c2ccc(C(=O)N[C@@H]3CCCNC[C@H]3NC(=O)c3ccncc3)cc2)c1FREMARK SMILES IDX 15 1 16 2 17 3 14 5 11 6 12 7 35 8 13 9 34 10 9 11 10 12REMARK SMILES IDX 8 13 3 14 4 15 36 16 5 17 6 18 37 19 2 20 1 21 7 22 18 24REMARK SMILES IDX 19 25 24 27 23 28 22 29 21 31 20 32 25 34 26 35 27 37 28 38REMARK SMILES IDX 29 39 33 40 30 41 32 42 31 43REMARK H PARENT 17 4 7 23 22 30 25 36REMARK Flexibility Score:   88.900USER                              x       y       z     vdW  Elec       q    TypeUSER                           _______ _______ _______ _____ _____    ______ ____ROOTATOM      1  C   UNL     1      38.294  44.744  19.106 -0.27 -0.02    +0.251 C  ATOM      2  O   UNL     1      38.854  45.073  20.146 -0.27 +0.00    -0.269 OA ATOM      3  N   UNL     1      38.894  44.818  17.866 -0.15 +0.05    -0.347 N  ATOM      4  H   UNL     1      38.306  44.729  17.048 +0.10 -0.04    +0.164 HD ENDROOTBRANCH   1   5ATOM      5  C   UNL     1      36.870  44.304  19.126 -0.34 -0.01    +0.039 A  ATOM      6  C   UNL     1      34.207  43.445  19.298 -0.39 -0.00    +0.023 A  ATOM      7  C   UNL     1      35.208  42.769  20.003 -0.44 -0.00    +0.013 A  ATOM      8  C   UNL     1      34.538  44.550  18.506 -0.36 -0.00    +0.013 A  ATOM      9  C   UNL     1      36.538  43.190  19.908 -0.38 -0.00    +0.014 A  ATOM     10  C   UNL     1      35.870  44.974  18.410 -0.33 -0.00    +0.014 A  BRANCH   6  11ATOM     11  C   UNL     1      32.807  43.011  19.495 -0.31 +0.00    +0.199 C  ATOM     12  O   UNL     1      32.259  43.287  20.564 -0.72 -0.06    -0.288 OA BRANCH  11  13ATOM     13  C   UNL     1      32.004  42.306  18.469 -0.27 -0.01    +0.104 A  ATOM     14  C   UNL     1      30.851  42.233  16.319 -0.22 -0.07    +0.155 A  ATOM     15  C   UNL     1      30.489  40.904  16.556 -0.31 -0.01    +0.053 A  ATOM     16  C   UNL     1      31.610  42.922  17.280 -0.18 -0.05    +0.179 A  ATOM     17  C   UNL     1      30.901  40.268  17.730 -0.33 -0.00    +0.051 A  ATOM     18  C   UNL     1      31.663  40.960  18.668 -0.27 -0.01    +0.130 A  ATOM     19  F   UNL     1      31.980  44.187  17.020 -0.04 +0.06    -0.202 F  BRANCH  14  20ATOM     20  O   UNL     1      30.521  42.956  15.203 -0.08 +0.32    -0.494 OA ATOM     21  C   UNL     1      29.690  44.098  15.391 -0.14 -0.20    +0.278 C  ENDBRANCH  14  20BRANCH  18  22ATOM     22  O   UNL     1      32.047  40.246  19.773 -0.72 -0.12    -0.507 OA ATOM     23  H   UNL     1      32.085  40.876  20.531 +0.23 +0.09    +0.293 HD ENDBRANCH  18  22ENDBRANCH  11  13ENDBRANCH   6  11ENDBRANCH   1   5BRANCH   3  24ATOM     24  C   UNL     1      40.185  45.496  17.694 -0.40 -0.01    +0.106 C  BRANCH  24  25ATOM     25  C   UNL     1      41.132  45.105  18.836 -0.47 +0.00    +0.028 CG0ATOM     26  G   UNL     1      41.338  46.171  19.925 +0.00 +0.00    +0.000 G0 ENDBRANCH  24  25BRANCH  24  27ATOM     27  C   UNL     1      39.977  47.030  17.543 -0.44 -0.02    +0.118 C  BRANCH  27  28ATOM     28  C   UNL     1      41.265  47.838  17.259 -0.46 -0.01    +0.108 C  BRANCH  28  29ATOM     29  N   UNL     1      42.426  47.568  18.113 -0.23 +0.01    -0.315 NA ATOM     30  H   UNL     1      42.930  46.755  17.765 -0.51 -0.03    +0.122 HD BRANCH  29  31ATOM     31  C   UNL     1      42.156  47.407  19.537 -0.24 +0.01    +0.081 C  BRANCH  31  32ATOM     32  C   UNL     1      41.338  46.178  19.926 -0.45 +0.00    +0.017 CG0ATOM     33  G   UNL     1      41.119  45.115  18.836 +0.00 +0.00    +0.000 G0 ENDBRANCH  31  32ENDBRANCH  29  31ENDBRANCH  28  29ENDBRANCH  27  28BRANCH  27  34ATOM     34  N   UNL     1      38.949  47.303  16.530 -0.20 +0.13    -0.346 N  ATOM     35  C   UNL     1      38.936  46.645  15.321 -0.31 -0.07    +0.251 C  ATOM     36  H   UNL     1      38.110  47.766  16.841 +0.10 -0.10    +0.164 HD ATOM     37  O   UNL     1      39.810  45.866  14.963 -0.31 +0.04    -0.269 OA BRANCH  35  38ATOM     38  C   UNL     1      37.767  46.900  14.445 -0.42 -0.02    +0.042 A  ATOM     39  C   UNL     1      37.994  47.445  13.181 -0.44 -0.01    +0.034 A  ATOM     40  C   UNL     1      36.460  46.638  14.861 -0.38 -0.02    +0.034 A  ATOM     41  C   UNL     1      36.900  47.684  12.372 -0.47 -0.03    +0.112 A  ATOM     42  C   UNL     1      35.434  46.915  13.976 -0.28 -0.09    +0.112 A  ATOM     43  N   UNL     1      35.626  47.427  12.739 -0.39 +0.17    -0.265 NA ENDBRANCH  35  38ENDBRANCH  27  34ENDBRANCH  24  27ENDBRANCH   3  24TORSDOF 8TERENDMDL