MODEL        9USER    Run = 9USERUSER    Estimated Free Energy of Binding    =  -7.86 kcal/mol  [=(1)+(2)+(3)-(4)]USERUSER    (1) Final Intermolecular Energy     = -12.34 kcal/molUSER        vdW + Hbond + desolv Energy     = -12.14 kcal/molUSER        Electrostatic Energy            =  -0.34 kcal/molUSER        Moving Ligand-Fixed Receptor    = -12.48 kcal/molUSER        Moving Ligand-Moving Receptor   =  +0.14 kcal/molUSER    (2) Final Total Internal Energy     =  -2.34 kcal/molUSER    (3) Torsional Free Energy           =  +4.47 kcal/molUSER    (4) Unbound System's Energy         =  -2.34 kcal/molUSERUSERREMARK SMILES COc1ccc(O)c(C(=O)c2ccc(NC[C@@H]3CCCNC[C@@H]3NC(=O)c3ccncc3)cc2)c1FREMARK SMILES IDX 16 1 15 2 14 4 11 5 12 6 34 7 13 8 33 9 9 10 10 11 8 12 3 13REMARK SMILES IDX 4 14 35 15 5 16 6 17 36 18 2 19 1 20 7 21 17 23 18 24 23 26REMARK SMILES IDX 22 27 21 28 20 30 19 31 24 33 25 34 26 36 27 37 28 38 32 39REMARK SMILES IDX 29 40 31 41 30 42REMARK H PARENT 15 3 7 22 21 29 24 35REMARK Flexibility Score:   99.900USER                              x       y       z     vdW  Elec       q    TypeUSER                           _______ _______ _______ _____ _____    ______ ____ROOTATOM      1  C   UNL     1      38.955  45.728  15.396 -0.25 -0.03    +0.118 C  ENDROOTBRANCH   1   2ATOM      2  N   UNL     1      39.523  46.917  16.037 -0.17 +0.10    -0.385 N  ATOM      3  H   UNL     1      39.784  47.643  15.377 +0.13 -0.04    +0.160 HD BRANCH   2   4ATOM      4  C   UNL     1      40.358  46.844  17.148 -0.48 -0.00    +0.034 A  ATOM      5  C   UNL     1      42.067  46.872  19.404 -0.46 +0.00    +0.023 A  ATOM      6  C   UNL     1      40.958  46.024  19.366 -0.43 +0.00    +0.014 A  ATOM      7  C   UNL     1      42.293  47.749  18.343 -0.49 -0.00    +0.014 A  ATOM      8  C   UNL     1      40.111  46.019  18.251 -0.45 -0.00    +0.026 A  ATOM      9  C   UNL     1      41.439  47.732  17.233 -0.36 -0.00    +0.026 A  BRANCH   5  10ATOM     10  C   UNL     1      42.918  46.870  20.618 -0.33 +0.06    +0.199 C  ATOM     11  O   UNL     1      44.138  46.995  20.495 -0.46 -0.23    -0.288 OA BRANCH  10  12ATOM     12  C   UNL     1      42.384  46.668  21.983 -0.24 +0.02    +0.104 A  ATOM     13  C   UNL     1      41.221  45.323  23.653 -0.08 +0.01    +0.155 A  ATOM     14  C   UNL     1      41.405  46.337  24.594 -0.11 +0.00    +0.053 A  ATOM     15  C   UNL     1      41.708  45.503  22.349 -0.14 +0.02    +0.179 A  ATOM     16  C   UNL     1      42.051  47.521  24.231 -0.21 +0.01    +0.051 A  ATOM     17  C   UNL     1      42.522  47.689  22.931 -0.25 +0.02    +0.130 A  ATOM     18  F   UNL     1      41.487  44.539  21.441 -0.07 -0.02    -0.202 F  BRANCH  13  19ATOM     19  O   UNL     1      40.589  44.130  23.886 +0.00 -0.02    -0.494 OA ATOM     20  C   UNL     1      39.287  43.964  23.340 -0.14 +0.01    +0.278 C  ENDBRANCH  13  19BRANCH  17  21ATOM     21  O   UNL     1      43.114  48.892  22.649 -0.66 -0.13    -0.507 OA ATOM     22  H   UNL     1      43.690  48.767  21.861 -0.44 -0.02    +0.293 HD ENDBRANCH  17  21ENDBRANCH  10  12ENDBRANCH   5  10ENDBRANCH   2   4ENDBRANCH   1   2BRANCH   1  23ATOM     23  C   UNL     1      38.492  46.016  13.946 -0.38 -0.01    +0.032 C  BRANCH  23  24ATOM     24  C   UNL     1      38.369  47.537  13.721 -0.54 -0.00    +0.009 CG0ATOM     25  G   UNL     1      36.980  48.176  13.765 +0.00 +0.00    +0.000 G0 ENDBRANCH  23  24BRANCH  23  26ATOM     26  C   UNL     1      37.227  45.192  13.612 -0.44 -0.03    +0.101 C  BRANCH  26  27ATOM     27  C   UNL     1      36.591  45.641  12.275 -0.58 -0.04    +0.106 C  BRANCH  27  28ATOM     28  N   UNL     1      35.561  46.682  12.393 -0.34 +0.19    -0.315 NA ATOM     29  H   UNL     1      34.998  46.652  11.539 -0.21 -0.10    +0.122 HD BRANCH  28  30ATOM     30  C   UNL     1      36.121  48.029  12.514 -0.59 -0.04    +0.081 C  BRANCH  30  31ATOM     31  C   UNL     1      36.980  48.176  13.764 -0.63 -0.01    +0.016 CG0ATOM     32  G   UNL     1      38.368  47.536  13.722 +0.00 +0.00    +0.000 G0 ENDBRANCH  30  31ENDBRANCH  28  30ENDBRANCH  27  28ENDBRANCH  26  27BRANCH  26  33ATOM     33  N   UNL     1      36.219  45.233  14.669 -0.14 +0.17    -0.348 N  ATOM     34  C   UNL     1      36.168  44.325  15.698 -0.26 -0.10    +0.251 C  ATOM     35  H   UNL     1      35.481  45.913  14.526 +0.12 -0.12    +0.164 HD ATOM     36  O   UNL     1      36.963  43.398  15.811 -0.28 +0.08    -0.269 OA BRANCH  34  37ATOM     37  C   UNL     1      35.071  44.492  16.688 -0.28 -0.02    +0.042 A  ATOM     38  C   UNL     1      34.094  43.497  16.759 -0.32 -0.01    +0.034 A  ATOM     39  C   UNL     1      35.004  45.582  17.556 -0.35 -0.02    +0.034 A  ATOM     40  C   UNL     1      33.076  43.647  17.681 -0.23 -0.03    +0.112 A  ATOM     41  C   UNL     1      33.944  45.638  18.444 -0.39 -0.06    +0.112 A  ATOM     42  N   UNL     1      32.978  44.699  18.522 -0.20 +0.07    -0.265 NA ENDBRANCH  34  37ENDBRANCH  26  33ENDBRANCH  23  26ENDBRANCH   1  23TORSDOF 9TERENDMDL