MODEL        3USER    Run = 3USERUSER    Estimated Free Energy of Binding    =  -6.65 kcal/mol  [=(1)+(2)+(3)-(4)]USERUSER    (1) Final Intermolecular Energy     = -11.13 kcal/molUSER        vdW + Hbond + desolv Energy     = -11.85 kcal/molUSER        Electrostatic Energy            =  -0.76 kcal/molUSER        Moving Ligand-Fixed Receptor    = -12.60 kcal/molUSER        Moving Ligand-Moving Receptor   =  +1.48 kcal/molUSER    (2) Final Total Internal Energy     =  -2.34 kcal/molUSER    (3) Torsional Free Energy           =  +4.47 kcal/molUSER    (4) Unbound System's Energy         =  -2.34 kcal/molUSERUSERREMARK SMILES COc1ccc(O)c(C(=O)c2ccc(C(=O)O[C@@H]3CCCNC[C@H]3NC(=O)c3ccncc3)cc2)c1FREMARK SMILES IDX 17 1 15 2 16 3 14 4 11 5 12 6 35 7 13 8 34 9 9 10 10 11 8 12REMARK SMILES IDX 3 13 4 14 36 15 5 16 6 17 37 18 2 19 1 20 7 21 18 23 24 25REMARK SMILES IDX 23 26 22 27 21 29 20 30 19 31 25 33 26 34 27 36 28 37 29 38REMARK SMILES IDX 33 39 30 40 32 41 31 42REMARK H PARENT 7 22 22 28 25 35REMARK Flexibility Score:   99.900USER                              x       y       z     vdW  Elec       q    TypeUSER                           _______ _______ _______ _____ _____    ______ ____ROOTATOM      1  O   UNL     1      32.573  43.777  15.514 -0.11 +0.24    -0.457 OA ENDROOTBRANCH   1   2ATOM      2  C   UNL     1      31.689  44.715  15.940 -0.17 -0.16    +0.338 C  ATOM      3  O   UNL     1      31.952  45.832  16.363 -0.64 +0.15    -0.246 OA BRANCH   2   4ATOM      4  C   UNL     1      30.305  44.206  15.777 -0.28 -0.03    +0.060 A  ATOM      5  C   UNL     1      27.659  43.318  15.469 -0.15 -0.02    +0.023 A  ATOM      6  C   UNL     1      28.683  42.400  15.743 -0.23 -0.01    +0.013 A  ATOM      7  C   UNL     1      27.967  44.682  15.355 -0.15 -0.01    +0.013 A  ATOM      8  C   UNL     1      30.001  42.843  15.896 -0.29 -0.01    +0.016 A  ATOM      9  C   UNL     1      29.282  45.126  15.518 -0.29 -0.01    +0.016 A  BRANCH   5  10ATOM     10  C   UNL     1      26.246  42.897  15.271 -0.21 -0.09    +0.199 C  ATOM     11  O   UNL     1      25.834  41.834  15.724 -0.20 +0.07    -0.288 OA BRANCH  10  12ATOM     12  C   UNL     1      25.310  43.746  14.523 -0.27 -0.03    +0.104 A  ATOM     13  C   UNL     1      23.998  45.782  14.412 -0.17 +0.03    +0.155 A  ATOM     14  C   UNL     1      23.491  45.369  13.173 -0.19 +0.00    +0.053 A  ATOM     15  C   UNL     1      24.906  44.955  15.084 -0.22 +0.02    +0.179 A  ATOM     16  C   UNL     1      23.910  44.161  12.602 -0.20 +0.02    +0.051 A  ATOM     17  C   UNL     1      24.826  43.355  13.275 -0.25 -0.00    +0.130 A  ATOM     18  F   UNL     1      25.424  45.355  16.256 -0.12 -0.06    -0.202 F  BRANCH  13  19ATOM     19  O   UNL     1      23.700  46.963  15.038 -0.73 -0.23    -0.494 OA ATOM     20  C   UNL     1      23.371  48.075  14.215 -0.29 +0.03    +0.278 C  ENDBRANCH  13  19BRANCH  17  21ATOM     21  O   UNL     1      25.255  42.186  12.715 -0.00 +0.13    -0.507 OA ATOM     22  H   UNL     1      26.049  41.867  13.174 -0.25 -0.44    +0.293 HD ENDBRANCH  17  21ENDBRANCH  10  12ENDBRANCH   5  10ENDBRANCH   2   4ENDBRANCH   1   2BRANCH   1  23ATOM     23  C   UNL     1      33.608  43.385  16.454 -0.26 -0.09    +0.200 CG0ATOM     24  G   UNL     1      33.000  42.330  17.378 +0.00 +0.00    +0.000 G0 BRANCH  23  25ATOM     25  C   UNL     1      34.077  44.666  17.174 -0.28 -0.07    +0.137 C  BRANCH  25  26ATOM     26  C   UNL     1      35.054  44.425  18.342 -0.32 -0.03    +0.109 C  BRANCH  26  27ATOM     27  N   UNL     1      34.409  44.273  19.647 -0.21 +0.06    -0.315 NA ATOM     28  H   UNL     1      33.845  45.105  19.822 -0.27 -0.05    +0.122 HD BRANCH  27  29ATOM     29  C   UNL     1      33.558  43.090  19.810 -0.32 +0.00    +0.081 C  BRANCH  29  30ATOM     30  C   UNL     1      32.490  42.815  18.743 -0.41 -0.00    +0.019 C  BRANCH  30  31ATOM     31  C   UNL     1      32.994  42.331  17.378 -0.38 -0.02    +0.049 CG0ATOM     32  G   UNL     1      33.588  43.397  16.457 +0.00 +0.00    +0.000 G0 ENDBRANCH  30  31ENDBRANCH  29  30ENDBRANCH  27  29ENDBRANCH  26  27ENDBRANCH  25  26BRANCH  25  33ATOM     33  N   UNL     1      34.678  45.578  16.191 -0.11 +0.30    -0.344 N  ATOM     34  C   UNL     1      35.795  45.243  15.467 -0.23 -0.14    +0.251 C  ATOM     35  H   UNL     1      34.075  46.313  15.847 -0.13 -0.27    +0.164 HD ATOM     36  O   UNL     1      36.411  44.194  15.605 -0.26 +0.10    -0.269 OA BRANCH  34  37ATOM     37  C   UNL     1      36.236  46.238  14.461 -0.39 -0.03    +0.042 A  ATOM     38  C   UNL     1      36.094  45.930  13.110 -0.49 -0.02    +0.034 A  ATOM     39  C   UNL     1      36.820  47.444  14.844 -0.41 -0.03    +0.034 A  ATOM     40  C   UNL     1      36.523  46.864  12.186 -0.59 -0.05    +0.112 A  ATOM     41  C   UNL     1      37.222  48.308  13.841 -0.47 -0.06    +0.112 A  ATOM     42  N   UNL     1      37.080  48.048  12.523 -0.93 +0.05    -0.265 NA ENDBRANCH  34  37ENDBRANCH  25  33ENDBRANCH  23  25ENDBRANCH   1  23TORSDOF 9TERENDMDL