REMARK SMILES Oc1nc2ccccc2n1C1CCN(Cc2ccc(-c3nc4ccccc4nc3-c3ccc(N4CCOCC4)cc3)c(-n3ccnn3)n2)CC1
REMARK SMILES IDX 15 1 14 2 11 3 12 4 50 5 13 6 49 7 10 8 2 9 3 10 4 11 9 12
REMARK SMILES IDX 5 13 8 14 6 15 7 16 1 17 16 19 17 20 48 21 18 22 42 23 19 24
REMARK SMILES IDX 43 25 44 26 47 27 45 28 46 29 20 30 21 31 29 32 22 33 28 34
REMARK SMILES IDX 23 35 27 36 24 37 26 38 25 39 30 40 31 41 41 42 32 43 40 44
REMARK SMILES IDX 33 45 34 46 35 47 39 48 36 49 38 50 37 51
REMARK H PARENT 1 18
ROOT
ATOM      1  C   UNL     1       1.719  -0.870  -1.872  1.00  0.00     0.140 C 
ENDROOT
BRANCH   1   2
ATOM      2  N   UNL     1       3.011  -0.926  -1.151  1.00  0.00    -0.297 NA
ATOM      3  C   UNL     1       5.658  -0.869  -0.254  1.00  0.00     0.095 C 
ATOM      4  C   UNL     1       5.109  -2.160  -0.884  1.00  0.00     0.041 C 
ATOM      5  C   UNL     1       5.170   0.376  -1.000  1.00  0.00     0.041 C 
ATOM      6  C   UNL     1       3.901  -1.903  -1.784  1.00  0.00     0.087 C 
ATOM      7  C   UNL     1       3.637   0.408  -1.079  1.00  0.00     0.087 C 
BRANCH   3   8
ATOM      8  N   UNL     1       7.106  -0.904  -0.099  1.00  0.00    -0.291 N 
ATOM      9  C   UNL     1       8.030  -0.919  -1.106  1.00  0.00     0.295 A 
ATOM     10  N   UNL     1       9.262  -0.955  -0.679  1.00  0.00    -0.195 NA
ATOM     11  C   UNL     1       9.146  -0.976   0.689  1.00  0.00     0.092 A 
ATOM     12  C   UNL     1       7.808  -0.949   1.088  1.00  0.00     0.072 A 
ATOM     13  C   UNL     1      10.156  -1.023   1.662  1.00  0.00     0.031 A 
ATOM     14  C   UNL     1       7.427  -0.970   2.436  1.00  0.00     0.029 A 
ATOM     15  C   UNL     1       9.793  -1.046   3.014  1.00  0.00     0.002 A 
ATOM     16  C   UNL     1       8.450  -1.020   3.391  1.00  0.00     0.002 A 
BRANCH   9  17
ATOM     17  O   UNL     1       7.743  -0.915  -2.391  1.00  0.00    -0.480 OA
ATOM     18  H   UNL     1       8.635  -0.932  -2.784  1.00  0.00     0.296 HD
ENDBRANCH   9  17
ENDBRANCH   3   8
ENDBRANCH   1   2
BRANCH   1  19
ATOM     19  C   UNL     1       0.660  -0.011  -1.206  1.00  0.00     0.057 A 
ATOM     20  C   UNL     1       0.235  -0.276   0.083  1.00  0.00     0.026 A 
ATOM     21  N   UNL     1       0.141   1.008  -1.930  1.00  0.00    -0.232 NA
ATOM     22  C   UNL     1      -0.746   0.539   0.638  1.00  0.00     0.016 A 
ATOM     23  C   UNL     1      -0.837   1.806  -1.396  1.00  0.00     0.164 A 
ATOM     24  C   UNL     1      -1.319   1.605  -0.092  1.00  0.00     0.047 A 
BRANCH  23  25
ATOM     25  N   UNL     1      -1.341   2.811  -2.294  1.00  0.00    -0.202 N 
ATOM     26  C   UNL     1      -2.431   3.656  -2.223  1.00  0.00     0.139 A 
ATOM     27  N   UNL     1      -0.747   2.994  -3.510  1.00  0.00    -0.061 NA
ATOM     28  C   UNL     1      -2.409   4.378  -3.391  1.00  0.00     0.158 A 
ATOM     29  N   UNL     1      -1.383   3.954  -4.167  1.00  0.00    -0.139 NA
ENDBRANCH  23  25
BRANCH  24  30
ATOM     30  C   UNL     1      -2.313   2.432   0.597  1.00  0.00     0.101 A 
ATOM     31  N   UNL     1      -1.870   3.683   0.895  1.00  0.00    -0.244 NA
ATOM     32  C   UNL     1      -3.587   1.992   0.988  1.00  0.00     0.097 A 
ATOM     33  C   UNL     1      -2.699   4.489   1.585  1.00  0.00     0.089 A 
ATOM     34  N   UNL     1      -4.418   2.810   1.690  1.00  0.00    -0.244 NA
ATOM     35  C   UNL     1      -2.295   5.779   1.907  1.00  0.00     0.030 A 
ATOM     36  C   UNL     1      -3.981   4.048   1.985  1.00  0.00     0.089 A 
ATOM     37  C   UNL     1      -3.131   6.645   2.615  1.00  0.00     0.002 A 
ATOM     38  C   UNL     1      -4.803   4.917   2.692  1.00  0.00     0.030 A 
ATOM     39  C   UNL     1      -4.389   6.212   3.010  1.00  0.00     0.002 A 
BRANCH  32  40
ATOM     40  C   UNL     1      -4.145   0.658   0.703  1.00  0.00     0.003 A 
ATOM     41  C   UNL     1      -4.697  -0.113   1.734  1.00  0.00     0.012 A 
ATOM     42  C   UNL     1      -4.158   0.108  -0.586  1.00  0.00     0.012 A 
ATOM     43  C   UNL     1      -5.209  -1.394   1.487  1.00  0.00     0.026 A 
ATOM     44  C   UNL     1      -4.665  -1.178  -0.825  1.00  0.00     0.026 A 
ATOM     45  C   UNL     1      -5.207  -1.959   0.203  1.00  0.00     0.037 A 
BRANCH  45  46
ATOM     46  N   UNL     1      -5.701  -3.257   0.014  1.00  0.00    -0.367 N 
ATOM     47  C   UNL     1      -7.126  -3.424   0.396  1.00  0.00     0.145 C 
ATOM     48  C   UNL     1      -5.395  -3.946  -1.260  1.00  0.00     0.145 C 
ATOM     49  C   UNL     1      -7.498  -4.917   0.400  1.00  0.00     0.181 C 
ATOM     50  C   UNL     1      -5.823  -5.420  -1.174  1.00  0.00     0.181 C 
ATOM     51  O   UNL     1      -7.220  -5.541  -0.864  1.00  0.00    -0.378 OA
ENDBRANCH  45  46
ENDBRANCH  32  40
ENDBRANCH  24  30
ENDBRANCH   1  19
TORSDOF 8
