REMARK SMILES CC(C)c1cccc(C=c2ncc3c(c2F)C=NNC=3NCC2CC2)c1CN1CCN(C)CC1
REMARK SMILES IDX 9 1 8 2 4 3 5 4 26 5 6 6 7 7 2 8 1 9 3 10 27 11 28 12 29 13
REMARK SMILES IDX 34 14 30 15 33 16 31 17 32 18 10 19 11 20 15 21 12 22 14 23
REMARK SMILES IDX 13 24 17 25 20 26 18 27 19 28 16 29 21 31 22 33 23 34 24 35
REMARK SMILES IDX 25 36
REMARK H PARENT 19 30 21 32
ROOT
ATOM      1  C   UNL     1       0.407   1.368  -1.790  1.00  0.00     0.040 C 
ENDROOT
BRANCH   1   2
ATOM      2  C   UNL     1      -0.562   2.328  -1.238  1.00  0.00    -0.019 A 
ATOM      3  C   UNL     1      -2.830   3.082  -0.702  1.00  0.00    -0.040 A 
ATOM      4  C   UNL     1      -2.271   4.282  -0.213  1.00  0.00     0.004 A 
ATOM      5  C   UNL     1      -1.960   2.074  -1.210  1.00  0.00    -0.023 A 
ATOM      6  C   UNL     1      -0.900   4.513  -0.247  1.00  0.00     0.001 A 
ATOM      7  C   UNL     1      -0.051   3.546  -0.766  1.00  0.00     0.008 A 
BRANCH   3   8
ATOM      8  C   UNL     1      -4.348   2.911  -0.648  1.00  0.00     0.013 C 
ATOM      9  C   UNL     1      -5.088   4.059  -1.347  1.00  0.00     0.012 C 
ATOM     10  C   UNL     1      -4.832   2.756   0.796  1.00  0.00     0.012 C 
ENDBRANCH   3   8
BRANCH   5  11
ATOM     11  C   UNL     1      -2.504   0.745  -1.729  1.00  0.00     0.121 C 
BRANCH  11  12
ATOM     12  N   UNL     1      -3.178  -0.071  -0.703  1.00  0.00    -0.297 NA
ATOM     13  C   UNL     1      -2.233  -0.558   0.322  1.00  0.00     0.100 C 
ATOM     14  C   UNL     1      -3.845  -1.230  -1.330  1.00  0.00     0.100 C 
ATOM     15  C   UNL     1      -2.917  -1.477   1.360  1.00  0.00     0.099 C 
ATOM     16  C   UNL     1      -4.535  -2.141  -0.290  1.00  0.00     0.099 C 
ATOM     17  N   UNL     1      -3.589  -2.630   0.731  1.00  0.00    -0.304 NA
ATOM     18  C   UNL     1      -4.279  -3.437   1.734  1.00  0.00     0.105 C 
ENDBRANCH  11  12
ENDBRANCH   5  11
ENDBRANCH   1   2
BRANCH   1  19
ATOM     19  C   UNL     1       1.270   0.576  -1.124  1.00  0.00     0.100 A 
ATOM     20  N   UNL     1       2.086  -0.246  -1.892  1.00  0.00    -0.253 NA
ATOM     21  C   UNL     1       1.383   0.518   0.338  1.00  0.00     0.158 A 
ATOM     22  C   UNL     1       2.957  -1.010  -1.303  1.00  0.00     0.124 A 
ATOM     23  C   UNL     1       2.283  -0.266   0.936  1.00  0.00     0.045 A 
ATOM     24  C   UNL     1       3.176  -1.076   0.157  1.00  0.00     0.046 A 
ATOM     25  C   UNL     1       2.427  -0.342   2.402  1.00  0.00     0.145 C 
ATOM     26  C   UNL     1       4.093  -1.846   0.781  1.00  0.00     0.129 C 
ATOM     27  N   UNL     1       3.303  -1.095   2.999  1.00  0.00    -0.182 NA
ATOM     28  N   UNL     1       4.094  -1.850   2.172  1.00  0.00    -0.263 N 
ATOM     29  F   UNL     1       0.557   1.269   1.097  1.00  0.00    -0.204 F 
ATOM     30  H   UNL     1       4.848  -2.371   2.610  1.00  0.00     0.192 HD
BRANCH  26  31
ATOM     31  N   UNL     1       5.003  -2.650   0.112  1.00  0.00    -0.370 N 
ATOM     32  H   UNL     1       5.332  -3.385   0.734  1.00  0.00     0.162 HD
BRANCH  31  33
ATOM     33  C   UNL     1       6.144  -2.087  -0.610  1.00  0.00     0.118 C 
BRANCH  33  34
ATOM     34  C   UNL     1       7.225  -1.723   0.362  1.00  0.00     0.008 C 
ATOM     35  C   UNL     1       8.676  -1.816  -0.037  1.00  0.00     0.006 C 
ATOM     36  C   UNL     1       8.111  -2.784   0.966  1.00  0.00     0.006 C 
ENDBRANCH  33  34
ENDBRANCH  31  33
ENDBRANCH  26  31
ENDBRANCH   1  19
TORSDOF 8
