MODEL        10USER    Run = 10USERUSER    Estimated Free Energy of Binding    = -11.51 kcal/mol  [=(1)+(2)+(3)-(4)]USERUSER    (1) Final Intermolecular Energy     = -13.90 kcal/molUSER        vdW + Hbond + desolv Energy     = -13.77 kcal/molUSER        Electrostatic Energy            =  -0.13 kcal/molUSER        Moving Ligand-Fixed Receptor    = -13.90 kcal/molUSER        Moving Ligand-Moving Receptor   =  +0.00 kcal/molUSER    (2) Final Total Internal Energy     =  -1.73 kcal/molUSER    (3) Torsional Free Energy           =  +2.39 kcal/molUSER    (4) Unbound System's Energy         =  -1.73 kcal/molUSERUSERREMARK SMILES CC(C)c1cccc(C=c2ncc3c(c2F)C=NNC=3NCC2CC2)c1CN1CCN(C)CC1REMARK SMILES IDX 9 1 8 2 4 3 5 4 26 5 6 6 7 7 2 8 1 9 3 10 27 11 28 12 29 13REMARK SMILES IDX 34 14 30 15 33 16 31 17 32 18 10 19 11 20 15 21 12 22 14 23REMARK SMILES IDX 13 24 17 25 20 26 18 27 19 28 16 29 21 31 22 33 23 34 24 35REMARK SMILES IDX 25 36REMARK H PARENT 19 30 21 32USER                              x       y       z     vdW  Elec       q    TypeUSER                           _______ _______ _______ _____ _____    ______ ____ROOTATOM      1  C   UNL     1      39.385  44.426  19.095 -0.40 -0.00    +0.040 C  ENDROOTBRANCH   1   2ATOM      2  C   UNL     1      39.180  44.590  20.543 -0.34 -0.00    -0.019 A  ATOM      3  C   UNL     1      38.002  44.159  22.646 -0.32 -0.00    -0.040 A  ATOM      4  C   UNL     1      38.886  45.060  23.278 -0.28 +0.00    +0.004 A  ATOM      5  C   UNL     1      38.159  43.902  21.253 -0.33 -0.00    -0.023 A  ATOM      6  C   UNL     1      39.881  45.723  22.566 -0.28 +0.00    +0.001 A  ATOM      7  C   UNL     1      40.020  45.497  21.205 -0.32 +0.00    +0.008 A  BRANCH   3   8ATOM      8  C   UNL     1      36.922  43.485  23.493 -0.38 +0.00    +0.013 C  ATOM      9  C   UNL     1      36.908  44.003  24.937 -0.39 +0.00    +0.012 C  ATOM     10  C   UNL     1      37.075  41.962  23.466 -0.49 +0.00    +0.012 C  ENDBRANCH   3   8BRANCH   5  11ATOM     11  C   UNL     1      37.249  42.919  20.521 -0.28 -0.00    +0.121 C  BRANCH  11  12ATOM     12  N   UNL     1      35.939  43.479  20.143 -0.22 +0.02    -0.297 NA ATOM     13  C   UNL     1      35.028  42.442  19.619 -0.42 -0.01    +0.100 C  ATOM     14  C   UNL     1      36.110  44.530  19.119 -0.34 -0.02    +0.100 C  ATOM     15  C   UNL     1      33.678  43.031  19.149 -0.39 -0.01    +0.099 C  ATOM     16  C   UNL     1      34.759  45.123  18.659 -0.40 -0.04    +0.099 C  ATOM     17  N   UNL     1      33.851  44.086  18.132 -0.10 +0.09    -0.304 NA ATOM     18  C   UNL     1      32.562  44.665  17.763 -0.27 -0.03    +0.105 C  ENDBRANCH  11  12ENDBRANCH   5  11ENDBRANCH   1   2BRANCH   1  19ATOM     19  C   UNL     1      39.435  45.381  18.145 -0.36 -0.01    +0.100 A  ATOM     20  N   UNL     1      38.462  45.330  17.154 -0.21 +0.06    -0.253 NA ATOM     21  C   UNL     1      40.449  46.440  18.087 -0.37 -0.01    +0.158 A  ATOM     22  C   UNL     1      38.446  46.243  16.229 -0.31 -0.04    +0.124 A  ATOM     23  C   UNL     1      40.424  47.377  17.137 -0.48 -0.01    +0.045 A  ATOM     24  C   UNL     1      39.391  47.376  16.140 -0.45 -0.01    +0.046 A  ATOM     25  C   UNL     1      41.424  48.458  17.055 -0.39 -0.00    +0.145 C  ATOM     26  C   UNL     1      39.371  48.345  15.200 -0.51 -0.05    +0.129 C  ATOM     27  N   UNL     1      41.408  49.382  16.139 -1.05 +0.00    -0.182 NA ATOM     28  N   UNL     1      40.398  49.284  15.218 -0.38 +0.09    -0.263 N  ATOM     29  F   UNL     1      41.433  46.467  19.011 -0.15 -0.01    -0.204 F  ATOM     30  H   UNL     1      40.309  50.046  14.553 -0.10 -0.12    +0.192 HD BRANCH  26  31ATOM     31  N   UNL     1      38.407  48.432  14.208 -0.24 +0.17    -0.370 N  ATOM     32  H   UNL     1      38.522  49.303  13.694 -0.36 -0.09    +0.162 HD BRANCH  31  33ATOM     33  C   UNL     1      36.986  48.228  14.493 -0.48 -0.09    +0.118 C  BRANCH  33  34ATOM     34  C   UNL     1      36.345  47.494  13.355 -0.65 -0.00    +0.008 C  ATOM     35  C   UNL     1      36.606  46.023  13.149 -0.60 -0.00    +0.006 C  ATOM     36  C   UNL     1      37.163  47.027  12.177 -0.72 -0.00    +0.006 C  ENDBRANCH  33  34ENDBRANCH  31  33ENDBRANCH  26  31ENDBRANCH   1  19TORSDOF 8TERENDMDL