MODEL        7USER    Run = 7USERUSER    Estimated Free Energy of Binding    = -12.99 kcal/mol  [=(1)+(2)+(3)-(4)]USERUSER    (1) Final Intermolecular Energy     = -15.38 kcal/molUSER        vdW + Hbond + desolv Energy     = -15.28 kcal/molUSER        Electrostatic Energy            =  -0.10 kcal/molUSER        Moving Ligand-Fixed Receptor    = -15.38 kcal/molUSER        Moving Ligand-Moving Receptor   =  +0.00 kcal/molUSER    (2) Final Total Internal Energy     =  -2.51 kcal/molUSER    (3) Torsional Free Energy           =  +2.39 kcal/molUSER    (4) Unbound System's Energy         =  -2.51 kcal/molUSERUSERREMARK SMILES Oc1nc2ccccc2n1C1CCN(Cc2ccc(-c3nc4ccccc4nc3-c3ccc(N4CCOCC4)cc3)c(-n3ccnn3)n2)CC1REMARK SMILES IDX 15 1 14 2 11 3 12 4 50 5 13 6 49 7 10 8 2 9 3 10 4 11 9 12REMARK SMILES IDX 5 13 8 14 6 15 7 16 1 17 16 19 17 20 48 21 18 22 42 23 19 24REMARK SMILES IDX 43 25 44 26 47 27 45 28 46 29 20 30 21 31 29 32 22 33 28 34REMARK SMILES IDX 23 35 27 36 24 37 26 38 25 39 30 40 31 41 41 42 32 43 40 44REMARK SMILES IDX 33 45 34 46 35 47 39 48 36 49 38 50 37 51REMARK H PARENT 1 18USER                              x       y       z     vdW  Elec       q    TypeUSER                           _______ _______ _______ _____ _____    ______ ____ROOTATOM      1  C   UNL     1      41.633  44.421  20.672 -0.29 +0.02    +0.140 C  ENDROOTBRANCH   1   2ATOM      2  N   UNL     1      41.375  45.014  19.340 -0.21 -0.03    -0.297 NA ATOM      3  C   UNL     1      40.654  46.525  17.102 -0.48 -0.01    +0.095 C  ATOM      4  C   UNL     1      39.670  45.476  17.645 -0.44 -0.00    +0.041 C  ATOM      5  C   UNL     1      41.352  47.284  18.233 -0.56 -0.00    +0.041 C  ATOM      6  C   UNL     1      39.932  45.132  19.110 -0.43 -0.00    +0.087 C  ATOM      7  C   UNL     1      42.052  46.317  19.198 -0.46 +0.01    +0.087 C  BRANCH   3   8ATOM      8  N   UNL     1      40.032  47.411  16.126 -0.28 +0.06    -0.291 N  ATOM      9  C   UNL     1      40.429  48.681  15.814 -0.34 -0.07    +0.295 A  ATOM     10  N   UNL     1      39.686  49.248  14.904 -0.25 +0.10    -0.195 NA ATOM     11  C   UNL     1      38.737  48.302  14.605 -0.45 -0.04    +0.092 A  ATOM     12  C   UNL     1      38.921  47.139  15.355 -0.41 -0.02    +0.072 A  ATOM     13  C   UNL     1      37.672  48.375  13.693 -0.45 -0.01    +0.031 A  ATOM     14  C   UNL     1      38.075  46.028  15.237 -0.37 -0.01    +0.029 A  ATOM     15  C   UNL     1      36.816  47.275  13.563 -0.56 -0.00    +0.002 A  ATOM     16  C   UNL     1      37.017  46.122  14.324 -0.42 -0.00    +0.002 A  BRANCH   9  17ATOM     17  O   UNL     1      41.445  49.309  16.368 -0.88 -0.01    -0.480 OA ATOM     18  H   UNL     1      41.100  50.219  16.419 +0.13 -0.06    +0.296 HD ENDBRANCH   9  17ENDBRANCH   3   8ENDBRANCH   1   2BRANCH   1  19ATOM     19  C   UNL     1      40.804  45.011  21.798 -0.24 +0.00    +0.057 A  ATOM     20  C   UNL     1      39.538  44.530  22.078 -0.27 +0.00    +0.026 A  ATOM     21  N   UNL     1      41.346  46.034  22.500 -0.12 -0.02    -0.232 NA ATOM     22  C   UNL     1      38.820  45.117  23.115 -0.29 +0.00    +0.016 A  ATOM     23  C   UNL     1      40.640  46.627  23.513 -0.15 +0.01    +0.164 A  ATOM     24  C   UNL     1      39.350  46.193  23.862 -0.25 +0.00    +0.047 A  BRANCH  23  25ATOM     25  N   UNL     1      41.310  47.739  24.134 -0.18 -0.03    -0.202 N  ATOM     26  C   UNL     1      41.374  48.168  25.445 -0.19 +0.02    +0.139 A  ATOM     27  N   UNL     1      41.978  48.646  23.362 -0.53 -0.01    -0.061 NA ATOM     28  C   UNL     1      42.151  49.301  25.420 -0.23 +0.02    +0.158 A  ATOM     29  N   UNL     1      42.501  49.582  24.142 -0.76 -0.06    -0.139 NA ENDBRANCH  23  25BRANCH  24  30ATOM     30  C   UNL     1      38.534  46.713  24.962 -0.24 +0.01    +0.101 A  ATOM     31  N   UNL     1      37.917  47.891  24.675 -0.44 -0.04    -0.244 NA ATOM     32  C   UNL     1      38.424  46.117  26.228 -0.21 -0.00    +0.097 A  ATOM     33  C   UNL     1      37.197  48.471  25.654 -0.39 +0.00    +0.089 A  ATOM     34  N   UNL     1      37.699  46.711  27.214 -0.18 +0.03    -0.244 NA ATOM     35  C   UNL     1      36.542  49.672  25.407 -0.45 -0.00    +0.030 A  ATOM     36  C   UNL     1      37.088  47.876  26.931 -0.30 -0.01    +0.089 A  ATOM     37  C   UNL     1      35.780  50.298  26.396 -0.32 +0.00    +0.002 A  ATOM     38  C   UNL     1      36.330  48.510  27.908 -0.32 -0.00    +0.030 A  ATOM     39  C   UNL     1      35.675  49.716  27.651 -0.25 +0.00    +0.002 A  BRANCH  32  40ATOM     40  C   UNL     1      39.054  44.843  26.620 -0.18 -0.00    +0.003 A  ATOM     41  C   UNL     1      40.442  44.764  26.794 -0.12 +0.00    +0.012 A  ATOM     42  C   UNL     1      38.313  43.674  26.839 -0.24 -0.00    +0.012 A  ATOM     43  C   UNL     1      41.061  43.556  27.141 -0.12 -0.00    +0.026 A  ATOM     44  C   UNL     1      38.941  42.466  27.179 -0.28 -0.00    +0.026 A  ATOM     45  C   UNL     1      40.328  42.377  27.343 -0.20 -0.00    +0.037 A  BRANCH  45  46ATOM     46  N   UNL     1      40.999  41.187  27.657 -0.08 +0.05    -0.367 N  ATOM     47  C   UNL     1      42.407  41.381  28.086 -0.10 -0.02    +0.145 C  ATOM     48  C   UNL     1      40.303  40.193  28.505 -0.17 +0.00    +0.145 C  ATOM     49  C   UNL     1      43.127  40.022  28.157 -0.08 -0.04    +0.181 C  ATOM     50  C   UNL     1      41.105  38.881  28.538 -0.22 -0.03    +0.181 C  ATOM     51  O   UNL     1      42.441  39.098  29.016 -0.07 +0.08    -0.378 OA ENDBRANCH  45  46ENDBRANCH  32  40ENDBRANCH  24  30ENDBRANCH   1  19TORSDOF 8TERENDMDL