MODEL        9USER    Run = 9USERUSER    Estimated Free Energy of Binding    = -10.29 kcal/mol  [=(1)+(2)+(3)-(4)]USERUSER    (1) Final Intermolecular Energy     = -12.08 kcal/molUSER        vdW + Hbond + desolv Energy     = -11.74 kcal/molUSER        Electrostatic Energy            =  -0.34 kcal/molUSER        Moving Ligand-Fixed Receptor    = -12.08 kcal/molUSER        Moving Ligand-Moving Receptor   =  +0.00 kcal/molUSER    (2) Final Total Internal Energy     =  -1.26 kcal/molUSER    (3) Torsional Free Energy           =  +1.79 kcal/molUSER    (4) Unbound System's Energy         =  -1.26 kcal/molUSERUSERREMARK SMILES Cc1cc(Nc2ncc(Br)c(N[C@H]3CC[C@@H](O)CC3)n2)ccc1-c1nnn[nH]1REMARK SMILES IDX 6 1 7 2 8 3 9 4 10 5 11 6 20 7 5 8 4 10 2 11 3 12 23 13REMARK SMILES IDX 22 14 21 15 1 16 24 17 25 18 28 19 26 20 27 21 12 23 13 25REMARK SMILES IDX 19 26 14 27 18 28 15 29 16 30 17 31REMARK H PARENT 5 9 28 22 12 24 17 32USER                              x       y       z     vdW  Elec       q    TypeUSER                           _______ _______ _______ _____ _____    ______ ____ROOTATOM      1  C   UNL     1      17.504 -15.621  -8.576 -0.24 -0.01    +0.229 A  ATOM      2  N   UNL     1      18.517 -16.420  -8.220 -0.26 -0.01    -0.220 NA ATOM      3  C   UNL     1      19.114 -16.166  -7.038 -0.34 +0.02    +0.134 A  ATOM      4  C   UNL     1      18.755 -15.133  -6.207 -0.41 +0.01    +0.078 A  ATOM      5  Br  UNL     1      19.606 -14.948  -4.532 -1.07 -0.02    -0.045 Br ATOM      6  C   UNL     1      17.717 -14.338  -6.662 -0.31 -0.00    +0.146 A  ATOM      7  N   UNL     1      17.081 -14.588  -7.825 -0.27 +0.02    -0.194 NA ENDROOTBRANCH   1   8ATOM      8  N   UNL     1      16.800 -15.805  -9.763 -0.15 +0.04    -0.324 N  ATOM      9  H   UNL     1      17.336 -16.413 -10.365 +0.11 -0.01    +0.170 HD BRANCH   8  10ATOM     10  C   UNL     1      15.555 -15.378 -10.235 -0.30 -0.01    +0.041 A  ATOM     11  C   UNL     1      13.970 -14.788 -12.022 -0.26 +0.01    -0.038 A  ATOM     12  C   UNL     1      15.248 -15.205 -11.587 -0.31 -0.01    +0.030 A  ATOM     13  C   UNL     1      12.963 -14.534 -11.073 -0.30 -0.01    +0.024 A  ATOM     14  C   UNL     1      13.266 -14.708  -9.714 -0.37 -0.01    +0.014 A  ATOM     15  C   UNL     1      14.538 -15.126  -9.307 -0.27 -0.01    +0.027 A  ATOM     16  C   UNL     1      13.740 -14.618 -13.502 -0.31 -0.02    +0.045 C  BRANCH  13  17ATOM     17  C   UNL     1      11.625 -14.093 -11.461 -0.16 -0.07    +0.179 A  ATOM     18  N   UNL     1      10.823 -14.606 -12.377 -0.72 -0.00    -0.109 NA ATOM     19  N   UNL     1      10.954 -13.046 -10.889 -0.06 +0.17    -0.239 N  ATOM     20  N   UNL     1       9.676 -13.849 -12.365 -0.77 -0.00    -0.024 NA ATOM     21  N   UNL     1       9.751 -12.891 -11.454 -0.59 -0.00    -0.048 NA ATOM     22  H   UNL     1      11.236 -12.434 -10.135 -0.43 -0.37    +0.194 HD ENDBRANCH  13  17ENDBRANCH   8  10ENDBRANCH   1   8BRANCH   6  23ATOM     23  N   UNL     1      17.217 -13.228  -5.967 -0.17 +0.03    -0.366 N  ATOM     24  H   UNL     1      16.623 -13.637  -5.245 +0.11 -0.03    +0.162 HD BRANCH  23  25ATOM     25  C   UNL     1      16.415 -12.307  -6.790 -0.44 -0.02    +0.081 C  ATOM     26  C   UNL     1      15.722 -11.238  -5.918 -0.60 -0.01    +0.027 C  ATOM     27  C   UNL     1      17.347 -11.648  -7.815 -0.44 -0.00    +0.027 C  ATOM     28  C   UNL     1      15.457  -9.924  -6.655 -0.70 -0.01    +0.034 C  ATOM     29  C   UNL     1      16.591 -10.721  -8.769 -0.56 -0.01    +0.034 C  ATOM     30  C   UNL     1      15.317 -10.127  -8.159 -0.60 -0.04    +0.114 C  BRANCH  30  31ATOM     31  O   UNL     1      15.008  -8.894  -8.793 -0.38 +0.16    -0.393 OA ATOM     32  H   UNL     1      14.634  -8.293  -8.126 -0.17 -0.13    +0.210 HD ENDBRANCH  30  31ENDBRANCH  23  25ENDBRANCH   6  23TORSDOF 6TERENDMDL