MODEL        10USER    Run = 10USERUSER    Estimated Free Energy of Binding    =  -8.32 kcal/mol  [=(1)+(2)+(3)-(4)]USERUSER    (1) Final Intermolecular Energy     = -10.11 kcal/molUSER        vdW + Hbond + desolv Energy     = -10.04 kcal/molUSER        Electrostatic Energy            =  -0.07 kcal/molUSER        Moving Ligand-Fixed Receptor    = -10.11 kcal/molUSER        Moving Ligand-Moving Receptor   =  +0.00 kcal/molUSER    (2) Final Total Internal Energy     =  -1.14 kcal/molUSER    (3) Torsional Free Energy           =  +1.79 kcal/molUSER    (4) Unbound System's Energy         =  -1.14 kcal/molUSERUSERREMARK SMILES COc1ccc(O)c(C(=O)c2ccc(Nc3nc4ccccc4[nH]3)cc2)c1BrREMARK SMILES IDX 11 1 12 2 13 3 14 4 25 5 26 6 9 7 10 8 8 9 3 10 4 11 27 12REMARK SMILES IDX 5 13 6 14 28 15 2 16 1 17 7 18 15 20 16 22 17 23 24 24 18 25REMARK SMILES IDX 23 26 19 27 22 28 20 29 21 30REMARK H PARENT 7 19 15 21 24 31USER                              x       y       z     vdW  Elec       q    TypeUSER                           _______ _______ _______ _____ _____    ______ ____ROOTATOM      1  C   UNL     1       2.187   1.356  -6.579 -0.34 +0.00    +0.023 A  ATOM      2  C   UNL     1       1.825   0.186  -5.906 -0.43 +0.00    +0.014 A  ATOM      3  C   UNL     1       0.778   0.206  -4.980 -0.28 +0.01    +0.027 A  ATOM      4  C   UNL     1       0.067   1.385  -4.717 -0.35 +0.01    +0.041 A  ATOM      5  C   UNL     1       0.427   2.547  -5.414 -0.36 +0.00    +0.027 A  ATOM      6  C   UNL     1       1.471   2.535  -6.346 -0.34 -0.00    +0.014 A  ENDROOTBRANCH   1   7ATOM      7  C   UNL     1       3.300   1.295  -7.559 -0.27 -0.04    +0.198 C  ATOM      8  O   UNL     1       3.776   0.205  -7.878 -0.21 +0.13    -0.288 OA BRANCH   7   9ATOM      9  C   UNL     1       3.792   2.491  -8.275 -0.28 -0.02    +0.082 A  ATOM     10  C   UNL     1       5.108   4.533  -8.482 -0.42 -0.00    +0.134 A  ATOM     11  C   UNL     1       4.510   4.778  -9.724 -0.48 -0.00    +0.051 A  ATOM     12  C   UNL     1       4.753   3.375  -7.756 -0.39 -0.02    +0.074 A  ATOM     13  C   UNL     1       3.595   3.872 -10.260 -0.33 -0.01    +0.051 A  ATOM     14  C   UNL     1       3.254   2.729  -9.548 -0.22 -0.04    +0.128 A  ATOM     15  Br  UNL     1       5.672   2.993  -6.121 -1.16 +0.01    -0.046 Br BRANCH  10  16ATOM     16  O   UNL     1       6.031   5.366  -7.903 -0.75 -0.10    -0.496 OA ATOM     17  C   UNL     1       5.994   6.746  -8.249 -0.33 +0.03    +0.278 C  ENDBRANCH  10  16BRANCH  14  18ATOM     18  O   UNL     1       2.383   1.867 -10.159 -0.05 +0.12    -0.507 OA ATOM     19  H   UNL     1       2.557   0.964  -9.811 +0.10 -0.10    +0.293 HD ENDBRANCH  14  18ENDBRANCH   7   9ENDBRANCH   1   7BRANCH   4  20ATOM     20  N   UNL     1      -0.951   1.347  -3.742 -0.19 -0.06    -0.326 N  ATOM     21  H   UNL     1      -1.877   1.296  -4.163 +0.08 +0.05    +0.170 HD BRANCH  20  22ATOM     22  C   UNL     1      -0.935   1.883  -2.506 -0.27 -0.00    +0.205 A  ATOM     23  N   UNL     1      -0.403   1.364  -1.425 -0.32 +0.00    -0.213 NA ATOM     24  N   UNL     1      -1.407   3.148  -2.263 -0.10 +0.08    -0.324 N  ATOM     25  C   UNL     1      -0.588   2.300  -0.437 -0.36 -0.01    +0.091 A  ATOM     26  C   UNL     1      -1.219   3.434  -0.936 -0.24 -0.02    +0.067 A  ATOM     27  C   UNL     1      -0.235   2.256   0.920 -0.44 -0.01    +0.030 A  ATOM     28  C   UNL     1      -1.524   4.551  -0.158 -0.33 -0.01    +0.028 A  ATOM     29  C   UNL     1      -0.533   3.362   1.728 -0.38 -0.00    +0.002 A  ATOM     30  C   UNL     1      -1.166   4.488   1.194 -0.23 -0.00    +0.002 A  ATOM     31  H   UNL     1      -1.799   3.759  -2.962 -0.37 -0.07    +0.170 HD ENDBRANCH  20  22ENDBRANCH   4  20TORSDOF 6TERENDMDL