REMARK SMILES Cc1cc(Nc2ncc(Cl)c(N[C@H]3CC[C@@H](O)CC3)n2)ccc1C(=O)N[C@@H]1CCCNCC1
REMARK SMILES IDX 1 1 2 2 3 3 4 4 21 5 22 6 23 7 24 8 26 9 25 10 27 12 28 13
REMARK SMILES IDX 29 14 33 16 32 17 31 18 30 20 5 22 6 24 7 25 20 26 8 27
REMARK SMILES IDX 11 28 9 29 10 30 12 31 13 33 19 34 14 35 18 36 15 37 16 38
REMARK SMILES IDX 17 39
REMARK H PARENT 26 11 31 19 5 23 12 32 17 40
REMARK Flexibility Score:   99.900
ROOT
ATOM      1  C   UNL     1      -2.481   3.425  -1.236  1.00  0.00     0.045 C 
ATOM      2  C   UNL     1      -1.834   2.107  -0.910  1.00  0.00    -0.036 A 
ATOM      3  C   UNL     1      -0.443   2.057  -0.689  1.00  0.00     0.030 A 
ATOM      4  C   UNL     1       0.222   0.857  -0.404  1.00  0.00     0.041 A 
ATOM      5  C   UNL     1      -0.547  -0.314  -0.328  1.00  0.00     0.027 A 
ATOM      6  C   UNL     1      -1.927  -0.291  -0.546  1.00  0.00     0.016 A 
ATOM      7  C   UNL     1      -2.572   0.916  -0.836  1.00  0.00     0.042 A 
ENDROOT
BRANCH   7   8
ATOM      8  C   UNL     1      -4.037   0.900  -1.082  1.00  0.00     0.251 C 
ATOM      9  N   UNL     1      -4.783   0.285  -0.099  1.00  0.00    -0.349 N 
ATOM     10  O   UNL     1      -4.507   1.404  -2.093  1.00  0.00    -0.269 OA
ATOM     11  H   UNL     1      -4.309  -0.117   0.700  1.00  0.00     0.164 HD
BRANCH   9  12
ATOM     12  C   UNL     1      -6.229   0.092  -0.223  1.00  0.00     0.083 C 
BRANCH  12  13
ATOM     13  C   UNL     1      -6.867   0.052   1.174  1.00  0.00     0.026 C 
BRANCH  13  14
ATOM     14  C   UNL     1      -6.896  -1.331   1.833  1.00  0.00     0.017 CG0
ATOM     15  G   UNL     1      -7.774  -2.385   1.135  1.00  0.00     0.000 G0
ENDBRANCH  13  14
ENDBRANCH  12  13
BRANCH  12  16
ATOM     16  C   UNL     1      -6.498  -1.138  -1.099  1.00  0.00     0.040 C 
BRANCH  16  17
ATOM     17  C   UNL     1      -7.963  -1.573  -1.170  1.00  0.00     0.083 C 
BRANCH  17  18
ATOM     18  N   UNL     1      -8.640  -1.834   0.102  1.00  0.00    -0.317 NA
ATOM     19  H   UNL     1      -9.427  -2.460  -0.067  1.00  0.00     0.122 HD
BRANCH  18  20
ATOM     20  C   UNL     1      -7.774  -2.385   1.135  1.00  0.00     0.081 CG0
ATOM     21  G   UNL     1      -6.896  -1.331   1.833  1.00  0.00     0.000 G0
ENDBRANCH  18  20
ENDBRANCH  17  18
ENDBRANCH  16  17
ENDBRANCH  12  16
ENDBRANCH   9  12
ENDBRANCH   7   8
BRANCH   4  22
ATOM     22  N   UNL     1       1.595   0.767  -0.153  1.00  0.00    -0.324 N 
ATOM     23  H   UNL     1       1.994  -0.160  -0.120  1.00  0.00     0.170 HD
BRANCH  22  24
ATOM     24  C   UNL     1       2.621   1.700  -0.039  1.00  0.00     0.229 A 
ATOM     25  N   UNL     1       2.384   3.018  -0.020  1.00  0.00    -0.220 NA
ATOM     26  N   UNL     1       3.854   1.173   0.069  1.00  0.00    -0.194 NA
ATOM     27  C   UNL     1       3.448   3.831   0.121  1.00  0.00     0.139 A 
ATOM     28  C   UNL     1       4.912   2.001   0.192  1.00  0.00     0.150 A 
ATOM     29  C   UNL     1       4.740   3.379   0.235  1.00  0.00     0.101 A 
ATOM     30  Cl  UNL     1       6.042   4.491   0.392  1.00  0.00    -0.079 Cl
BRANCH  28  31
ATOM     31  N   UNL     1       6.205   1.456   0.347  1.00  0.00    -0.366 N 
ATOM     32  H   UNL     1       6.856   2.007  -0.211  1.00  0.00     0.162 HD
BRANCH  31  33
ATOM     33  C   UNL     1       6.354   0.012   0.149  1.00  0.00     0.081 C 
ATOM     34  C   UNL     1       7.825  -0.291  -0.174  1.00  0.00     0.027 C 
ATOM     35  C   UNL     1       5.914  -0.750   1.417  1.00  0.00     0.027 C 
ATOM     36  C   UNL     1       8.069  -1.779  -0.434  1.00  0.00     0.034 C 
ATOM     37  C   UNL     1       6.651  -2.073   1.634  1.00  0.00     0.034 C 
ATOM     38  C   UNL     1       7.096  -2.692   0.316  1.00  0.00     0.114 C 
BRANCH  38  39
ATOM     39  O   UNL     1       7.707  -3.955   0.547  1.00  0.00    -0.393 OA
ATOM     40  H   UNL     1       8.458  -3.823   1.151  1.00  0.00     0.210 HD
ENDBRANCH  38  39
ENDBRANCH  31  33
ENDBRANCH  28  31
ENDBRANCH  22  24
ENDBRANCH   4  22
TORSDOF 7
