REMARK SMILES Cc1cc(Nc2ncc(Br)c(N[C@H]3CC[C@@H](O)CC3)n2)ccc1-c1nnn[nH]1
REMARK SMILES IDX 6 1 7 2 8 3 9 4 10 5 11 6 20 7 5 8 4 10 2 11 3 12 23 13
REMARK SMILES IDX 22 14 21 15 1 16 24 17 25 18 28 19 26 20 27 21 12 23 13 25
REMARK SMILES IDX 19 26 14 27 18 28 15 29 16 30 17 31
REMARK H PARENT 5 9 28 22 12 24 17 32
ROOT
ATOM      1  C   UNL     1       0.519   0.012   0.921  1.00  0.00     0.229 A 
ATOM      2  N   UNL     1       0.764   1.259   1.342  1.00  0.00    -0.220 NA
ATOM      3  C   UNL     1      -0.222   1.886   2.013  1.00  0.00     0.134 A 
ATOM      4  C   UNL     1      -1.452   1.328   2.263  1.00  0.00     0.078 A 
ATOM      5  Br  UNL     1      -2.711   2.275   3.302  1.00  0.00    -0.045 Br
ATOM      6  C   UNL     1      -1.633   0.047   1.770  1.00  0.00     0.146 A 
ATOM      7  N   UNL     1      -0.653  -0.616   1.123  1.00  0.00    -0.194 NA
ENDROOT
BRANCH   1   8
ATOM      8  N   UNL     1       1.473  -0.738   0.239  1.00  0.00    -0.324 N 
ATOM      9  H   UNL     1       1.082  -1.645   0.030  1.00  0.00     0.170 HD
BRANCH   8  10
ATOM     10  C   UNL     1       2.767  -0.481  -0.225  1.00  0.00     0.041 A 
ATOM     11  C   UNL     1       4.727   0.965  -0.574  1.00  0.00    -0.038 A 
ATOM     12  C   UNL     1       3.411   0.753  -0.106  1.00  0.00     0.030 A 
ATOM     13  C   UNL     1       5.425  -0.094  -1.184  1.00  0.00     0.024 A 
ATOM     14  C   UNL     1       4.783  -1.336  -1.305  1.00  0.00     0.014 A 
ATOM     15  C   UNL     1       3.480  -1.523  -0.830  1.00  0.00     0.027 A 
ATOM     16  C   UNL     1       5.331   2.336  -0.411  1.00  0.00     0.045 C 
BRANCH  13  17
ATOM     17  C   UNL     1       6.785   0.066  -1.694  1.00  0.00     0.179 A 
ATOM     18  N   UNL     1       7.315   1.105  -2.313  1.00  0.00    -0.109 NA
ATOM     19  N   UNL     1       7.774  -0.874  -1.580  1.00  0.00    -0.239 N 
ATOM     20  N   UNL     1       8.621   0.777  -2.586  1.00  0.00    -0.024 NA
ATOM     21  N   UNL     1       8.908  -0.436  -2.139  1.00  0.00    -0.048 NA
ATOM     22  H   UNL     1       7.751  -1.784  -1.140  1.00  0.00     0.194 HD
ENDBRANCH  13  17
ENDBRANCH   8  10
ENDBRANCH   1   8
BRANCH   6  23
ATOM     23  N   UNL     1      -2.821  -0.686   1.908  1.00  0.00    -0.366 N 
ATOM     24  H   UNL     1      -2.562  -1.630   1.620  1.00  0.00     0.162 HD
BRANCH  23  25
ATOM     25  C   UNL     1      -3.930  -0.209   1.065  1.00  0.00     0.081 C 
ATOM     26  C   UNL     1      -3.728  -0.621  -0.409  1.00  0.00     0.027 C 
ATOM     27  C   UNL     1      -5.236  -0.794   1.617  1.00  0.00     0.027 C 
ATOM     28  C   UNL     1      -5.037  -0.781  -1.185  1.00  0.00     0.034 C 
ATOM     29  C   UNL     1      -6.461  -0.298   0.846  1.00  0.00     0.034 C 
ATOM     30  C   UNL     1      -6.155   0.077  -0.607  1.00  0.00     0.114 C 
BRANCH  30  31
ATOM     31  O   UNL     1      -7.330  -0.053  -1.396  1.00  0.00    -0.393 OA
ATOM     32  H   UNL     1      -7.598  -0.988  -1.392  1.00  0.00     0.210 HD
ENDBRANCH  30  31
ENDBRANCH  23  25
ENDBRANCH   6  23
TORSDOF 6
