MODEL        7USER    Run = 7USERUSER    Estimated Free Energy of Binding    =  -5.70 kcal/mol  [=(1)+(2)+(3)-(4)]USERUSER    (1) Final Intermolecular Energy     =  -9.58 kcal/molUSER        vdW + Hbond + desolv Energy     =  -9.59 kcal/molUSER        Electrostatic Energy            =  -0.18 kcal/molUSER        Moving Ligand-Fixed Receptor    =  -9.77 kcal/molUSER        Moving Ligand-Moving Receptor   =  +0.19 kcal/molUSER    (2) Final Total Internal Energy     =  -2.44 kcal/molUSER    (3) Torsional Free Energy           =  +3.88 kcal/molUSER    (4) Unbound System's Energy         =  -2.44 kcal/molUSERUSERREMARK SMILES Cc1cc(Nc2ncc(Cl)c(N[C@H]3CC[C@@H](O)CC3)n2)ccc1C(=O)N[C@@H]1CCCNCC1REMARK SMILES IDX 1 1 2 2 3 3 4 4 21 5 22 6 23 7 24 8 26 9 25 10 27 12 28 13REMARK SMILES IDX 29 14 33 16 32 17 31 18 30 20 5 22 6 24 7 25 20 26 8 27REMARK SMILES IDX 11 28 9 29 10 30 12 31 13 33 19 34 14 35 18 36 15 37 16 38REMARK SMILES IDX 17 39REMARK H PARENT 26 11 31 19 5 23 12 32 17 40REMARK Flexibility Score:   99.900USER                              x       y       z     vdW  Elec       q    TypeUSER                           _______ _______ _______ _____ _____    ______ ____ROOTATOM      1  C   UNL     1       1.655   1.499  -5.646 -0.42 +0.00    +0.045 C  ATOM      2  C   UNL     1       0.484   2.432  -5.789 -0.33 -0.00    -0.036 A  ATOM      3  C   UNL     1       0.453   3.341  -6.865 -0.28 -0.00    +0.030 A  ATOM      4  C   UNL     1      -0.598   4.251  -7.040 -0.28 -0.00    +0.041 A  ATOM      5  C   UNL     1      -1.647   4.224  -6.109 -0.28 -0.00    +0.027 A  ATOM      6  C   UNL     1      -1.639   3.333  -5.032 -0.25 -0.00    +0.016 A  ATOM      7  C   UNL     1      -0.577   2.437  -4.870 -0.32 +0.00    +0.042 A  ENDROOTBRANCH   7   8ATOM      8  C   UNL     1      -0.591   1.519  -3.703 -0.31 +0.03    +0.251 C  ATOM      9  N   UNL     1      -0.819   2.129  -2.488 -0.17 +0.01    -0.349 N  ATOM     10  O   UNL     1      -0.409   0.318  -3.850 -0.22 -0.09    -0.269 OA ATOM     11  H   UNL     1      -0.947   3.133  -2.457 -0.06 -0.04    +0.164 HD BRANCH   9  12ATOM     12  C   UNL     1      -0.770   1.393  -1.223 -0.46 -0.00    +0.083 C  BRANCH  12  13ATOM     13  C   UNL     1      -2.136   0.746  -0.948 -0.37 +0.00    +0.026 C  BRANCH  13  14ATOM     14  C   UNL     1      -3.320   1.719  -0.927 -0.27 -0.00    +0.017 CG0ATOM     15  G   UNL     1      -3.122   2.993  -0.087 +0.00 +0.00    +0.000 G0 ENDBRANCH  13  14ENDBRANCH  12  13BRANCH  12  16ATOM     16  C   UNL     1      -0.255   2.325  -0.120 -0.47 -0.01    +0.040 C  BRANCH  16  17ATOM     17  C   UNL     1      -0.794   3.755  -0.177 -0.32 -0.03    +0.083 C  BRANCH  17  18ATOM     18  N   UNL     1      -2.166   3.928  -0.660 -0.11 +0.10    -0.317 NA ATOM     19  H   UNL     1      -2.168   3.853  -1.677 +0.01 -0.04    +0.122 HD BRANCH  18  20ATOM     20  C   UNL     1      -3.121   2.991  -0.085 -0.15 -0.01    +0.081 CG0ATOM     21  G   UNL     1      -3.320   1.718  -0.926 +0.00 +0.00    +0.000 G0 ENDBRANCH  18  20ENDBRANCH  17  18ENDBRANCH  16  17ENDBRANCH  12  16ENDBRANCH   9  12ENDBRANCH   7   8BRANCH   4  22ATOM     22  N   UNL     1      -0.680   5.152  -8.107 -0.11 +0.05    -0.324 N  ATOM     23  H   UNL     1      -1.141   6.032  -7.927 -0.45 -0.06    +0.170 HD BRANCH  22  24ATOM     24  C   UNL     1      -0.157   5.175  -9.396 -0.07 -0.02    +0.229 A  ATOM     25  N   UNL     1      -0.931   5.360 -10.473 -0.11 +0.01    -0.220 NA ATOM     26  N   UNL     1       1.177   5.019  -9.467 -0.12 +0.01    -0.194 NA ATOM     27  C   UNL     1      -0.317   5.392 -11.671 -0.12 -0.01    +0.139 A  ATOM     28  C   UNL     1       1.775   5.036 -10.676 -0.21 -0.01    +0.150 A  ATOM     29  C   UNL     1       1.038   5.238 -11.836 -0.19 -0.01    +0.101 A  ATOM     30  Cl  UNL     1       1.735   5.273 -13.407 -0.19 +0.01    -0.079 Cl BRANCH  28  31ATOM     31  N   UNL     1       3.179   4.913 -10.757 -0.18 +0.03    -0.366 N  ATOM     32  H   UNL     1       3.439   4.827 -11.739 +0.07 -0.02    +0.162 HD BRANCH  31  33ATOM     33  C   UNL     1       3.817   3.909  -9.901 -0.39 -0.01    +0.081 C  ATOM     34  C   UNL     1       3.997   4.504  -8.496 -0.48 -0.00    +0.027 C  ATOM     35  C   UNL     1       2.952   2.633  -9.838 -0.29 -0.01    +0.027 C  ATOM     36  C   UNL     1       4.693   3.534  -7.539 -0.51 -0.01    +0.034 C  ATOM     37  C   UNL     1       3.075   1.864  -8.521 -0.29 -0.01    +0.034 C  ATOM     38  C   UNL     1       4.440   2.063  -7.878 -0.33 -0.04    +0.114 C  BRANCH  38  39ATOM     39  O   UNL     1       4.549   1.275  -6.699 -0.72 +0.02    -0.393 OA ATOM     40  H   UNL     1       5.480   1.011  -6.596 +0.15 -0.04    +0.210 HD ENDBRANCH  38  39ENDBRANCH  31  33ENDBRANCH  28  31ENDBRANCH  22  24ENDBRANCH   4  22TORSDOF 7TERENDMDL