REMARK SMILES O=C(Nc1cc(-c2cc(O)c3ccccc3n2)ccn1)C1CC1
REMARK SMILES IDX 7 1 8 2 9 3 11 4 12 5 13 6 14 7 15 8 16 9 17 10 6 11 4 12
REMARK SMILES IDX 5 13 20 14 19 15 18 16 3 17 2 18 1 19 21 21 22 22 23 23
REMARK SMILES IDX 10 24
REMARK H PARENT 3 20 10 25
ROOT
ATOM      1  C   UNL     1      -1.508  -1.043   0.349  1.00  0.00     0.075 A 
ATOM      2  C   UNL     1      -2.356  -1.570   1.316  1.00  0.00     0.075 A 
ATOM      3  C   UNL     1      -3.628  -1.027   1.442  1.00  0.00     0.127 A 
ATOM      4  C   UNL     1      -4.048   0.025   0.615  1.00  0.00     0.042 A 
ATOM      5  C   UNL     1      -5.328   0.615   0.696  1.00  0.00     0.014 A 
ATOM      6  C   UNL     1      -5.685   1.662  -0.151  1.00  0.00     0.001 A 
ATOM      7  C   UNL     1      -4.767   2.128  -1.083  1.00  0.00     0.002 A 
ATOM      8  C   UNL     1      -3.499   1.543  -1.163  1.00  0.00     0.029 A 
ATOM      9  C   UNL     1      -3.120   0.498  -0.331  1.00  0.00     0.075 A 
ATOM     10  N   UNL     1      -1.887  -0.023  -0.458  1.00  0.00    -0.248 NA
ENDROOT
BRANCH   1  11
ATOM     11  C   UNL     1      -0.140  -1.546   0.130  1.00  0.00     0.005 A 
ATOM     12  C   UNL     1       2.195  -1.151  -0.348  1.00  0.00     0.133 A 
ATOM     13  C   UNL     1       0.914  -0.658  -0.144  1.00  0.00     0.057 A 
ATOM     14  N   UNL     1       2.481  -2.470  -0.303  1.00  0.00    -0.239 NA
ATOM     15  C   UNL     1       1.463  -3.317  -0.053  1.00  0.00     0.114 A 
ATOM     16  C   UNL     1       0.159  -2.912   0.168  1.00  0.00     0.030 A 
BRANCH  12  17
ATOM     17  N   UNL     1       3.311  -0.361  -0.615  1.00  0.00    -0.310 N 
ATOM     18  C   UNL     1       3.390   1.002  -0.696  1.00  0.00     0.228 C 
ATOM     19  O   UNL     1       2.493   1.818  -0.558  1.00  0.00    -0.274 OA
ATOM     20  H   UNL     1       4.149  -0.907  -0.749  1.00  0.00     0.171 HD
BRANCH  18  21
ATOM     21  C   UNL     1       4.764   1.482  -1.016  1.00  0.00     0.079 C 
ATOM     22  C   UNL     1       5.952   1.093  -0.166  1.00  0.00     0.014 C 
ATOM     23  C   UNL     1       5.428   2.498  -0.114  1.00  0.00     0.014 C 
ENDBRANCH  18  21
ENDBRANCH  12  17
ENDBRANCH   1  11
BRANCH   3  24
ATOM     24  O   UNL     1      -4.490  -1.520   2.388  1.00  0.00    -0.507 OA
ATOM     25  H   UNL     1      -4.040  -2.201   2.913  1.00  0.00     0.293 HD
ENDBRANCH   3  24
TORSDOF 4
