MODEL        4USER    Run = 4USERUSER    Estimated Free Energy of Binding    =  -6.04 kcal/mol  [=(1)+(2)+(3)-(4)]USERUSER    (1) Final Intermolecular Energy     = -10.21 kcal/molUSER        vdW + Hbond + desolv Energy     = -10.54 kcal/molUSER        Electrostatic Energy            =  -0.33 kcal/molUSER        Moving Ligand-Fixed Receptor    = -10.86 kcal/molUSER        Moving Ligand-Moving Receptor   =  +0.65 kcal/molUSER    (2) Final Total Internal Energy     =  -1.37 kcal/molUSER    (3) Torsional Free Energy           =  +4.18 kcal/molUSER    (4) Unbound System's Energy         =  -1.37 kcal/molUSERUSERREMARK SMILES COc1ccccc1CNC1=NC=C(C(=O)O)C=C(Nc2cccc(Cl)c2)C=C1REMARK SMILES IDX 28 1 29 2 11 3 10 4 9 6 8 7 3 8 4 9 5 10 7 11 6 12 2 13 1 14REMARK SMILES IDX 12 15 13 16 19 18 18 19 14 20 15 22 16 23 17 24 20 26 21 28REMARK SMILES IDX 22 29 27 30 23 31 25 32 24 33 26 34REMARK H PARENT 10 5 17 25 20 27REMARK Flexibility Score:   83.900USER                              x       y       z     vdW  Elec       q    TypeUSER                           _______ _______ _______ _____ _____    ______ ____ROOTATOM      1  C   UNL     1      35.223  43.332  19.190 -0.43 -0.00    +0.030 C  ENDROOTBRANCH   1   2ATOM      2  C   UNL     1      36.042  44.391  19.130 -0.40 -0.01    +0.049 C  BRANCH   2   3ATOM      3  C   UNL     1      35.822  45.522  18.173 -0.28 -0.05    +0.126 C  ATOM      4  N   UNL     1      36.659  45.569  17.078 -0.10 +0.16    -0.366 N  ATOM      5  H   UNL     1      37.464  44.952  17.099 +0.11 -0.05    +0.162 HD BRANCH   4   6ATOM      6  C   UNL     1      36.923  46.802  16.352 -0.30 -0.11    +0.154 C  BRANCH   6   7ATOM      7  C   UNL     1      36.822  46.557  14.858 -0.40 -0.01    +0.013 A  ATOM      8  C   UNL     1      37.001  45.278  14.295 -0.32 -0.05    +0.123 A  ATOM      9  C   UNL     1      36.892  45.111  12.908 -0.47 -0.02    +0.047 A  ATOM     10  C   UNL     1      36.585  46.197  12.084 -0.66 -0.00    +0.004 A  ATOM     11  C   UNL     1      36.506  47.636  14.012 -0.49 -0.01    +0.009 A  ATOM     12  C   UNL     1      36.389  47.460  12.635 -0.68 -0.00    +0.001 A  BRANCH   8  13ATOM     13  O   UNL     1      37.299  44.266  15.167 -0.05 +0.16    -0.496 OA ATOM     14  C   UNL     1      36.316  43.253  15.341 -0.18 -0.09    +0.278 C  ENDBRANCH   8  13ENDBRANCH   6   7ENDBRANCH   4   6BRANCH   3  15ATOM     15  N   UNL     1      34.891  46.428  18.300 -0.36 +0.16    -0.239 NA BRANCH  15  16ATOM     16  C   UNL     1      33.619  46.190  17.845 -0.35 -0.11    +0.129 CG0ATOM     17  G   UNL     1      33.219  45.118  17.137 +0.00 +0.00    +0.000 G0 ENDBRANCH  15  16ENDBRANCH   3  15ENDBRANCH   2   3ENDBRANCH   1   2BRANCH   1  18ATOM     18  C   UNL     1      34.015  43.120  18.392 -0.38 -0.01    +0.039 C  BRANCH  18  19ATOM     19  C   UNL     1      33.834  43.811  17.249 -0.34 -0.02    +0.043 C  BRANCH  19  20ATOM     20  C   UNL     1      33.207  45.120  17.141 -0.33 -0.05    +0.080 CG0ATOM     21  G   UNL     1      33.619  46.190  17.844 +0.00 +0.00    +0.000 G0 BRANCH  20  22ATOM     22  C   UNL     1      32.076  45.336  16.204 -0.12 -0.19    +0.337 C  ATOM     23  O   UNL     1      30.890  45.125  16.422 -0.78 +0.05    -0.246 OA BRANCH  22  24ATOM     24  O   UNL     1      32.477  45.826  15.013 -0.14 +0.45    -0.478 OA ATOM     25  H   UNL     1      32.431  46.800  15.133 -0.34 -0.56    +0.297 HD ENDBRANCH  22  24ENDBRANCH  20  22ENDBRANCH  19  20ENDBRANCH  18  19BRANCH  18  26ATOM     26  N   UNL     1      33.133  42.200  18.932 -0.15 +0.02    -0.355 N  ATOM     27  H   UNL     1      33.333  41.947  19.897 +0.10 +0.03    +0.167 HD BRANCH  26  28ATOM     28  C   UNL     1      32.136  41.409  18.342 -0.35 -0.01    +0.040 A  ATOM     29  C   UNL     1      31.231  41.882  17.379 -0.29 -0.01    +0.026 A  ATOM     30  C   UNL     1      31.990  40.085  18.782 -0.37 +0.00    +0.046 A  ATOM     31  C   UNL     1      30.219  41.062  16.866 -0.35 -0.00    +0.004 A  ATOM     32  C   UNL     1      30.987  39.264  18.261 -0.38 +0.00    +0.043 A  ATOM     33  C   UNL     1      30.102  39.746  17.301 -0.32 +0.00    +0.020 A  ATOM     34  Cl  UNL     1      30.846  37.639  18.810 -0.61 -0.03    -0.084 Cl ENDBRANCH  26  28ENDBRANCH  18  26ENDBRANCH   1  18TORSDOF 7TERENDMDL