REMARK SMILES Nc1nccc(-c2ccc(C(=O)CCN3CCCCC3)cc2)n1
REMARK SMILES IDX 7 1 8 2 9 3 10 4 21 5 22 6 6 7 2 8 3 9 23 10 4 11 5 12 1 13
REMARK SMILES IDX 11 16 12 17 13 18 14 19 15 20 16 21 20 22 17 23 19 24 18 25
REMARK H PARENT 1 14 1 15
ROOT
ATOM      1  C   UNL     1       3.264   0.019  -0.394  1.00  0.00     0.000 A 
ATOM      2  C   UNL     1       2.901   0.723   0.768  1.00  0.00     0.011 A 
ATOM      3  C   UNL     1       1.684   0.487   1.417  1.00  0.00     0.012 A 
ATOM      4  C   UNL     1       0.790  -0.471   0.926  1.00  0.00     0.018 A 
ATOM      5  C   UNL     1       1.136  -1.188  -0.223  1.00  0.00     0.012 A 
ATOM      6  C   UNL     1       2.356  -0.944  -0.870  1.00  0.00     0.011 A 
ENDROOT
BRANCH   1   7
ATOM      7  C   UNL     1       4.552   0.286  -1.066  1.00  0.00     0.076 A 
ATOM      8  C   UNL     1       6.769   0.837  -0.816  1.00  0.00     0.220 A 
ATOM      9  N   UNL     1       7.006   0.814  -2.128  1.00  0.00    -0.222 NA
ATOM     10  N   UNL     1       5.581   0.609  -0.251  1.00  0.00    -0.213 NA
ATOM     11  C   UNL     1       5.965   0.503  -2.917  1.00  0.00     0.117 A 
ATOM     12  C   UNL     1       4.708   0.225  -2.438  1.00  0.00     0.049 A 
BRANCH   8  13
ATOM     13  N   UNL     1       7.818   1.167   0.014  1.00  0.00    -0.368 N 
ATOM     14  H   UNL     1       8.504   1.704  -0.498  1.00  0.00     0.159 HD
ATOM     15  H   UNL     1       7.466   1.558   0.876  1.00  0.00     0.159 HD
ENDBRANCH   8  13
ENDBRANCH   1   7
BRANCH   4  16
ATOM     16  C   UNL     1      -0.498  -0.679   1.661  1.00  0.00     0.164 C 
ATOM     17  O   UNL     1      -0.773   0.055   2.609  1.00  0.00    -0.294 OA
BRANCH  16  18
ATOM     18  C   UNL     1      -1.447  -1.778   1.226  1.00  0.00     0.096 C 
BRANCH  18  19
ATOM     19  C   UNL     1      -2.315  -1.347   0.039  1.00  0.00     0.092 C 
BRANCH  19  20
ATOM     20  N   UNL     1      -3.712  -1.044   0.391  1.00  0.00    -0.303 NA
ATOM     21  C   UNL     1      -3.812   0.081   1.341  1.00  0.00     0.084 C 
ATOM     22  C   UNL     1      -4.556  -0.873  -0.804  1.00  0.00     0.084 C 
ATOM     23  C   UNL     1      -5.206   0.705   1.358  1.00  0.00     0.016 C 
ATOM     24  C   UNL     1      -4.848   0.585  -1.150  1.00  0.00     0.016 C 
ATOM     25  C   UNL     1      -5.567   1.295  -0.004  1.00  0.00     0.003 C 
ENDBRANCH  19  20
ENDBRANCH  18  19
ENDBRANCH  16  18
ENDBRANCH   4  16
TORSDOF 6
