REMARK SMILES C=Nc1c(C2=NN=CCC2)ccc(O)c1C(=O)Nc1cccc(C)c1
REMARK SMILES IDX 3 1 4 2 11 3 12 4 13 5 15 6 2 7 1 8 5 9 6 10 10 11 7 12 9 13
REMARK SMILES IDX 8 14 16 15 18 16 17 17 19 19 20 20 25 21 21 22 23 23 22 24
REMARK SMILES IDX 24 25 14 26
REMARK H PARENT 18 18 14 27
ROOT
ATOM      1  C   UNL     1       1.625  -0.159  -0.590  1.00  0.00     0.088 A 
ATOM      2  C   UNL     1       2.645   0.483  -1.319  1.00  0.00     0.025 A 
ATOM      3  C   UNL     1       2.408   1.034  -2.585  1.00  0.00     0.016 A 
ATOM      4  C   UNL     1       1.128   1.003  -3.128  1.00  0.00     0.048 A 
ATOM      5  C   UNL     1       0.094   0.404  -2.410  1.00  0.00     0.130 A 
ATOM      6  C   UNL     1       0.329  -0.187  -1.153  1.00  0.00     0.108 A 
ENDROOT
BRANCH   1   7
ATOM      7  N   UNL     1       1.912  -0.690   0.688  1.00  0.00    -0.263 NA
ATOM      8  C   UNL     1       2.143  -1.962   0.730  1.00  0.00     0.142 C 
ENDBRANCH   1   7
BRANCH   2   9
ATOM      9  C   UNL     1       4.023   0.579  -0.791  1.00  0.00     0.073 C 
ATOM     10  N   UNL     1       4.999   0.077  -1.487  1.00  0.00    -0.155 NA
ATOM     11  C   UNL     1       4.249   1.320   0.501  1.00  0.00     0.065 C 
ATOM     12  N   UNL     1       6.310   0.195  -1.002  1.00  0.00    -0.163 NA
ATOM     13  C   UNL     1       5.364   0.618   1.235  1.00  0.00     0.056 C 
ATOM     14  C   UNL     1       6.481   0.413   0.264  1.00  0.00     0.109 C 
ENDBRANCH   2   9
BRANCH   6  15
ATOM     15  C   UNL     1      -0.780  -0.882  -0.436  1.00  0.00     0.261 C 
ATOM     16  N   UNL     1      -1.938  -0.137  -0.314  1.00  0.00    -0.322 N 
ATOM     17  O   UNL     1      -0.603  -2.030  -0.044  1.00  0.00    -0.269 OA
ATOM     18  H   UNL     1      -1.959   0.733  -0.832  1.00  0.00     0.170 HD
BRANCH  16  19
ATOM     19  C   UNL     1      -3.131  -0.497   0.344  1.00  0.00     0.041 A 
ATOM     20  C   UNL     1      -3.286  -1.663   1.093  1.00  0.00     0.026 A 
ATOM     21  C   UNL     1      -4.212   0.391   0.241  1.00  0.00     0.029 A 
ATOM     22  C   UNL     1      -4.500  -1.940   1.728  1.00  0.00     0.002 A 
ATOM     23  C   UNL     1      -5.440   0.115   0.862  1.00  0.00    -0.049 A 
ATOM     24  C   UNL     1      -5.571  -1.054   1.617  1.00  0.00     0.003 A 
ATOM     25  C   UNL     1      -6.576   1.090   0.767  1.00  0.00     0.044 C 
ENDBRANCH  16  19
ENDBRANCH   6  15
BRANCH   5  26
ATOM     26  O   UNL     1      -1.165   0.406  -2.947  1.00  0.00    -0.507 OA
ATOM     27  H   UNL     1      -1.112   0.616  -3.897  1.00  0.00     0.293 HD
ENDBRANCH   5  26
TORSDOF 5
