MODEL        4USER    Run = 4USERUSER    Estimated Free Energy of Binding    =  -8.14 kcal/mol  [=(1)+(2)+(3)-(4)]USERUSER    (1) Final Intermolecular Energy     =  -9.93 kcal/molUSER        vdW + Hbond + desolv Energy     =  -9.61 kcal/molUSER        Electrostatic Energy            =  -0.33 kcal/molUSER        Moving Ligand-Fixed Receptor    =  -9.93 kcal/molUSER        Moving Ligand-Moving Receptor   =  +0.00 kcal/molUSER    (2) Final Total Internal Energy     =  -1.76 kcal/molUSER    (3) Torsional Free Energy           =  +1.79 kcal/molUSER    (4) Unbound System's Energy         =  -1.76 kcal/molUSERUSERREMARK SMILES CC(C)c1ccccc1N1c2nc(N[C@H]3CC[C@H](N)CC3)ncc2N=N[N+](C)(C)[C@@H]1SREMARK SMILES IDX 10 1 11 2 12 3 13 4 22 5 23 6 24 7 25 8 26 9 27 10 28 11REMARK SMILES IDX 29 12 30 13 9 14 4 15 5 16 6 17 8 18 7 19 2 20 1 21 3 22REMARK SMILES IDX 31 23 14 25 15 27 21 28 16 29 20 30 17 31 18 32 19 33REMARK H PARENT 31 24 14 26 19 34 19 35USER                              x       y       z     vdW  Elec       q    TypeUSER                           _______ _______ _______ _____ _____    ______ ____ROOTATOM      1  N   UNL     1      26.211  41.511  17.734 -0.10 +0.02    -0.262 N  ATOM      2  C   UNL     1      27.509  41.267  17.226 -0.12 -0.01    +0.172 A  ATOM      3  N   UNL     1      28.598  41.564  17.962 -0.08 +0.02    -0.193 NA ATOM      4  C   UNL     1      29.810  41.294  17.461 -0.14 -0.03    +0.224 A  ATOM      5  N   UNL     1      29.997  40.732  16.264 -0.28 +0.05    -0.219 NA ATOM      6  C   UNL     1      28.901  40.419  15.552 -0.24 -0.02    +0.149 A  ATOM      7  C   UNL     1      27.614  40.686  15.964 -0.23 -0.01    +0.152 A  ATOM      8  N   UNL     1      26.526  40.314  15.161 -0.74 +0.00    -0.096 NA ATOM      9  N   UNL     1      25.515  41.046  15.084 -0.36 -0.01    +0.032 NA ATOM     10  N   UNL     1      25.492  42.471  15.501 -0.25 +0.04    -0.155 N  ATOM     11  C   UNL     1      26.552  43.283  14.745 +0.06 -0.31    +0.371 C  ATOM     12  C   UNL     1      24.132  43.003  15.015 -0.06 +0.02    +0.371 C  ATOM     13  C   UNL     1      25.511  42.610  17.055 -0.12 -0.03    +0.380 C  ENDROOTBRANCH   1  14ATOM     14  C   UNL     1      25.823  41.365  19.096 -0.25 -0.01    +0.053 A  ATOM     15  C   UNL     1      25.543  40.077  19.625 -0.26 +0.00    -0.021 A  ATOM     16  C   UNL     1      25.099  39.971  20.960 -0.37 -0.00    +0.006 A  ATOM     17  C   UNL     1      24.952  41.097  21.767 -0.50 -0.00    +0.000 A  ATOM     18  C   UNL     1      25.692  42.482  19.944 -0.42 -0.01    +0.027 A  ATOM     19  C   UNL     1      25.257  42.352  21.262 -0.51 -0.00    +0.002 A  BRANCH  15  20ATOM     20  C   UNL     1      25.773  38.796  18.828 -0.35 -0.00    +0.015 C  ATOM     21  C   UNL     1      26.257  37.654  19.727 -0.30 -0.01    +0.012 C  ATOM     22  C   UNL     1      24.525  38.381  18.042 -0.48 -0.01    +0.012 C  ENDBRANCH  15  20ENDBRANCH   1  14BRANCH  13  23ATOM     23  S   UNL     1      26.026  44.283  17.551 -0.56 +0.00    -0.090 SA ATOM     24  H   UNL     1      25.065  44.466  18.468 -0.20 -0.02    +0.111 HD ENDBRANCH  13  23BRANCH   4  25ATOM     25  N   UNL     1      30.880  41.662  18.255 -0.05 +0.04    -0.351 N  ATOM     26  H   UNL     1      30.532  42.379  18.883 +0.12 -0.01    +0.163 HD BRANCH  25  27ATOM     27  C   UNL     1      31.623  40.578  18.901 -0.37 +0.00    +0.082 C  ATOM     28  C   UNL     1      30.713  39.818  19.891 -0.12 +0.00    +0.026 C  ATOM     29  C   UNL     1      32.186  39.652  17.801 -0.46 -0.00    +0.026 C  ATOM     30  C   UNL     1      30.054  38.600  19.248 -0.42 +0.00    +0.021 C  ATOM     31  C   UNL     1      32.414  38.242  18.328 -0.52 +0.00    +0.021 C  ATOM     32  C   UNL     1      31.087  37.583  18.736 -0.48 +0.02    +0.050 C  BRANCH  32  33ATOM     33  N   UNL     1      31.368  36.552  19.733 -0.44 -0.13    -0.328 NA ATOM     34  H   UNL     1      30.511  36.309  20.230 -0.07 +0.03    +0.119 HD ATOM     35  H   UNL     1      32.011  36.903  20.440 +0.07 +0.03    +0.119 HD ENDBRANCH  32  33ENDBRANCH  25  27ENDBRANCH   4  25TORSDOF 6TERENDMDL