MODEL        1USER    Run = 1USERUSER    Estimated Free Energy of Binding    =  -9.19 kcal/mol  [=(1)+(2)+(3)-(4)]USERUSER    (1) Final Intermolecular Energy     = -10.38 kcal/molUSER        vdW + Hbond + desolv Energy     = -10.17 kcal/molUSER        Electrostatic Energy            =  -0.21 kcal/molUSER        Moving Ligand-Fixed Receptor    = -10.38 kcal/molUSER        Moving Ligand-Moving Receptor   =  +0.00 kcal/molUSER    (2) Final Total Internal Energy     =  -0.46 kcal/molUSER    (3) Torsional Free Energy           =  +1.19 kcal/molUSER    (4) Unbound System's Energy         =  -0.46 kcal/molUSERUSERREMARK SMILES O=C(Nc1cc(-c2cc(O)c3ccccc3n2)ccn1)C1CC1REMARK SMILES IDX 7 1 8 2 9 3 11 4 12 5 13 6 14 7 15 8 16 9 17 10 6 11 4 12REMARK SMILES IDX 5 13 20 14 19 15 18 16 3 17 2 18 1 19 21 21 22 22 23 23REMARK SMILES IDX 10 24REMARK H PARENT 3 20 10 25USER                              x       y       z     vdW  Elec       q    TypeUSER                           _______ _______ _______ _____ _____    ______ ____ROOTATOM      1  C   UNL     1      38.982  47.591  15.422 -0.44 -0.03    +0.075 A  ATOM      2  C   UNL     1      39.778  48.720  15.267 -0.50 -0.03    +0.075 A  ATOM      3  C   UNL     1      40.837  48.904  16.147 -0.48 -0.02    +0.127 A  ATOM      4  C   UNL     1      41.098  47.975  17.165 -0.49 -0.00    +0.042 A  ATOM      5  C   UNL     1      42.159  48.109  18.087 -0.35 -0.00    +0.014 A  ATOM      6  C   UNL     1      42.364  47.155  19.081 -0.54 +0.00    +0.001 A  ATOM      7  C   UNL     1      41.511  46.062  19.163 -0.47 +0.00    +0.002 A  ATOM      8  C   UNL     1      40.460  45.930  18.249 -0.46 -0.00    +0.029 A  ATOM      9  C   UNL     1      40.236  46.867  17.250 -0.44 -0.01    +0.075 A  ATOM     10  N   UNL     1      39.209  46.683  16.401 -0.25 +0.07    -0.248 NA ENDROOTBRANCH   1  11ATOM     11  C   UNL     1      37.836  47.298  14.543 -0.47 -0.00    +0.005 A  ATOM     12  C   UNL     1      35.530  46.644  14.241 -0.31 -0.11    +0.133 A  ATOM     13  C   UNL     1      36.597  46.916  15.085 -0.36 -0.04    +0.057 A  ATOM     14  N   UNL     1      35.629  46.723  12.896 -0.40 +0.15    -0.239 NA ATOM     15  C   UNL     1      36.824  47.077  12.383 -0.58 -0.04    +0.114 A  ATOM     16  C   UNL     1      37.937  47.371  13.150 -0.47 -0.01    +0.030 A  BRANCH  12  17ATOM     17  N   UNL     1      34.259  46.269  14.671 -0.08 +0.36    -0.310 N  ATOM     18  C   UNL     1      33.888  45.140  15.349 -0.20 -0.17    +0.228 C  ATOM     19  O   UNL     1      34.595  44.215  15.715 -0.21 +0.14    -0.274 OA ATOM     20  H   UNL     1      33.554  46.953  14.441 -0.28 -0.29    +0.171 HD BRANCH  18  21ATOM     21  C   UNL     1      32.425  45.087  15.623 -0.37 -0.05    +0.079 C  ATOM     22  C   UNL     1      31.532  44.074  14.943 -0.41 -0.01    +0.014 C  ATOM     23  C   UNL     1      31.449  45.520  14.552 -0.55 -0.01    +0.014 C  ENDBRANCH  18  21ENDBRANCH  12  17ENDBRANCH   1  11BRANCH   3  24ATOM     24  O   UNL     1      41.641  50.008  16.026 -0.80 +0.01    -0.507 OA ATOM     25  H   UNL     1      41.249  50.750  16.514 -0.27 -0.09    +0.293 HD ENDBRANCH   3  24TORSDOF 4TERENDMDL