MODEL        8USER    Run = 8USERUSER    Estimated Free Energy of Binding    =  -9.16 kcal/mol  [=(1)+(2)+(3)-(4)]USERUSER    (1) Final Intermolecular Energy     = -10.95 kcal/molUSER        vdW + Hbond + desolv Energy     = -10.78 kcal/molUSER        Electrostatic Energy            =  -0.18 kcal/molUSER        Moving Ligand-Fixed Receptor    = -10.95 kcal/molUSER        Moving Ligand-Moving Receptor   =  +0.00 kcal/molUSER    (2) Final Total Internal Energy     =  -0.71 kcal/molUSER    (3) Torsional Free Energy           =  +1.79 kcal/molUSER    (4) Unbound System's Energy         =  -0.71 kcal/molUSERUSERREMARK SMILES Nc1nccc(-c2ccc(C(=O)CCN3CCCCC3)cc2)n1REMARK SMILES IDX 7 1 8 2 9 3 10 4 21 5 22 6 6 7 2 8 3 9 23 10 4 11 5 12 1 13REMARK SMILES IDX 11 16 12 17 13 18 14 19 15 20 16 21 20 22 17 23 19 24 18 25REMARK H PARENT 1 14 1 15USER                              x       y       z     vdW  Elec       q    TypeUSER                           _______ _______ _______ _____ _____    ______ ____ROOTATOM      1  C   UNL     1      40.519  45.785  19.334 -0.44 +0.00    +0.000 A  ATOM      2  C   UNL     1      39.419  45.953  18.474 -0.42 -0.00    +0.011 A  ATOM      3  C   UNL     1      39.446  46.878  17.424 -0.43 -0.00    +0.012 A  ATOM      4  C   UNL     1      40.582  47.662  17.195 -0.51 -0.00    +0.018 A  ATOM      5  C   UNL     1      41.689  47.503  18.033 -0.49 -0.00    +0.012 A  ATOM      6  C   UNL     1      41.654  46.576  19.085 -0.49 +0.00    +0.011 A  ENDROOTBRANCH   1   7ATOM      7  C   UNL     1      40.469  44.805  20.439 -0.32 +0.00    +0.076 A  ATOM      8  C   UNL     1      41.619  43.248  21.676 -0.21 +0.01    +0.220 A  ATOM      9  N   UNL     1      40.564  42.956  22.438 -0.19 -0.01    -0.222 NA ATOM     10  N   UNL     1      41.614  44.127  20.672 -0.23 -0.03    -0.213 NA ATOM     11  C   UNL     1      39.435  43.634  22.179 -0.20 +0.00    +0.117 A  ATOM     12  C   UNL     1      39.329  44.578  21.187 -0.30 +0.00    +0.049 A  BRANCH   8  13ATOM     13  N   UNL     1      42.786  42.555  21.913 -0.01 +0.02    -0.368 N  ATOM     14  H   UNL     1      42.584  41.709  22.427 -0.53 -0.05    +0.159 HD ATOM     15  H   UNL     1      43.315  42.468  21.058 -0.38 +0.02    +0.159 HD ENDBRANCH   8  13ENDBRANCH   1   7BRANCH   4  16ATOM     16  C   UNL     1      40.553  48.636  16.058 -0.52 -0.04    +0.164 C  ATOM     17  O   UNL     1      41.593  49.202  15.726 -0.91 -0.01    -0.294 OA BRANCH  16  18ATOM     18  C   UNL     1      39.252  48.904  15.326 -0.48 -0.05    +0.096 C  BRANCH  18  19ATOM     19  C   UNL     1      39.162  48.119  14.013 -0.37 -0.03    +0.092 C  BRANCH  19  20ATOM     20  N   UNL     1      37.828  48.133  13.391 -0.66 +0.08    -0.303 NA ATOM     21  C   UNL     1      37.651  47.022  12.436 -0.50 -0.02    +0.084 C  ATOM     22  C   UNL     1      36.754  48.214  14.395 -0.43 -0.07    +0.084 C  ATOM     23  C   UNL     1      36.179  46.738  12.142 -0.75 -0.01    +0.016 C  ATOM     24  C   UNL     1      36.065  46.880  14.672 -0.44 -0.01    +0.016 C  ATOM     25  C   UNL     1      35.434  46.307  13.404 -0.55 -0.00    +0.003 C  ENDBRANCH  19  20ENDBRANCH  18  19ENDBRANCH  16  18ENDBRANCH   4  16TORSDOF 6TERENDMDL