REMARK SMILES CC(C)c1ccccc1N1c2nc(N[C@H]3CC[C@H](N)CC3)ncc2N=N[N+](C)(C)[C@@H]1S
REMARK SMILES IDX 10 1 11 2 12 3 13 4 22 5 23 6 24 7 25 8 26 9 27 10 28 11
REMARK SMILES IDX 29 12 30 13 9 14 4 15 5 16 6 17 8 18 7 19 2 20 1 21 3 22
REMARK SMILES IDX 31 23 14 25 15 27 21 28 16 29 20 30 17 31 18 32 19 33
REMARK H PARENT 31 24 14 26 19 34 19 35
ROOT
ATOM      1  N   UNL     1      -1.968  -0.205   0.016  1.00  0.00    -0.262 N 
ATOM      2  C   UNL     1      -0.658  -0.559   0.416  1.00  0.00     0.172 A 
ATOM      3  N   UNL     1       0.413  -0.026  -0.205  1.00  0.00    -0.193 NA
ATOM      4  C   UNL     1       1.638  -0.362   0.217  1.00  0.00     0.224 A 
ATOM      5  N   UNL     1       1.856  -1.198   1.236  1.00  0.00    -0.219 NA
ATOM      6  C   UNL     1       0.778  -1.702   1.861  1.00  0.00     0.149 A 
ATOM      7  C   UNL     1      -0.521  -1.445   1.482  1.00  0.00     0.152 A 
ATOM      8  N   UNL     1      -1.588  -2.005   2.199  1.00  0.00    -0.096 NA
ATOM      9  N   UNL     1      -2.618  -2.390   1.605  1.00  0.00     0.032 NA
ATOM     10  N   UNL     1      -2.687  -2.632   0.141  1.00  0.00    -0.155 N 
ATOM     11  C   UNL     1      -1.642  -3.667  -0.296  1.00  0.00     0.371 C 
ATOM     12  C   UNL     1      -4.056  -3.299  -0.085  1.00  0.00     0.371 C 
ATOM     13  C   UNL     1      -2.692  -1.292  -0.658  1.00  0.00     0.380 C 
ENDROOT
BRANCH   1  14
ATOM     14  C   UNL     1      -2.369   1.086  -0.430  1.00  0.00     0.053 A 
ATOM     15  C   UNL     1      -3.525   1.704   0.116  1.00  0.00    -0.021 A 
ATOM     16  C   UNL     1      -3.932   2.956  -0.391  1.00  0.00     0.006 A 
ATOM     17  C   UNL     1      -3.214   3.600  -1.396  1.00  0.00     0.000 A 
ATOM     18  C   UNL     1      -1.647   1.774  -1.425  1.00  0.00     0.027 A 
ATOM     19  C   UNL     1      -2.066   3.013  -1.907  1.00  0.00     0.002 A 
BRANCH  15  20
ATOM     20  C   UNL     1      -4.304   1.100   1.282  1.00  0.00     0.015 C 
ATOM     21  C   UNL     1      -4.218   1.982   2.532  1.00  0.00     0.012 C 
ATOM     22  C   UNL     1      -5.763   0.821   0.910  1.00  0.00     0.012 C 
ENDBRANCH  15  20
ENDBRANCH   1  14
BRANCH  13  23
ATOM     23  S   UNL     1      -2.231  -1.571  -2.396  1.00  0.00    -0.090 SA
ATOM     24  H   UNL     1      -2.506  -0.330  -2.821  1.00  0.00     0.111 HD
ENDBRANCH  13  23
BRANCH   4  25
ATOM     25  N   UNL     1       2.688   0.192  -0.492  1.00  0.00    -0.351 N 
ATOM     26  H   UNL     1       2.308   1.002  -0.971  1.00  0.00     0.163 HD
BRANCH  25  27
ATOM     27  C   UNL     1       3.927   0.434   0.250  1.00  0.00     0.082 C 
ATOM     28  C   UNL     1       4.839  -0.811   0.195  1.00  0.00     0.026 C 
ATOM     29  C   UNL     1       4.613   1.683  -0.345  1.00  0.00     0.026 C 
ATOM     30  C   UNL     1       5.846  -0.737  -0.950  1.00  0.00     0.021 C 
ATOM     31  C   UNL     1       6.115   1.660  -0.098  1.00  0.00     0.021 C 
ATOM     32  C   UNL     1       6.777   0.480  -0.828  1.00  0.00     0.050 C 
BRANCH  32  33
ATOM     33  N   UNL     1       8.018   0.142  -0.134  1.00  0.00    -0.328 NA
ATOM     34  H   UNL     1       8.512  -0.589  -0.646  1.00  0.00     0.119 HD
ATOM     35  H   UNL     1       7.819  -0.246   0.786  1.00  0.00     0.119 HD
ENDBRANCH  32  33
ENDBRANCH  25  27
ENDBRANCH   4  25
TORSDOF 6
