REMARK SMILES COc1ccccc1CNC1=NC=C(C(=O)O)C=C(Nc2cccc(Cl)c2)C=C1
REMARK SMILES IDX 28 1 29 2 11 3 10 4 9 6 8 7 3 8 4 9 5 10 7 11 6 12 2 13 1 14
REMARK SMILES IDX 12 15 13 16 19 18 18 19 14 20 15 22 16 23 17 24 20 26 21 28
REMARK SMILES IDX 22 29 27 30 23 31 25 32 24 33 26 34
REMARK H PARENT 10 5 17 25 20 27
REMARK Flexibility Score:   83.900
ROOT
ATOM      1  C   UNL     1       1.362  -1.789  -1.626  1.00  0.00     0.030 C 
ENDROOT
BRANCH   1   2
ATOM      2  C   UNL     1       0.163  -2.278  -1.971  1.00  0.00     0.049 C 
BRANCH   2   3
ATOM      3  C   UNL     1      -1.030  -2.188  -1.069  1.00  0.00     0.126 C 
ATOM      4  N   UNL     1      -2.077  -1.410  -1.515  1.00  0.00    -0.366 N 
ATOM      5  H   UNL     1      -1.891  -0.821  -2.319  1.00  0.00     0.162 HD
BRANCH   4   6
ATOM      6  C   UNL     1      -3.051  -0.821  -0.608  1.00  0.00     0.154 C 
BRANCH   6   7
ATOM      7  C   UNL     1      -2.772   0.660  -0.436  1.00  0.00     0.013 A 
ATOM      8  C   UNL     1      -3.682   1.648  -0.859  1.00  0.00     0.123 A 
ATOM      9  C   UNL     1      -3.372   3.002  -0.670  1.00  0.00     0.047 A 
ATOM     10  C   UNL     1      -2.180   3.376  -0.044  1.00  0.00     0.004 A 
ATOM     11  C   UNL     1      -1.581   1.058   0.199  1.00  0.00     0.009 A 
ATOM     12  C   UNL     1      -1.284   2.405   0.394  1.00  0.00     0.001 A 
BRANCH   8  13
ATOM     13  O   UNL     1      -4.827   1.202  -1.463  1.00  0.00    -0.496 OA
ATOM     14  C   UNL     1      -5.910   2.118  -1.550  1.00  0.00     0.278 C 
ENDBRANCH   8  13
ENDBRANCH   6   7
ENDBRANCH   4   6
BRANCH   3  15
ATOM     15  N   UNL     1      -1.141  -2.809   0.074  1.00  0.00    -0.239 NA
BRANCH  15  16
ATOM     16  C   UNL     1      -0.127  -3.609   0.535  1.00  0.00     0.129 CG0
ATOM     17  G   UNL     1       1.092  -3.196   0.927  1.00  0.00     0.000 G0
ENDBRANCH  15  16
ENDBRANCH   3  15
ENDBRANCH   2   3
ENDBRANCH   1   2
BRANCH   1  18
ATOM     18  C   UNL     1       1.708  -1.149  -0.357  1.00  0.00     0.039 C 
BRANCH  18  19
ATOM     19  C   UNL     1       1.540  -1.817   0.802  1.00  0.00     0.043 C 
BRANCH  19  20
ATOM     20  C   UNL     1       1.092  -3.196   0.927  1.00  0.00     0.080 CG0
ATOM     21  G   UNL     1      -0.127  -3.609   0.535  1.00  0.00     0.000 G0
BRANCH  20  22
ATOM     22  C   UNL     1       1.999  -4.233   1.481  1.00  0.00     0.337 C 
ATOM     23  O   UNL     1       1.825  -5.444   1.468  1.00  0.00    -0.246 OA
BRANCH  22  24
ATOM     24  O   UNL     1       3.112  -3.706   2.030  1.00  0.00    -0.478 OA
ATOM     25  H   UNL     1       3.633  -4.492   2.305  1.00  0.00     0.297 HD
ENDBRANCH  22  24
ENDBRANCH  20  22
ENDBRANCH  19  20
ENDBRANCH  18  19
BRANCH  18  26
ATOM     26  N   UNL     1       2.177   0.147  -0.485  1.00  0.00    -0.355 N 
ATOM     27  H   UNL     1       1.980   0.575  -1.387  1.00  0.00     0.167 HD
BRANCH  26  28
ATOM     28  C   UNL     1       3.038   0.909   0.319  1.00  0.00     0.040 A 
ATOM     29  C   UNL     1       3.849   0.368   1.328  1.00  0.00     0.026 A 
ATOM     30  C   UNL     1       3.045   2.302   0.151  1.00  0.00     0.046 A 
ATOM     31  C   UNL     1       4.647   1.184   2.138  1.00  0.00     0.004 A 
ATOM     32  C   UNL     1       3.850   3.116   0.953  1.00  0.00     0.043 A 
ATOM     33  C   UNL     1       4.655   2.562   1.944  1.00  0.00     0.020 A 
ATOM     34  Cl  UNL     1       3.849   4.819   0.710  1.00  0.00    -0.084 Cl
ENDBRANCH  26  28
ENDBRANCH  18  26
ENDBRANCH   1  18
TORSDOF 7
