REMARK SMILES NC(=O)Nc1ccc(Nc2nc3ccc(F)cc3s2)cc1Br
REMARK SMILES IDX 5 1 6 2 7 3 8 4 20 5 21 6 22 7 4 8 1 9 2 10 3 13 9 15 10 17
REMARK SMILES IDX 11 18 19 19 12 20 18 21 13 22 17 23 14 24 15 25 16 26
REMARK H PARENT 1 11 1 12 4 14 9 16
ROOT
ATOM      1  C   UNL     1       3.361   0.041  -0.497  1.00  0.00     0.057 A 
ATOM      2  C   UNL     1       3.129   0.619   0.750  1.00  0.00     0.029 A 
ATOM      3  C   UNL     1       1.824   0.911   1.167  1.00  0.00     0.028 A 
ATOM      4  C   UNL     1       0.712   0.638   0.357  1.00  0.00     0.041 A 
ATOM      5  C   UNL     1       0.947   0.049  -0.887  1.00  0.00     0.044 A 
ATOM      6  C   UNL     1       2.252  -0.244  -1.309  1.00  0.00     0.043 A 
ATOM      7  Br  UNL     1       2.463  -1.037  -3.029  1.00  0.00    -0.048 Br
ENDROOT
BRANCH   1   8
ATOM      8  N   UNL     1       4.654  -0.281  -0.965  1.00  0.00    -0.307 N 
ATOM      9  N   UNL     1       6.900  -0.505  -1.100  1.00  0.00    -0.351 N 
ATOM     10  C   UNL     1       5.858   0.023  -0.394  1.00  0.00     0.316 C 
ATOM     11  H   UNL     1       6.775  -1.443  -1.452  1.00  0.00     0.161 HD
ATOM     12  H   UNL     1       7.786  -0.364  -0.628  1.00  0.00     0.161 HD
ATOM     13  O   UNL     1       6.078   0.682   0.611  1.00  0.00    -0.249 OA
ATOM     14  H   UNL     1       4.701  -0.665  -1.899  1.00  0.00     0.171 HD
ENDBRANCH   1   8
BRANCH   4  15
ATOM     15  N   UNL     1      -0.565   0.925   0.872  1.00  0.00    -0.331 N 
ATOM     16  H   UNL     1      -0.591   1.791   1.401  1.00  0.00     0.169 HD
BRANCH  15  17
ATOM     17  C   UNL     1      -1.788   0.459   0.525  1.00  0.00     0.188 A 
ATOM     18  N   UNL     1      -2.866   1.179   0.747  1.00  0.00    -0.220 NA
ATOM     19  S   UNL     1      -2.109  -1.119  -0.097  1.00  0.00    -0.097 S 
ATOM     20  C   UNL     1      -4.006   0.499   0.361  1.00  0.00     0.084 A 
ATOM     21  C   UNL     1      -3.793  -0.787  -0.135  1.00  0.00     0.059 A 
ATOM     22  C   UNL     1      -5.327   0.991   0.434  1.00  0.00     0.033 A 
ATOM     23  C   UNL     1      -4.850  -1.604  -0.564  1.00  0.00     0.060 A 
ATOM     24  C   UNL     1      -6.389   0.187   0.008  1.00  0.00     0.041 A 
ATOM     25  C   UNL     1      -6.141  -1.087  -0.481  1.00  0.00     0.124 A 
ATOM     26  F   UNL     1      -7.171  -1.843  -0.884  1.00  0.00    -0.207 F 
ENDBRANCH  15  17
ENDBRANCH   4  15
TORSDOF 3
