MODEL        9USER    Run = 9USERUSER    Estimated Free Energy of Binding    = -10.74 kcal/mol  [=(1)+(2)+(3)-(4)]USERUSER    (1) Final Intermolecular Energy     = -13.72 kcal/molUSER        vdW + Hbond + desolv Energy     = -13.63 kcal/molUSER        Electrostatic Energy            =  -0.09 kcal/molUSER        Moving Ligand-Fixed Receptor    = -13.72 kcal/molUSER        Moving Ligand-Moving Receptor   =  +0.00 kcal/molUSER    (2) Final Total Internal Energy     =  -3.81 kcal/molUSER    (3) Torsional Free Energy           =  +2.98 kcal/molUSER    (4) Unbound System's Energy         =  -3.81 kcal/molUSERUSERREMARK SMILES Cc1ccccc1C[C@H]1CCCc2cc(C(=O)OC[C@@H](N)CCc3c[nH]nn3)ccc21REMARK SMILES IDX 18 1 16 2 17 3 15 4 9 5 10 6 31 7 11 8 30 9 13 10 12 11REMARK SMILES IDX 29 12 14 13 8 14 7 15 2 16 3 17 4 18 6 19 5 20 1 21 19 22REMARK SMILES IDX 20 23 21 24 22 27 23 28 24 29 25 30 28 31 26 32 27 33REMARK H PARENT 21 25 21 26 26 34USER                              x       y       z     vdW  Elec       q    TypeUSER                           _______ _______ _______ _____ _____    ______ ____ROOTATOM      1  O   UNL     1      42.443  47.168  20.669 -0.15 -0.07    -0.460 OA ENDROOTBRANCH   1   2ATOM      2  C   UNL     1      42.534  47.297  19.322 -0.33 +0.04    +0.338 C  ATOM      3  O   UNL     1      43.497  47.729  18.709 -0.47 -0.03    -0.246 OA BRANCH   2   4ATOM      4  C   UNL     1      41.290  46.809  18.671 -0.46 -0.00    +0.060 A  ATOM      5  C   UNL     1      37.670  45.495  16.621 -0.40 -0.01    +0.024 C  ATOM      6  C   UNL     1      36.951  44.321  17.323 -0.38 -0.00    +0.009 C  ATOM      7  C   UNL     1      38.943  45.932  17.351 -0.39 +0.01    -0.041 A  ATOM      8  C   UNL     1      36.966  44.467  18.836 -0.41 -0.00    +0.005 C  ATOM      9  C   UNL     1      39.769  46.923  16.790 -0.48 -0.00    +0.005 A  ATOM     10  C   UNL     1      39.275  45.431  18.625 -0.39 +0.00    -0.044 A  ATOM     11  C   UNL     1      38.402  44.428  19.337 -0.39 -0.00    +0.036 C  ATOM     12  C   UNL     1      40.931  47.355  17.437 -0.51 -0.00    +0.016 A  ATOM     13  C   UNL     1      40.458  45.851  19.262 -0.43 -0.00    +0.019 A  BRANCH   5  14ATOM     14  C   UNL     1      37.932  45.132  15.133 -0.36 -0.01    +0.044 C  BRANCH  14  15ATOM     15  C   UNL     1      37.408  46.149  14.136 -0.40 +0.02    -0.044 A  ATOM     16  C   UNL     1      36.970  45.791  12.843 -0.50 +0.02    -0.048 A  ATOM     17  C   UNL     1      36.525  46.799  11.969 -0.70 -0.00    +0.004 A  ATOM     18  C   UNL     1      36.493  48.135  12.368 -0.54 -0.00    +0.000 A  ATOM     19  C   UNL     1      37.364  47.502  14.522 -0.49 -0.00    +0.004 A  ATOM     20  C   UNL     1      36.909  48.486  13.647 -0.56 -0.00    +0.000 A  ATOM     21  C   UNL     1      36.985  44.371  12.348 -0.46 -0.01    +0.044 C  ENDBRANCH  14  15ENDBRANCH   5  14ENDBRANCH   2   4ENDBRANCH   1   2BRANCH   1  22ATOM     22  C   UNL     1      42.973  45.940  21.200 -0.13 +0.09    +0.251 C  BRANCH  22  23ATOM     23  C   UNL     1      44.384  46.224  21.753 -0.18 +0.07    +0.089 C  BRANCH  23  24ATOM     24  N   UNL     1      44.782  47.623  21.510 -0.41 -0.20    -0.325 NA ATOM     25  H   UNL     1      44.659  47.812  20.512 -0.45 +0.06    +0.119 HD ATOM     26  H   UNL     1      44.128  48.255  21.971 -0.45 +0.02    +0.119 HD ENDBRANCH  23  24BRANCH  23  27ATOM     27  C   UNL     1      44.530  45.860  23.238 -0.16 +0.01    +0.029 C  BRANCH  27  28ATOM     28  C   UNL     1      43.296  46.129  24.105 -0.11 +0.01    +0.061 C  BRANCH  28  29ATOM     29  C   UNL     1      43.053  47.585  24.268 -0.18 +0.01    +0.082 A  ATOM     30  C   UNL     1      43.094  48.368  25.400 -0.19 +0.02    +0.131 A  ATOM     31  N   UNL     1      42.716  48.368  23.193 -0.57 -0.03    -0.136 NA ATOM     32  N   UNL     1      42.767  49.611  24.948 -0.24 -0.06    -0.265 N  ATOM     33  N   UNL     1      42.539  49.609  23.627 -0.85 -0.04    -0.070 NA ATOM     34  H   UNL     1      42.670  50.480  25.458 -0.50 +0.02    +0.191 HD ENDBRANCH  28  29ENDBRANCH  27  28ENDBRANCH  23  27ENDBRANCH  22  23ENDBRANCH   1  22TORSDOF 10TERENDMDL