MODEL        5USER    Run = 5USERUSER    Estimated Free Energy of Binding    =  -8.45 kcal/mol  [=(1)+(2)+(3)-(4)]USERUSER    (1) Final Intermolecular Energy     =  -9.35 kcal/molUSER        vdW + Hbond + desolv Energy     =  -9.26 kcal/molUSER        Electrostatic Energy            =  -0.09 kcal/molUSER        Moving Ligand-Fixed Receptor    =  -9.35 kcal/molUSER        Moving Ligand-Moving Receptor   =  +0.00 kcal/molUSER    (2) Final Total Internal Energy     =  -0.38 kcal/molUSER    (3) Torsional Free Energy           =  +0.89 kcal/molUSER    (4) Unbound System's Energy         =  -0.38 kcal/molUSERUSERREMARK SMILES NC(=O)Nc1ccc(Nc2nc3ccc(F)cc3s2)cc1BrREMARK SMILES IDX 5 1 6 2 7 3 8 4 20 5 21 6 22 7 4 8 1 9 2 10 3 13 9 15 10 17REMARK SMILES IDX 11 18 19 19 12 20 18 21 13 22 17 23 14 24 15 25 16 26REMARK H PARENT 1 11 1 12 4 14 9 16USER                              x       y       z     vdW  Elec       q    TypeUSER                           _______ _______ _______ _____ _____    ______ ____ROOTATOM      1  C   UNL     1      38.903  48.020  16.097 -0.41 -0.03    +0.057 A  ATOM      2  C   UNL     1      39.317  47.290  17.210 -0.36 -0.01    +0.029 A  ATOM      3  C   UNL     1      38.623  46.139  17.603 -0.38 -0.01    +0.028 A  ATOM      4  C   UNL     1      37.498  45.680  16.903 -0.34 -0.01    +0.041 A  ATOM      5  C   UNL     1      37.092  46.407  15.783 -0.35 -0.02    +0.044 A  ATOM      6  C   UNL     1      37.783  47.561  15.386 -0.43 -0.03    +0.043 A  ATOM      7  Br  UNL     1      37.140  48.487  13.849 -0.99 +0.03    -0.048 Br ENDROOTBRANCH   1   8ATOM      8  N   UNL     1      39.569  49.184  15.652 -0.30 +0.15    -0.307 N  ATOM      9  N   UNL     1      41.144  50.775  15.338 -0.32 +0.13    -0.351 N  ATOM     10  C   UNL     1      40.799  49.647  16.025 -0.35 -0.08    +0.316 C  ATOM     11  H   UNL     1      40.920  50.789  14.354 -0.12 -0.08    +0.161 HD ATOM     12  H   UNL     1      42.093  51.066  15.542 -0.25 -0.03    +0.161 HD ATOM     13  O   UNL     1      41.563  49.187  16.860 -1.03 -0.02    -0.249 OA ATOM     14  H   UNL     1      39.017  49.819  15.092 -0.34 -0.15    +0.171 HD ENDBRANCH   1   8BRANCH   4  15ATOM     15  N   UNL     1      36.888  44.491  17.343 -0.12 +0.10    -0.331 N  ATOM     16  H   UNL     1      36.749  43.819  16.595 +0.11 -0.05    +0.169 HD BRANCH  15  17ATOM     17  C   UNL     1      36.764  43.962  18.583 -0.18 -0.03    +0.188 A  ATOM     18  N   UNL     1      37.501  44.409  19.577 -0.23 +0.02    -0.220 NA ATOM     19  S   UNL     1      35.778  42.605  18.990 -0.45 +0.01    -0.097 S  ATOM     20  C   UNL     1      37.249  43.702  20.739 -0.34 -0.00    +0.084 A  ATOM     21  C   UNL     1      36.323  42.667  20.617 -0.42 -0.00    +0.059 A  ATOM     22  C   UNL     1      37.845  43.939  21.996 -0.35 +0.00    +0.033 A  ATOM     23  C   UNL     1      35.965  41.857  21.705 -0.42 +0.00    +0.060 A  ATOM     24  C   UNL     1      37.495  43.139  23.089 -0.35 +0.00    +0.041 A  ATOM     25  C   UNL     1      36.569  42.119  22.932 -0.39 +0.01    +0.124 A  ATOM     26  F   UNL     1      36.247  41.363  23.990 -0.16 +0.02    -0.207 F  ENDBRANCH  15  17ENDBRANCH   4  15TORSDOF 3TERENDMDL