REMARK SMILES Cc1ccccc1C[C@H]1CCCc2cc(C(=O)OC[C@@H](N)CCc3c[nH]nn3)ccc21
REMARK SMILES IDX 18 1 16 2 17 3 15 4 9 5 10 6 31 7 11 8 30 9 13 10 12 11
REMARK SMILES IDX 29 12 14 13 8 14 7 15 2 16 3 17 4 18 6 19 5 20 1 21 19 22
REMARK SMILES IDX 20 23 21 24 22 27 23 28 24 29 25 30 28 31 26 32 27 33
REMARK H PARENT 21 25 21 26 26 34
ROOT
ATOM      1  O   UNL     1       2.722  -0.780   0.096  1.00  0.00    -0.460 OA
ENDROOT
BRANCH   1   2
ATOM      2  C   UNL     1       1.899  -0.985   1.154  1.00  0.00     0.338 C 
ATOM      3  O   UNL     1       2.245  -1.329   2.273  1.00  0.00    -0.246 OA
BRANCH   2   4
ATOM      4  C   UNL     1       0.489  -0.707   0.774  1.00  0.00     0.060 A 
ATOM      5  C   UNL     1      -3.695   0.098  -0.164  1.00  0.00     0.024 C 
ATOM      6  C   UNL     1      -3.947   0.410  -1.656  1.00  0.00     0.009 C 
ATOM      7  C   UNL     1      -2.219  -0.170   0.145  1.00  0.00    -0.041 A 
ATOM      8  C   UNL     1      -3.112  -0.471  -2.571  1.00  0.00     0.005 C 
ATOM      9  C   UNL     1      -1.805  -0.372   1.474  1.00  0.00     0.005 A 
ATOM     10  C   UNL     1      -1.262  -0.309  -0.880  1.00  0.00    -0.044 A 
ATOM     11  C   UNL     1      -1.634  -0.192  -2.337  1.00  0.00     0.036 C 
ATOM     12  C   UNL     1      -0.468  -0.633   1.788  1.00  0.00     0.016 A 
ATOM     13  C   UNL     1       0.087  -0.548  -0.557  1.00  0.00     0.019 A 
BRANCH   5  14
ATOM     14  C   UNL     1      -4.289   1.234   0.714  1.00  0.00     0.044 C 
BRANCH  14  15
ATOM     15  C   UNL     1      -5.796   1.387   0.609  1.00  0.00    -0.044 A 
ATOM     16  C   UNL     1      -6.696   0.533   1.281  1.00  0.00    -0.048 A 
ATOM     17  C   UNL     1      -8.078   0.725   1.108  1.00  0.00     0.004 A 
ATOM     18  C   UNL     1      -8.567   1.753   0.303  1.00  0.00     0.000 A 
ATOM     19  C   UNL     1      -6.308   2.423  -0.195  1.00  0.00     0.004 A 
ATOM     20  C   UNL     1      -7.681   2.605  -0.346  1.00  0.00     0.000 A 
ATOM     21  C   UNL     1      -6.235  -0.599   2.158  1.00  0.00     0.044 C 
ENDBRANCH  14  15
ENDBRANCH   5  14
ENDBRANCH   2   4
ENDBRANCH   1   2
BRANCH   1  22
ATOM     22  C   UNL     1       4.115  -1.035   0.351  1.00  0.00     0.251 C 
BRANCH  22  23
ATOM     23  C   UNL     1       4.940  -0.353  -0.759  1.00  0.00     0.089 C 
BRANCH  23  24
ATOM     24  N   UNL     1       4.781   1.113  -0.720  1.00  0.00    -0.325 NA
ATOM     25  H   UNL     1       3.791   1.322  -0.871  1.00  0.00     0.119 HD
ATOM     26  H   UNL     1       4.973   1.457   0.221  1.00  0.00     0.119 HD
ENDBRANCH  23  24
BRANCH  23  27
ATOM     27  C   UNL     1       6.424  -0.747  -0.731  1.00  0.00     0.029 C 
BRANCH  27  28
ATOM     28  C   UNL     1       7.185  -0.354   0.539  1.00  0.00     0.061 C 
BRANCH  28  29
ATOM     29  C   UNL     1       8.603  -0.795   0.482  1.00  0.00     0.082 A 
ATOM     30  C   UNL     1       9.739  -0.082   0.170  1.00  0.00     0.131 A 
ATOM     31  N   UNL     1       8.949  -2.094   0.752  1.00  0.00    -0.136 NA
ATOM     32  N   UNL     1      10.737  -1.004   0.261  1.00  0.00    -0.265 N 
ATOM     33  N   UNL     1      10.262  -2.209   0.608  1.00  0.00    -0.070 NA
ATOM     34  H   UNL     1      11.731  -0.901   0.098  1.00  0.00     0.191 HD
ENDBRANCH  28  29
ENDBRANCH  27  28
ENDBRANCH  23  27
ENDBRANCH  22  23
ENDBRANCH   1  22
TORSDOF 10
