MODEL        2USER    Run = 2USERUSER    Estimated Free Energy of Binding    =  -9.90 kcal/mol  [=(1)+(2)+(3)-(4)]USERUSER    (1) Final Intermolecular Energy     = -11.39 kcal/molUSER        vdW + Hbond + desolv Energy     = -11.18 kcal/molUSER        Electrostatic Energy            =  -0.21 kcal/molUSER        Moving Ligand-Fixed Receptor    = -11.39 kcal/molUSER        Moving Ligand-Moving Receptor   =  +0.00 kcal/molUSER    (2) Final Total Internal Energy     =  -1.70 kcal/molUSER    (3) Torsional Free Energy           =  +1.49 kcal/molUSER    (4) Unbound System's Energy         =  -1.70 kcal/molUSERUSERREMARK SMILES C=Nc1c(C2=NN=CCC2)ccc(O)c1C(=O)Nc1cccc(C)c1REMARK SMILES IDX 3 1 4 2 11 3 12 4 13 5 15 6 2 7 1 8 5 9 6 10 10 11 7 12 9 13REMARK SMILES IDX 8 14 16 15 18 16 17 17 19 19 20 20 25 21 21 22 23 23 22 24REMARK SMILES IDX 24 25 14 26REMARK H PARENT 18 18 14 27USER                              x       y       z     vdW  Elec       q    TypeUSER                           _______ _______ _______ _____ _____    ______ ____ROOTATOM      1  C   UNL     1      39.108  46.815  15.921 -0.38 -0.03    +0.088 A  ATOM      2  C   UNL     1      38.989  47.619  14.771 -0.48 -0.01    +0.025 A  ATOM      3  C   UNL     1      39.840  48.709  14.545 -0.48 -0.01    +0.016 A  ATOM      4  C   UNL     1      40.867  48.986  15.441 -0.59 -0.01    +0.048 A  ATOM      5  C   UNL     1      41.027  48.183  16.569 -0.44 -0.02    +0.130 A  ATOM      6  C   UNL     1      40.154  47.108  16.826 -0.42 -0.02    +0.108 A  ENDROOTBRANCH   1   7ATOM      7  N   UNL     1      38.232  45.720  16.098 -0.18 +0.08    -0.263 NA ATOM      8  C   UNL     1      37.024  46.018  16.450 -0.33 -0.07    +0.142 C  ENDBRANCH   1   7BRANCH   2   9ATOM      9  C   UNL     1      37.939  47.366  13.761 -0.53 -0.03    +0.073 C  ATOM     10  N   UNL     1      37.322  48.378  13.228 -0.84 +0.05    -0.155 NA ATOM     11  C   UNL     1      37.676  45.944  13.337 -0.43 -0.02    +0.065 C  ATOM     12  N   UNL     1      36.348  48.140  12.248 -0.90 +0.07    -0.163 NA ATOM     13  C   UNL     1      36.197  45.820  13.068 -0.54 -0.03    +0.056 C  ATOM     14  C   UNL     1      35.802  46.966  12.194 -0.59 -0.06    +0.109 C  ENDBRANCH   2   9BRANCH   6  15ATOM     15  C   UNL     1      40.304  46.306  18.075 -0.35 -0.02    +0.261 C  ATOM     16  N   UNL     1      39.113  46.003  18.708 -0.21 +0.04    -0.322 N  ATOM     17  O   UNL     1      41.428  45.962  18.425 -0.34 -0.00    -0.269 OA ATOM     18  H   UNL     1      38.271  46.235  18.196 +0.08 -0.04    +0.170 HD BRANCH  16  19ATOM     19  C   UNL     1      38.932  45.306  19.919 -0.34 -0.00    +0.041 A  ATOM     20  C   UNL     1      39.713  45.504  21.056 -0.32 +0.00    +0.026 A  ATOM     21  C   UNL     1      37.887  44.371  19.969 -0.35 -0.00    +0.029 A  ATOM     22  C   UNL     1      39.458  44.781  22.225 -0.29 +0.00    +0.002 A  ATOM     23  C   UNL     1      37.632  43.628  21.132 -0.35 -0.00    -0.049 A  ATOM     24  C   UNL     1      38.420  43.851  22.265 -0.32 +0.00    +0.003 A  ATOM     25  C   UNL     1      36.492  42.655  21.178 -0.50 +0.00    +0.044 C  ENDBRANCH  16  19ENDBRANCH   6  15BRANCH   5  26ATOM     26  O   UNL     1      42.060  48.453  17.426 -0.43 -0.05    -0.507 OA ATOM     27  H   UNL     1      42.569  47.638  17.587 -0.35 -0.04    +0.293 HD ENDBRANCH   5  26TORSDOF 5TERENDMDL