MODEL        2USER    Run = 2USERUSER    Estimated Free Energy of Binding    =  -8.77 kcal/mol  [=(1)+(2)+(3)-(4)]USERUSER    (1) Final Intermolecular Energy     =  -9.66 kcal/molUSER        vdW + Hbond + desolv Energy     =  -9.26 kcal/molUSER        Electrostatic Energy            =  -0.40 kcal/molUSER        Moving Ligand-Fixed Receptor    =  -9.66 kcal/molUSER        Moving Ligand-Moving Receptor   =  +0.00 kcal/molUSER    (2) Final Total Internal Energy     =  -0.51 kcal/molUSER    (3) Torsional Free Energy           =  +0.89 kcal/molUSER    (4) Unbound System's Energy         =  -0.51 kcal/molUSERUSERREMARK SMILES O=C1C[C@H](O)CCN1c1ccc2c(-c3c(F)cccc3F)n[nH]c2c1REMARK SMILES IDX 9 1 10 2 11 3 12 4 13 5 22 6 23 7 24 8 25 9 8 11 2 12 3 13REMARK SMILES IDX 4 14 7 15 6 16 1 17 5 18 14 20 15 21 20 22 17 23 19 24 18 25REMARK SMILES IDX 16 26 21 27REMARK H PARENT 23 10 5 19USER                              x       y       z     vdW  Elec       q    TypeUSER                           _______ _______ _______ _____ _____    ______ ____ROOTATOM      1  C   UNL     1      40.627  46.736  17.982 -0.47 -0.00    +0.046 A  ATOM      2  C   UNL     1      40.191  45.592  18.668 -0.44 -0.00    +0.027 A  ATOM      3  C   UNL     1      40.857  45.096  19.803 -0.39 +0.00    +0.015 A  ATOM      4  C   UNL     1      42.004  45.759  20.268 -0.31 +0.01    +0.028 A  ATOM      5  C   UNL     1      42.931  45.595  21.342 -0.14 +0.04    +0.106 A  ATOM      6  N   UNL     1      43.872  46.553  21.315 -0.38 -0.11    -0.174 NA ATOM      7  N   UNL     1      43.540  47.313  20.263 -0.25 -0.10    -0.277 N  ATOM      8  C   UNL     1      42.434  46.885  19.583 -0.43 +0.01    +0.068 A  ATOM      9  C   UNL     1      41.783  47.393  18.448 -0.49 -0.00    +0.054 A  ATOM     10  H   UNL     1      44.118  48.119  20.057 -0.45 -0.01    +0.190 HD ENDROOTBRANCH   1  11ATOM     11  N   UNL     1      39.930  47.199  16.801 -0.27 +0.07    -0.312 N  ATOM     12  C   UNL     1      40.407  48.303  16.073 -0.45 -0.05    +0.229 C  ATOM     13  C   UNL     1      39.479  48.883  15.025 -0.43 -0.06    +0.132 C  ATOM     14  C   UNL     1      38.636  47.847  14.317 -0.48 -0.05    +0.125 C  ATOM     15  C   UNL     1      38.914  46.313  16.221 -0.39 -0.04    +0.128 C  ATOM     16  C   UNL     1      37.898  47.021  15.346 -0.44 -0.03    +0.054 C  ATOM     17  O   UNL     1      41.480  48.874  16.275 -0.97 -0.01    -0.274 OA BRANCH  14  18ATOM     18  O   UNL     1      37.696  48.475  13.449 -0.62 +0.13    -0.393 OA ATOM     19  H   UNL     1      37.749  49.439  13.575 -0.28 -0.11    +0.210 HD ENDBRANCH  14  18ENDBRANCH   1  11BRANCH   5  20ATOM     20  C   UNL     1      42.939  44.563  22.366 -0.20 +0.02    +0.074 A  ATOM     21  C   UNL     1      44.113  43.876  22.686 -0.19 +0.03    +0.135 A  ATOM     22  C   UNL     1      41.774  44.229  23.059 -0.14 +0.01    +0.135 A  ATOM     23  C   UNL     1      44.125  42.882  23.667 -0.20 +0.00    +0.040 A  ATOM     24  C   UNL     1      41.773  43.237  24.042 -0.18 -0.00    +0.040 A  ATOM     25  C   UNL     1      42.952  42.559  24.347 -0.17 -0.00    +0.006 A  ATOM     26  F   UNL     1      45.273  44.170  22.079 -0.06 -0.14    -0.206 F  ATOM     27  F   UNL     1      40.617  44.852  22.794 -0.02 -0.01    -0.206 F  ENDBRANCH   5  20TORSDOF 3TERENDMDL