REMARK SMILES O=C1C[C@H](O)CCN1c1ccc2c(-c3c(F)cccc3F)n[nH]c2c1
REMARK SMILES IDX 9 1 10 2 11 3 12 4 13 5 22 6 23 7 24 8 25 9 8 11 2 12 3 13
REMARK SMILES IDX 4 14 7 15 6 16 1 17 5 18 14 20 15 21 20 22 17 23 19 24 18 25
REMARK SMILES IDX 16 26 21 27
REMARK H PARENT 23 10 5 19
ROOT
ATOM      1  C   UNL     1       1.151  -0.116  -0.296  1.00  0.00     0.046 A 
ATOM      2  C   UNL     1       0.444   0.386   0.808  1.00  0.00     0.027 A 
ATOM      3  C   UNL     1      -0.959   0.338   0.889  1.00  0.00     0.015 A 
ATOM      4  C   UNL     1      -1.686  -0.223  -0.173  1.00  0.00     0.028 A 
ATOM      5  C   UNL     1      -3.062  -0.462  -0.474  1.00  0.00     0.106 A 
ATOM      6  N   UNL     1      -3.197  -1.052  -1.673  1.00  0.00    -0.174 NA
ATOM      7  N   UNL     1      -1.939  -1.199  -2.112  1.00  0.00    -0.277 N 
ATOM      8  C   UNL     1      -0.984  -0.712  -1.264  1.00  0.00     0.068 A 
ATOM      9  C   UNL     1       0.416  -0.671  -1.362  1.00  0.00     0.054 A 
ATOM     10  H   UNL     1      -1.799  -1.643  -3.012  1.00  0.00     0.190 HD
ENDROOT
BRANCH   1  11
ATOM     11  N   UNL     1       2.594  -0.023  -0.353  1.00  0.00    -0.312 N 
ATOM     12  C   UNL     1       3.363  -0.070   0.823  1.00  0.00     0.229 C 
ATOM     13  C   UNL     1       4.826   0.305   0.699  1.00  0.00     0.132 C 
ATOM     14  C   UNL     1       5.456  -0.123  -0.607  1.00  0.00     0.125 C 
ATOM     15  C   UNL     1       3.234  -0.188  -1.663  1.00  0.00     0.128 C 
ATOM     16  C   UNL     1       4.626   0.406  -1.755  1.00  0.00     0.054 C 
ATOM     17  O   UNL     1       2.923  -0.318   1.947  1.00  0.00    -0.274 OA
BRANCH  14  18
ATOM     18  O   UNL     1       6.785   0.382  -0.710  1.00  0.00    -0.393 OA
ATOM     19  H   UNL     1       6.760   1.351  -0.616  1.00  0.00     0.210 HD
ENDBRANCH  14  18
ENDBRANCH   1  11
BRANCH   5  20
ATOM     20  C   UNL     1      -4.224  -0.140   0.339  1.00  0.00     0.074 A 
ATOM     21  C   UNL     1      -5.148  -1.125   0.696  1.00  0.00     0.135 A 
ATOM     22  C   UNL     1      -4.450   1.164   0.785  1.00  0.00     0.135 A 
ATOM     23  C   UNL     1      -6.267  -0.820   1.474  1.00  0.00     0.040 A 
ATOM     24  C   UNL     1      -5.564   1.482   1.563  1.00  0.00     0.040 A 
ATOM     25  C   UNL     1      -6.478   0.488   1.909  1.00  0.00     0.006 A 
ATOM     26  F   UNL     1      -4.973  -2.403   0.326  1.00  0.00    -0.206 F 
ATOM     27  F   UNL     1      -3.599   2.152   0.471  1.00  0.00    -0.206 F 
ENDBRANCH   5  20
TORSDOF 3
