REMARK SMILES C[C@H](O)NC[C@H]1C(=O)N[C@@H](c2c(F)cccc2Cl)N1C(=O)CN1CCC(c2ccc(O)c3c2C[C@@H](F)C3)CC1
REMARK SMILES IDX 6 1 7 2 8 3 9 4 10 5 19 6 5 8 4 9 2 11 1 12 3 13 20 15 21 16
REMARK SMILES IDX 22 17 23 18 24 19 39 20 25 21 38 22 26 23 27 24 28 25 33 26
REMARK SMILES IDX 29 27 32 28 34 29 30 30 37 31 35 32 36 33 31 34 11 36 12 37
REMARK SMILES IDX 17 38 14 39 16 40 15 41 13 42 18 43
REMARK H PARENT 9 7 4 10 3 14 31 35
ROOT
ATOM      1  C   UNL     1      -3.376  -0.328  -2.273  1.00  0.00     0.190 C 
ATOM      2  C   UNL     1      -4.291   0.746  -2.836  1.00  0.00     0.246 C 
ATOM      3  O   UNL     1      -5.182   0.588  -3.656  1.00  0.00    -0.273 OA
ATOM      4  N   UNL     1      -3.970   1.949  -2.267  1.00  0.00    -0.330 N 
ATOM      5  C   UNL     1      -2.795   1.876  -1.460  1.00  0.00     0.218 C 
ATOM      6  N   UNL     1      -2.493   0.464  -1.402  1.00  0.00    -0.304 N 
ATOM      7  H   UNL     1      -4.385   2.813  -2.592  1.00  0.00     0.166 HD
ENDROOT
BRANCH   1   8
ATOM      8  C   UNL     1      -4.210  -1.442  -1.610  1.00  0.00     0.118 C 
BRANCH   8   9
ATOM      9  N   UNL     1      -4.865  -1.041  -0.357  1.00  0.00    -0.290 NA
ATOM     10  H   UNL     1      -5.466  -0.235  -0.518  1.00  0.00     0.125 HD
BRANCH   9  11
ATOM     11  C   UNL     1      -5.641  -2.118   0.227  1.00  0.00     0.179 C 
ATOM     12  C   UNL     1      -6.355  -1.604   1.474  1.00  0.00     0.056 C 
BRANCH  11  13
ATOM     13  O   UNL     1      -4.782  -3.185   0.584  1.00  0.00    -0.379 OA
ATOM     14  H   UNL     1      -5.303  -3.812   1.113  1.00  0.00     0.212 HD
ENDBRANCH  11  13
ENDBRANCH   9  11
ENDBRANCH   8   9
ENDBRANCH   1   8
BRANCH   6  15
ATOM     15  C   UNL     1      -1.230   0.074  -0.977  1.00  0.00     0.239 C 
ATOM     16  O   UNL     1      -0.409   0.922  -0.617  1.00  0.00    -0.273 OA
BRANCH  15  17
ATOM     17  C   UNL     1      -0.939  -1.442  -0.969  1.00  0.00     0.185 C 
BRANCH  17  18
ATOM     18  N   UNL     1       0.468  -1.834  -0.729  1.00  0.00    -0.294 NA
ATOM     19  C   UNL     1       0.906  -1.544   0.638  1.00  0.00     0.085 C 
ATOM     20  C   UNL     1       1.389  -1.319  -1.743  1.00  0.00     0.085 C 
ATOM     21  C   UNL     1       2.284  -2.149   0.910  1.00  0.00     0.024 C 
ATOM     22  C   UNL     1       2.798  -1.887  -1.567  1.00  0.00     0.024 C 
ATOM     23  C   UNL     1       3.350  -1.788  -0.136  1.00  0.00     0.022 C 
BRANCH  23  24
ATOM     24  C   UNL     1       4.080  -0.484   0.161  1.00  0.00    -0.041 A 
ATOM     25  C   UNL     1       3.441   0.768   0.114  1.00  0.00     0.008 A 
ATOM     26  C   UNL     1       5.440  -0.475   0.497  1.00  0.00    -0.035 A 
ATOM     27  C   UNL     1       4.130   1.967   0.370  1.00  0.00     0.047 A 
ATOM     28  C   UNL     1       6.130   0.723   0.745  1.00  0.00     0.000 A 
ATOM     29  C   UNL     1       6.383  -1.639   0.611  1.00  0.00     0.074 C 
ATOM     30  C   UNL     1       5.484   1.940   0.680  1.00  0.00     0.119 A 
ATOM     31  C   UNL     1       7.579   0.480   1.025  1.00  0.00     0.077 C 
ATOM     32  C   UNL     1       7.599  -1.022   1.314  1.00  0.00     0.175 C 
ATOM     33  F   UNL     1       8.741  -1.574   0.826  1.00  0.00    -0.247 F 
BRANCH  30  34
ATOM     34  O   UNL     1       6.184   3.079   0.923  1.00  0.00    -0.508 OA
ATOM     35  H   UNL     1       5.590   3.837   0.794  1.00  0.00     0.293 HD
ENDBRANCH  30  34
ENDBRANCH  23  24
ENDBRANCH  17  18
ENDBRANCH  15  17
ENDBRANCH   6  15
BRANCH   5  36
ATOM     36  C   UNL     1      -2.986   2.626  -0.159  1.00  0.00     0.049 A 
ATOM     37  C   UNL     1      -3.101   1.984   1.082  1.00  0.00     0.131 A 
ATOM     38  C   UNL     1      -3.058   4.034  -0.148  1.00  0.00     0.051 A 
ATOM     39  C   UNL     1      -3.282   2.692   2.272  1.00  0.00     0.040 A 
ATOM     40  C   UNL     1      -3.250   4.751   1.043  1.00  0.00     0.021 A 
ATOM     41  C   UNL     1      -3.364   4.079   2.255  1.00  0.00     0.005 A 
ATOM     42  F   UNL     1      -3.038   0.651   1.184  1.00  0.00    -0.206 F 
ATOM     43  Cl  UNL     1      -2.928   4.970  -1.601  1.00  0.00    -0.084 Cl
ENDBRANCH   5  36
TORSDOF 10
