MODEL        5USER    Run = 5USERUSER    Estimated Free Energy of Binding    = -12.47 kcal/mol  [=(1)+(2)+(3)-(4)]USERUSER    (1) Final Intermolecular Energy     = -14.56 kcal/molUSER        vdW + Hbond + desolv Energy     = -14.48 kcal/molUSER        Electrostatic Energy            =  -0.09 kcal/molUSER        Moving Ligand-Fixed Receptor    = -14.56 kcal/molUSER        Moving Ligand-Moving Receptor   =  +0.00 kcal/molUSER    (2) Final Total Internal Energy     =  -1.43 kcal/molUSER    (3) Torsional Free Energy           =  +2.09 kcal/molUSER    (4) Unbound System's Energy         =  -1.43 kcal/molUSERUSERREMARK SMILES Cn1cc(-c2nc3cc(O)ccc3nc2-c2ccc(CN3CCC(n4c(O)nc5ccccc54)CC3)cc2)cn1REMARK SMILES IDX 20 1 19 2 16 3 17 4 38 5 18 6 37 7 15 8 5 9 6 10 7 11 14 12REMARK SMILES IDX 8 13 13 14 9 15 12 16 11 17 4 18 2 19 3 20 40 21 39 22 1 23REMARK SMILES IDX 10 24 21 26 22 27 36 28 23 29 35 30 24 31 25 32 26 33 34 34REMARK SMILES IDX 28 35 33 36 29 37 32 38 30 39 31 40 27 41REMARK H PARENT 10 25 27 42USER                              x       y       z     vdW  Elec       q    TypeUSER                           _______ _______ _______ _____ _____    ______ ____ROOTATOM      1  C   UNL     1      41.854  45.859  19.425 -0.37 +0.02    +0.120 C  ENDROOTBRANCH   1   2ATOM      2  C   UNL     1      40.993  45.205  20.487 -0.34 -0.00    -0.034 A  ATOM      3  C   UNL     1      39.323  43.940  22.394 -0.27 +0.00    +0.002 A  ATOM      4  C   UNL     1      40.464  43.293  21.890 -0.16 +0.00    +0.011 A  ATOM      5  C   UNL     1      39.052  45.243  21.950 -0.33 +0.00    +0.011 A  ATOM      6  C   UNL     1      41.284  43.914  20.942 -0.32 +0.00    +0.006 A  ATOM      7  C   UNL     1      39.869  45.863  21.001 -0.23 +0.00    +0.006 A  BRANCH   3   8ATOM      8  C   UNL     1      38.438  43.284  23.366 -0.24 +0.01    +0.097 A  ATOM      9  C   UNL     1      37.198  42.703  23.071 -0.35 +0.01    +0.100 A  ATOM     10  N   UNL     1      36.476  42.054  24.027 -0.29 -0.01    -0.244 NA ATOM     11  C   UNL     1      36.985  42.015  25.272 -0.31 -0.01    +0.093 A  ATOM     12  N   UNL     1      38.945  43.253  24.632 -0.11 -0.01    -0.244 NA ATOM     13  C   UNL     1      36.284  41.370  26.281 -0.29 -0.02    +0.076 A  ATOM     14  C   UNL     1      38.225  42.623  25.576 -0.23 -0.00    +0.090 A  ATOM     15  C   UNL     1      36.786  41.318  27.577 -0.44 -0.04    +0.117 A  ATOM     16  C   UNL     1      38.710  42.561  26.877 -0.27 -0.00    +0.034 A  ATOM     17  C   UNL     1      38.000  41.911  27.887 -0.38 -0.01    +0.048 A  BRANCH   9  18ATOM     18  C   UNL     1      36.550  42.751  21.767 -0.42 +0.00    +0.040 A  ATOM     19  N   UNL     1      35.716  43.555  19.897 -0.23 +0.02    -0.275 N  ATOM     20  C   UNL     1      36.300  43.920  21.073 -0.26 +0.00    +0.118 A  ATOM     21  N   UNL     1      35.568  42.226  19.763 -0.32 +0.01    -0.181 NA ATOM     22  C   UNL     1      36.094  41.739  20.892 -0.39 -0.00    +0.145 A  ATOM     23  C   UNL     1      35.272  44.430  18.840 -0.30 -0.04    +0.173 C  ENDBRANCH   9  18BRANCH  15  24ATOM     24  O   UNL     1      36.048  40.670  28.520 -0.25 +0.27    -0.508 OA ATOM     25  H   UNL     1      35.656  41.323  29.125 -0.31 -0.25    +0.293 HD ENDBRANCH  15  24ENDBRANCH   3   8ENDBRANCH   1   2BRANCH   1  26ATOM     26  N   UNL     1      41.135  46.129  18.169 -0.27 +0.01    -0.299 NA ATOM     27  C   UNL     1      40.986  47.567  17.942 -0.49 -0.01    +0.087 C  ATOM     28  C   UNL     1      39.840  45.429  18.118 -0.44 -0.01    +0.087 C  ATOM     29  C   UNL     1      40.547  47.815  16.497 -0.58 -0.01    +0.041 C  ATOM     30  C   UNL     1      38.815  46.095  17.192 -0.44 -0.01    +0.041 C  ATOM     31  C   UNL     1      39.510  46.784  16.015 -0.45 -0.02    +0.095 C  BRANCH  31  32ATOM     32  N   UNL     1      38.568  47.341  15.055 -0.23 +0.11    -0.291 N  ATOM     33  C   UNL     1      38.202  48.654  14.946 -0.25 -0.19    +0.295 A  ATOM     34  C   UNL     1      37.867  46.648  14.091 -0.40 -0.03    +0.072 A  ATOM     35  N   UNL     1      37.341  48.873  13.991 -0.49 +0.12    -0.195 NA ATOM     36  C   UNL     1      37.808  45.298  13.724 -0.34 -0.01    +0.029 A  ATOM     37  C   UNL     1      37.114  47.633  13.447 -0.50 -0.04    +0.092 A  ATOM     38  C   UNL     1      36.953  44.958  12.668 -0.51 -0.00    +0.002 A  ATOM     39  C   UNL     1      36.266  47.271  12.388 -0.67 -0.02    +0.031 A  ATOM     40  C   UNL     1      36.193  45.927  12.010 -0.60 -0.00    +0.002 A  BRANCH  33  41ATOM     41  O   UNL     1      38.653  49.628  15.710 -0.10 +0.37    -0.480 OA ATOM     42  H   UNL     1      38.110  50.376  15.399 -0.32 -0.31    +0.296 HD ENDBRANCH  33  41ENDBRANCH  31  32ENDBRANCH   1  26TORSDOF 7TERENDMDL