MODEL        2USER    Run = 2USERUSER    Estimated Free Energy of Binding    = -10.65 kcal/mol  [=(1)+(2)+(3)-(4)]USERUSER    (1) Final Intermolecular Energy     = -13.34 kcal/molUSER        vdW + Hbond + desolv Energy     = -13.00 kcal/molUSER        Electrostatic Energy            =  -0.33 kcal/molUSER        Moving Ligand-Fixed Receptor    = -13.34 kcal/molUSER        Moving Ligand-Moving Receptor   =  +0.00 kcal/molUSER    (2) Final Total Internal Energy     =  -2.10 kcal/molUSER    (3) Torsional Free Energy           =  +2.68 kcal/molUSER    (4) Unbound System's Energy         =  -2.10 kcal/molUSERUSERREMARK SMILES CO[C@H]1CCCN(c2cc(Nc3cc(C)[nH]n3)nc(C)c2CCNC(=O)[C@H](N)F)C1REMARK SMILES IDX 22 1 21 2 8 3 9 4 10 5 19 6 18 7 20 8 7 9 3 10 4 11 30 12REMARK SMILES IDX 5 13 6 14 2 15 1 16 11 17 12 19 13 20 17 21 14 22 16 23REMARK SMILES IDX 15 24 23 26 24 27 25 28 26 30 27 31 29 32 28 33REMARK H PARENT 11 18 16 25 24 29 28 34 28 35USER                              x       y       z     vdW  Elec       q    TypeUSER                           _______ _______ _______ _____ _____    ______ ____ROOTATOM      1  C   UNL     1      36.212  44.720  16.671 -0.34 -0.03    +0.061 C  ENDROOTBRANCH   1   2ATOM      2  C   UNL     1      37.474  45.554  16.708 -0.36 +0.00    -0.001 A  ATOM      3  C   UNL     1      37.886  46.271  15.571 -0.35 -0.02    +0.046 A  ATOM      4  C   UNL     1      39.065  47.019  15.640 -0.40 -0.02    +0.073 A  ATOM      5  C   UNL     1      39.821  47.038  16.808 -0.39 -0.03    +0.133 A  ATOM      6  C   UNL     1      38.297  45.603  17.840 -0.36 -0.01    +0.045 A  ATOM      7  N   UNL     1      39.444  46.324  17.886 -0.29 +0.04    -0.236 NA ATOM      8  C   UNL     1      37.962  44.869  19.107 -0.37 -0.01    +0.067 C  BRANCH   3   9ATOM      9  N   UNL     1      37.094  46.250  14.411 -0.12 +0.17    -0.369 N  ATOM     10  C   UNL     1      36.835  45.227  12.125 -0.51 -0.05    +0.137 C  ATOM     11  C   UNL     1      35.694  46.235  11.960 -0.56 -0.02    +0.036 C  ATOM     12  C   UNL     1      37.129  44.998  13.625 -0.37 -0.05    +0.148 C  ATOM     13  C   UNL     1      35.954  47.551  12.700 -0.68 -0.01    +0.024 C  ATOM     14  C   UNL     1      37.158  47.493  13.642 -0.53 -0.05    +0.117 C  BRANCH  10  15ATOM     15  O   UNL     1      36.528  43.960  11.529 -0.26 +0.12    -0.380 OA ATOM     16  C   UNL     1      37.652  43.303  10.961 -0.36 -0.06    +0.195 C  ENDBRANCH  10  15ENDBRANCH   3   9BRANCH   5  17ATOM     17  N   UNL     1      41.018  47.783  16.809 -0.29 +0.04    -0.323 N  ATOM     18  H   UNL     1      41.789  47.254  17.195 -0.36 -0.03    +0.170 HD BRANCH  17  19ATOM     19  C   UNL     1      41.414  48.782  15.994 -0.31 -0.00    +0.153 A  ATOM     20  C   UNL     1      41.495  48.738  14.583 -0.30 -0.00    +0.071 A  ATOM     21  N   UNL     1      41.742  49.991  16.459 -0.97 -0.01    -0.158 NA ATOM     22  C   UNL     1      41.912  49.993  14.196 -0.67 -0.01    +0.034 A  ATOM     23  N   UNL     1      42.051  50.695  15.359 -0.38 +0.04    -0.281 N  ATOM     24  C   UNL     1      42.183  50.582  12.869 -0.61 -0.02    +0.066 C  ATOM     25  H   UNL     1      42.343  51.659  15.476 -0.21 -0.04    +0.190 HD ENDBRANCH  17  19ENDBRANCH   5  17ENDBRANCH   1   2BRANCH   1  26ATOM     26  C   UNL     1      35.089  45.346  17.500 -0.33 -0.07    +0.121 C  BRANCH  26  27ATOM     27  N   UNL     1      33.885  45.543  16.716 -0.10 +0.31    -0.352 N  ATOM     28  C   UNL     1      33.287  44.514  16.014 -0.20 -0.15    +0.269 C  ATOM     29  H   UNL     1      33.596  46.489  16.484 -0.31 -0.33    +0.163 HD ATOM     30  O   UNL     1      33.668  43.345  16.056 -0.25 +0.13    -0.270 OA BRANCH  28  31ATOM     31  C   UNL     1      32.073  44.962  15.168 -0.20 -0.20    +0.322 C  ATOM     32  F   UNL     1      31.023  44.107  15.325 -0.06 +0.13    -0.220 F  BRANCH  31  33ATOM     33  N   UNL     1      31.616  46.281  15.595 -0.32 +0.23    -0.294 NA ATOM     34  H   UNL     1      32.059  46.471  16.491 -0.37 -0.13    +0.122 HD ATOM     35  H   UNL     1      32.028  46.959  14.948 -0.51 -0.18    +0.122 HD ENDBRANCH  31  33ENDBRANCH  28  31ENDBRANCH  26  27ENDBRANCH   1  26TORSDOF 9TERENDMDL