REMARK SMILES CO[C@H]1CCCN(c2cc(Nc3cc(C)[nH]n3)nc(C)c2CCNC(=O)[C@H](N)F)C1
REMARK SMILES IDX 22 1 21 2 8 3 9 4 10 5 19 6 18 7 20 8 7 9 3 10 4 11 30 12
REMARK SMILES IDX 5 13 6 14 2 15 1 16 11 17 12 19 13 20 17 21 14 22 16 23
REMARK SMILES IDX 15 24 23 26 24 27 25 28 26 30 27 31 29 32 28 33
REMARK H PARENT 11 18 16 25 24 29 28 34 28 35
ROOT
ATOM      1  C   UNL     1      -1.222   1.556  -0.803  1.00  0.00     0.061 C 
ENDROOT
BRANCH   1   2
ATOM      2  C   UNL     1       0.120   0.857  -0.819  1.00  0.00    -0.001 A 
ATOM      3  C   UNL     1       0.238  -0.465  -0.354  1.00  0.00     0.046 A 
ATOM      4  C   UNL     1       1.498  -1.072  -0.371  1.00  0.00     0.073 A 
ATOM      5  C   UNL     1       2.612  -0.373  -0.826  1.00  0.00     0.133 A 
ATOM      6  C   UNL     1       1.288   1.504  -1.241  1.00  0.00     0.045 A 
ATOM      7  N   UNL     1       2.504   0.904  -1.239  1.00  0.00    -0.236 NA
ATOM      8  C   UNL     1       1.283   2.918  -1.746  1.00  0.00     0.067 C 
BRANCH   3   9
ATOM      9  N   UNL     1      -0.905  -1.154   0.081  1.00  0.00    -0.369 N 
ATOM     10  C   UNL     1      -1.758  -2.913   1.669  1.00  0.00     0.137 C 
ATOM     11  C   UNL     1      -3.087  -2.732   0.930  1.00  0.00     0.036 C 
ATOM     12  C   UNL     1      -0.864  -1.668   1.467  1.00  0.00     0.148 C 
ATOM     13  C   UNL     1      -2.899  -2.396  -0.553  1.00  0.00     0.024 C 
ATOM     14  C   UNL     1      -1.453  -2.064  -0.925  1.00  0.00     0.117 C 
BRANCH  10  15
ATOM     15  O   UNL     1      -1.944  -3.109   3.077  1.00  0.00    -0.380 OA
ATOM     16  C   UNL     1      -2.525  -4.361   3.412  1.00  0.00     0.195 C 
ENDBRANCH  10  15
ENDBRANCH   3   9
BRANCH   5  17
ATOM     17  N   UNL     1       3.861  -1.025  -0.789  1.00  0.00    -0.323 N 
ATOM     18  H   UNL     1       3.779  -2.006  -1.024  1.00  0.00     0.170 HD
BRANCH  17  19
ATOM     19  C   UNL     1       5.099  -0.532  -0.991  1.00  0.00     0.153 A 
ATOM     20  C   UNL     1       5.506   0.815  -0.844  1.00  0.00     0.071 A 
ATOM     21  N   UNL     1       6.131  -1.314  -1.323  1.00  0.00    -0.158 NA
ATOM     22  C   UNL     1       6.855   0.827  -1.122  1.00  0.00     0.034 A 
ATOM     23  N   UNL     1       7.171  -0.470  -1.409  1.00  0.00    -0.281 N 
ATOM     24  C   UNL     1       7.854   1.916  -1.140  1.00  0.00     0.066 C 
ATOM     25  H   UNL     1       8.076  -0.852  -1.662  1.00  0.00     0.190 HD
ENDBRANCH  17  19
ENDBRANCH   5  17
ENDBRANCH   1   2
BRANCH   1  26
ATOM     26  C   UNL     1      -1.515   2.197   0.555  1.00  0.00     0.121 C 
BRANCH  26  27
ATOM     27  N   UNL     1      -2.788   2.892   0.560  1.00  0.00    -0.352 N 
ATOM     28  C   UNL     1      -3.976   2.249   0.849  1.00  0.00     0.269 C 
ATOM     29  H   UNL     1      -2.853   3.808   0.125  1.00  0.00     0.163 HD
ATOM     30  O   UNL     1      -4.050   1.072   1.200  1.00  0.00    -0.270 OA
BRANCH  28  31
ATOM     31  C   UNL     1      -5.223   3.151   0.703  1.00  0.00     0.322 C 
ATOM     32  F   UNL     1      -4.976   4.201  -0.130  1.00  0.00    -0.220 F 
BRANCH  31  33
ATOM     33  N   UNL     1      -6.329   2.397   0.121  1.00  0.00    -0.294 NA
ATOM     34  H   UNL     1      -6.079   2.205  -0.847  1.00  0.00     0.122 HD
ATOM     35  H   UNL     1      -6.335   1.481   0.578  1.00  0.00     0.122 HD
ENDBRANCH  31  33
ENDBRANCH  28  31
ENDBRANCH  26  27
ENDBRANCH   1  26
TORSDOF 9
