MODEL        10USER    Run = 10USERUSER    Estimated Free Energy of Binding    =  -9.71 kcal/mol  [=(1)+(2)+(3)-(4)]USERUSER    (1) Final Intermolecular Energy     = -12.70 kcal/molUSER        vdW + Hbond + desolv Energy     = -12.75 kcal/molUSER        Electrostatic Energy            =  +0.05 kcal/molUSER        Moving Ligand-Fixed Receptor    = -12.70 kcal/molUSER        Moving Ligand-Moving Receptor   =  +0.00 kcal/molUSER    (2) Final Total Internal Energy     =  -3.21 kcal/molUSER    (3) Torsional Free Energy           =  +2.98 kcal/molUSER    (4) Unbound System's Energy         =  -3.21 kcal/molUSERUSERREMARK SMILES C[C@H](O)NC[C@H]1C(=O)N[C@@H](c2c(F)cccc2Cl)N1C(=O)CN1CCC(c2ccc(O)c3c2C[C@@H](F)C3)CC1REMARK SMILES IDX 6 1 7 2 8 3 9 4 10 5 19 6 5 8 4 9 2 11 1 12 3 13 20 15 21 16REMARK SMILES IDX 22 17 23 18 24 19 39 20 25 21 38 22 26 23 27 24 28 25 33 26REMARK SMILES IDX 29 27 32 28 34 29 30 30 37 31 35 32 36 33 31 34 11 36 12 37REMARK SMILES IDX 17 38 14 39 16 40 15 41 13 42 18 43REMARK H PARENT 9 7 4 10 3 14 31 35USER                              x       y       z     vdW  Elec       q    TypeUSER                           _______ _______ _______ _____ _____    ______ ____ROOTATOM      1  C   UNL     1      38.651  44.049  26.391 -0.15 -0.01    +0.190 C  ATOM      2  C   UNL     1      37.221  43.789  25.949 -0.22 -0.01    +0.246 C  ATOM      3  O   UNL     1      36.711  42.700  25.735 -0.25 +0.02    -0.273 OA ATOM      4  N   UNL     1      36.565  44.985  25.833 -0.17 +0.03    -0.330 N  ATOM      5  C   UNL     1      37.436  46.104  25.994 -0.26 -0.01    +0.218 C  ATOM      6  N   UNL     1      38.687  45.520  26.420 -0.09 +0.01    -0.304 N  ATOM      7  H   UNL     1      35.635  45.040  25.439 -0.42 -0.02    +0.166 HD ENDROOTBRANCH   1   8ATOM      8  C   UNL     1      38.942  43.308  27.711 -0.26 -0.01    +0.118 C  BRANCH   8   9ATOM      9  N   UNL     1      37.791  42.575  28.258 -0.14 +0.07    -0.290 NA ATOM     10  H   UNL     1      36.925  42.941  27.869 -0.03 -0.04    +0.125 HD BRANCH   9  11ATOM     11  C   UNL     1      37.876  41.150  28.001 -0.35 -0.03    +0.179 C  ATOM     12  C   UNL     1      39.032  40.880  27.043 -0.35 -0.00    +0.056 C  BRANCH  11  13ATOM     13  O   UNL     1      36.667  40.699  27.417 -0.34 +0.12    -0.379 OA ATOM     14  H   UNL     1      36.815  40.633  26.459 -0.35 -0.09    +0.212 HD ENDBRANCH  11  13ENDBRANCH   9  11ENDBRANCH   8   9ENDBRANCH   1   8BRANCH   6  15ATOM     15  C   UNL     1      39.838  46.293  26.345 -0.11 +0.01    +0.239 C  ATOM     16  O   UNL     1      40.570  46.411  27.332 -0.50 -0.04    -0.273 OA BRANCH  15  17ATOM     17  C   UNL     1      40.139  46.958  24.985 -0.15 +0.01    +0.185 C  BRANCH  17  18ATOM     18  N   UNL     1      40.257  46.044  23.826 -0.07 -0.02    -0.294 NA ATOM     19  C   UNL     1      41.588  46.080  23.217 -0.18 +0.01    +0.085 C  ATOM     20  C   UNL     1      39.180  46.213  22.849 -0.31 +0.01    +0.085 C  ATOM     21  C   UNL     1      41.737  44.980  22.165 -0.27 +0.00    +0.024 C  ATOM     22  C   UNL     1      39.231  45.140  21.761 -0.37 +0.00    +0.024 C  ATOM     23  C   UNL     1      40.614  44.952  21.117 -0.36 +0.00    +0.022 C  BRANCH  23  24ATOM     24  C   UNL     1      40.872  45.860  19.921 -0.38 -0.00    -0.041 A  ATOM     25  C   UNL     1      42.030  46.650  19.807 -0.43 +0.00    +0.008 A  ATOM     26  C   UNL     1      39.953  45.951  18.868 -0.41 +0.00    -0.035 A  ATOM     27  C   UNL     1      42.248  47.501  18.708 -0.50 +0.00    +0.047 A  ATOM     28  C   UNL     1      40.167  46.806  17.774 -0.48 -0.00    +0.000 A  ATOM     29  C   UNL     1      38.633  45.248  18.715 -0.41 -0.01    +0.074 C  ATOM     30  C   UNL     1      41.305  47.581  17.692 -0.41 -0.01    +0.119 A  ATOM     31  C   UNL     1      39.022  46.771  16.812 -0.44 -0.02    +0.077 C  ATOM     32  C   UNL     1      38.283  45.504  17.243 -0.32 -0.04    +0.175 C  ATOM     33  F   UNL     1      36.941  45.682  17.115 -0.04 +0.10    -0.247 F  BRANCH  30  34ATOM     34  O   UNL     1      41.477  48.399  16.620 -0.61 +0.01    -0.508 OA ATOM     35  H   UNL     1      42.269  48.109  16.138 -0.10 +0.02    +0.293 HD ENDBRANCH  30  34ENDBRANCH  23  24ENDBRANCH  17  18ENDBRANCH  15  17ENDBRANCH   6  15BRANCH   5  36ATOM     36  C   UNL     1      36.799  47.162  26.870 -0.26 -0.01    +0.049 A  ATOM     37  C   UNL     1      36.239  46.879  28.123 -0.25 -0.04    +0.131 A  ATOM     38  C   UNL     1      36.745  48.506  26.445 -0.38 -0.00    +0.051 A  ATOM     39  C   UNL     1      35.651  47.868  28.915 -0.35 -0.01    +0.040 A  ATOM     40  C   UNL     1      36.147  49.502  27.232 -0.33 -0.00    +0.021 A  ATOM     41  C   UNL     1      35.597  49.182  28.468 -0.29 -0.00    +0.005 A  ATOM     42  F   UNL     1      36.245  45.638  28.624 -0.11 +0.04    -0.206 F  ATOM     43  Cl  UNL     1      37.399  49.013  24.922 -0.57 -0.01    -0.084 Cl ENDBRANCH   5  36TORSDOF 10TERENDMDL