MODEL        6USER    Run = 6USERUSER    Estimated Free Energy of Binding    =  -9.17 kcal/mol  [=(1)+(2)+(3)-(4)]USERUSER    (1) Final Intermolecular Energy     = -11.85 kcal/molUSER        vdW + Hbond + desolv Energy     = -11.47 kcal/molUSER        Electrostatic Energy            =  -0.38 kcal/molUSER        Moving Ligand-Fixed Receptor    = -11.85 kcal/molUSER        Moving Ligand-Moving Receptor   =  +0.00 kcal/molUSER    (2) Final Total Internal Energy     =  -2.26 kcal/molUSER    (3) Torsional Free Energy           =  +2.68 kcal/molUSER    (4) Unbound System's Energy         =  -2.26 kcal/molUSERUSERREMARK SMILES COc1ccc(O)c(C(=O)c2ccc(CN3CC[C@H](n4c(O)nc5ncccc54)C[C@H]3C)cc2F)c1N1CCOCC1REMARK SMILES IDX 11 1 12 2 13 3 14 4 33 5 34 6 35 7 9 8 10 9 8 10 3 11 4 12REMARK SMILES IDX 36 13 5 14 6 15 2 16 1 17 37 18 38 19 42 20 39 21 41 22REMARK SMILES IDX 40 23 7 24 15 26 16 27 17 28 31 29 18 30 30 31 19 32 32 33REMARK SMILES IDX 20 34 21 35 29 36 23 37 28 38 24 39 27 40 25 41 26 42 22 43REMARK H PARENT 7 25 22 44USER                              x       y       z     vdW  Elec       q    TypeUSER                           _______ _______ _______ _____ _____    ______ ____ROOTATOM      1  C   UNL     1      41.188  45.225  21.072 -0.29 +0.01    +0.058 A  ATOM      2  C   UNL     1      41.317  45.944  19.878 -0.40 +0.00    +0.015 A  ATOM      3  C   UNL     1      40.303  45.883  18.917 -0.45 -0.00    +0.006 A  ATOM      4  C   UNL     1      39.176  45.066  19.111 -0.38 +0.00    -0.031 A  ATOM      5  C   UNL     1      39.070  44.339  20.307 -0.29 -0.00    +0.045 A  ATOM      6  C   UNL     1      40.070  44.421  21.272 -0.23 +0.01    +0.134 A  ATOM      7  F   UNL     1      39.942  43.677  22.377 -0.04 -0.01    -0.206 F  ENDROOTBRANCH   1   8ATOM      8  C   UNL     1      42.249  45.330  22.098 -0.18 +0.04    +0.201 C  ATOM      9  O   UNL     1      42.837  44.324  22.490 -0.13 -0.05    -0.288 OA BRANCH   8  10ATOM     10  C   UNL     1      42.571  46.633  22.729 -0.19 +0.02    +0.092 A  ATOM     11  C   UNL     1      42.153  48.404  24.295 -0.28 +0.03    +0.143 A  ATOM     12  C   UNL     1      43.460  48.879  24.107 -0.27 +0.01    +0.052 A  ATOM     13  C   UNL     1      41.666  47.261  23.626 -0.19 +0.01    +0.095 A  ATOM     14  C   UNL     1      44.300  48.271  23.179 -0.25 +0.01    +0.051 A  ATOM     15  C   UNL     1      43.849  47.164  22.480 -0.25 +0.04    +0.129 A  BRANCH  11  16ATOM     16  O   UNL     1      41.352  49.077  25.195 -0.16 -0.08    -0.495 OA ATOM     17  C   UNL     1      41.494  48.513  26.501 -0.17 +0.03    +0.278 C  ENDBRANCH  11  16BRANCH  13  18ATOM     18  N   UNL     1      40.367  46.773  23.778 -0.07 -0.03    -0.363 N  ATOM     19  C   UNL     1      40.080  45.625  24.647 -0.12 +0.01    +0.145 C  ATOM     20  C   UNL     1      39.268  47.754  23.641 -0.21 +0.02    +0.145 C  ATOM     21  C   UNL     1      38.650  45.142  24.346 -0.20 +0.01    +0.181 C  ATOM     22  C   UNL     1      38.148  47.474  24.662 -0.29 +0.03    +0.181 C  ATOM     23  O   UNL     1      37.634  46.135  24.596 -0.61 -0.09    -0.378 OA ENDBRANCH  13  18BRANCH  15  24ATOM     24  O   UNL     1      44.711  46.616  21.566 -0.57 -0.55    -0.507 OA ATOM     25  H   UNL     1      44.517  45.655  21.523 +0.12 +0.31    +0.293 HD ENDBRANCH  15  24ENDBRANCH   8  10ENDBRANCH   1   8BRANCH   4  26ATOM     26  C   UNL     1      38.029  44.980  18.120 -0.35 -0.02    +0.120 C  BRANCH  26  27ATOM     27  N   UNL     1      36.672  45.017  18.708 -0.15 +0.06    -0.296 NA ATOM     28  C   UNL     1      36.400  43.711  19.335 -0.37 -0.01    +0.087 C  ATOM     29  C   UNL     1      35.616  45.305  17.703 -0.37 -0.03    +0.056 C  ATOM     30  C   UNL     1      35.095  43.755  20.118 -0.41 -0.00    +0.041 C  ATOM     31  C   UNL     1      34.218  45.322  18.368 -0.47 -0.02    +0.044 C  ATOM     32  C   UNL     1      33.897  44.083  19.217 -0.40 -0.02    +0.095 C  ATOM     33  C   UNL     1      35.788  46.639  16.963 -0.35 -0.02    +0.024 C  BRANCH  32  34ATOM     34  N   UNL     1      33.379  42.898  18.532 -0.15 +0.05    -0.289 N  ATOM     35  C   UNL     1      34.018  41.745  18.168 -0.19 -0.08    +0.296 A  ATOM     36  C   UNL     1      32.076  42.765  18.079 -0.26 -0.02    +0.091 A  ATOM     37  N   UNL     1      33.240  40.865  17.601 -0.30 +0.07    -0.175 NA ATOM     38  C   UNL     1      30.945  43.587  18.085 -0.17 -0.00    +0.032 A  ATOM     39  C   UNL     1      32.031  41.486  17.524 -0.20 -0.06    +0.181 A  ATOM     40  C   UNL     1      29.795  43.033  17.528 -0.20 -0.00    +0.022 A  ATOM     41  N   UNL     1      30.922  40.942  16.979 -0.21 +0.07    -0.235 NA ATOM     42  C   UNL     1      29.838  41.746  17.002 -0.21 -0.03    +0.114 A  BRANCH  35  43ATOM     43  O   UNL     1      35.295  41.477  18.341 -0.32 +0.11    -0.480 OA ATOM     44  H   UNL     1      35.521  41.078  17.480 -0.26 -0.19    +0.296 HD ENDBRANCH  35  43ENDBRANCH  32  34ENDBRANCH  26  27ENDBRANCH   4  26TORSDOF 9TERENDMDL