REMARK SMILES COc1ccc(O)c(C(=O)c2ccc(CN3CC[C@H](n4c(O)nc5ncccc54)C[C@H]3C)cc2F)c1N1CCOCC1
REMARK SMILES IDX 11 1 12 2 13 3 14 4 33 5 34 6 35 7 9 8 10 9 8 10 3 11 4 12
REMARK SMILES IDX 36 13 5 14 6 15 2 16 1 17 37 18 38 19 42 20 39 21 41 22
REMARK SMILES IDX 40 23 7 24 15 26 16 27 17 28 31 29 18 30 30 31 19 32 32 33
REMARK SMILES IDX 20 34 21 35 29 36 23 37 28 38 24 39 27 40 25 41 26 42 22 43
REMARK H PARENT 7 25 22 44
ROOT
ATOM      1  C   UNL     1      -2.134  -2.076  -0.470  1.00  0.00     0.058 A 
ATOM      2  C   UNL     1      -1.314  -1.932   0.655  1.00  0.00     0.015 A 
ATOM      3  C   UNL     1      -0.168  -1.134   0.582  1.00  0.00     0.006 A 
ATOM      4  C   UNL     1       0.202  -0.515  -0.624  1.00  0.00    -0.031 A 
ATOM      5  C   UNL     1      -0.622  -0.683  -1.747  1.00  0.00     0.045 A 
ATOM      6  C   UNL     1      -1.776  -1.459  -1.665  1.00  0.00     0.134 A 
ATOM      7  F   UNL     1      -2.506  -1.622  -2.774  1.00  0.00    -0.206 F 
ENDROOT
BRANCH   1   8
ATOM      8  C   UNL     1      -3.366  -2.890  -0.368  1.00  0.00     0.201 C 
ATOM      9  O   UNL     1      -3.358  -3.955   0.246  1.00  0.00    -0.288 OA
BRANCH   8  10
ATOM     10  C   UNL     1      -4.608  -2.481  -1.067  1.00  0.00     0.092 A 
ATOM     11  C   UNL     1      -6.200  -0.841  -1.802  1.00  0.00     0.143 A 
ATOM     12  C   UNL     1      -6.731  -1.766  -2.715  1.00  0.00     0.052 A 
ATOM     13  C   UNL     1      -5.115  -1.159  -0.957  1.00  0.00     0.095 A 
ATOM     14  C   UNL     1      -6.245  -3.069  -2.756  1.00  0.00     0.051 A 
ATOM     15  C   UNL     1      -5.200  -3.429  -1.921  1.00  0.00     0.129 A 
BRANCH  11  16
ATOM     16  O   UNL     1      -6.754   0.422  -1.776  1.00  0.00    -0.495 OA
ATOM     17  C   UNL     1      -8.037   0.386  -1.146  1.00  0.00     0.278 C 
ENDBRANCH  11  16
BRANCH  13  18
ATOM     18  N   UNL     1      -4.575  -0.269  -0.028  1.00  0.00    -0.363 N 
ATOM     19  C   UNL     1      -4.391   1.152  -0.350  1.00  0.00     0.145 C 
ATOM     20  C   UNL     1      -4.820  -0.568   1.400  1.00  0.00     0.145 C 
ATOM     21  C   UNL     1      -3.493   1.776   0.733  1.00  0.00     0.181 C 
ATOM     22  C   UNL     1      -5.087   0.724   2.197  1.00  0.00     0.181 C 
ATOM     23  O   UNL     1      -4.047   1.705   2.063  1.00  0.00    -0.378 OA
ENDBRANCH  13  18
BRANCH  15  24
ATOM     24  O   UNL     1      -4.773  -4.730  -1.990  1.00  0.00    -0.507 OA
ATOM     25  H   UNL     1      -4.301  -4.925  -1.152  1.00  0.00     0.293 HD
ENDBRANCH  15  24
ENDBRANCH   8  10
ENDBRANCH   1   8
BRANCH   4  26
ATOM     26  C   UNL     1       1.417   0.385  -0.759  1.00  0.00     0.120 C 
BRANCH  26  27
ATOM     27  N   UNL     1       2.414   0.281   0.330  1.00  0.00    -0.296 NA
ATOM     28  C   UNL     1       3.026   1.607   0.530  1.00  0.00     0.087 C 
ATOM     29  C   UNL     1       3.481  -0.711   0.042  1.00  0.00     0.056 C 
ATOM     30  C   UNL     1       3.920   1.603   1.762  1.00  0.00     0.041 C 
ATOM     31  C   UNL     1       4.500  -0.773   1.206  1.00  0.00     0.044 C 
ATOM     32  C   UNL     1       5.066   0.589   1.635  1.00  0.00     0.095 C 
ATOM     33  C   UNL     1       2.975  -2.140  -0.200  1.00  0.00     0.024 C 
BRANCH  32  34
ATOM     34  N   UNL     1       6.200   1.128   0.884  1.00  0.00    -0.289 N 
ATOM     35  C   UNL     1       6.729   0.731  -0.313  1.00  0.00     0.296 A 
ATOM     36  C   UNL     1       6.997   2.176   1.318  1.00  0.00     0.091 A 
ATOM     37  N   UNL     1       7.728   1.465  -0.720  1.00  0.00    -0.175 NA
ATOM     38  C   UNL     1       7.028   2.977   2.464  1.00  0.00     0.032 A 
ATOM     39  C   UNL     1       7.919   2.360   0.288  1.00  0.00     0.181 A 
ATOM     40  C   UNL     1       8.012   3.962   2.483  1.00  0.00     0.022 A 
ATOM     41  N   UNL     1       8.878   3.311   0.299  1.00  0.00    -0.235 NA
ATOM     42  C   UNL     1       8.887   4.080   1.408  1.00  0.00     0.114 A 
BRANCH  35  43
ATOM     43  O   UNL     1       6.322  -0.285  -1.044  1.00  0.00    -0.480 OA
ATOM     44  H   UNL     1       6.877  -0.179  -1.838  1.00  0.00     0.296 HD
ENDBRANCH  35  43
ENDBRANCH  32  34
ENDBRANCH  26  27
ENDBRANCH   4  26
TORSDOF 9
