MODEL        6USER    Run = 6USERUSER    Estimated Free Energy of Binding    =  -8.56 kcal/mol  [=(1)+(2)+(3)-(4)]USERUSER    (1) Final Intermolecular Energy     = -10.05 kcal/molUSER        vdW + Hbond + desolv Energy     =  -9.99 kcal/molUSER        Electrostatic Energy            =  -0.06 kcal/molUSER        Moving Ligand-Fixed Receptor    = -10.05 kcal/molUSER        Moving Ligand-Moving Receptor   =  +0.00 kcal/molUSER    (2) Final Total Internal Energy     =  -2.09 kcal/molUSER    (3) Torsional Free Energy           =  +1.49 kcal/molUSER    (4) Unbound System's Energy         =  -2.09 kcal/molUSERUSERREMARK SMILES CN(C)C(=O)c1c(CO)cccc1-c1n[nH]c2cc(-c3ccncc3)ccc12REMARK SMILES IDX 6 1 7 2 10 3 11 4 12 5 13 6 4 7 2 8 1 9 3 10 5 11 8 12 9 13REMARK SMILES IDX 14 15 15 16 28 17 16 18 27 19 17 20 26 21 18 22 19 23 20 25REMARK SMILES IDX 21 26 25 27 22 28 24 29 23 30REMARK H PARENT 9 14 16 24USER                              x       y       z     vdW  Elec       q    TypeUSER                           _______ _______ _______ _____ _____    ______ ____ROOTATOM      1  C   UNL     1      38.092  44.311  22.411 -0.32 +0.00    +0.054 A  ATOM      2  C   UNL     1      37.459  43.704  23.519 -0.34 -0.00    -0.009 A  ATOM      3  C   UNL     1      36.638  42.587  23.297 -0.38 +0.00    +0.007 A  ATOM      4  C   UNL     1      36.456  42.077  22.011 -0.52 +0.00    +0.001 A  ATOM      5  C   UNL     1      37.100  42.670  20.926 -0.38 +0.00    +0.011 A  ATOM      6  C   UNL     1      37.927  43.789  21.114 -0.34 +0.00    +0.016 A  ENDROOTBRANCH   1   7ATOM      7  C   UNL     1      38.938  45.508  22.641 -0.23 +0.02    +0.254 C  ATOM      8  N   UNL     1      40.293  45.331  22.926 -0.06 -0.02    -0.345 N  ATOM      9  C   UNL     1      41.090  46.511  23.205 -0.19 +0.01    +0.146 C  ATOM     10  C   UNL     1      41.035  44.109  22.651 -0.20 +0.01    +0.146 C  ATOM     11  O   UNL     1      38.418  46.614  22.501 -0.16 -0.04    -0.269 OA ENDBRANCH   1   7BRANCH   2  12ATOM     12  C   UNL     1      37.657  44.210  24.923 -0.24 +0.01    +0.192 C  BRANCH  12  13ATOM     13  O   UNL     1      37.114  45.517  25.046 -0.65 -0.05    -0.392 OA ATOM     14  H   UNL     1      37.643  46.079  24.451 +0.10 +0.05    +0.211 HD ENDBRANCH  12  13ENDBRANCH   2  12BRANCH   6  15ATOM     15  C   UNL     1      38.594  44.364  19.953 -0.28 -0.00    +0.101 A  ATOM     16  N   UNL     1      39.930  44.460  19.897 -0.26 -0.00    -0.174 NA ATOM     17  C   UNL     1      37.990  44.861  18.758 -0.36 -0.00    +0.028 A  ATOM     18  N   UNL     1      40.172  45.041  18.714 -0.25 +0.01    -0.277 N  ATOM     19  C   UNL     1      36.681  44.998  18.263 -0.33 -0.00    +0.013 A  ATOM     20  C   UNL     1      39.049  45.303  17.977 -0.37 -0.01    +0.066 A  ATOM     21  C   UNL     1      36.491  45.572  16.997 -0.34 -0.00    +0.009 A  ATOM     22  C   UNL     1      38.880  45.881  16.712 -0.37 -0.01    +0.037 A  ATOM     23  C   UNL     1      37.570  46.016  16.214 -0.36 +0.01    -0.016 A  ATOM     24  H   UNL     1      41.135  45.230  18.463 +0.12 +0.01    +0.190 HD BRANCH  23  25ATOM     25  C   UNL     1      37.336  46.615  14.890 -0.40 +0.01    -0.015 A  ATOM     26  C   UNL     1      37.213  45.818  13.746 -0.43 -0.01    +0.029 A  ATOM     27  C   UNL     1      37.232  48.001  14.731 -0.49 -0.02    +0.029 A  ATOM     28  C   UNL     1      36.996  46.428  12.520 -0.52 -0.04    +0.111 A  ATOM     29  C   UNL     1      37.010  48.519  13.464 -0.43 -0.05    +0.111 A  ATOM     30  N   UNL     1      36.890  47.763  12.355 -1.02 +0.08    -0.265 NA ENDBRANCH  23  25ENDBRANCH   6  15TORSDOF 5TERENDMDL