MODEL        2USER    Run = 2USERUSER    Estimated Free Energy of Binding    =  -8.71 kcal/mol  [=(1)+(2)+(3)-(4)]USERUSER    (1) Final Intermolecular Energy     = -10.50 kcal/molUSER        vdW + Hbond + desolv Energy     = -10.22 kcal/molUSER        Electrostatic Energy            =  -0.27 kcal/molUSER        Moving Ligand-Fixed Receptor    = -10.50 kcal/molUSER        Moving Ligand-Moving Receptor   =  +0.00 kcal/molUSER    (2) Final Total Internal Energy     =  -1.96 kcal/molUSER    (3) Torsional Free Energy           =  +1.79 kcal/molUSER    (4) Unbound System's Energy         =  -1.96 kcal/molUSERUSERREMARK SMILES O=C(O)c1c(CO)cccc1-c1n[nH]c2cc(-c3ccncc3)ccc12REMARK SMILES IDX 4 1 5 2 8 3 9 4 10 5 11 6 2 7 1 8 3 9 6 11 7 12 12 14 13 15REMARK SMILES IDX 26 16 14 17 25 18 15 19 24 20 16 21 17 22 18 24 19 25 23 26REMARK SMILES IDX 20 27 22 28 21 29REMARK H PARENT 3 10 7 13 14 23USER                              x       y       z     vdW  Elec       q    TypeUSER                           _______ _______ _______ _____ _____    ______ ____ROOTATOM      1  C   UNL     1      42.948  46.012  21.895 -0.24 +0.02    +0.074 A  ATOM      2  C   UNL     1      43.111  45.095  22.959 -0.16 -0.00    -0.007 A  ATOM      3  C   UNL     1      42.514  43.829  22.853 -0.24 +0.00    +0.007 A  ATOM      4  C   UNL     1      41.750  43.489  21.736 -0.35 +0.00    +0.001 A  ATOM      5  C   UNL     1      41.578  44.409  20.702 -0.32 +0.00    +0.011 A  ATOM      6  C   UNL     1      42.175  45.677  20.769 -0.30 +0.00    +0.018 A  ENDROOTBRANCH   1   7ATOM      7  C   UNL     1      43.557  47.353  21.979 -0.21 +0.10    +0.336 C  ATOM      8  O   UNL     1      43.103  48.325  22.549 -0.55 -0.05    -0.246 OA BRANCH   7   9ATOM      9  O   UNL     1      44.743  47.379  21.339 -0.64 -0.39    -0.478 OA ATOM     10  H   UNL     1      44.603  48.053  20.639 -0.35 +0.06    +0.297 HD ENDBRANCH   7   9ENDBRANCH   1   7BRANCH   2  11ATOM     11  C   UNL     1      43.915  45.423  24.188 -0.05 +0.03    +0.192 C  BRANCH  11  12ATOM     12  O   UNL     1      45.154  46.011  23.822 -0.02 -0.12    -0.392 OA ATOM     13  H   UNL     1      44.941  46.891  23.452 +0.07 +0.07    +0.211 HD ENDBRANCH  11  12ENDBRANCH   2  11BRANCH   6  14ATOM     14  C   UNL     1      42.006  46.591  19.645 -0.39 +0.01    +0.101 A  ATOM     15  N   UNL     1      42.863  47.605  19.448 -0.42 -0.02    -0.174 NA ATOM     16  C   UNL     1      41.002  46.552  18.631 -0.48 -0.00    +0.028 A  ATOM     17  N   UNL     1      42.400  48.212  18.343 -0.32 -0.00    -0.277 N  ATOM     18  C   UNL     1      39.890  45.746  18.332 -0.44 -0.00    +0.013 A  ATOM     19  C   UNL     1      41.292  47.625  17.798 -0.46 -0.01    +0.066 A  ATOM     20  C   UNL     1      39.116  46.047  17.200 -0.42 -0.00    +0.009 A  ATOM     21  C   UNL     1      40.531  47.944  16.667 -0.51 -0.01    +0.037 A  ATOM     22  C   UNL     1      39.421  47.133  16.363 -0.46 +0.00    -0.016 A  ATOM     23  H   UNL     1      42.892  49.030  18.005 +0.09 +0.05    +0.190 HD BRANCH  22  24ATOM     24  C   UNL     1      38.589  47.424  15.184 -0.47 +0.01    -0.015 A  ATOM     25  C   UNL     1      37.921  48.648  15.055 -0.49 -0.02    +0.029 A  ATOM     26  C   UNL     1      38.438  46.488  14.156 -0.41 -0.01    +0.029 A  ATOM     27  C   UNL     1      37.148  48.876  13.927 -0.39 -0.07    +0.111 A  ATOM     28  C   UNL     1      37.647  46.809  13.064 -0.42 -0.03    +0.111 A  ATOM     29  N   UNL     1      36.998  47.984  12.927 -0.86 +0.09    -0.265 NA ENDBRANCH  22  24ENDBRANCH   6  14TORSDOF 6TERENDMDL