REMARK SMILES NC(=O)c1c(CO)cccc1-c1n[nH]c2cc(-c3ccncc3)ccc12
REMARK SMILES IDX 4 1 5 2 8 3 9 4 10 5 11 6 2 7 1 8 3 11 6 12 7 13 12 15 13 16
REMARK SMILES IDX 26 17 14 18 25 19 15 20 24 21 16 22 17 23 18 25 19 26 23 27
REMARK SMILES IDX 20 28 22 29 21 30
REMARK H PARENT 1 9 1 10 7 14 14 24
ROOT
ATOM      1  C   UNL     1      -3.340  -0.027   0.234  1.00  0.00     0.054 A 
ATOM      2  C   UNL     1      -4.444  -0.121   1.115  1.00  0.00    -0.009 A 
ATOM      3  C   UNL     1      -4.394   0.557   2.345  1.00  0.00     0.007 A 
ATOM      4  C   UNL     1      -3.272   1.299   2.706  1.00  0.00     0.001 A 
ATOM      5  C   UNL     1      -2.186   1.387   1.837  1.00  0.00     0.011 A 
ATOM      6  C   UNL     1      -2.208   0.734   0.594  1.00  0.00     0.016 A 
ENDROOT
BRANCH   1   7
ATOM      7  C   UNL     1      -3.420  -0.740  -1.067  1.00  0.00     0.249 C 
ATOM      8  N   UNL     1      -2.419  -1.624  -1.357  1.00  0.00    -0.366 N 
ATOM      9  H   UNL     1      -2.427  -2.025  -2.285  1.00  0.00     0.159 HD
ATOM     10  H   UNL     1      -1.554  -1.657  -0.837  1.00  0.00     0.159 HD
ATOM     11  O   UNL     1      -4.390  -0.608  -1.805  1.00  0.00    -0.270 OA
ENDBRANCH   1   7
BRANCH   2  12
ATOM     12  C   UNL     1      -5.681  -0.914   0.774  1.00  0.00     0.192 C 
BRANCH  12  13
ATOM     13  O   UNL     1      -6.487  -0.194  -0.143  1.00  0.00    -0.392 OA
ATOM     14  H   UNL     1      -5.971  -0.166  -0.980  1.00  0.00     0.211 HD
ENDBRANCH  12  13
ENDBRANCH   2  12
BRANCH   6  15
ATOM     15  C   UNL     1      -1.062   0.913  -0.291  1.00  0.00     0.101 A 
ATOM     16  N   UNL     1      -1.198   1.486  -1.495  1.00  0.00    -0.174 NA
ATOM     17  C   UNL     1       0.295   0.542  -0.046  1.00  0.00     0.028 A 
ATOM     18  N   UNL     1       0.043   1.493  -2.003  1.00  0.00    -0.277 N 
ATOM     19  C   UNL     1       1.006  -0.080   0.996  1.00  0.00     0.013 A 
ATOM     20  C   UNL     1       0.985   0.927  -1.188  1.00  0.00     0.066 A 
ATOM     21  C   UNL     1       2.386  -0.283   0.849  1.00  0.00     0.009 A 
ATOM     22  C   UNL     1       2.362   0.732  -1.354  1.00  0.00     0.037 A 
ATOM     23  C   UNL     1       3.076   0.113  -0.310  1.00  0.00    -0.016 A 
ATOM     24  H   UNL     1       0.181   1.898  -2.922  1.00  0.00     0.190 HD
BRANCH  23  25
ATOM     25  C   UNL     1       4.525  -0.113  -0.432  1.00  0.00    -0.015 A 
ATOM     26  C   UNL     1       5.419   0.391   0.520  1.00  0.00     0.029 A 
ATOM     27  C   UNL     1       5.057  -0.839  -1.504  1.00  0.00     0.029 A 
ATOM     28  C   UNL     1       6.775   0.154   0.362  1.00  0.00     0.111 A 
ATOM     29  C   UNL     1       6.428  -1.026  -1.575  1.00  0.00     0.111 A 
ATOM     30  N   UNL     1       7.300  -0.544  -0.666  1.00  0.00    -0.265 NA
ENDBRANCH  23  25
ENDBRANCH   6  15
TORSDOF 5
