REMARK SMILES CN(C)C(=O)c1c(CO)cccc1-c1n[nH]c2cc(-c3ccncc3)ccc12
REMARK SMILES IDX 6 1 7 2 10 3 11 4 12 5 13 6 4 7 2 8 1 9 3 10 5 11 8 12 9 13
REMARK SMILES IDX 14 15 15 16 28 17 16 18 27 19 17 20 26 21 18 22 19 23 20 25
REMARK SMILES IDX 21 26 25 27 22 28 24 29 23 30
REMARK H PARENT 9 14 16 24
ROOT
ATOM      1  C   UNL     1      -2.860   1.030  -0.790  1.00  0.00     0.054 A 
ATOM      2  C   UNL     1      -3.869   1.994  -0.565  1.00  0.00    -0.009 A 
ATOM      3  C   UNL     1      -3.564   3.349  -0.772  1.00  0.00     0.007 A 
ATOM      4  C   UNL     1      -2.295   3.739  -1.202  1.00  0.00     0.001 A 
ATOM      5  C   UNL     1      -1.312   2.780  -1.441  1.00  0.00     0.011 A 
ATOM      6  C   UNL     1      -1.584   1.417  -1.242  1.00  0.00     0.016 A 
ENDROOT
BRANCH   1   7
ATOM      7  C   UNL     1      -3.172  -0.399  -0.545  1.00  0.00     0.254 C 
ATOM      8  N   UNL     1      -2.559  -1.049   0.528  1.00  0.00    -0.345 N 
ATOM      9  C   UNL     1      -2.832  -2.462   0.715  1.00  0.00     0.146 C 
ATOM     10  C   UNL     1      -1.933  -0.364   1.650  1.00  0.00     0.146 C 
ATOM     11  O   UNL     1      -4.016  -0.934  -1.262  1.00  0.00    -0.269 OA
ENDBRANCH   1   7
BRANCH   2  12
ATOM     12  C   UNL     1      -5.256   1.605  -0.129  1.00  0.00     0.192 C 
BRANCH  12  13
ATOM     13  O   UNL     1      -5.203   0.968   1.140  1.00  0.00    -0.392 OA
ATOM     14  H   UNL     1      -5.326   0.017   0.962  1.00  0.00     0.211 HD
ENDBRANCH  12  13
ENDBRANCH   2  12
BRANCH   6  15
ATOM     15  C   UNL     1      -0.531   0.450  -1.523  1.00  0.00     0.101 A 
ATOM     16  N   UNL     1      -0.654  -0.440  -2.518  1.00  0.00    -0.174 NA
ATOM     17  C   UNL     1       0.724   0.310  -0.857  1.00  0.00     0.028 A 
ATOM     18  N   UNL     1       0.477  -1.157  -2.463  1.00  0.00    -0.277 N 
ATOM     19  C   UNL     1       1.386   0.948   0.208  1.00  0.00     0.013 A 
ATOM     20  C   UNL     1       1.351  -0.754  -1.491  1.00  0.00     0.066 A 
ATOM     21  C   UNL     1       2.656   0.490   0.590  1.00  0.00     0.009 A 
ATOM     22  C   UNL     1       2.617  -1.228  -1.123  1.00  0.00     0.037 A 
ATOM     23  C   UNL     1       3.282  -0.588  -0.059  1.00  0.00    -0.016 A 
ATOM     24  H   UNL     1       0.595  -1.913  -3.127  1.00  0.00     0.190 HD
BRANCH  23  25
ATOM     25  C   UNL     1       4.615  -1.045   0.367  1.00  0.00    -0.015 A 
ATOM     26  C   UNL     1       5.704  -0.167   0.400  1.00  0.00     0.029 A 
ATOM     27  C   UNL     1       4.836  -2.372   0.751  1.00  0.00     0.029 A 
ATOM     28  C   UNL     1       6.941  -0.644   0.806  1.00  0.00     0.111 A 
ATOM     29  C   UNL     1       6.109  -2.755   1.146  1.00  0.00     0.111 A 
ATOM     30  N   UNL     1       7.167  -1.920   1.181  1.00  0.00    -0.265 NA
ENDBRANCH  23  25
ENDBRANCH   6  15
TORSDOF 5
