MODEL        9USER    Run = 9USERUSER    Estimated Free Energy of Binding    =  -8.92 kcal/mol  [=(1)+(2)+(3)-(4)]USERUSER    (1) Final Intermolecular Energy     = -10.41 kcal/molUSER        vdW + Hbond + desolv Energy     = -10.14 kcal/molUSER        Electrostatic Energy            =  -0.27 kcal/molUSER        Moving Ligand-Fixed Receptor    = -10.41 kcal/molUSER        Moving Ligand-Moving Receptor   =  +0.00 kcal/molUSER    (2) Final Total Internal Energy     =  -1.52 kcal/molUSER    (3) Torsional Free Energy           =  +1.49 kcal/molUSER    (4) Unbound System's Energy         =  -1.52 kcal/molUSERUSERREMARK SMILES NC(=O)c1c(CO)cccc1-c1n[nH]c2cc(-c3ccncc3)ccc12REMARK SMILES IDX 4 1 5 2 8 3 9 4 10 5 11 6 2 7 1 8 3 11 6 12 7 13 12 15 13 16REMARK SMILES IDX 26 17 14 18 25 19 15 20 24 21 16 22 17 23 18 25 19 26 23 27REMARK SMILES IDX 20 28 22 29 21 30REMARK H PARENT 1 9 1 10 7 14 14 24USER                              x       y       z     vdW  Elec       q    TypeUSER                           _______ _______ _______ _____ _____    ______ ____ROOTATOM      1  C   UNL     1      42.917  45.406  21.685 -0.21 +0.02    +0.054 A  ATOM      2  C   UNL     1      43.017  44.411  22.688 -0.21 -0.00    -0.009 A  ATOM      3  C   UNL     1      42.106  43.342  22.680 -0.30 +0.00    +0.007 A  ATOM      4  C   UNL     1      41.106  43.262  21.714 -0.27 +0.00    +0.001 A  ATOM      5  C   UNL     1      41.009  44.244  20.730 -0.33 +0.00    +0.011 A  ATOM      6  C   UNL     1      41.912  45.319  20.699 -0.30 +0.00    +0.016 A  ENDROOTBRANCH   1   7ATOM      7  C   UNL     1      43.899  46.520  21.703 -0.21 +0.14    +0.249 C  ATOM      8  N   UNL     1      43.402  47.789  21.805 -0.12 -0.06    -0.366 N  ATOM      9  H   UNL     1      44.069  48.543  21.712 -0.54 -0.01    +0.159 HD ATOM     10  H   UNL     1      42.425  48.004  21.664 +0.01 +0.01    +0.159 HD ATOM     11  O   UNL     1      45.106  46.303  21.719 -0.63 -0.38    -0.270 OA ENDBRANCH   1   7BRANCH   2  12ATOM     12  C   UNL     1      44.079  44.453  23.759 -0.08 +0.03    +0.192 C  BRANCH  12  13ATOM     13  O   UNL     1      45.326  44.036  23.229 -0.06 -0.11    -0.392 OA ATOM     14  H   UNL     1      45.767  44.858  22.918 +0.05 +0.12    +0.211 HD ENDBRANCH  12  13ENDBRANCH   2  12BRANCH   6  15ATOM     15  C   UNL     1      41.789  46.282  19.610 -0.38 +0.01    +0.101 A  ATOM     16  N   UNL     1      42.641  47.310  19.492 -0.42 -0.02    -0.174 NA ATOM     17  C   UNL     1      40.819  46.293  18.561 -0.47 -0.00    +0.028 A  ATOM     18  N   UNL     1      42.235  47.956  18.390 -0.37 +0.00    -0.277 N  ATOM     19  C   UNL     1      39.715  45.505  18.190 -0.43 -0.00    +0.013 A  ATOM     20  C   UNL     1      41.135  47.404  17.790 -0.47 -0.01    +0.066 A  ATOM     21  C   UNL     1      38.978  45.863  17.052 -0.40 -0.00    +0.009 A  ATOM     22  C   UNL     1      40.411  47.779  16.652 -0.51 -0.01    +0.037 A  ATOM     23  C   UNL     1      39.308  46.988  16.276 -0.45 +0.00    -0.016 A  ATOM     24  H   UNL     1      42.752  48.777  18.099 +0.05 +0.03    +0.190 HD BRANCH  23  25ATOM     25  C   UNL     1      38.514  47.335  15.087 -0.46 +0.01    -0.015 A  ATOM     26  C   UNL     1      38.359  46.430  14.030 -0.40 -0.01    +0.029 A  ATOM     27  C   UNL     1      37.889  48.582  14.972 -0.51 -0.02    +0.029 A  ATOM     28  C   UNL     1      37.604  46.802  12.930 -0.42 -0.03    +0.111 A  ATOM     29  C   UNL     1      37.152  48.863  13.833 -0.39 -0.06    +0.111 A  ATOM     30  N   UNL     1      36.996  48.001  12.808 -0.91 +0.08    -0.265 NA ENDBRANCH  23  25ENDBRANCH   6  15TORSDOF 5TERENDMDL