REMARK SMILES O=C(O)c1c(CO)cccc1-c1n[nH]c2cc(-c3ccncc3)ccc12
REMARK SMILES IDX 4 1 5 2 8 3 9 4 10 5 11 6 2 7 1 8 3 9 6 11 7 12 12 14 13 15
REMARK SMILES IDX 26 16 14 17 25 18 15 19 24 20 16 21 17 22 18 24 19 25 23 26
REMARK SMILES IDX 20 27 22 28 21 29
REMARK H PARENT 3 10 7 13 14 23
ROOT
ATOM      1  C   UNL     1      -3.296  -0.521   0.334  1.00  0.00     0.074 A 
ATOM      2  C   UNL     1      -4.514  -0.083   0.902  1.00  0.00    -0.007 A 
ATOM      3  C   UNL     1      -4.740   1.297   1.029  1.00  0.00     0.007 A 
ATOM      4  C   UNL     1      -3.772   2.219   0.631  1.00  0.00     0.001 A 
ATOM      5  C   UNL     1      -2.565   1.776   0.091  1.00  0.00     0.011 A 
ATOM      6  C   UNL     1      -2.315   0.404  -0.065  1.00  0.00     0.018 A 
ENDROOT
BRANCH   1   7
ATOM      7  C   UNL     1      -3.026  -1.965   0.193  1.00  0.00     0.336 C 
ATOM      8  O   UNL     1      -2.134  -2.594   0.726  1.00  0.00    -0.246 OA
BRANCH   7   9
ATOM      9  O   UNL     1      -3.935  -2.543  -0.617  1.00  0.00    -0.478 OA
ATOM     10  H   UNL     1      -3.599  -3.461  -0.709  1.00  0.00     0.297 HD
ENDBRANCH   7   9
ENDBRANCH   1   7
BRANCH   2  11
ATOM     11  C   UNL     1      -5.581  -1.043   1.357  1.00  0.00     0.192 C 
BRANCH  11  12
ATOM     12  O   UNL     1      -6.347  -1.487   0.248  1.00  0.00    -0.392 OA
ATOM     13  H   UNL     1      -5.707  -1.824  -0.410  1.00  0.00     0.211 HD
ENDBRANCH  11  12
ENDBRANCH   2  11
BRANCH   6  14
ATOM     14  C   UNL     1      -1.058  -0.014  -0.675  1.00  0.00     0.101 A 
ATOM     15  N   UNL     1      -1.047  -0.704  -1.826  1.00  0.00    -0.174 NA
ATOM     16  C   UNL     1       0.267   0.241  -0.208  1.00  0.00     0.028 A 
ATOM     17  N   UNL     1       0.257  -0.903  -2.074  1.00  0.00    -0.277 N 
ATOM     18  C   UNL     1       0.849   0.892   0.894  1.00  0.00     0.013 A 
ATOM     19  C   UNL     1       1.099  -0.354  -1.147  1.00  0.00     0.066 A 
ATOM     20  C   UNL     1       2.248   0.926   1.003  1.00  0.00     0.009 A 
ATOM     21  C   UNL     1       2.496  -0.334  -1.055  1.00  0.00     0.037 A 
ATOM     22  C   UNL     1       3.080   0.323   0.045  1.00  0.00    -0.016 A 
ATOM     23  H   UNL     1       0.512  -1.425  -2.904  1.00  0.00     0.190 HD
BRANCH  22  24
ATOM     24  C   UNL     1       4.544   0.374   0.189  1.00  0.00    -0.015 A 
ATOM     25  C   UNL     1       5.306  -0.799   0.238  1.00  0.00     0.029 A 
ATOM     26  C   UNL     1       5.220   1.595   0.281  1.00  0.00     0.029 A 
ATOM     27  C   UNL     1       6.682  -0.701   0.375  1.00  0.00     0.111 A 
ATOM     28  C   UNL     1       6.600   1.592   0.412  1.00  0.00     0.111 A 
ATOM     29  N   UNL     1       7.346   0.470   0.461  1.00  0.00    -0.265 NA
ENDBRANCH  22  24
ENDBRANCH   6  14
TORSDOF 6
