MODEL        3USER    Run = 3USERUSER    Estimated Free Energy of Binding    =  -5.63 kcal/mol  [=(1)+(2)+(3)-(4)]USERUSER    (1) Final Intermolecular Energy     = -10.10 kcal/molUSER        vdW + Hbond + desolv Energy     = -10.37 kcal/molUSER        Electrostatic Energy            =  -0.18 kcal/molUSER        Moving Ligand-Fixed Receptor    = -10.54 kcal/molUSER        Moving Ligand-Moving Receptor   =  +0.44 kcal/molUSER    (2) Final Total Internal Energy     =  -1.88 kcal/molUSER    (3) Torsional Free Energy           =  +4.47 kcal/molUSER    (4) Unbound System's Energy         =  -1.88 kcal/molUSERUSERREMARK SMILES COc1ccc(O)c(C(=O)c2ccc(CO[C@@H]3CCCNC[C@@H]3NC(=O)c3ccncc3)cc2)c1FREMARK SMILES IDX 16 1 15 2 14 3 11 4 12 5 34 6 13 7 33 8 9 9 10 10 8 11 3 12REMARK SMILES IDX 4 13 35 14 5 15 6 16 36 17 2 18 1 19 7 20 17 22 18 23 23 25REMARK SMILES IDX 22 26 21 27 20 29 19 30 24 32 25 33 26 35 27 36 28 37 32 38REMARK SMILES IDX 29 39 31 40 30 41REMARK H PARENT 7 21 21 28 24 34REMARK Flexibility Score:   99.900USER                              x       y       z     vdW  Elec       q    TypeUSER                           _______ _______ _______ _____ _____    ______ ____ROOTATOM      1  O   UNL     1      13.579 -14.295 -13.639 -0.14 +0.18    -0.371 OA ENDROOTBRANCH   1   2ATOM      2  C   UNL     1      12.815 -14.353 -12.436 -0.20 -0.07    +0.196 C  BRANCH   2   3ATOM      3  C   UNL     1      12.019 -13.079 -12.321 -0.32 +0.01    -0.022 A  ATOM      4  C   UNL     1      10.564 -10.686 -12.102 -0.55 -0.01    +0.023 A  ATOM      5  C   UNL     1      11.581 -10.801 -13.055 -0.28 -0.01    +0.012 A  ATOM      6  C   UNL     1      10.253 -11.776 -11.283 -0.46 -0.00    +0.012 A  ATOM      7  C   UNL     1      12.307 -11.990 -13.157 -0.34 -0.00    +0.007 A  ATOM      8  C   UNL     1      10.980 -12.964 -11.387 -0.37 -0.00    +0.007 A  BRANCH   4   9ATOM      9  C   UNL     1       9.744  -9.456 -11.980 -0.52 -0.05    +0.199 C  ATOM     10  O   UNL     1      10.126  -8.553 -11.232 -1.57 -0.03    -0.288 OA BRANCH   9  11ATOM     11  C   UNL     1       8.447  -9.276 -12.665 -0.32 -0.03    +0.104 A  ATOM     12  C   UNL     1       6.750  -9.994 -14.262 -0.15 +0.00    +0.155 A  ATOM     13  C   UNL     1       5.965  -8.889 -13.922 -0.19 +0.01    +0.053 A  ATOM     14  C   UNL     1       7.990 -10.172 -13.633 +0.03 -0.08    +0.179 A  ATOM     15  C   UNL     1       6.427  -7.967 -12.979 -0.26 -0.00    +0.051 A  ATOM     16  C   UNL     1       7.665  -8.153 -12.367 -0.24 -0.03    +0.130 A  ATOM     17  F   UNL     1       8.751 -11.218 -13.994 +0.17 +0.22    -0.202 F  BRANCH  12  18ATOM     18  O   UNL     1       6.412 -10.952 -15.179 -0.05 -0.04    -0.494 OA ATOM     19  C   UNL     1       7.090 -10.929 -16.429 -0.09 -0.11    +0.278 C  ENDBRANCH  12  18BRANCH  16  20ATOM     20  O   UNL     1       8.055  -7.187 -11.479 -0.17 +0.17    -0.507 OA ATOM     21  H   UNL     1       8.927  -6.837 -11.778 -0.02 -0.22    +0.293 HD ENDBRANCH  16  20ENDBRANCH   9  11ENDBRANCH   4   9ENDBRANCH   2   3ENDBRANCH   1   2BRANCH   1  22ATOM     22  C   UNL     1      14.050 -15.586 -14.084 -0.27 -0.05    +0.142 C  BRANCH  22  23ATOM     23  C   UNL     1      12.775 -16.362 -14.443 -0.27 -0.01    +0.035 CG0ATOM     24  G   UNL     1      11.705 -16.572 -13.378 +0.00 +0.00    +0.000 G0 ENDBRANCH  22  23BRANCH  22  25ATOM     25  C   UNL     1      14.937 -16.214 -12.982 -0.33 -0.04    +0.125 C  BRANCH  25  26ATOM     26  C   UNL     1      14.387 -17.595 -12.546 -0.35 -0.02    +0.108 C  BRANCH  26  27ATOM     27  N   UNL     1      13.202 -17.591 -11.691 -0.20 +0.06    -0.315 NA ATOM     28  H   UNL     1      13.214 -16.739 -11.128 +0.07 -0.03    +0.122 HD BRANCH  27  29ATOM     29  C   UNL     1      11.940 -17.718 -12.406 -0.41 -0.01    +0.081 C  BRANCH  29  30ATOM     30  C   UNL     1      11.700 -16.575 -13.381 -0.31 -0.00    +0.018 CG0ATOM     31  G   UNL     1      12.774 -16.361 -14.441 +0.00 +0.00    +0.000 G0 ENDBRANCH  29  30ENDBRANCH  27  29ENDBRANCH  26  27ENDBRANCH  25  26BRANCH  25  32ATOM     32  N   UNL     1      15.153 -15.273 -11.873 -0.10 +0.10    -0.345 N  ATOM     33  C   UNL     1      15.959 -15.600 -10.802 -0.22 -0.05    +0.251 C  ATOM     34  H   UNL     1      15.155 -14.298 -12.144 +0.10 -0.06    +0.164 HD ATOM     35  O   UNL     1      16.458 -16.706 -10.639 -0.19 +0.03    -0.269 OA BRANCH  33  36ATOM     36  C   UNL     1      16.244 -14.506  -9.835 -0.33 -0.01    +0.042 A  ATOM     37  C   UNL     1      15.613 -13.276 -10.024 -0.33 -0.01    +0.034 A  ATOM     38  C   UNL     1      17.140 -14.666  -8.779 -0.35 -0.00    +0.034 A  ATOM     39  C   UNL     1      15.895 -12.257  -9.133 -0.32 -0.04    +0.112 A  ATOM     40  C   UNL     1      17.355 -13.583  -7.944 -0.29 -0.01    +0.112 A  ATOM     41  N   UNL     1      16.749 -12.387  -8.095 -0.20 +0.06    -0.265 NA ENDBRANCH  33  36ENDBRANCH  25  32ENDBRANCH  22  25ENDBRANCH   1  22TORSDOF 9TERENDMDL