MODEL        1USER    Run = 1USERUSER    Estimated Free Energy of Binding    =  -5.58 kcal/mol  [=(1)+(2)+(3)-(4)]USERUSER    (1) Final Intermolecular Energy     = -10.06 kcal/molUSER        vdW + Hbond + desolv Energy     = -10.57 kcal/molUSER        Electrostatic Energy            =  -0.09 kcal/molUSER        Moving Ligand-Fixed Receptor    = -10.66 kcal/molUSER        Moving Ligand-Moving Receptor   =  +0.60 kcal/molUSER    (2) Final Total Internal Energy     =  -2.36 kcal/molUSER    (3) Torsional Free Energy           =  +4.47 kcal/molUSER    (4) Unbound System's Energy         =  -2.36 kcal/molUSERUSERREMARK SMILES COc1ccc(O)c(C(=O)c2ccc(C(=O)O[C@@H]3CCCNC[C@H]3NC(=O)c3ccncc3)cc2)c1FREMARK SMILES IDX 17 1 15 2 16 3 14 4 11 5 12 6 35 7 13 8 34 9 9 10 10 11 8 12REMARK SMILES IDX 3 13 4 14 36 15 5 16 6 17 37 18 2 19 1 20 7 21 18 23 24 25REMARK SMILES IDX 23 26 22 27 21 29 20 30 19 31 25 33 26 34 27 36 28 37 29 38REMARK SMILES IDX 33 39 30 40 32 41 31 42REMARK H PARENT 7 22 22 28 25 35REMARK Flexibility Score:   99.900USER                              x       y       z     vdW  Elec       q    TypeUSER                           _______ _______ _______ _____ _____    ______ ____ROOTATOM      1  O   UNL     1      -1.053   1.223  -2.672 -0.17 -0.04    -0.457 OA ENDROOTBRANCH   1   2ATOM      2  C   UNL     1      -1.293   2.021  -3.743 -0.21 +0.03    +0.338 C  ATOM      3  O   UNL     1      -2.317   2.648  -3.974 -0.18 -0.00    -0.246 OA BRANCH   2   4ATOM      4  C   UNL     1      -0.088   2.072  -4.607 -0.35 +0.01    +0.060 A  ATOM      5  C   UNL     1       2.224   2.110  -6.198 -0.37 -0.00    +0.023 A  ATOM      6  C   UNL     1       1.284   3.145  -6.298 -0.36 -0.00    +0.013 A  ATOM      7  C   UNL     1       2.003   1.061  -5.295 -0.34 +0.00    +0.013 A  ATOM      8  C   UNL     1       0.132   3.126  -5.504 -0.34 -0.00    +0.016 A  ATOM      9  C   UNL     1       0.857   1.046  -4.495 -0.36 +0.00    +0.016 A  BRANCH   5  10ATOM     10  C   UNL     1       3.453   2.069  -7.038 -0.32 -0.03    +0.199 C  ATOM     11  O   UNL     1       4.069   1.021  -7.203 -0.65 +0.04    -0.288 OA BRANCH  10  12ATOM     12  C   UNL     1       3.958   3.286  -7.685 -0.32 -0.03    +0.104 A  ATOM     13  C   UNL     1       3.627   5.057  -9.308 -0.27 -0.01    +0.155 A  ATOM     14  C   UNL     1       4.893   5.565  -8.988 -0.55 +0.00    +0.053 A  ATOM     15  C   UNL     1       3.172   3.908  -8.651 -0.21 -0.03    +0.179 A  ATOM     16  C   UNL     1       5.677   4.948  -8.005 -0.47 +0.01    +0.051 A  ATOM     17  C   UNL     1       5.204   3.814  -7.349 -0.39 -0.02    +0.130 A  ATOM     18  F   UNL     1       1.947   3.430  -8.926 -0.02 +0.02    -0.202 F  BRANCH  13  19ATOM     19  O   UNL     1       2.756   5.606 -10.211 -0.13 +0.02    -0.494 OA ATOM     20  C   UNL     1       2.658   4.984 -11.486 -0.21 -0.03    +0.278 C  ENDBRANCH  13  19BRANCH  17  21ATOM     21  O   UNL     1       5.954   3.220  -6.374 -0.23 +0.05    -0.507 OA ATOM     22  H   UNL     1       5.699   2.289  -6.278 +0.25 -0.05    +0.293 HD ENDBRANCH  17  21ENDBRANCH  10  12ENDBRANCH   5  10ENDBRANCH   2   4ENDBRANCH   1   2BRANCH   1  23ATOM     23  C   UNL     1      -0.735   1.890  -1.422 -0.34 -0.01    +0.200 CG0ATOM     24  G   UNL     1       0.399   1.101  -0.768 +0.00 +0.00    +0.000 G0 BRANCH  23  25ATOM     25  C   UNL     1      -2.034   1.942  -0.592 -0.29 -0.01    +0.137 C  BRANCH  25  26ATOM     26  C   UNL     1      -1.837   1.722   0.921 -0.20 -0.02    +0.109 C  BRANCH  26  27ATOM     27  N   UNL     1      -1.044   2.760   1.584 -0.16 +0.08    -0.315 NA ATOM     28  H   UNL     1      -0.995   2.537   2.578 +0.05 -0.04    +0.122 HD BRANCH  27  29ATOM     29  C   UNL     1       0.319   2.946   1.079 -0.51 -0.03    +0.081 C  BRANCH  29  30ATOM     30  C   UNL     1       1.041   1.732   0.479 -0.43 -0.00    +0.019 C  BRANCH  30  31ATOM     31  C   UNL     1       0.400   1.098  -0.762 -0.39 -0.00    +0.049 CG0ATOM     32  G   UNL     1      -0.734   1.887  -1.418 +0.00 +0.00    +0.000 G0 ENDBRANCH  30  31ENDBRANCH  29  30ENDBRANCH  27  29ENDBRANCH  26  27ENDBRANCH  25  26BRANCH  25  33ATOM     33  N   UNL     1      -2.708   3.224  -0.833 -0.05 +0.07    -0.344 N  ATOM     34  C   UNL     1      -2.021   4.410  -0.919 -0.20 -0.11    +0.251 C  ATOM     35  H   UNL     1      -3.633   3.166  -1.238 +0.06 -0.02    +0.164 HD ATOM     36  O   UNL     1      -0.812   4.513  -0.757 -0.26 +0.16    -0.269 OA BRANCH  34  37ATOM     37  C   UNL     1      -2.834   5.606  -1.242 -0.25 -0.02    +0.042 A  ATOM     38  C   UNL     1      -3.786   5.514  -2.254 -0.21 -0.01    +0.034 A  ATOM     39  C   UNL     1      -2.633   6.818  -0.582 -0.26 -0.02    +0.034 A  ATOM     40  C   UNL     1      -4.526   6.643  -2.550 -0.12 -0.00    +0.112 A  ATOM     41  C   UNL     1      -3.421   7.890  -0.958 -0.22 -0.04    +0.112 A  ATOM     42  N   UNL     1      -4.366   7.828  -1.921 -0.60 +0.00    -0.265 NA ENDBRANCH  34  37ENDBRANCH  25  33ENDBRANCH  23  25ENDBRANCH   1  23TORSDOF 9TERENDMDL