MODEL        1USER    Run = 1USERUSER    Estimated Free Energy of Binding    =  -9.51 kcal/mol  [=(1)+(2)+(3)-(4)]USERUSER    (1) Final Intermolecular Energy     = -11.30 kcal/molUSER        vdW + Hbond + desolv Energy     = -11.29 kcal/molUSER        Electrostatic Energy            =  -0.01 kcal/molUSER        Moving Ligand-Fixed Receptor    = -11.30 kcal/molUSER        Moving Ligand-Moving Receptor   =  +0.00 kcal/molUSER    (2) Final Total Internal Energy     =  -0.66 kcal/molUSER    (3) Torsional Free Energy           =  +1.79 kcal/molUSER    (4) Unbound System's Energy         =  -0.66 kcal/molUSERUSERREMARK SMILES Cn1ccc2ccc3c4[nH]c5c(CCCN[C@H]6CC[C@H](O)CC6)cccc5c4c4c(c3c21)C(=O)NC4=OREMARK SMILES IDX 15 1 14 2 13 3 12 4 2 5 3 6 32 7 4 8 31 9 5 10 30 11 8 12REMARK SMILES IDX 6 13 29 14 33 15 7 16 9 17 28 18 36 19 35 20 10 21 27 22REMARK SMILES IDX 11 23 26 24 25 25 24 26 1 27 34 28 37 29 16 32 17 34 23 35REMARK SMILES IDX 18 36 22 37 19 38 20 39 21 40REMARK H PARENT 35 30 10 31 16 33 21 41USER                              x       y       z     vdW  Elec       q    TypeUSER                           _______ _______ _______ _____ _____    ______ ____ROOTATOM      1  C   UNL     1      16.967 -15.705  -9.127 -0.38 -0.01    +0.081 C  ENDROOTBRANCH   1   2ATOM      2  C   UNL     1      17.887 -14.610  -9.676 -0.26 -0.00    +0.020 C  BRANCH   2   3ATOM      3  C   UNL     1      17.308 -13.898 -10.903 -0.50 -0.01    +0.039 C  BRANCH   3   4ATOM      4  C   UNL     1      15.916 -13.350 -10.698 -0.29 +0.01    -0.024 A  ATOM      5  N   UNL     1      10.070 -15.943 -16.556 -0.06 +0.02    -0.350 N  ATOM      6  C   UNL     1      10.088 -16.979 -17.461 -0.22 +0.01    +0.086 A  ATOM      7  C   UNL     1      11.162 -16.023 -15.700 -0.18 -0.01    +0.057 A  ATOM      8  C   UNL     1      11.297 -17.610 -17.349 -0.26 +0.01    +0.028 A  ATOM      9  C   UNL     1      11.554 -15.320 -14.500 -0.20 -0.00    +0.022 A  ATOM     10  C   UNL     1      12.011 -16.971 -16.303 -0.28 +0.00    +0.000 A  ATOM     11  C   UNL     1      10.764 -14.529 -13.651 -0.20 -0.01    +0.063 A  ATOM     12  C   UNL     1      12.925 -15.463 -14.122 -0.24 -0.00    +0.009 A  ATOM     13  C   UNL     1      13.319 -17.147 -15.824 -0.34 -0.00    +0.011 A  ATOM     14  C   UNL     1      11.302 -13.792 -12.589 -0.24 -0.02    +0.063 A  ATOM     15  C   UNL     1       9.303 -14.385 -13.520 -0.18 -0.01    +0.259 C  ATOM     16  C   UNL     1      13.785 -16.359 -14.776 -0.33 -0.00    +0.012 A  ATOM     17  C   UNL     1      13.445 -14.692 -13.035 -0.25 -0.02    +0.055 A  ATOM     18  C   UNL     1      12.660 -13.827 -12.262 -0.28 -0.01    +0.022 A  ATOM     19  C   UNL     1      10.203 -13.105 -11.913 -0.28 -0.04    +0.259 C  ATOM     20  N   UNL     1       9.077 -13.410 -12.603 -0.21 -0.02    -0.288 N  ATOM     21  N   UNL     1      14.720 -14.614 -12.520 -0.14 +0.13    -0.354 N  ATOM     22  C   UNL     1      13.517 -13.214 -11.286 -0.31 -0.00    +0.008 A  ATOM     23  C   UNL     1      14.801 -13.725 -11.476 -0.26 -0.02    +0.050 A  ATOM     24  C   UNL     1      13.329 -12.270 -10.256 -0.12 -0.01    +0.011 A  ATOM     25  C   UNL     1      14.412 -11.876  -9.464 -0.33 -0.00    +0.001 A  ATOM     26  C   UNL     1      15.678 -12.408  -9.683 -0.37 -0.00    +0.006 A  ATOM     27  C   UNL     1       9.155 -14.834 -16.729 -0.21 -0.04    +0.149 C  ATOM     28  O   UNL     1       8.447 -15.074 -14.034 -0.24 -0.01    -0.269 OA ATOM     29  O   UNL     1      10.254 -12.440 -10.900 -0.71 +0.09    -0.269 OA ATOM     30  H   UNL     1       8.159 -13.220 -12.233 +0.15 +0.07    +0.173 HD ATOM     31  H   UNL     1      15.512 -15.125 -12.878 +0.09 -0.06    +0.167 HD ENDBRANCH   3   4ENDBRANCH   2   3ENDBRANCH   1   2BRANCH   1  32ATOM     32  N   UNL     1      17.174 -15.829  -7.683 -0.17 +0.00    -0.314 NA ATOM     33  H   UNL     1      16.300 -15.652  -7.189 +0.10 -0.01    +0.122 HD BRANCH  32  34ATOM     34  C   UNL     1      18.225 -14.933  -7.180 -0.44 +0.00    +0.053 C  ATOM     35  C   UNL     1      17.738 -13.482  -6.981 -0.45 -0.00    +0.021 C  ATOM     36  C   UNL     1      18.753 -15.550  -5.868 -0.50 +0.01    +0.021 C  ATOM     37  C   UNL     1      17.273 -13.214  -5.551 -0.47 -0.00    +0.033 C  ATOM     38  C   UNL     1      19.417 -14.497  -4.992 -0.60 +0.01    +0.033 C  ATOM     39  C   UNL     1      18.412 -13.431  -4.547 -0.49 +0.03    +0.114 C  BRANCH  39  40ATOM     40  O   UNL     1      19.128 -12.211  -4.359 -0.29 -0.06    -0.393 OA ATOM     41  H   UNL     1      19.854 -12.389  -3.735 -0.38 -0.01    +0.210 HD ENDBRANCH  39  40ENDBRANCH  32  34ENDBRANCH   1  32TORSDOF 6TERENDMDL