MODEL        1USER    Run = 1USERUSER    Estimated Free Energy of Binding    = -12.01 kcal/mol  [=(1)+(2)+(3)-(4)]USERUSER    (1) Final Intermolecular Energy     = -14.40 kcal/molUSER        vdW + Hbond + desolv Energy     = -14.22 kcal/molUSER        Electrostatic Energy            =  -0.17 kcal/molUSER        Moving Ligand-Fixed Receptor    = -14.40 kcal/molUSER        Moving Ligand-Moving Receptor   =  +0.00 kcal/molUSER    (2) Final Total Internal Energy     =  -1.94 kcal/molUSER    (3) Torsional Free Energy           =  +2.39 kcal/molUSER    (4) Unbound System's Energy         =  -1.94 kcal/molUSERUSERREMARK SMILES N#Cc1cnc(-c2ccc(CNCc3ccc(-c4csnn4)cc3)cc2)c(-c2ccccc2)c1REMARK SMILES IDX 11 1 10 2 7 3 8 4 26 5 9 6 25 7 6 8 3 9 4 10 34 11 5 12REMARK SMILES IDX 27 13 2 14 1 15 28 16 29 17 33 18 30 19 32 20 31 21 12 22REMARK SMILES IDX 13 24 14 25 15 26 24 27 16 28 23 29 17 30 18 31 19 32 22 33REMARK SMILES IDX 20 34 21 35REMARK H PARENT 12 23USER                              x       y       z     vdW  Elec       q    TypeUSER                           _______ _______ _______ _____ _____    ______ ____ROOTATOM      1  C   UNL     1      13.546 -15.547 -12.703 -0.23 -0.03    +0.117 C  ENDROOTBRANCH   1   2ATOM      2  C   UNL     1      14.393 -15.315 -11.474 -0.26 +0.01    -0.034 A  ATOM      3  C   UNL     1      15.972 -14.840  -9.162 -0.34 -0.00    +0.001 A  ATOM      4  C   UNL     1      16.548 -15.313 -10.355 -0.35 -0.00    +0.011 A  ATOM      5  C   UNL     1      14.584 -14.627  -9.149 -0.30 -0.01    +0.011 A  ATOM      6  C   UNL     1      15.773 -15.542 -11.497 -0.34 -0.00    +0.006 A  ATOM      7  C   UNL     1      13.806 -14.852 -10.290 -0.34 -0.00    +0.006 A  BRANCH   3   8ATOM      8  C   UNL     1      16.813 -14.605  -7.971 -0.30 -0.01    +0.078 A  ATOM      9  C   UNL     1      18.389 -14.463  -5.702 -0.42 +0.01    +0.071 A  ATOM     10  C   UNL     1      18.080 -15.660  -6.319 -0.29 +0.02    +0.131 A  ATOM     11  C   UNL     1      17.888 -13.291  -6.265 -0.41 -0.00    +0.032 A  ATOM     12  N   UNL     1      17.317 -15.754  -7.431 -0.23 +0.00    -0.254 NA ATOM     13  C   UNL     1      17.086 -13.334  -7.423 -0.38 -0.00    +0.009 A  BRANCH   9  14ATOM     14  C   UNL     1      19.204 -14.438  -4.530 -0.56 +0.04    +0.101 C  ATOM     15  N   UNL     1      19.866 -14.418  -3.579 -0.44 -0.11    -0.192 NA ENDBRANCH   9  14BRANCH  13  16ATOM     16  C   UNL     1      16.617 -12.065  -8.008 -0.41 +0.00    -0.016 A  ATOM     17  C   UNL     1      15.529 -11.375  -7.446 -0.47 -0.00    +0.009 A  ATOM     18  C   UNL     1      17.252 -11.503  -9.127 -0.40 -0.00    +0.009 A  ATOM     19  C   UNL     1      15.084 -10.169  -7.992 -0.58 -0.00    +0.001 A  ATOM     20  C   UNL     1      16.806 -10.298  -9.675 -0.49 -0.00    +0.001 A  ATOM     21  C   UNL     1      15.722  -9.632  -9.108 -0.64 -0.00    +0.000 A  ENDBRANCH  13  16ENDBRANCH   3   8ENDBRANCH   1   2BRANCH   1  22ATOM     22  N   UNL     1      13.654 -14.413 -13.621 -0.10 +0.15    -0.309 NA ATOM     23  H   UNL     1      14.388 -14.619 -14.296 -0.46 -0.09    +0.123 HD BRANCH  22  24ATOM     24  C   UNL     1      12.404 -14.164 -14.340 -0.27 -0.05    +0.117 C  BRANCH  24  25ATOM     25  C   UNL     1      11.624 -12.988 -13.800 -0.30 +0.02    -0.034 A  ATOM     26  C   UNL     1      12.272 -11.952 -13.114 -0.33 -0.00    +0.006 A  ATOM     27  C   UNL     1      10.235 -12.922 -13.959 -0.24 -0.00    +0.006 A  ATOM     28  C   UNL     1      11.545 -10.869 -12.607 -0.39 -0.01    +0.011 A  ATOM     29  C   UNL     1       9.509 -11.841 -13.451 -0.20 -0.01    +0.011 A  ATOM     30  C   UNL     1      10.155 -10.796 -12.774 -0.47 -0.00    +0.003 A  BRANCH  30  31ATOM     31  C   UNL     1       9.367  -9.680 -12.258 -0.46 -0.03    +0.105 A  ATOM     32  C   UNL     1       8.115  -9.317 -12.725 -0.23 -0.02    +0.118 A  ATOM     33  N   UNL     1       9.837  -8.895 -11.207 -1.03 -0.02    -0.138 NA ATOM     34  S   UNL     1       7.594  -7.965 -11.805 -0.61 +0.00    -0.020 S  ATOM     35  N   UNL     1       8.983  -7.941 -10.878 -0.96 -0.02    -0.091 NA ENDBRANCH  30  31ENDBRANCH  24  25ENDBRANCH  22  24ENDBRANCH   1  22TORSDOF 8TERENDMDL