MODEL        5USER    Run = 5USERUSER    Estimated Free Energy of Binding    =  -6.11 kcal/mol  [=(1)+(2)+(3)-(4)]USERUSER    (1) Final Intermolecular Energy     = -10.29 kcal/molUSER        vdW + Hbond + desolv Energy     = -10.28 kcal/molUSER        Electrostatic Energy            =  -0.32 kcal/molUSER        Moving Ligand-Fixed Receptor    = -10.60 kcal/molUSER        Moving Ligand-Moving Receptor   =  +0.31 kcal/molUSER    (2) Final Total Internal Energy     =  -2.09 kcal/molUSER    (3) Torsional Free Energy           =  +4.18 kcal/molUSER    (4) Unbound System's Energy         =  -2.09 kcal/molUSERUSERREMARK SMILES COc1ccc(O)c(C(=O)c2ccc(C(=O)N[C@@H]3CCCNC[C@H]3NC(=O)c3ccncc3)cc2)c1FREMARK SMILES IDX 15 1 16 2 17 3 14 5 11 6 12 7 35 8 13 9 34 10 9 11 10 12REMARK SMILES IDX 8 13 3 14 4 15 36 16 5 17 6 18 37 19 2 20 1 21 7 22 18 24REMARK SMILES IDX 19 25 24 27 23 28 22 29 21 31 20 32 25 34 26 35 27 37 28 38REMARK SMILES IDX 29 39 33 40 30 41 32 42 31 43REMARK H PARENT 17 4 7 23 22 30 25 36REMARK Flexibility Score:   88.900USER                              x       y       z     vdW  Elec       q    TypeUSER                           _______ _______ _______ _____ _____    ______ ____ROOTATOM      1  C   UNL     1      -1.760   2.491  -4.204 -0.21 +0.01    +0.251 C  ATOM      2  O   UNL     1      -2.335   1.445  -3.925 -0.13 -0.06    -0.269 OA ATOM      3  N   UNL     1      -2.307   3.739  -3.982 -0.03 +0.08    -0.347 N  ATOM      4  H   UNL     1      -1.868   4.534  -4.425 -0.48 -0.09    +0.164 HD ENDROOTBRANCH   1   5ATOM      5  C   UNL     1      -0.436   2.462  -4.886 -0.33 +0.00    +0.039 A  ATOM      6  C   UNL     1       2.043   2.269  -6.182 -0.36 -0.00    +0.023 A  ATOM      7  C   UNL     1       1.636   1.268  -5.295 -0.36 +0.00    +0.013 A  ATOM      8  C   UNL     1       1.210   3.369  -6.421 -0.36 -0.00    +0.013 A  ATOM      9  C   UNL     1       0.406   1.370  -4.639 -0.40 +0.00    +0.014 A  ATOM     10  C   UNL     1      -0.024   3.472  -5.765 -0.34 -0.00    +0.014 A  BRANCH   6  11ATOM     11  C   UNL     1       3.316   2.076  -6.910 -0.31 -0.03    +0.199 C  ATOM     12  O   UNL     1       4.045   1.145  -6.565 -0.86 -0.01    -0.288 OA BRANCH  11  13ATOM     13  C   UNL     1       3.748   2.903  -8.061 -0.29 -0.03    +0.104 A  ATOM     14  C   UNL     1       5.123   4.662  -9.047 -0.37 +0.00    +0.155 A  ATOM     15  C   UNL     1       4.530   4.430 -10.291 -0.41 -0.00    +0.053 A  ATOM     16  C   UNL     1       4.726   3.891  -7.941 -0.32 -0.03    +0.179 A  ATOM     17  C   UNL     1       3.569   3.426 -10.430 -0.24 -0.01    +0.051 A  ATOM     18  C   UNL     1       3.194   2.662  -9.327 -0.21 -0.03    +0.130 A  ATOM     19  F   UNL     1       5.332   4.102  -6.761 -0.14 +0.04    -0.202 F  BRANCH  14  20ATOM     20  O   UNL     1       6.083   5.605  -8.791 -0.80 -0.11    -0.494 OA ATOM     21  C   UNL     1       5.650   6.834  -8.216 -0.34 +0.02    +0.278 C  ENDBRANCH  14  20BRANCH  18  22ATOM     22  O   UNL     1       2.269   1.679  -9.565 -0.02 +0.10    -0.507 OA ATOM     23  H   UNL     1       2.761   0.830  -9.671 +0.10 -0.13    +0.293 HD ENDBRANCH  18  22ENDBRANCH  11  13ENDBRANCH   6  11ENDBRANCH   1   5BRANCH   3  24ATOM     24  C   UNL     1      -3.711   3.884  -3.579 -0.17 -0.01    +0.106 C  BRANCH  24  25ATOM     25  C   UNL     1      -4.543   4.383  -4.767 -0.15 +0.00    +0.028 CG0ATOM     26  G   UNL     1      -5.750   5.267  -4.412 +0.00 +0.00    +0.000 G0 ENDBRANCH  24  25BRANCH  24  27ATOM     27  C   UNL     1      -3.820   4.780  -2.311 -0.18 -0.02    +0.118 C  BRANCH  27  28ATOM     28  C   UNL     1      -5.184   4.717  -1.584 -0.05 -0.01    +0.108 C  BRANCH  28  29ATOM     29  N   UNL     1      -6.278   4.023  -2.271 -0.00 +0.01    -0.315 NA ATOM     30  H   UNL     1      -6.001   3.068  -2.487 +0.02 -0.00    +0.122 HD BRANCH  29  31ATOM     31  C   UNL     1      -6.796   4.669  -3.472 -0.04 -0.00    +0.081 C  BRANCH  31  32ATOM     32  C   UNL     1      -5.752   5.268  -4.411 -0.08 +0.00    +0.017 CG0ATOM     33  G   UNL     1      -4.547   4.382  -4.767 +0.00 +0.00    +0.000 G0 ENDBRANCH  31  32ENDBRANCH  29  31ENDBRANCH  28  29ENDBRANCH  27  28BRANCH  27  34ATOM     34  N   UNL     1      -2.716   4.486  -1.388 -0.10 +0.12    -0.346 N  ATOM     35  C   UNL     1      -2.567   3.244  -0.816 -0.14 -0.05    +0.251 C  ATOM     36  H   UNL     1      -1.928   5.114  -1.402 -0.09 -0.11    +0.164 HD ATOM     37  O   UNL     1      -3.372   2.332  -0.952 -0.09 +0.03    -0.269 OA BRANCH  35  38ATOM     38  C   UNL     1      -1.333   3.030  -0.020 -0.32 -0.01    +0.042 A  ATOM     39  C   UNL     1      -0.389   2.119  -0.496 -0.41 -0.00    +0.034 A  ATOM     40  C   UNL     1      -1.110   3.688   1.191 -0.30 -0.01    +0.034 A  ATOM     41  C   UNL     1       0.755   1.921   0.251 -0.41 -0.02    +0.112 A  ATOM     42  C   UNL     1       0.067   3.418   1.864 -0.32 -0.04    +0.112 A  ATOM     43  N   UNL     1       1.007   2.554   1.418 -0.24 +0.09    -0.265 NA ENDBRANCH  35  38ENDBRANCH  27  34ENDBRANCH  24  27ENDBRANCH   3  24TORSDOF 8TERENDMDL