MODEL        2USER    Run = 2USERUSER    Estimated Free Energy of Binding    =  -8.26 kcal/mol  [=(1)+(2)+(3)-(4)]USERUSER    (1) Final Intermolecular Energy     = -10.95 kcal/molUSER        vdW + Hbond + desolv Energy     = -10.78 kcal/molUSER        Electrostatic Energy            =  -0.17 kcal/molUSER        Moving Ligand-Fixed Receptor    = -10.95 kcal/molUSER        Moving Ligand-Moving Receptor   =  +0.00 kcal/molUSER    (2) Final Total Internal Energy     =  -1.79 kcal/molUSER    (3) Torsional Free Energy           =  +2.68 kcal/molUSER    (4) Unbound System's Energy         =  -1.79 kcal/molUSERUSERREMARK SMILES C[C@H]1CN(C=NC(=Nc2ccccc2)Nc2ccccc2)CCN1CCOREMARK SMILES IDX 1 1 2 2 3 3 4 4 22 5 23 6 24 7 25 8 26 9 27 10 5 12 6 13REMARK SMILES IDX 7 14 15 15 8 17 9 18 10 19 14 20 11 21 13 22 12 23 16 24REMARK SMILES IDX 17 25 21 26 18 27 20 28 19 29REMARK H PARENT 27 11 15 16USER                              x       y       z     vdW  Elec       q    TypeUSER                           _______ _______ _______ _____ _____    ______ ____ROOTATOM      1  C   UNL     1      32.387  42.373  17.190 -0.36 -0.01    +0.026 C  ATOM      2  C   UNL     1      32.622  43.840  17.578 -0.31 -0.02    +0.073 C  ATOM      3  C   UNL     1      34.138  44.089  17.825 -0.27 -0.05    +0.136 C  ATOM      4  N   UNL     1      34.892  44.157  16.559 -0.08 +0.16    -0.360 N  ATOM      5  C   UNL     1      34.335  45.132  15.610 -0.29 -0.10    +0.133 C  ATOM      6  C   UNL     1      32.826  44.904  15.382 -0.31 -0.07    +0.106 C  ATOM      7  N   UNL     1      32.058  44.834  16.636 -0.38 +0.12    -0.295 NA ENDROOTBRANCH   7   8ATOM      8  C   UNL     1      30.599  44.777  16.463 -0.26 -0.02    +0.113 C  BRANCH   8   9ATOM      9  C   UNL     1      29.894  45.894  15.665 -0.24 -0.03    +0.171 C  BRANCH   9  10ATOM     10  O   UNL     1      30.675  47.086  15.605 -0.74 +0.07    -0.395 OA ATOM     11  H   UNL     1      31.578  46.856  15.886 -0.35 -0.22    +0.210 HD ENDBRANCH   9  10ENDBRANCH   8   9ENDBRANCH   7   8BRANCH   4  12ATOM     12  C   UNL     1      36.253  43.955  16.589 -0.28 -0.07    +0.199 C  BRANCH  12  13ATOM     13  N   UNL     1      37.109  44.630  17.282 -0.21 +0.06    -0.203 NA BRANCH  13  14ATOM     14  C   UNL     1      37.577  45.763  16.661 -0.27 -0.09    +0.229 C  ATOM     15  N   UNL     1      38.915  45.991  16.837 -0.18 +0.08    -0.324 N  ATOM     16  H   UNL     1      39.336  45.334  17.477 +0.11 -0.02    +0.170 HD BRANCH  14  17ATOM     17  N   UNL     1      36.771  46.531  15.989 -0.24 +0.14    -0.213 NA BRANCH  17  18ATOM     18  C   UNL     1      36.784  46.553  14.587 -0.37 -0.04    +0.067 A  ATOM     19  C   UNL     1      36.560  47.759  13.918 -0.50 -0.02    +0.028 A  ATOM     20  C   UNL     1      36.958  45.384  13.838 -0.42 -0.01    +0.028 A  ATOM     21  C   UNL     1      36.545  47.807  12.523 -0.66 -0.00    +0.002 A  ATOM     22  C   UNL     1      36.943  45.426  12.442 -0.55 -0.00    +0.002 A  ATOM     23  C   UNL     1      36.741  46.640  11.785 -0.68 -0.00    +0.000 A  ENDBRANCH  17  18ENDBRANCH  14  17BRANCH  15  24ATOM     24  C   UNL     1      39.743  47.038  16.408 -0.46 -0.01    +0.041 A  ATOM     25  C   UNL     1      39.680  47.428  15.058 -0.48 -0.01    +0.026 A  ATOM     26  C   UNL     1      40.615  47.747  17.242 -0.50 -0.00    +0.026 A  ATOM     27  C   UNL     1      40.464  48.472  14.559 -0.52 -0.00    +0.002 A  ATOM     28  C   UNL     1      41.403  48.794  16.748 -0.39 -0.00    +0.002 A  ATOM     29  C   UNL     1      41.328  49.156  15.407 -0.60 -0.00    +0.000 A  ENDBRANCH  15  24ENDBRANCH  13  14ENDBRANCH  12  13ENDBRANCH   4  12TORSDOF 9TERENDMDL