MODEL        8USER    Run = 8USERUSER    Estimated Free Energy of Binding    =  -8.35 kcal/mol  [=(1)+(2)+(3)-(4)]USERUSER    (1) Final Intermolecular Energy     =  -9.84 kcal/molUSER        vdW + Hbond + desolv Energy     =  -9.64 kcal/molUSER        Electrostatic Energy            =  -0.20 kcal/molUSER        Moving Ligand-Fixed Receptor    =  -9.84 kcal/molUSER        Moving Ligand-Moving Receptor   =  +0.00 kcal/molUSER    (2) Final Total Internal Energy     =  -1.39 kcal/molUSER    (3) Torsional Free Energy           =  +1.49 kcal/molUSER    (4) Unbound System's Energy         =  -1.39 kcal/molUSERUSERREMARK SMILES O=S(=O)(Nc1ccccc1Cl)[C@H](O)c1cccc2[nH]ccc12REMARK SMILES IDX 1 1 2 2 3 3 4 4 5 6 6 7 10 8 7 9 9 10 8 11 11 12 12 13 13 14REMARK SMILES IDX 14 16 15 17 22 18 16 19 21 20 18 21 17 22 20 23 19 24REMARK H PARENT 4 5 13 15 19 25USER                              x       y       z     vdW  Elec       q    TypeUSER                           _______ _______ _______ _____ _____    ______ ____ROOTATOM      1  O   UNL     1      41.036  48.734  13.856 -0.21 +0.03    -0.203 OA ATOM      2  S   UNL     1      40.166  47.941  14.702 -0.48 -0.05    +0.264 S  ATOM      3  O   UNL     1      40.203  46.492  14.647 -0.38 +0.02    -0.203 OA ENDROOTBRANCH   2   4ATOM      4  N   UNL     1      38.594  48.462  14.294 -0.31 +0.13    -0.280 N  ATOM      5  H   UNL     1      38.482  49.440  14.580 -0.37 -0.15    +0.180 HD BRANCH   4   6ATOM      6  C   UNL     1      37.472  47.628  14.629 -0.44 -0.04    +0.067 A  ATOM      7  C   UNL     1      37.072  47.467  15.956 -0.32 -0.02    +0.028 A  ATOM      8  C   UNL     1      36.803  46.908  13.624 -0.47 -0.03    +0.065 A  ATOM      9  C   UNL     1      35.986  46.644  16.274 -0.35 -0.00    +0.002 A  ATOM     10  C   UNL     1      35.717  46.087  13.941 -0.43 -0.01    +0.023 A  ATOM     11  C   UNL     1      35.305  45.962  15.268 -0.35 -0.00    +0.002 A  ATOM     12  Cl  UNL     1      37.301  47.004  11.973 -0.84 +0.02    -0.082 Cl ENDBRANCH   4   6ENDBRANCH   2   4BRANCH   2  13ATOM     13  C   UNL     1      40.309  48.503  16.460 -0.34 -0.07    +0.285 C  BRANCH  13  14ATOM     14  O   UNL     1      41.373  49.439  16.728 -0.90 +0.00    -0.372 OA ATOM     15  H   UNL     1      41.735  49.712  15.867 +0.14 +0.01    +0.212 HD ENDBRANCH  13  14BRANCH  13  16ATOM     16  C   UNL     1      40.387  47.272  17.346 -0.50 -0.00    +0.007 A  ATOM     17  C   UNL     1      39.397  46.270  17.202 -0.44 -0.00    +0.008 A  ATOM     18  C   UNL     1      41.394  47.055  18.324 -0.53 -0.00    +0.006 A  ATOM     19  C   UNL     1      39.391  45.121  17.988 -0.40 -0.00    +0.003 A  ATOM     20  C   UNL     1      42.539  47.790  18.754 -0.49 +0.00    +0.028 A  ATOM     21  C   UNL     1      41.355  45.894  19.100 -0.43 +0.00    +0.046 A  ATOM     22  C   UNL     1      40.371  44.913  18.958 -0.42 -0.00    +0.027 A  ATOM     23  C   UNL     1      43.150  47.082  19.762 -0.37 +0.02    +0.083 A  ATOM     24  N   UNL     1      42.431  45.937  19.959 -0.07 -0.10    -0.361 N  ATOM     25  H   UNL     1      42.658  45.214  20.630 +0.09 +0.06    +0.166 HD ENDBRANCH  13  16ENDBRANCH   2  13TORSDOF 5TERENDMDL