REMARK SMILES C[C@H]1CN(C=NC(=Nc2ccccc2)Nc2ccccc2)CCN1CCO
REMARK SMILES IDX 1 1 2 2 3 3 4 4 22 5 23 6 24 7 25 8 26 9 27 10 5 12 6 13
REMARK SMILES IDX 7 14 15 15 8 17 9 18 10 19 14 20 11 21 13 22 12 23 16 24
REMARK SMILES IDX 17 25 21 26 18 27 20 28 19 29
REMARK H PARENT 27 11 15 16
ROOT
ATOM      1  C   UNL     1       3.469  -1.728  -0.880  1.00  0.00     0.026 C 
ATOM      2  C   UNL     1       2.999  -0.482  -1.644  1.00  0.00     0.073 C 
ATOM      3  C   UNL     1       1.463  -0.301  -1.473  1.00  0.00     0.136 C 
ATOM      4  N   UNL     1       1.121   0.217  -0.136  1.00  0.00    -0.360 N 
ATOM      5  C   UNL     1       1.848   1.449   0.207  1.00  0.00     0.133 C 
ATOM      6  C   UNL     1       3.370   1.281   0.015  1.00  0.00     0.106 C 
ATOM      7  N   UNL     1       3.729   0.765  -1.316  1.00  0.00    -0.295 NA
ENDROOT
BRANCH   7   8
ATOM      8  C   UNL     1       5.171   0.740  -1.599  1.00  0.00     0.113 C 
BRANCH   8   9
ATOM      9  C   UNL     1       6.150   0.351  -0.472  1.00  0.00     0.171 C 
BRANCH   9  10
ATOM     10  O   UNL     1       6.299   1.391   0.493  1.00  0.00    -0.395 OA
ATOM     11  H   UNL     1       6.551   2.199   0.012  1.00  0.00     0.210 HD
ENDBRANCH   9  10
ENDBRANCH   8   9
ENDBRANCH   7   8
BRANCH   4  12
ATOM     12  C   UNL     1      -0.163   0.047   0.330  1.00  0.00     0.199 C 
BRANCH  12  13
ATOM     13  N   UNL     1      -1.040  -0.780  -0.134  1.00  0.00    -0.203 NA
BRANCH  13  14
ATOM     14  C   UNL     1      -2.261  -0.727   0.494  1.00  0.00     0.229 C 
ATOM     15  N   UNL     1      -2.464  -1.717   1.417  1.00  0.00    -0.324 N 
ATOM     16  H   UNL     1      -1.714  -2.392   1.428  1.00  0.00     0.170 HD
BRANCH  14  17
ATOM     17  N   UNL     1      -3.124   0.197   0.188  1.00  0.00    -0.213 NA
BRANCH  17  18
ATOM     18  C   UNL     1      -2.854   1.146  -0.808  1.00  0.00     0.067 A 
ATOM     19  C   UNL     1      -2.679   2.485  -0.449  1.00  0.00     0.028 A 
ATOM     20  C   UNL     1      -2.812   0.796  -2.161  1.00  0.00     0.028 A 
ATOM     21  C   UNL     1      -2.431   3.456  -1.421  1.00  0.00     0.002 A 
ATOM     22  C   UNL     1      -2.565   1.763  -3.138  1.00  0.00     0.002 A 
ATOM     23  C   UNL     1      -2.370   3.093  -2.766  1.00  0.00     0.000 A 
ENDBRANCH  17  18
ENDBRANCH  14  17
BRANCH  15  24
ATOM     24  C   UNL     1      -3.570  -2.024   2.222  1.00  0.00     0.041 A 
ATOM     25  C   UNL     1      -3.501  -3.163   3.044  1.00  0.00     0.026 A 
ATOM     26  C   UNL     1      -4.736  -1.253   2.288  1.00  0.00     0.026 A 
ATOM     27  C   UNL     1      -4.558  -3.525   3.885  1.00  0.00     0.002 A 
ATOM     28  C   UNL     1      -5.798  -1.611   3.128  1.00  0.00     0.002 A 
ATOM     29  C   UNL     1      -5.709  -2.747   3.926  1.00  0.00     0.000 A 
ENDBRANCH  15  24
ENDBRANCH  13  14
ENDBRANCH  12  13
ENDBRANCH   4  12
TORSDOF 9
