REMARK SMILES O=S(=O)(Nc1ccccc1Cl)[C@H](O)c1cccc2[nH]ccc12
REMARK SMILES IDX 1 1 2 2 3 3 4 4 5 6 6 7 10 8 7 9 9 10 8 11 11 12 12 13 13 14
REMARK SMILES IDX 14 16 15 17 22 18 16 19 21 20 18 21 17 22 20 23 19 24
REMARK H PARENT 4 5 13 15 19 25
ROOT
ATOM      1  O   UNL     1      -0.156   2.543   0.456  1.00  0.00    -0.203 OA
ATOM      2  S   UNL     1       0.553   1.315   0.759  1.00  0.00     0.264 S 
ATOM      3  O   UNL     1       0.701   0.867   2.130  1.00  0.00    -0.203 OA
ENDROOT
BRANCH   2   4
ATOM      4  N   UNL     1       2.105   1.552   0.092  1.00  0.00    -0.280 N 
ATOM      5  H   UNL     1       2.007   1.960  -0.843  1.00  0.00     0.180 HD
BRANCH   4   6
ATOM      6  C   UNL     1       3.066   0.485   0.161  1.00  0.00     0.067 A 
ATOM      7  C   UNL     1       3.469  -0.036   1.392  1.00  0.00     0.028 A 
ATOM      8  C   UNL     1       3.665  -0.003  -1.013  1.00  0.00     0.065 A 
ATOM      9  C   UNL     1       4.413  -1.066   1.450  1.00  0.00     0.002 A 
ATOM     10  C   UNL     1       4.608  -1.033  -0.955  1.00  0.00     0.023 A 
ATOM     11  C   UNL     1       4.976  -1.569   0.279  1.00  0.00     0.002 A 
ATOM     12  Cl  UNL     1       3.267   0.656  -2.560  1.00  0.00    -0.082 Cl
ENDBRANCH   4   6
ENDBRANCH   2   4
BRANCH   2  13
ATOM     13  C   UNL     1      -0.102  -0.068  -0.283  1.00  0.00     0.285 C 
BRANCH  13  14
ATOM     14  O   UNL     1       0.021   0.117  -1.708  1.00  0.00    -0.372 OA
ATOM     15  H   UNL     1      -0.845  -0.094  -2.098  1.00  0.00     0.212 HD
ENDBRANCH  13  14
BRANCH  13  16
ATOM     16  C   UNL     1      -1.534  -0.343   0.142  1.00  0.00     0.007 A 
ATOM     17  C   UNL     1      -1.786  -1.433   1.009  1.00  0.00     0.008 A 
ATOM     18  C   UNL     1      -2.653   0.424  -0.279  1.00  0.00     0.006 A 
ATOM     19  C   UNL     1      -3.073  -1.759   1.430  1.00  0.00     0.003 A 
ATOM     20  C   UNL     1      -2.816   1.572  -1.111  1.00  0.00     0.028 A 
ATOM     21  C   UNL     1      -3.931   0.067   0.157  1.00  0.00     0.046 A 
ATOM     22  C   UNL     1      -4.173  -1.015   1.007  1.00  0.00     0.027 A 
ATOM     23  C   UNL     1      -4.156   1.874  -1.168  1.00  0.00     0.083 A 
ATOM     24  N   UNL     1      -4.820   0.963  -0.395  1.00  0.00    -0.361 N 
ATOM     25  H   UNL     1      -5.819   0.950  -0.236  1.00  0.00     0.166 HD
ENDBRANCH  13  16
ENDBRANCH   2  13
TORSDOF 5
