MODEL        7USER    Run = 7USERUSER    Estimated Free Energy of Binding    =  -7.51 kcal/mol  [=(1)+(2)+(3)-(4)]USERUSER    (1) Final Intermolecular Energy     = -10.50 kcal/molUSER        vdW + Hbond + desolv Energy     = -10.02 kcal/molUSER        Electrostatic Energy            =  -0.48 kcal/molUSER        Moving Ligand-Fixed Receptor    = -10.50 kcal/molUSER        Moving Ligand-Moving Receptor   =  +0.00 kcal/molUSER    (2) Final Total Internal Energy     =  -1.89 kcal/molUSER    (3) Torsional Free Energy           =  +2.98 kcal/molUSER    (4) Unbound System's Energy         =  -1.89 kcal/molUSERUSERREMARK SMILES O=C(O)CCC[C@@H](CO)c1ccc(O)c(O)c1IREMARK SMILES IDX 5 1 4 2 2 3 1 4 3 5 6 7 7 8 8 9 9 10 10 12 11 13 17 14 12 15REMARK SMILES IDX 15 16 13 17 18 18 16 19 14 21REMARK H PARENT 3 6 9 11 16 20 14 22USER                              x       y       z     vdW  Elec       q    TypeUSER                           _______ _______ _______ _____ _____    ______ ____ROOTATOM      1  C   UNL     1      36.979  45.429  13.879 -0.50 -0.00    +0.012 C  ENDROOTBRANCH   1   2ATOM      2  C   UNL     1      36.091  46.117  12.844 -0.53 -0.06    +0.122 C  BRANCH   2   3ATOM      3  C   UNL     1      36.701  47.382  12.302 -0.48 -0.12    +0.303 C  ATOM      4  O   UNL     1      36.532  48.504  12.753 -0.93 +0.10    -0.252 OA BRANCH   3   5ATOM      5  O   UNL     1      37.555  47.181  11.283 -0.68 +0.08    -0.481 OA ATOM      6  H   UNL     1      37.298  47.860  10.624 -0.17 -0.13    +0.296 HD ENDBRANCH   3   5ENDBRANCH   2   3ENDBRANCH   1   2BRANCH   1   7ATOM      7  C   UNL     1      36.288  45.207  15.231 -0.41 -0.01    +0.011 C  BRANCH   7   8ATOM      8  C   UNL     1      36.378  46.376  16.240 -0.40 -0.03    +0.046 C  BRANCH   8   9ATOM      9  C   UNL     1      35.741  46.081  17.612 -0.29 -0.10    +0.164 C  BRANCH   9  10ATOM     10  O   UNL     1      34.744  47.054  17.923 -0.43 +0.44    -0.396 OA ATOM     11  H   UNL     1      34.321  47.320  17.088 -0.28 -0.52    +0.210 HD ENDBRANCH   9  10ENDBRANCH   8   9BRANCH   8  12ATOM     12  C   UNL     1      37.801  46.942  16.325 -0.37 +0.01    -0.025 A  ATOM     13  C   UNL     1      38.052  48.080  15.513 -0.48 -0.01    +0.009 A  ATOM     14  C   UNL     1      38.871  46.447  17.105 -0.38 -0.02    +0.062 A  ATOM     15  C   UNL     1      39.296  48.710  15.478 -0.48 -0.02    +0.050 A  ATOM     16  C   UNL     1      40.121  47.093  17.061 -0.37 -0.03    +0.171 A  ATOM     17  C   UNL     1      40.320  48.210  16.256 -0.42 -0.04    +0.158 A  ATOM     18  I   UNL     1      38.740  44.754  18.366 -0.93 +0.00    -0.040 I  BRANCH  16  19ATOM     19  O   UNL     1      41.215  46.682  17.786 -0.18 +0.04    -0.504 OA ATOM     20  H   UNL     1      42.005  46.975  17.296 -0.29 -0.07    +0.293 HD ENDBRANCH  16  19BRANCH  17  21ATOM     21  O   UNL     1      41.539  48.824  16.225 -0.72 -0.02    -0.504 OA ATOM     22  H   UNL     1      42.175  48.126  16.482 -0.30 +0.01    +0.293 HD ENDBRANCH  17  21ENDBRANCH   8  12ENDBRANCH   7   8ENDBRANCH   1   7TORSDOF 10TERENDMDL