REMARK SMILES O=C(O)CCC[C@@H](CO)c1ccc(O)c(O)c1I
REMARK SMILES IDX 5 1 4 2 2 3 1 4 3 5 6 7 7 8 8 9 9 10 10 12 11 13 17 14 12 15
REMARK SMILES IDX 15 16 13 17 18 18 16 19 14 21
REMARK H PARENT 3 6 9 11 16 20 14 22
ROOT
ATOM      1  C   UNL     1      -2.345   0.997   0.202  1.00  0.00     0.012 C 
ENDROOT
BRANCH   1   2
ATOM      2  C   UNL     1      -3.131  -0.291   0.442  1.00  0.00     0.122 C 
BRANCH   2   3
ATOM      3  C   UNL     1      -4.597  -0.145   0.132  1.00  0.00     0.303 C 
ATOM      4  O   UNL     1      -5.287  -0.967  -0.449  1.00  0.00    -0.252 OA
BRANCH   3   5
ATOM      5  O   UNL     1      -5.150   0.974   0.633  1.00  0.00    -0.481 OA
ATOM      6  H   UNL     1      -6.093   0.906   0.373  1.00  0.00     0.296 HD
ENDBRANCH   3   5
ENDBRANCH   2   3
ENDBRANCH   1   2
BRANCH   1   7
ATOM      7  C   UNL     1      -0.842   0.860   0.481  1.00  0.00     0.011 C 
BRANCH   7   8
ATOM      8  C   UNL     1      -0.060  -0.085  -0.462  1.00  0.00     0.046 C 
BRANCH   8   9
ATOM      9  C   UNL     1      -0.188   0.263  -1.957  1.00  0.00     0.164 C 
BRANCH   9  10
ATOM     10  O   UNL     1      -1.371  -0.315  -2.509  1.00  0.00    -0.396 OA
ATOM     11  H   UNL     1      -1.220  -1.273  -2.591  1.00  0.00     0.210 HD
ENDBRANCH   9  10
ENDBRANCH   8   9
BRANCH   8  12
ATOM     12  C   UNL     1       1.386  -0.284   0.008  1.00  0.00    -0.025 A 
ATOM     13  C   UNL     1       1.667  -1.547   0.593  1.00  0.00     0.009 A 
ATOM     14  C   UNL     1       2.444   0.651  -0.069  1.00  0.00     0.062 A 
ATOM     15  C   UNL     1       2.935  -1.881   1.070  1.00  0.00     0.050 A 
ATOM     16  C   UNL     1       3.719   0.300   0.416  1.00  0.00     0.171 A 
ATOM     17  C   UNL     1       3.951  -0.953   0.975  1.00  0.00     0.158 A 
ATOM     18  I   UNL     1       2.256   2.598  -0.872  1.00  0.00    -0.040 I 
BRANCH  16  19
ATOM     19  O   UNL     1       4.804   1.144   0.380  1.00  0.00    -0.504 OA
ATOM     20  H   UNL     1       4.499   1.979  -0.022  1.00  0.00     0.293 HD
ENDBRANCH  16  19
BRANCH  17  21
ATOM     21  O   UNL     1       5.193  -1.276   1.440  1.00  0.00    -0.504 OA
ATOM     22  H   UNL     1       5.735  -0.479   1.274  1.00  0.00     0.293 HD
ENDBRANCH  17  21
ENDBRANCH   8  12
ENDBRANCH   7   8
ENDBRANCH   1   7
TORSDOF 10
