MODEL        3USER    Run = 3USERUSER    Estimated Free Energy of Binding    =  -7.50 kcal/mol  [=(1)+(2)+(3)-(4)]USERUSER    (1) Final Intermolecular Energy     =  -9.89 kcal/molUSER        vdW + Hbond + desolv Energy     = -10.33 kcal/molUSER        Electrostatic Energy            =  +0.03 kcal/molUSER        Moving Ligand-Fixed Receptor    = -10.30 kcal/molUSER        Moving Ligand-Moving Receptor   =  +0.41 kcal/molUSER    (2) Final Total Internal Energy     =  -1.03 kcal/molUSER    (3) Torsional Free Energy           =  +2.39 kcal/molUSER    (4) Unbound System's Energy         =  -1.03 kcal/molUSERUSERREMARK SMILES O=C1CCCCc2cc(NS(=O)(=O)c3ccc4c(c3)OCO4)ccc21REMARK SMILES IDX 7 1 8 2 9 3 23 4 24 5 25 6 2 7 1 8 3 9 6 11 5 12 4 13 10 15REMARK SMILES IDX 11 17 12 18 13 19 14 20 15 21 19 22 16 23 18 24 17 25 20 26REMARK SMILES IDX 22 27 21 28REMARK H PARENT 10 16REMARK Flexibility Score:   71.900USER                              x       y       z     vdW  Elec       q    TypeUSER                           _______ _______ _______ _____ _____    ______ ____ROOTATOM      1  C   UNL     1      28.960  37.455  20.721 -0.29 +0.00    -0.035 A  ATOM      2  C   UNL     1      27.946  36.547  21.076 -0.31 -0.01    +0.031 A  ATOM      3  C   UNL     1      28.133  35.648  22.127 -0.33 -0.01    +0.049 A  ATOM      4  C   UNL     1      29.329  35.634  22.837 -0.35 +0.00    +0.027 A  ATOM      5  C   UNL     1      30.344  36.529  22.495 -0.39 +0.00    +0.014 A  ATOM      6  C   UNL     1      30.174  37.430  21.433 -0.39 +0.00    +0.021 A  ENDROOTBRANCH   6   7ATOM      7  C   UNL     1      31.320  38.332  21.119 -0.44 +0.02    +0.163 C  ATOM      8  O   UNL     1      32.041  38.708  22.044 -0.84 -0.05    -0.294 OA BRANCH   7   9ATOM      9  C   UNL     1      31.596  38.784  19.694 -0.45 +0.02    +0.081 CG0ATOM     10  G   UNL     1      31.012  37.895  18.604 +0.00 +0.00    +0.000 G0 ENDBRANCH   7   9ENDBRANCH   6   7BRANCH   1  11ATOM     11  C   UNL     1      28.710  38.435  19.607 -0.33 +0.00    +0.036 C  BRANCH  11  12ATOM     12  C   UNL     1      29.525  38.127  18.355 -0.32 +0.00    +0.005 C  BRANCH  12  13ATOM     13  C   UNL     1      31.016  37.890  18.605 -0.50 +0.00    +0.009 CG0ATOM     14  G   UNL     1      31.596  38.782  19.695 +0.00 +0.00    +0.000 G0 ENDBRANCH  12  13ENDBRANCH  11  12ENDBRANCH   1  11BRANCH   3  15ATOM     15  N   UNL     1      27.120  34.705  22.441 -0.19 +0.10    -0.280 N  ATOM     16  H   UNL     1      26.184  35.060  22.635 -0.46 -0.19    +0.180 HD BRANCH  15  17ATOM     17  S   UNL     1      27.041  33.293  21.513 -0.38 -0.18    +0.262 S  ATOM     18  O   UNL     1      25.716  32.748  21.721 -0.16 +0.23    -0.201 OA ATOM     19  O   UNL     1      27.534  33.566  20.180 -0.29 +0.15    -0.201 OA BRANCH  17  20ATOM     20  C   UNL     1      28.189  32.222  22.343 -0.38 -0.01    +0.091 A  ATOM     21  C   UNL     1      27.927  31.808  23.665 -0.43 +0.01    +0.026 A  ATOM     22  C   UNL     1      29.353  31.829  21.672 -0.23 -0.02    +0.072 A  ATOM     23  C   UNL     1      28.829  30.969  24.324 -0.46 +0.03    +0.052 A  ATOM     24  C   UNL     1      30.218  31.003  22.354 -0.38 -0.01    +0.167 A  ATOM     25  C   UNL     1      29.964  30.584  23.641 -0.42 +0.03    +0.165 A  ATOM     26  O   UNL     1      31.389  30.509  21.871 -0.55 +0.02    -0.454 OA ATOM     27  O   UNL     1      30.944  29.775  24.125 -0.80 -0.16    -0.454 OA ATOM     28  C   UNL     1      31.849  29.739  23.002 -0.24 +0.03    +0.468 C  ENDBRANCH  17  20ENDBRANCH  15  17ENDBRANCH   3  15TORSDOF 3TERENDMDL