REMARK SMILES CC(=O)N[C@H]1CN(C(=O)[C@H]2CCN(c3ccc(C(=O)Nc4cccc(N5CCOCC5)c4)cc3)CN2)C[C@H]1C
REMARK SMILES IDX 10 1 11 2 12 3 13 4 35 5 36 6 8 8 9 9 7 10 5 11 6 12 38 13
REMARK SMILES IDX 37 14 39 15 4 16 2 17 1 18 3 19 14 21 15 22 34 23 16 24
REMARK SMILES IDX 33 25 17 26 18 27 20 28 19 29 21 31 22 32 32 33 23 34 25 35
REMARK SMILES IDX 24 36 26 37 27 38 31 39 28 40 30 41 29 42
REMARK H PARENT 36 7 4 20 20 30
ROOT
ATOM      1  C   UNL     1      -4.238  -1.251  -0.471  1.00  0.00     0.147 C 
ATOM      2  C   UNL     1      -3.421   0.023  -0.719  1.00  0.00     0.050 C 
ATOM      3  C   UNL     1      -2.256   0.125   0.264  1.00  0.00     0.120 C 
ATOM      4  N   UNL     1      -1.385  -1.039   0.106  1.00  0.00    -0.359 N 
ATOM      5  C   UNL     1      -2.039  -2.259  -0.342  1.00  0.00     0.202 C 
ATOM      6  N   UNL     1      -3.450  -2.424  -0.027  1.00  0.00    -0.289 NA
ATOM      7  H   UNL     1      -3.510  -2.454   0.997  1.00  0.00     0.125 HD
ENDROOT
BRANCH   1   8
ATOM      8  C   UNL     1      -5.324  -0.957   0.592  1.00  0.00     0.239 C 
ATOM      9  O   UNL     1      -5.144  -1.259   1.777  1.00  0.00    -0.273 OA
BRANCH   8  10
ATOM     10  N   UNL     1      -6.475  -0.315   0.185  1.00  0.00    -0.339 N 
ATOM     11  C   UNL     1      -8.547   0.833   0.345  1.00  0.00     0.106 C 
ATOM     12  C   UNL     1      -7.489   0.071   1.157  1.00  0.00     0.144 C 
ATOM     13  C   UNL     1      -8.398   0.253  -1.075  1.00  0.00     0.030 C 
ATOM     14  C   UNL     1      -6.882   0.039  -1.166  1.00  0.00     0.125 C 
ATOM     15  C   UNL     1      -9.143  -1.064  -1.307  1.00  0.00     0.012 C 
BRANCH  11  16
ATOM     16  N   UNL     1      -9.884   0.751   0.901  1.00  0.00    -0.351 N 
ATOM     17  C   UNL     1     -10.231   1.523   1.990  1.00  0.00     0.217 C 
ATOM     18  C   UNL     1     -11.594   1.218   2.549  1.00  0.00     0.114 C 
ATOM     19  O   UNL     1      -9.516   2.406   2.453  1.00  0.00    -0.275 OA
ATOM     20  H   UNL     1     -10.412  -0.101   0.757  1.00  0.00     0.163 HD
ENDBRANCH  11  16
ENDBRANCH   8  10
ENDBRANCH   1   8
BRANCH   4  21
ATOM     21  C   UNL     1      -0.006  -0.900   0.098  1.00  0.00     0.038 A 
ATOM     22  C   UNL     1       0.628   0.108   0.844  1.00  0.00     0.027 A 
ATOM     23  C   UNL     1       0.834  -1.762  -0.627  1.00  0.00     0.027 A 
ATOM     24  C   UNL     1       2.019   0.286   0.832  1.00  0.00     0.016 A 
ATOM     25  C   UNL     1       2.227  -1.593  -0.653  1.00  0.00     0.016 A 
ATOM     26  C   UNL     1       2.822  -0.552   0.058  1.00  0.00     0.040 A 
BRANCH  26  27
ATOM     27  C   UNL     1       4.303  -0.378  -0.025  1.00  0.00     0.255 C 
ATOM     28  N   UNL     1       4.728   0.937   0.015  1.00  0.00    -0.322 N 
ATOM     29  O   UNL     1       5.002  -1.375  -0.167  1.00  0.00    -0.269 OA
ATOM     30  H   UNL     1       4.011   1.651  -0.009  1.00  0.00     0.170 HD
BRANCH  28  31
ATOM     31  C   UNL     1       6.056   1.418  -0.014  1.00  0.00     0.043 A 
ATOM     32  C   UNL     1       6.224   2.803  -0.076  1.00  0.00     0.026 A 
ATOM     33  C   UNL     1       7.192   0.600   0.033  1.00  0.00     0.052 A 
ATOM     34  C   UNL     1       7.502   3.354  -0.094  1.00  0.00     0.004 A 
ATOM     35  C   UNL     1       8.500   1.127  -0.007  1.00  0.00     0.039 A 
ATOM     36  C   UNL     1       8.624   2.523  -0.057  1.00  0.00     0.026 A 
BRANCH  35  37
ATOM     37  N   UNL     1       9.604   0.258   0.042  1.00  0.00    -0.367 N 
ATOM     38  C   UNL     1      10.944   0.840   0.267  1.00  0.00     0.145 C 
ATOM     39  C   UNL     1       9.618  -0.757  -1.042  1.00  0.00     0.145 C 
ATOM     40  C   UNL     1      11.974  -0.276   0.491  1.00  0.00     0.181 C 
ATOM     41  C   UNL     1      10.715  -1.801  -0.777  1.00  0.00     0.181 C 
ATOM     42  O   UNL     1      12.005  -1.190  -0.615  1.00  0.00    -0.378 OA
ENDBRANCH  35  37
ENDBRANCH  28  31
ENDBRANCH  26  27
ENDBRANCH   4  21
TORSDOF 7
