REMARK SMILES O=C1CCCCc2cc(NS(=O)(=O)c3ccc4c(c3)OCO4)ccc21
REMARK SMILES IDX 7 1 8 2 9 3 23 4 24 5 25 6 2 7 1 8 3 9 6 11 5 12 4 13 10 15
REMARK SMILES IDX 11 17 12 18 13 19 14 20 15 21 19 22 16 23 18 24 17 25 20 26
REMARK SMILES IDX 22 27 21 28
REMARK H PARENT 10 16
REMARK Flexibility Score:   71.900
ROOT
ATOM      1  C   UNL     1      -2.567   0.350  -0.904  1.00  0.00    -0.035 A 
ATOM      2  C   UNL     1      -1.576   1.340  -1.021  1.00  0.00     0.031 A 
ATOM      3  C   UNL     1      -0.241   0.989  -1.228  1.00  0.00     0.049 A 
ATOM      4  C   UNL     1       0.129  -0.349  -1.318  1.00  0.00     0.027 A 
ATOM      5  C   UNL     1      -0.844  -1.342  -1.203  1.00  0.00     0.014 A 
ATOM      6  C   UNL     1      -2.188  -1.003  -0.982  1.00  0.00     0.021 A 
ENDROOT
BRANCH   6   7
ATOM      7  C   UNL     1      -3.157  -2.129  -0.845  1.00  0.00     0.163 C 
ATOM      8  O   UNL     1      -2.952  -3.161  -1.485  1.00  0.00    -0.294 OA
BRANCH   7   9
ATOM      9  C   UNL     1      -4.374  -2.012   0.059  1.00  0.00     0.081 CG0
ATOM     10  G   UNL     1      -4.266  -0.969   1.164  1.00  0.00     0.000 G0
ENDBRANCH   7   9
ENDBRANCH   6   7
BRANCH   1  11
ATOM     11  C   UNL     1      -4.002   0.766  -0.718  1.00  0.00     0.036 C 
BRANCH  11  12
ATOM     12  C   UNL     1      -4.529   0.459   0.680  1.00  0.00     0.005 C 
BRANCH  12  13
ATOM     13  C   UNL     1      -4.266  -0.969   1.164  1.00  0.00     0.009 CG0
ATOM     14  G   UNL     1      -4.374  -2.012   0.059  1.00  0.00     0.000 G0
ENDBRANCH  12  13
ENDBRANCH  11  12
ENDBRANCH   1  11
BRANCH   3  15
ATOM     15  N   UNL     1       0.755   1.998  -1.295  1.00  0.00    -0.280 N 
ATOM     16  H   UNL     1       0.584   2.794  -1.909  1.00  0.00     0.180 HD
BRANCH  15  17
ATOM     17  S   UNL     1       1.463   2.505   0.155  1.00  0.00     0.262 S 
ATOM     18  O   UNL     1       2.171   3.730  -0.150  1.00  0.00    -0.201 OA
ATOM     19  O   UNL     1       0.477   2.458   1.213  1.00  0.00    -0.201 OA
BRANCH  17  20
ATOM     20  C   UNL     1       2.682   1.248   0.448  1.00  0.00     0.091 A 
ATOM     21  C   UNL     1       2.460   0.280   1.449  1.00  0.00     0.026 A 
ATOM     22  C   UNL     1       3.859   1.258  -0.309  1.00  0.00     0.072 A 
ATOM     23  C   UNL     1       3.417  -0.709   1.687  1.00  0.00     0.052 A 
ATOM     24  C   UNL     1       4.779   0.268  -0.046  1.00  0.00     0.167 A 
ATOM     25  C   UNL     1       4.565  -0.688   0.922  1.00  0.00     0.165 A 
ATOM     26  O   UNL     1       5.972   0.106  -0.678  1.00  0.00    -0.454 OA
ATOM     27  O   UNL     1       5.597  -1.568   1.017  1.00  0.00    -0.454 OA
ATOM     28  C   UNL     1       6.490  -1.054   0.007  1.00  0.00     0.468 C 
ENDBRANCH  17  20
ENDBRANCH  15  17
ENDBRANCH   3  15
TORSDOF 3
