MODEL        10USER    Run = 10USERUSER    Estimated Free Energy of Binding    =  -8.89 kcal/mol  [=(1)+(2)+(3)-(4)]USERUSER    (1) Final Intermolecular Energy     = -10.38 kcal/molUSER        vdW + Hbond + desolv Energy     = -10.22 kcal/molUSER        Electrostatic Energy            =  -0.16 kcal/molUSER        Moving Ligand-Fixed Receptor    = -10.38 kcal/molUSER        Moving Ligand-Moving Receptor   =  +0.00 kcal/molUSER    (2) Final Total Internal Energy     =  -0.86 kcal/molUSER    (3) Torsional Free Energy           =  +1.49 kcal/molUSER    (4) Unbound System's Energy         =  -0.86 kcal/molUSERUSERREMARK SMILES CCCc1c(N[SH](=O)=O)cccc1-c1cn2ccccc2n1REMARK SMILES IDX 4 1 5 2 10 3 11 4 12 5 13 6 3 7 2 8 1 9 6 10 7 12 8 13 9 14REMARK SMILES IDX 14 16 15 17 22 18 16 19 21 20 17 21 20 22 18 23 19 24REMARK H PARENT 6 11 7 15USER                              x       y       z     vdW  Elec       q    TypeUSER                           _______ _______ _______ _____ _____    ______ ____ROOTATOM      1  C   UNL     1      38.621  47.150  16.299 -0.42 +0.01    -0.014 A  ATOM      2  C   UNL     1      39.749  48.005  16.196 -0.48 -0.02    +0.052 A  ATOM      3  C   UNL     1      40.908  47.724  16.937 -0.50 -0.00    +0.027 A  ATOM      4  C   UNL     1      41.004  46.575  17.715 -0.50 -0.00    +0.003 A  ATOM      5  C   UNL     1      39.920  45.713  17.800 -0.44 -0.00    +0.011 A  ATOM      6  C   UNL     1      38.723  45.990  17.118 -0.40 -0.00    +0.007 A  ENDROOTBRANCH   1   7ATOM      7  C   UNL     1      37.322  47.455  15.568 -0.47 -0.03    +0.038 C  BRANCH   7   8ATOM      8  C   UNL     1      37.230  46.876  14.149 -0.53 -0.00    +0.001 C  ATOM      9  C   UNL     1      36.645  47.827  13.117 -0.70 -0.00    +0.004 C  ENDBRANCH   7   8ENDBRANCH   1   7BRANCH   2  10ATOM     10  N   UNL     1      39.656  49.258  15.494 -0.30 +0.14    -0.285 N  ATOM     11  H   UNL     1      39.117  49.245  14.631 -0.24 -0.11    +0.179 HD BRANCH  10  12ATOM     12  S   UNL     1      41.057  50.165  15.222 -0.66 -0.07    +0.222 S  ATOM     13  O   UNL     1      41.787  50.281  16.465 -1.00 -0.01    -0.210 OA ATOM     14  O   UNL     1      41.676  49.604  14.041 -0.59 +0.04    -0.210 OA ATOM     15  H   UNL     1      40.672  51.419  14.885 -0.28 -0.12    +0.198 HD ENDBRANCH  10  12ENDBRANCH   2  10BRANCH   6  16ATOM     16  C   UNL     1      37.616  45.067  17.316 -0.30 -0.02    +0.090 A  ATOM     17  C   UNL     1      37.050  44.764  18.538 -0.27 -0.02    +0.121 A  ATOM     18  N   UNL     1      36.995  44.375  16.304 -0.20 +0.08    -0.229 NA ATOM     19  N   UNL     1      36.053  43.863  18.267 -0.12 +0.07    -0.306 N  ATOM     20  C   UNL     1      36.061  43.657  16.891 -0.27 -0.05    +0.137 A  ATOM     21  C   UNL     1      35.165  43.233  19.135 -0.33 -0.01    +0.093 A  ATOM     22  C   UNL     1      35.101  42.747  16.366 -0.40 -0.02    +0.048 A  ATOM     23  C   UNL     1      34.259  42.375  18.635 -0.39 -0.00    +0.018 A  ATOM     24  C   UNL     1      34.237  42.132  17.199 -0.42 -0.00    +0.005 A  ENDBRANCH   6  16TORSDOF 5TERENDMDL