REMARK SMILES CCNC(=O)N(CC)c1cc(C(F)(F)F)cc(I)c1NC=O
REMARK SMILES IDX 6 1 4 2 3 3 5 5 2 6 1 7 7 8 8 9 9 10 10 11 19 12 11 13 17 14
REMARK SMILES IDX 16 15 18 16 20 17 21 18 22 20 12 21 13 22 14 23 15 24
REMARK H PARENT 3 4 20 19
ROOT
ATOM      1  N   UNL     1       0.127   0.658   0.136  1.00  0.00    -0.293 N 
ENDROOT
BRANCH   1   2
ATOM      2  C   UNL     1       1.404   0.153  -0.139  1.00  0.00     0.321 C 
ATOM      3  N   UNL     1       2.423   0.796   0.532  1.00  0.00    -0.338 N 
ATOM      4  H   UNL     1       2.162   1.054   1.474  1.00  0.00     0.165 HD
ATOM      5  O   UNL     1       1.627  -0.772  -0.918  1.00  0.00    -0.248 OA
BRANCH   3   6
ATOM      6  C   UNL     1       3.800   0.382   0.363  1.00  0.00     0.114 C 
ATOM      7  C   UNL     1       4.125  -0.875   1.153  1.00  0.00     0.027 C 
ENDBRANCH   3   6
ENDBRANCH   1   2
BRANCH   1   8
ATOM      8  C   UNL     1      -0.102   2.014   0.659  1.00  0.00     0.124 C 
ATOM      9  C   UNL     1       0.273   3.106  -0.335  1.00  0.00     0.028 C 
ENDBRANCH   1   8
BRANCH   1  10
ATOM     10  C   UNL     1      -1.019  -0.147  -0.180  1.00  0.00     0.071 A 
ATOM     11  C   UNL     1      -2.066   0.448  -0.912  1.00  0.00     0.041 A 
ATOM     12  C   UNL     1      -1.087  -1.531   0.114  1.00  0.00     0.078 A 
ATOM     13  C   UNL     1      -3.130  -0.306  -1.429  1.00  0.00     0.059 A 
ATOM     14  C   UNL     1      -2.123  -2.292  -0.470  1.00  0.00     0.039 A 
ATOM     15  C   UNL     1      -3.132  -1.689  -1.229  1.00  0.00     0.030 A 
ATOM     16  I   UNL     1      -2.278  -4.380  -0.191  1.00  0.00    -0.042 I 
BRANCH  12  17
ATOM     17  N   UNL     1      -0.206  -2.212   0.997  1.00  0.00    -0.326 N 
ATOM     18  C   UNL     1       0.437  -1.706   2.101  1.00  0.00     0.341 C 
ATOM     19  H   UNL     1      -0.220  -3.223   0.925  1.00  0.00     0.169 HD
ATOM     20  O   UNL     1       0.373  -0.591   2.599  1.00  0.00    -0.279 OA
ENDBRANCH  12  17
BRANCH  13  21
ATOM     21  C   UNL     1      -4.209   0.353  -2.251  1.00  0.00     0.416 C 
ATOM     22  F   UNL     1      -3.916   0.361  -3.579  1.00  0.00    -0.166 F 
ATOM     23  F   UNL     1      -5.416  -0.267  -2.136  1.00  0.00    -0.166 F 
ATOM     24  F   UNL     1      -4.425   1.652  -1.904  1.00  0.00    -0.166 F 
ENDBRANCH  13  21
ENDBRANCH   1  10
TORSDOF 6
