REMARK SMILES CCCc1c(N[SH](=O)=O)cccc1-c1cn2ccccc2n1
REMARK SMILES IDX 4 1 5 2 10 3 11 4 12 5 13 6 3 7 2 8 1 9 6 10 7 12 8 13 9 14
REMARK SMILES IDX 14 16 15 17 22 18 16 19 21 20 17 21 20 22 18 23 19 24
REMARK H PARENT 6 11 7 15
ROOT
ATOM      1  C   UNL     1      -1.127  -0.533  -0.137  1.00  0.00    -0.014 A 
ATOM      2  C   UNL     1      -2.432  -1.027   0.120  1.00  0.00     0.052 A 
ATOM      3  C   UNL     1      -2.636  -1.962   1.147  1.00  0.00     0.027 A 
ATOM      4  C   UNL     1      -1.592  -2.360   1.975  1.00  0.00     0.003 A 
ATOM      5  C   UNL     1      -0.315  -1.862   1.755  1.00  0.00     0.011 A 
ATOM      6  C   UNL     1      -0.062  -0.967   0.702  1.00  0.00     0.007 A 
ENDROOT
BRANCH   1   7
ATOM      7  C   UNL     1      -0.850   0.428  -1.284  1.00  0.00     0.038 C 
BRANCH   7   8
ATOM      8  C   UNL     1      -0.932   1.915  -0.912  1.00  0.00     0.001 C 
ATOM      9  C   UNL     1      -2.345   2.437  -0.705  1.00  0.00     0.004 C 
ENDBRANCH   7   8
ENDBRANCH   1   7
BRANCH   2  10
ATOM     10  N   UNL     1      -3.517  -0.729  -0.778  1.00  0.00    -0.285 N 
ATOM     11  H   UNL     1      -3.345   0.013  -1.452  1.00  0.00     0.179 HD
BRANCH  10  12
ATOM     12  S   UNL     1      -5.077  -0.522  -0.159  1.00  0.00     0.222 S 
ATOM     13  O   UNL     1      -5.011   0.356   0.988  1.00  0.00    -0.210 OA
ATOM     14  O   UNL     1      -5.921  -0.210  -1.292  1.00  0.00    -0.210 OA
ATOM     15  H   UNL     1      -5.496  -1.724   0.303  1.00  0.00     0.198 HD
ENDBRANCH  10  12
ENDBRANCH   2  10
BRANCH   6  16
ATOM     16  C   UNL     1       1.317  -0.546   0.504  1.00  0.00     0.090 A 
ATOM     17  C   UNL     1       2.392  -1.402   0.375  1.00  0.00     0.121 A 
ATOM     18  N   UNL     1       1.722   0.764   0.425  1.00  0.00    -0.229 NA
ATOM     19  N   UNL     1       3.487  -0.593   0.210  1.00  0.00    -0.306 N 
ATOM     20  C   UNL     1       3.026   0.719   0.249  1.00  0.00     0.137 A 
ATOM     21  C   UNL     1       4.825  -0.934   0.031  1.00  0.00     0.093 A 
ATOM     22  C   UNL     1       3.994   1.751   0.098  1.00  0.00     0.048 A 
ATOM     23  C   UNL     1       5.736   0.044  -0.112  1.00  0.00     0.018 A 
ATOM     24  C   UNL     1       5.292   1.430  -0.075  1.00  0.00     0.005 A 
ENDBRANCH   6  16
TORSDOF 5
