MODEL        7USER    Run = 7USERUSER    Estimated Free Energy of Binding    =  -6.71 kcal/mol  [=(1)+(2)+(3)-(4)]USERUSER    (1) Final Intermolecular Energy     =  -8.50 kcal/molUSER        vdW + Hbond + desolv Energy     =  -8.33 kcal/molUSER        Electrostatic Energy            =  -0.17 kcal/molUSER        Moving Ligand-Fixed Receptor    =  -8.50 kcal/molUSER        Moving Ligand-Moving Receptor   =  +0.00 kcal/molUSER    (2) Final Total Internal Energy     =  -1.76 kcal/molUSER    (3) Torsional Free Energy           =  +1.79 kcal/molUSER    (4) Unbound System's Energy         =  -1.76 kcal/molUSERUSERREMARK SMILES CCNC(=O)N(CC)c1cc(C(F)(F)F)cc(I)c1NC=OREMARK SMILES IDX 6 1 4 2 3 3 5 5 2 6 1 7 7 8 8 9 9 10 10 11 19 12 11 13 17 14REMARK SMILES IDX 16 15 18 16 20 17 21 18 22 20 12 21 13 22 14 23 15 24REMARK H PARENT 3 4 20 19USER                              x       y       z     vdW  Elec       q    TypeUSER                           _______ _______ _______ _____ _____    ______ ____ROOTATOM      1  N   UNL     1      36.615  45.972  16.326 -0.16 +0.17    -0.293 N  ENDROOTBRANCH   1   2ATOM      2  C   UNL     1      36.514  45.055  15.272 -0.20 -0.14    +0.321 C  ATOM      3  N   UNL     1      36.953  45.537  14.057 -0.17 +0.14    -0.338 N  ATOM      4  H   UNL     1      37.767  46.130  14.149 +0.13 -0.06    +0.165 HD ATOM      5  O   UNL     1      36.063  43.917  15.390 -0.30 +0.09    -0.248 OA BRANCH   3   6ATOM      6  C   UNL     1      36.925  44.704  12.874 -0.43 -0.04    +0.114 C  ATOM      7  C   UNL     1      36.916  45.523  11.593 -0.56 -0.01    +0.027 C  ENDBRANCH   3   6ENDBRANCH   1   2BRANCH   1   8ATOM      8  C   UNL     1      35.460  46.394  17.133 -0.32 -0.11    +0.124 C  ATOM      9  C   UNL     1      35.103  45.396  18.227 -0.43 -0.01    +0.028 C  ENDBRANCH   1   8BRANCH   1  10ATOM     10  C   UNL     1      37.913  46.466  16.692 -0.33 -0.03    +0.071 A  ATOM     11  C   UNL     1      38.658  45.734  17.638 -0.38 -0.01    +0.041 A  ATOM     12  C   UNL     1      38.512  47.585  16.062 -0.38 -0.04    +0.078 A  ATOM     13  C   UNL     1      40.001  46.030  17.912 -0.42 -0.01    +0.059 A  ATOM     14  C   UNL     1      39.883  47.830  16.292 -0.49 -0.01    +0.039 A  ATOM     15  C   UNL     1      40.618  47.066  17.205 -0.50 -0.00    +0.030 A  ATOM     16  I   UNL     1      40.918  49.405  15.337 -1.50 +0.01    -0.042 I  BRANCH  12  17ATOM     17  N   UNL     1      37.819  48.515  15.241 -0.27 +0.24    -0.326 N  ATOM     18  C   UNL     1      37.724  48.520  13.870 -0.29 -0.16    +0.341 C  ATOM     19  H   UNL     1      37.158  49.110  15.727 +0.07 -0.20    +0.169 HD ATOM     20  O   UNL     1      38.164  47.723  13.054 -0.78 +0.04    -0.279 OA ENDBRANCH  12  17BRANCH  13  21ATOM     21  C   UNL     1      40.786  45.196  18.894 -0.21 +0.01    +0.416 C  ATOM     22  F   UNL     1      42.003  45.735  19.174 -0.14 -0.03    -0.166 F  ATOM     23  F   UNL     1      40.154  45.053  20.091 -0.12 -0.00    -0.166 F  ATOM     24  F   UNL     1      41.026  43.932  18.447 -0.14 -0.01    -0.166 F  ENDBRANCH  13  21ENDBRANCH   1  10TORSDOF 6TERENDMDL