MODEL        10USER    Run = 10USERUSER    Estimated Free Energy of Binding    = -10.44 kcal/mol  [=(1)+(2)+(3)-(4)]USERUSER    (1) Final Intermolecular Energy     = -12.53 kcal/molUSER        vdW + Hbond + desolv Energy     = -12.46 kcal/molUSER        Electrostatic Energy            =  -0.06 kcal/molUSER        Moving Ligand-Fixed Receptor    = -12.53 kcal/molUSER        Moving Ligand-Moving Receptor   =  +0.00 kcal/molUSER    (2) Final Total Internal Energy     =  -1.82 kcal/molUSER    (3) Torsional Free Energy           =  +2.09 kcal/molUSER    (4) Unbound System's Energy         =  -1.82 kcal/molUSERUSERREMARK SMILES CC(=O)N[C@H]1CN(C(=O)[C@H]2CCN(c3ccc(C(=O)Nc4cccc(N5CCOCC5)c4)cc3)CN2)C[C@H]1CREMARK SMILES IDX 10 1 11 2 12 3 13 4 35 5 36 6 8 8 9 9 7 10 5 11 6 12 38 13REMARK SMILES IDX 37 14 39 15 4 16 2 17 1 18 3 19 14 21 15 22 34 23 16 24REMARK SMILES IDX 33 25 17 26 18 27 20 28 19 29 21 31 22 32 32 33 23 34 25 35REMARK SMILES IDX 24 36 26 37 27 38 31 39 28 40 30 41 29 42REMARK H PARENT 36 7 4 20 20 30USER                              x       y       z     vdW  Elec       q    TypeUSER                           _______ _______ _______ _____ _____    ______ ____ROOTATOM      1  C   UNL     1      41.693  45.789  18.881 -0.38 +0.01    +0.147 C  ATOM      2  C   UNL     1      41.139  44.799  19.914 -0.40 +0.00    +0.050 C  ATOM      3  C   UNL     1      39.736  45.204  20.360 -0.35 +0.00    +0.120 C  ATOM      4  N   UNL     1      38.847  45.231  19.200 -0.18 +0.03    -0.359 N  ATOM      5  C   UNL     1      39.479  45.549  17.929 -0.35 -0.03    +0.202 C  ATOM      6  N   UNL     1      40.686  46.362  17.959 -0.28 +0.02    -0.289 NA ATOM      7  H   UNL     1      40.406  47.269  18.348 +0.05 -0.01    +0.125 HD ENDROOTBRANCH   1   8ATOM      8  C   UNL     1      42.400  46.951  19.621 -0.37 +0.04    +0.239 C  ATOM      9  O   UNL     1      42.564  48.043  19.067 -0.45 -0.00    -0.273 OA BRANCH   8  10ATOM     10  N   UNL     1      42.801  46.742  20.925 -0.19 -0.09    -0.339 N  ATOM     11  C   UNL     1      42.655  46.575  23.288 -0.18 +0.02    +0.106 C  ATOM     12  C   UNL     1      41.893  47.018  22.030 -0.16 +0.02    +0.144 C  ATOM     13  C   UNL     1      44.135  46.714  22.881 -0.25 +0.01    +0.030 C  ATOM     14  C   UNL     1      44.094  46.285  21.409 -0.10 +0.10    +0.125 C  ATOM     15  C   UNL     1      44.702  48.129  23.014 -0.28 +0.00    +0.012 C  BRANCH  11  16ATOM     16  N   UNL     1      42.280  47.302  24.486 -0.04 -0.04    -0.351 N  ATOM     17  C   UNL     1      42.130  48.672  24.448 -0.30 +0.04    +0.217 C  ATOM     18  C   UNL     1      41.894  49.301  25.794 -0.25 +0.01    +0.114 C  ATOM     19  O   UNL     1      42.152  49.330  23.413 -0.91 -0.10    -0.275 OA ATOM     20  H   UNL     1      42.500  46.890  25.385 +0.05 +0.01    +0.163 HD ENDBRANCH  11  16ENDBRANCH   8  10ENDBRANCH   1   8BRANCH   4  21ATOM     21  C   UNL     1      37.568  44.702  19.271 -0.32 -0.00    +0.038 A  ATOM     22  C   UNL     1      37.111  44.056  20.432 -0.38 -0.00    +0.027 A  ATOM     23  C   UNL     1      36.652  44.798  18.210 -0.32 -0.01    +0.027 A  ATOM     24  C   UNL     1      35.831  43.489  20.520 -0.41 -0.00    +0.016 A  ATOM     25  C   UNL     1      35.370  44.232  18.281 -0.32 -0.00    +0.016 A  ATOM     26  C   UNL     1      34.964  43.553  19.429 -0.38 -0.01    +0.040 A  BRANCH  26  27ATOM     27  C   UNL     1      33.608  42.928  19.455 -0.29 -0.00    +0.255 C  ATOM     28  N   UNL     1      33.458  41.852  18.600 -0.19 +0.05    -0.322 N  ATOM     29  O   UNL     1      32.747  43.428  20.169 -0.90 -0.03    -0.269 OA ATOM     30  H   UNL     1      34.227  41.655  17.972 +0.04 -0.05    +0.170 HD BRANCH  28  31ATOM     31  C   UNL     1      32.314  41.042  18.421 -0.38 -0.01    +0.043 A  ATOM     32  C   UNL     1      31.531  41.298  17.294 -0.28 -0.01    +0.026 A  ATOM     33  C   UNL     1      31.939  40.006  19.285 -0.26 +0.01    +0.052 A  ATOM     34  C   UNL     1      30.395  40.534  17.041 -0.36 -0.00    +0.004 A  ATOM     35  C   UNL     1      30.781  39.229  19.069 -0.36 +0.00    +0.039 A  ATOM     36  C   UNL     1      30.029  39.511  17.919 -0.34 +0.00    +0.026 A  BRANCH  35  37ATOM     37  N   UNL     1      30.452  38.202  19.971 -0.15 -0.06    -0.367 N  ATOM     38  C   UNL     1      29.022  37.915  20.214 -0.28 +0.01    +0.145 C  ATOM     39  C   UNL     1      31.230  38.240  21.235 -0.46 +0.02    +0.145 C  ATOM     40  C   UNL     1      28.875  36.642  21.059 -0.25 -0.02    +0.181 C  ATOM     41  C   UNL     1      30.981  36.961  22.050 -0.38 +0.01    +0.181 C  ATOM     42  O   UNL     1      29.582  36.753  22.303 -0.18 -0.01    -0.378 OA ENDBRANCH  35  37ENDBRANCH  28  31ENDBRANCH  26  27ENDBRANCH   4  21TORSDOF 7TERENDMDL