
     RDKit          3D

 38 40  0  0  0  0  0  0  0  0999 V2000
    6.8084    0.3005   -1.0902 C   0  0  0  0  0  0  0  0  0  0  0  0
    5.4678   -0.2838   -0.7554 C   0  0  0  0  0  0  0  0  0  0  0  0
    5.1866   -1.6241   -1.0366 C   0  0  0  0  0  0  0  0  0  0  0  0
    3.9557   -2.1746   -0.6817 C   0  0  0  0  0  0  0  0  0  0  0  0
    2.9939   -1.3904   -0.0408 C   0  0  0  0  0  0  0  0  0  0  0  0
    3.2509   -0.0438    0.2470 C   0  0  0  0  0  0  0  0  0  0  0  0
    2.2743    0.8084    0.9211 C   0  0  0  0  0  0  0  0  0  0  0  0
    2.5466    1.7470    1.8265 N   0  0  0  0  0  0  0  0  0  0  0  0
    1.3630    2.3513    2.2342 N   0  0  0  0  0  0  0  0  0  0  0  0
    0.4236    1.7730    1.5464 C   0  0  0  0  0  0  0  0  0  0  0  0
   -1.2952    1.9311    1.4081 S   0  0  0  0  0  0  0  0  0  0  0  0
   -1.2558    0.6796    0.1624 C   0  0  0  0  0  0  0  0  0  0  0  0
   -2.4762    0.1998   -0.5340 C   0  0  0  0  0  0  0  0  0  0  0  0
   -2.4145   -0.7153   -1.3487 O   0  0  0  0  0  0  0  0  0  0  0  0
   -3.6379    0.8408   -0.1900 N   0  0  0  0  0  0  0  0  0  0  0  0
   -4.9240    0.4897   -0.7587 C   0  0  0  0  0  0  0  0  0  0  0  0
   -5.5436   -0.7482   -0.1123 C   0  0  0  0  0  0  0  0  0  0  0  0
   -5.8674   -0.5608    1.3640 C   0  0  0  0  0  0  0  0  0  0  0  0
   -6.7769    0.5181    1.5302 O   0  0  0  0  0  0  0  0  0  0  0  0
   -0.0214    0.2066   -0.0884 C   0  0  0  0  0  0  0  0  0  0  0  0
    0.9179    0.8246    0.7054 N   0  0  0  0  0  0  0  0  0  0  0  0
    4.5015    0.4917   -0.0986 C   0  0  0  0  0  0  0  0  0  0  0  0
    7.4935    0.1726   -0.2466 H   0  0  0  0  0  0  0  0  0  0  0  0
    7.2380   -0.1867   -1.9719 H   0  0  0  0  0  0  0  0  0  0  0  0
    6.7225    1.3679   -1.3192 H   0  0  0  0  0  0  0  0  0  0  0  0
    5.9297   -2.2505   -1.5257 H   0  0  0  0  0  0  0  0  0  0  0  0
    3.7507   -3.2212   -0.8939 H   0  0  0  0  0  0  0  0  0  0  0  0
    2.0588   -1.8605    0.2520 H   0  0  0  0  0  0  0  0  0  0  0  0
   -3.6114    1.5745    0.5091 H   0  0  0  0  0  0  0  0  0  0  0  0
   -5.5775    1.3618   -0.6534 H   0  0  0  0  0  0  0  0  0  0  0  0
   -4.7856    0.3060   -1.8302 H   0  0  0  0  0  0  0  0  0  0  0  0
   -6.4713   -0.9774   -0.6507 H   0  0  0  0  0  0  0  0  0  0  0  0
   -4.8763   -1.6100   -0.2263 H   0  0  0  0  0  0  0  0  0  0  0  0
   -6.3333   -1.4690    1.7599 H   0  0  0  0  0  0  0  0  0  0  0  0
   -4.9651   -0.3522    1.9472 H   0  0  0  0  0  0  0  0  0  0  0  0
   -7.0230    0.5411    2.4716 H   0  0  0  0  0  0  0  0  0  0  0  0
    0.2480   -0.5477   -0.8119 H   0  0  0  0  0  0  0  0  0  0  0  0
    4.7250    1.5301    0.1474 H   0  0  0  0  0  0  0  0  0  0  0  0
  1  2  1  0
  2  3  2  0
  3  4  1  0
  4  5  2  0
  5  6  1  0
  6  7  1  0
  7  8  2  0
  8  9  1  0
  9 10  2  0
 10 11  1  0
 11 12  1  0
 12 13  1  0
 13 14  2  0
 13 15  1  0
 15 16  1  0
 16 17  1  0
 17 18  1  0
 18 19  1  0
 12 20  2  0
 20 21  1  0
  6 22  2  0
 22  2  1  0
 21  7  1  0
 21 10  1  0
  1 23  1  0
  1 24  1  0
  1 25  1  0
  3 26  1  0
  4 27  1  0
  5 28  1  0
 15 29  1  0
 16 30  1  0
 16 31  1  0
 17 32  1  0
 17 33  1  0
 18 34  1  0
 18 35  1  0
 19 36  1  0
 20 37  1  0
 22 38  1  0
M  END
$$$$
