
     RDKit          3D

 68 74  0  0  0  0  0  0  0  0999 V2000
    4.7390   -1.5738   -3.8520 O   0  0  0  0  0  0  0  0  0  0  0  0
    5.4130   -0.6872   -3.1491 C   0  0  0  0  0  0  0  0  0  0  0  0
    6.4552   -0.0727   -3.6369 N   0  0  0  0  0  0  0  0  0  0  0  0
    6.8707    0.7504   -2.6188 C   0  0  0  0  0  0  0  0  0  0  0  0
    7.9515    1.6466   -2.5915 C   0  0  0  0  0  0  0  0  0  0  0  0
    8.1851    2.3917   -1.4300 C   0  0  0  0  0  0  0  0  0  0  0  0
    7.3597    2.2477   -0.3147 C   0  0  0  0  0  0  0  0  0  0  0  0
    6.2776    1.3587   -0.3207 C   0  0  0  0  0  0  0  0  0  0  0  0
    6.0548    0.6199   -1.4914 C   0  0  0  0  0  0  0  0  0  0  0  0
    5.1148   -0.3192   -1.8653 N   0  0  0  0  0  0  0  0  0  0  0  0
    4.0162   -0.8572   -1.0734 C   0  0  0  0  0  0  0  0  0  0  0  0
    2.9823    0.2110   -0.6748 C   0  0  0  0  0  0  0  0  0  0  0  0
    2.3273   -0.0827    0.6782 C   0  0  0  0  0  0  0  0  0  0  0  0
    2.0773   -1.5184    0.8061 N   0  0  0  0  0  0  0  0  0  0  0  0
    1.2002   -1.8476    1.9416 C   0  0  0  0  0  0  0  0  0  0  0  0
   -0.2265   -1.3758    1.7593 C   0  0  0  0  0  0  0  0  0  0  0  0
   -1.0130   -1.8708    0.7111 C   0  0  0  0  0  0  0  0  0  0  0  0
   -2.3395   -1.4528    0.5548 C   0  0  0  0  0  0  0  0  0  0  0  0
   -2.9135   -0.5151    1.4297 C   0  0  0  0  0  0  0  0  0  0  0  0
   -4.3089   -0.0582    1.2847 C   0  0  0  0  0  0  0  0  0  0  0  0
   -5.0358   -0.1439    2.4360 N   0  0  0  0  0  0  0  0  0  0  0  0
   -6.3324    0.2064    2.3842 C   0  0  0  0  0  0  0  0  0  0  0  0
   -7.1093    0.1314    3.5345 C   0  0  0  0  0  0  0  0  0  0  0  0
   -8.4597    0.4828    3.5234 C   0  0  0  0  0  0  0  0  0  0  0  0
   -9.0438    0.9153    2.3398 C   0  0  0  0  0  0  0  0  0  0  0  0
   -8.2713    0.9942    1.1796 C   0  0  0  0  0  0  0  0  0  0  0  0
   -6.9253    0.6489    1.1815 C   0  0  0  0  0  0  0  0  0  0  0  0
   -6.2121    0.7488    0.0459 N   0  0  0  0  0  0  0  0  0  0  0  0
   -4.8914    0.4126    0.0966 C   0  0  0  0  0  0  0  0  0  0  0  0
   -4.1795    0.6272   -1.1775 C   0  0  0  0  0  0  0  0  0  0  0  0
   -2.9980    1.3898   -1.2490 C   0  0  0  0  0  0  0  0  0  0  0  0
   -2.3406    1.5862   -2.4668 C   0  0  0  0  0  0  0  0  0  0  0  0
   -2.8652    1.0317   -3.6265 C   0  0  0  0  0  0  0  0  0  0  0  0
   -2.2364    1.2236   -4.7936 F   0  0  0  0  0  0  0  0  0  0  0  0
   -4.0371    0.2883   -3.5937 C   0  0  0  0  0  0  0  0  0  0  0  0
   -4.6923    0.0918   -2.3756 C   0  0  0  0  0  0  0  0  0  0  0  0
   -2.1176   -0.0354    2.4854 C   0  0  0  0  0  0  0  0  0  0  0  0
   -0.7937   -0.4561    2.6492 C   0  0  0  0  0  0  0  0  0  0  0  0
    3.3294   -2.2876    0.8913 C   0  0  0  0  0  0  0  0  0  0  0  0
    4.5047   -1.6540    0.1389 C   0  0  0  0  0  0  0  0  0  0  0  0
    5.2292   -1.5622   -4.6946 H   0  0  0  0  0  0  0  0  0  0  0  0
    8.5880    1.7542   -3.4630 H   0  0  0  0  0  0  0  0  0  0  0  0
    9.0186    3.0904   -1.4008 H   0  0  0  0  0  0  0  0  0  0  0  0
    7.5588    2.8387    0.5773 H   0  0  0  0  0  0  0  0  0  0  0  0
    5.6418    1.2623    0.5522 H   0  0  0  0  0  0  0  0  0  0  0  0
    3.4932   -1.5714   -1.7250 H   0  0  0  0  0  0  0  0  0  0  0  0
    3.4155    1.2158   -0.6391 H   0  0  0  0  0  0  0  0  0  0  0  0
    2.2099    0.2520   -1.4546 H   0  0  0  0  0  0  0  0  0  0  0  0
    2.9619    0.2773    1.4988 H   0  0  0  0  0  0  0  0  0  0  0  0
    1.3989    0.4984    0.7214 H   0  0  0  0  0  0  0  0  0  0  0  0
    1.1514   -2.9380    2.0690 H   0  0  0  0  0  0  0  0  0  0  0  0
    1.6181   -1.4497    2.8760 H   0  0  0  0  0  0  0  0  0  0  0  0
   -0.5921   -2.5903    0.0102 H   0  0  0  0  0  0  0  0  0  0  0  0
   -2.9230   -1.8788   -0.2596 H   0  0  0  0  0  0  0  0  0  0  0  0
   -6.6501   -0.2101    4.4594 H   0  0  0  0  0  0  0  0  0  0  0  0
   -9.0478    0.4163    4.4359 H   0  0  0  0  0  0  0  0  0  0  0  0
  -10.0951    1.1914    2.3141 H   0  0  0  0  0  0  0  0  0  0  0  0
   -8.7257    1.3360    0.2524 H   0  0  0  0  0  0  0  0  0  0  0  0
   -2.5801    1.8454   -0.3529 H   0  0  0  0  0  0  0  0  0  0  0  0
   -1.4280    2.1716   -2.5154 H   0  0  0  0  0  0  0  0  0  0  0  0
   -4.4379   -0.1281   -4.5121 H   0  0  0  0  0  0  0  0  0  0  0  0
   -5.6179   -0.4819   -2.3581 H   0  0  0  0  0  0  0  0  0  0  0  0
   -2.5371    0.6753    3.1970 H   0  0  0  0  0  0  0  0  0  0  0  0
   -0.2122   -0.0606    3.4792 H   0  0  0  0  0  0  0  0  0  0  0  0
    3.6435   -2.4253    1.9337 H   0  0  0  0  0  0  0  0  0  0  0  0
    3.1394   -3.2868    0.4827 H   0  0  0  0  0  0  0  0  0  0  0  0
    5.2085   -2.4370   -0.1689 H   0  0  0  0  0  0  0  0  0  0  0  0
    5.0544   -1.0014    0.8276 H   0  0  0  0  0  0  0  0  0  0  0  0
  1  2  1  0
  2  3  2  0
  3  4  1  0
  4  5  2  0
  5  6  1  0
  6  7  2  0
  7  8  1  0
  8  9  2  0
  9 10  1  0
 10 11  1  0
 11 12  1  0
 12 13  1  0
 13 14  1  0
 14 15  1  0
 15 16  1  0
 16 17  2  0
 17 18  1  0
 18 19  2  0
 19 20  1  0
 20 21  2  0
 21 22  1  0
 22 23  2  0
 23 24  1  0
 24 25  2  0
 25 26  1  0
 26 27  2  0
 27 28  1  0
 28 29  2  0
 29 30  1  0
 30 31  2  0
 31 32  1  0
 32 33  2  0
 33 34  1  0
 33 35  1  0
 35 36  2  0
 19 37  1  0
 37 38  2  0
 14 39  1  0
 39 40  1  0
 10  2  1  0
 40 11  1  0
  9  4  1  0
 38 16  1  0
 29 20  1  0
 36 30  1  0
 27 22  1  0
  1 41  1  0
  5 42  1  0
  6 43  1  0
  7 44  1  0
  8 45  1  0
 11 46  1  0
 12 47  1  0
 12 48  1  0
 13 49  1  0
 13 50  1  0
 15 51  1  0
 15 52  1  0
 17 53  1  0
 18 54  1  0
 23 55  1  0
 24 56  1  0
 25 57  1  0
 26 58  1  0
 31 59  1  0
 32 60  1  0
 35 61  1  0
 36 62  1  0
 37 63  1  0
 38 64  1  0
 39 65  1  0
 39 66  1  0
 40 67  1  0
 40 68  1  0
M  END
$$$$
