
     RDKit          3D

 40 43  0  0  0  0  0  0  0  0999 V2000
   -1.8756   -0.6567    1.4566 C   0  0  0  0  0  0  0  0  0  0  0  0
   -3.0690   -0.5092    0.6140 N   0  0  0  0  0  0  0  0  0  0  0  0
   -4.3201   -0.4080    1.3880 C   0  0  0  0  0  0  0  0  0  0  0  0
   -5.5048   -0.2376    0.4535 C   0  0  0  0  0  0  0  0  0  0  0  0
   -5.3966    0.9980   -0.2554 O   0  0  0  0  0  0  0  0  0  0  0  0
   -4.1591    1.1402   -0.8432 C   0  0  0  0  0  0  0  0  0  0  0  0
   -4.0982    2.0801   -1.8584 C   0  0  0  0  0  0  0  0  0  0  0  0
   -2.9822    2.3146   -2.5635 N   0  0  0  0  0  0  0  0  0  0  0  0
   -1.8746    1.5834   -2.2844 N   0  0  0  0  0  0  0  0  0  0  0  0
   -1.8772    0.6579   -1.2790 C   0  0  0  0  0  0  0  0  0  0  0  0
   -0.6268   -0.1051   -1.2350 C   0  0  0  0  0  0  0  0  0  0  0  0
   -0.5129   -1.3239   -1.8701 C   0  0  0  0  0  0  0  0  0  0  0  0
    0.7084   -1.9341   -1.7628 C   0  0  0  0  0  0  0  0  0  0  0  0
    1.7460   -1.4023   -1.0933 N   0  0  0  0  0  0  0  0  0  0  0  0
    1.5673   -0.2041   -0.5201 C   0  0  0  0  0  0  0  0  0  0  0  0
    2.5807    0.4412    0.1824 N   0  0  0  0  0  0  0  0  0  0  0  0
    3.9254    0.1539    0.4367 C   0  0  0  0  0  0  0  0  0  0  0  0
    4.5641   -1.0230    0.0261 C   0  0  0  0  0  0  0  0  0  0  0  0
    5.9093   -1.2612    0.3298 C   0  0  0  0  0  0  0  0  0  0  0  0
    6.6260   -0.3217    1.0557 C   0  0  0  0  0  0  0  0  0  0  0  0
    7.9129   -0.5500    1.3480 F   0  0  0  0  0  0  0  0  0  0  0  0
    6.0227    0.8504    1.4852 C   0  0  0  0  0  0  0  0  0  0  0  0
    4.6788    1.0828    1.1785 C   0  0  0  0  0  0  0  0  0  0  0  0
    0.4041    0.4619   -0.5613 N   0  0  0  0  0  0  0  0  0  0  0  0
   -3.0062    0.4161   -0.4665 C   0  0  0  0  0  0  0  0  0  0  0  0
   -1.4120    0.3106    1.6791 H   0  0  0  0  0  0  0  0  0  0  0  0
   -2.1381   -1.1164    2.4172 H   0  0  0  0  0  0  0  0  0  0  0  0
   -1.1514   -1.3347    1.0000 H   0  0  0  0  0  0  0  0  0  0  0  0
   -4.4549   -1.3188    1.9824 H   0  0  0  0  0  0  0  0  0  0  0  0
   -4.2564    0.4449    2.0765 H   0  0  0  0  0  0  0  0  0  0  0  0
   -6.4345   -0.2052    1.0308 H   0  0  0  0  0  0  0  0  0  0  0  0
   -5.5866   -1.0640   -0.2641 H   0  0  0  0  0  0  0  0  0  0  0  0
   -4.9637    2.6671   -2.1421 H   0  0  0  0  0  0  0  0  0  0  0  0
   -1.3312   -1.7709   -2.4180 H   0  0  0  0  0  0  0  0  0  0  0  0
    0.8993   -2.8976   -2.2258 H   0  0  0  0  0  0  0  0  0  0  0  0
    2.2461    1.3528    0.4599 H   0  0  0  0  0  0  0  0  0  0  0  0
    4.0308   -1.7799   -0.5407 H   0  0  0  0  0  0  0  0  0  0  0  0
    6.3941   -2.1751    0.0026 H   0  0  0  0  0  0  0  0  0  0  0  0
    6.5958    1.5746    2.0544 H   0  0  0  0  0  0  0  0  0  0  0  0
    4.2203    2.0058    1.5260 H   0  0  0  0  0  0  0  0  0  0  0  0
  1  2  1  0
  2  3  1  0
  3  4  1  0
  4  5  1  0
  5  6  1  0
  6  7  2  0
  7  8  1  0
  8  9  2  0
  9 10  1  0
 10 11  1  0
 11 12  2  0
 12 13  1  0
 13 14  2  0
 14 15  1  0
 15 16  1  0
 16 17  1  0
 17 18  2  0
 18 19  1  0
 19 20  2  0
 20 21  1  0
 20 22  1  0
 22 23  2  0
 15 24  2  0
 10 25  2  0
 25  2  1  0
 25  6  1  0
 24 11  1  0
 23 17  1  0
  1 26  1  0
  1 27  1  0
  1 28  1  0
  3 29  1  0
  3 30  1  0
  4 31  1  0
  4 32  1  0
  7 33  1  0
 12 34  1  0
 13 35  1  0
 16 36  1  0
 18 37  1  0
 19 38  1  0
 22 39  1  0
 23 40  1  0
M  END
$$$$
