
     RDKit          3D

 57 60  0  0  0  0  0  0  0  0999 V2000
   -5.6372   -2.4789   -0.2709 C   0  0  0  0  0  0  0  0  0  0  0  0
   -6.0624   -1.0724   -0.5014 C   0  0  0  0  0  0  0  0  0  0  0  0
   -7.0261   -0.4808    0.2821 N   0  0  0  0  0  0  0  0  0  0  0  0
   -7.2858    0.8028   -0.1448 C   0  0  0  0  0  0  0  0  0  0  0  0
   -8.1991    1.7489    0.3404 C   0  0  0  0  0  0  0  0  0  0  0  0
   -8.2449    2.9928   -0.2959 C   0  0  0  0  0  0  0  0  0  0  0  0
   -7.4074    3.2778   -1.3726 C   0  0  0  0  0  0  0  0  0  0  0  0
   -6.5008    2.3192   -1.8464 C   0  0  0  0  0  0  0  0  0  0  0  0
   -6.4393    1.0549   -1.2242 C   0  0  0  0  0  0  0  0  0  0  0  0
   -5.6663   -0.1270   -1.4300 C   0  0  0  0  0  0  0  0  0  0  0  0
   -4.6979   -0.3286   -2.4571 C   0  0  0  0  0  0  0  0  0  0  0  0
   -3.3713   -0.5004   -2.3356 C   0  0  0  0  0  0  0  0  0  0  0  0
   -2.6306   -0.4761   -1.1199 C   0  0  0  0  0  0  0  0  0  0  0  0
   -1.3642   -0.8401   -1.0121 N   0  0  0  0  0  0  0  0  0  0  0  0
   -1.0509   -0.6436    0.3112 C   0  0  0  0  0  0  0  0  0  0  0  0
    0.1943   -0.9164    0.7761 N   0  0  0  0  0  0  0  0  0  0  0  0
    1.1669   -1.3924   -0.0611 C   0  0  0  0  0  0  0  0  0  0  0  0
    2.4038   -1.6617    0.2238 N   0  0  0  0  0  0  0  0  0  0  0  0
    2.7851   -1.4241    1.5243 C   0  0  0  0  0  0  0  0  0  0  0  0
    4.2287   -1.7061    1.8449 C   0  0  0  0  0  0  0  0  0  0  0  0
    5.0550   -0.4782    1.4957 C   0  0  0  0  0  0  0  0  0  0  0  0
    5.1712    0.4711    2.2730 O   0  0  0  0  0  0  0  0  0  0  0  0
    5.6500   -0.5304    0.2434 N   0  0  0  0  0  0  0  0  0  0  0  0
    6.3524    0.6106   -0.3061 C   0  0  0  0  0  0  0  0  0  0  0  0
    7.7403    0.8279    0.3226 C   0  0  0  0  0  0  0  0  0  0  0  0
    8.3367    2.1449   -0.1759 C   0  0  0  0  0  0  0  0  0  0  0  0
    8.6948   -0.3289    0.0026 C   0  0  0  0  0  0  0  0  0  0  0  0
    1.9307   -0.9843    2.4624 C   0  0  0  0  0  0  0  0  0  0  0  0
    0.4966   -0.6744    2.1732 C   0  0  0  0  0  0  0  0  0  0  0  0
   -2.0828   -0.1731    1.0250 N   0  0  0  0  0  0  0  0  0  0  0  0
   -3.1096   -0.0495    0.0990 O   0  0  0  0  0  0  0  0  0  0  0  0
   -5.6566   -3.0465   -1.2077 H   0  0  0  0  0  0  0  0  0  0  0  0
   -4.6222   -2.5130    0.1354 H   0  0  0  0  0  0  0  0  0  0  0  0
   -6.2976   -2.9849    0.4404 H   0  0  0  0  0  0  0  0  0  0  0  0
   -7.5000   -0.9266    1.0558 H   0  0  0  0  0  0  0  0  0  0  0  0
   -8.8502    1.5300    1.1805 H   0  0  0  0  0  0  0  0  0  0  0  0
   -8.9439    3.7505    0.0566 H   0  0  0  0  0  0  0  0  0  0  0  0
   -7.4543    4.2538   -1.8488 H   0  0  0  0  0  0  0  0  0  0  0  0
   -5.8491    2.5528   -2.6837 H   0  0  0  0  0  0  0  0  0  0  0  0
   -5.1015   -0.3275   -3.4700 H   0  0  0  0  0  0  0  0  0  0  0  0
   -2.7838   -0.6642   -3.2368 H   0  0  0  0  0  0  0  0  0  0  0  0
    0.8448   -1.5659   -1.1020 H   0  0  0  0  0  0  0  0  0  0  0  0
    4.3767   -1.9289    2.9098 H   0  0  0  0  0  0  0  0  0  0  0  0
    4.5874   -2.5846    1.2939 H   0  0  0  0  0  0  0  0  0  0  0  0
    5.2648   -1.2069   -0.4110 H   0  0  0  0  0  0  0  0  0  0  0  0
    5.7224    1.4994   -0.1571 H   0  0  0  0  0  0  0  0  0  0  0  0
    6.4439    0.4404   -1.3865 H   0  0  0  0  0  0  0  0  0  0  0  0
    7.6433    0.8950    1.4167 H   0  0  0  0  0  0  0  0  0  0  0  0
    8.4903    2.1245   -1.2626 H   0  0  0  0  0  0  0  0  0  0  0  0
    9.3025    2.3422    0.3079 H   0  0  0  0  0  0  0  0  0  0  0  0
    7.6753    2.9851    0.0555 H   0  0  0  0  0  0  0  0  0  0  0  0
    8.3144   -1.2793    0.3912 H   0  0  0  0  0  0  0  0  0  0  0  0
    8.8366   -0.4369   -1.0827 H   0  0  0  0  0  0  0  0  0  0  0  0
    9.6734   -0.1559    0.4600 H   0  0  0  0  0  0  0  0  0  0  0  0
    2.2770   -0.8084    3.4755 H   0  0  0  0  0  0  0  0  0  0  0  0
   -0.1341   -1.3037    2.8142 H   0  0  0  0  0  0  0  0  0  0  0  0
    0.3102    0.3760    2.4304 H   0  0  0  0  0  0  0  0  0  0  0  0
  1  2  1  0
  2  3  1  0
  3  4  1  0
  4  5  2  0
  5  6  1  0
  6  7  2  0
  7  8  1  0
  8  9  2  0
  9 10  1  0
 10 11  1  0
 11 12  2  3
 12 13  1  0
 13 14  2  0
 14 15  1  0
 15 16  1  0
 16 17  1  0
 17 18  2  0
 18 19  1  0
 19 20  1  0
 20 21  1  0
 21 22  2  0
 21 23  1  0
 23 24  1  0
 24 25  1  0
 25 26  1  0
 25 27  1  0
 19 28  2  0
 28 29  1  0
 15 30  2  0
 30 31  1  0
 10  2  2  0
 31 13  1  0
  9  4  1  0
 29 16  1  0
  1 32  1  0
  1 33  1  0
  1 34  1  0
  3 35  1  0
  5 36  1  0
  6 37  1  0
  7 38  1  0
  8 39  1  0
 11 40  1  0
 12 41  1  0
 17 42  1  0
 20 43  1  0
 20 44  1  0
 23 45  1  0
 24 46  1  0
 24 47  1  0
 25 48  1  0
 26 49  1  0
 26 50  1  0
 26 51  1  0
 27 52  1  0
 27 53  1  0
 27 54  1  0
 28 55  1  0
 29 56  1  0
 29 57  1  0
M  END
$$$$
