
     RDKit          3D

 36 38  0  0  0  0  0  0  0  0999 V2000
    6.4385    2.3114    0.5674 C   0  0  0  0  0  0  0  0  0  0  0  0
    4.6484    2.0772    0.4888 S   0  0  0  0  0  0  0  0  0  0  0  0
    4.5660    0.3759    0.1560 C   0  0  0  0  0  0  0  0  0  0  0  0
    3.4217   -0.3095    0.0012 C   0  0  0  0  0  0  0  0  0  0  0  0
    2.0618    0.2064    0.0760 C   0  0  0  0  0  0  0  0  0  0  0  0
    1.2070   -0.8104   -0.1377 C   0  0  0  0  0  0  0  0  0  0  0  0
   -0.1583   -0.8946   -0.1804 N   0  0  0  0  0  0  0  0  0  0  0  0
   -1.1606    0.0011   -0.0168 C   0  0  0  0  0  0  0  0  0  0  0  0
   -2.4151   -0.3858   -0.1256 N   0  0  0  0  0  0  0  0  0  0  0  0
   -3.2948    0.6669    0.0841 C   0  0  0  0  0  0  0  0  0  0  0  0
   -4.7392    0.4607    0.0094 C   0  0  0  0  0  0  0  0  0  0  0  0
   -5.6574    1.3914    0.5027 C   0  0  0  0  0  0  0  0  0  0  0  0
   -7.0111    1.1125    0.3910 C   0  0  0  0  0  0  0  0  0  0  0  0
   -7.5050   -0.0109   -0.1681 N   0  0  0  0  0  0  0  0  0  0  0  0
   -6.6041   -0.9007   -0.6326 C   0  0  0  0  0  0  0  0  0  0  0  0
   -5.2338   -0.7135   -0.5664 C   0  0  0  0  0  0  0  0  0  0  0  0
   -2.6803    1.8740    0.3410 C   0  0  0  0  0  0  0  0  0  0  0  0
   -0.9815    1.6772    0.3359 S   0  0  0  0  0  0  0  0  0  0  0  0
    2.0079   -2.0158   -0.3575 C   0  0  0  0  0  0  0  0  0  0  0  0
    3.3205   -1.7360   -0.2785 C   0  0  0  0  0  0  0  0  0  0  0  0
    4.4590   -2.6749   -0.4398 C   0  0  0  0  0  0  0  0  0  0  0  0
    6.6567    3.3621    0.7760 H   0  0  0  0  0  0  0  0  0  0  0  0
    6.8703    1.7011    1.3656 H   0  0  0  0  0  0  0  0  0  0  0  0
    6.9026    2.0420   -0.3854 H   0  0  0  0  0  0  0  0  0  0  0  0
    5.5110   -0.1519    0.0710 H   0  0  0  0  0  0  0  0  0  0  0  0
    1.8220    1.2370    0.2710 H   0  0  0  0  0  0  0  0  0  0  0  0
   -0.5010   -1.8288   -0.3739 H   0  0  0  0  0  0  0  0  0  0  0  0
   -5.3504    2.3150    0.9783 H   0  0  0  0  0  0  0  0  0  0  0  0
   -7.7575    1.8087    0.7636 H   0  0  0  0  0  0  0  0  0  0  0  0
   -7.0241   -1.7996   -1.0747 H   0  0  0  0  0  0  0  0  0  0  0  0
   -4.5657   -1.4728   -0.9606 H   0  0  0  0  0  0  0  0  0  0  0  0
   -3.1148    2.8454    0.5216 H   0  0  0  0  0  0  0  0  0  0  0  0
    1.5873   -2.9901   -0.5548 H   0  0  0  0  0  0  0  0  0  0  0  0
    4.1099   -3.6926   -0.6444 H   0  0  0  0  0  0  0  0  0  0  0  0
    5.0656   -2.7088    0.4709 H   0  0  0  0  0  0  0  0  0  0  0  0
    5.0984   -2.3692   -1.2742 H   0  0  0  0  0  0  0  0  0  0  0  0
  1  2  1  0
  2  3  1  0
  3  4  2  3
  4  5  1  0
  5  6  2  0
  6  7  1  0
  7  8  1  0
  8  9  2  0
  9 10  1  0
 10 11  1  0
 11 12  2  0
 12 13  1  0
 13 14  2  0
 14 15  1  0
 15 16  2  0
 10 17  2  0
 17 18  1  0
  6 19  1  0
 19 20  2  0
 20 21  1  0
 20  4  1  0
 18  8  1  0
 16 11  1  0
  1 22  1  0
  1 23  1  0
  1 24  1  0
  3 25  1  0
  5 26  1  0
  7 27  1  0
 12 28  1  0
 13 29  1  0
 15 30  1  0
 16 31  1  0
 17 32  1  0
 19 33  1  0
 21 34  1  0
 21 35  1  0
 21 36  1  0
M  END
$$$$
