
     RDKit          3D

 62 66  0  0  0  0  0  0  0  0999 V2000
    7.7011    1.9598   -2.5440 C   0  0  0  0  0  0  0  0  0  0  0  0
    7.6457    0.8360   -1.6130 N   0  0  0  0  0  0  0  0  0  0  0  0
    6.6381   -0.1661   -2.0212 C   0  0  0  0  0  0  0  0  0  0  0  0
    5.2773   -0.0901   -1.2879 C   0  0  0  0  0  0  0  0  0  0  0  0
    5.4542   -0.1758    0.1710 N   0  0  0  0  0  0  0  0  0  0  0  0
    4.4421   -0.6226    1.0040 C   0  0  0  0  0  0  0  0  0  0  0  0
    4.7036   -1.0907    2.3001 C   0  0  0  0  0  0  0  0  0  0  0  0
    3.6841   -1.5391    3.1452 C   0  0  0  0  0  0  0  0  0  0  0  0
    2.3625   -1.5298    2.7105 C   0  0  0  0  0  0  0  0  0  0  0  0
    2.0433   -1.0756    1.4265 C   0  0  0  0  0  0  0  0  0  0  0  0
    0.6493   -1.0559    0.9540 C   0  0  0  0  0  0  0  0  0  0  0  0
   -0.3521   -0.3949    1.6782 C   0  0  0  0  0  0  0  0  0  0  0  0
   -1.6767   -0.3726    1.2235 C   0  0  0  0  0  0  0  0  0  0  0  0
   -2.0551   -1.0170    0.0334 C   0  0  0  0  0  0  0  0  0  0  0  0
   -3.4581   -0.9770   -0.4276 C   0  0  0  0  0  0  0  0  0  0  0  0
   -4.0672    0.2368   -0.2887 N   0  0  0  0  0  0  0  0  0  0  0  0
   -5.3505    0.3488   -0.7141 C   0  0  0  0  0  0  0  0  0  0  0  0
   -5.9807    1.7122   -0.5442 C   0  0  0  0  0  0  0  0  0  0  0  0
   -6.5544    1.8979    0.8636 C   0  0  0  0  0  0  0  0  0  0  0  0
   -7.9710    1.3474    0.7679 C   0  0  0  0  0  0  0  0  0  0  0  0
   -8.4333    1.6722   -0.6497 C   0  0  0  0  0  0  0  0  0  0  0  0
   -7.1776    2.0424   -1.4441 C   0  0  0  0  0  0  0  0  0  0  0  0
   -6.0067   -0.7524   -1.2473 C   0  0  0  0  0  0  0  0  0  0  0  0
   -5.4352   -1.9739   -1.3733 N   0  0  0  0  0  0  0  0  0  0  0  0
   -4.1591   -2.0814   -0.9516 C   0  0  0  0  0  0  0  0  0  0  0  0
   -3.6127   -3.3593   -1.0904 N   0  0  0  0  0  0  0  0  0  0  0  0
   -1.0452   -1.6665   -0.6943 C   0  0  0  0  0  0  0  0  0  0  0  0
    0.2805   -1.6893   -0.2411 C   0  0  0  0  0  0  0  0  0  0  0  0
    3.0949   -0.6312    0.5975 C   0  0  0  0  0  0  0  0  0  0  0  0
    6.7574    0.2621    0.6986 C   0  0  0  0  0  0  0  0  0  0  0  0
    7.3969    1.3158   -0.2358 C   0  0  0  0  0  0  0  0  0  0  0  0
    6.7394    2.4791   -2.6247 H   0  0  0  0  0  0  0  0  0  0  0  0
    8.4610    2.6838   -2.2291 H   0  0  0  0  0  0  0  0  0  0  0  0
    7.9914    1.6158   -3.5428 H   0  0  0  0  0  0  0  0  0  0  0  0
    6.4723   -0.1436   -3.1056 H   0  0  0  0  0  0  0  0  0  0  0  0
    7.0749   -1.1522   -1.8134 H   0  0  0  0  0  0  0  0  0  0  0  0
    4.7691    0.8478   -1.5424 H   0  0  0  0  0  0  0  0  0  0  0  0
    4.6633   -0.9227   -1.6523 H   0  0  0  0  0  0  0  0  0  0  0  0
    5.7224   -1.1388    2.6739 H   0  0  0  0  0  0  0  0  0  0  0  0
    3.9272   -1.9022    4.1400 H   0  0  0  0  0  0  0  0  0  0  0  0
    1.5824   -1.8907    3.3767 H   0  0  0  0  0  0  0  0  0  0  0  0
   -0.1057    0.1286    2.6000 H   0  0  0  0  0  0  0  0  0  0  0  0
   -2.4231    0.1639    1.8078 H   0  0  0  0  0  0  0  0  0  0  0  0
   -5.1888    2.4515   -0.7231 H   0  0  0  0  0  0  0  0  0  0  0  0
   -5.9743    1.4026    1.6490 H   0  0  0  0  0  0  0  0  0  0  0  0
   -6.5994    2.9678    1.1039 H   0  0  0  0  0  0  0  0  0  0  0  0
   -8.6318    1.7812    1.5250 H   0  0  0  0  0  0  0  0  0  0  0  0
   -7.9668    0.2616    0.9197 H   0  0  0  0  0  0  0  0  0  0  0  0
   -8.9505    0.8150   -1.0940 H   0  0  0  0  0  0  0  0  0  0  0  0
   -9.1395    2.5102   -0.6484 H   0  0  0  0  0  0  0  0  0  0  0  0
   -7.1453    1.5565   -2.4245 H   0  0  0  0  0  0  0  0  0  0  0  0
   -7.1965    3.1245   -1.6301 H   0  0  0  0  0  0  0  0  0  0  0  0
   -7.0327   -0.7044   -1.5927 H   0  0  0  0  0  0  0  0  0  0  0  0
   -3.2097   -3.6822   -0.2168 H   0  0  0  0  0  0  0  0  0  0  0  0
   -4.3598   -3.9659   -1.4186 H   0  0  0  0  0  0  0  0  0  0  0  0
   -1.2780   -2.1581   -1.6378 H   0  0  0  0  0  0  0  0  0  0  0  0
    1.0275   -2.2145   -0.8335 H   0  0  0  0  0  0  0  0  0  0  0  0
    2.8321   -0.2462   -0.3850 H   0  0  0  0  0  0  0  0  0  0  0  0
    6.6436    0.7295    1.6843 H   0  0  0  0  0  0  0  0  0  0  0  0
    7.4225   -0.6032    0.8056 H   0  0  0  0  0  0  0  0  0  0  0  0
    6.7292    2.1885   -0.2525 H   0  0  0  0  0  0  0  0  0  0  0  0
    8.3482    1.6469    0.1962 H   0  0  0  0  0  0  0  0  0  0  0  0
  1  2  1  0
  2  3  1  0
  3  4  1  0
  4  5  1  0
  5  6  1  0
  6  7  2  0
  7  8  1  0
  8  9  2  0
  9 10  1  0
 10 11  1  0
 11 12  2  0
 12 13  1  0
 13 14  2  0
 14 15  1  0
 15 16  2  0
 16 17  1  0
 17 18  1  0
 18 19  1  0
 19 20  1  0
 20 21  1  0
 21 22  1  0
 17 23  2  0
 23 24  1  0
 24 25  2  0
 25 26  1  0
 14 27  1  0
 27 28  2  0
 10 29  2  0
  5 30  1  0
 30 31  1  0
 31  2  1  0
 29  6  1  0
 28 11  1  0
 25 15  1  0
 22 18  1  0
  1 32  1  0
  1 33  1  0
  1 34  1  0
  3 35  1  0
  3 36  1  0
  4 37  1  0
  4 38  1  0
  7 39  1  0
  8 40  1  0
  9 41  1  0
 12 42  1  0
 13 43  1  0
 18 44  1  0
 19 45  1  0
 19 46  1  0
 20 47  1  0
 20 48  1  0
 21 49  1  0
 21 50  1  0
 22 51  1  0
 22 52  1  0
 23 53  1  0
 26 54  1  0
 26 55  1  0
 27 56  1  0
 28 57  1  0
 29 58  1  0
 30 59  1  0
 30 60  1  0
 31 61  1  0
 31 62  1  0
M  END
$$$$
