
     RDKit          3D

 36 39  0  0  0  0  0  0  0  0999 V2000
    6.5169    1.1571   -1.5974 F   0  0  0  0  0  0  0  0  0  0  0  0
    5.2339    1.5286   -1.3215 C   0  0  0  0  0  0  0  0  0  0  0  0
    5.3353    2.6238   -0.5164 F   0  0  0  0  0  0  0  0  0  0  0  0
    4.7161    1.9756   -2.4988 F   0  0  0  0  0  0  0  0  0  0  0  0
    4.4177    0.4158   -0.7142 C   0  0  0  0  0  0  0  0  0  0  0  0
    4.6465   -0.9181   -1.0828 C   0  0  0  0  0  0  0  0  0  0  0  0
    3.8704   -1.9441   -0.5441 C   0  0  0  0  0  0  0  0  0  0  0  0
    2.8558   -1.6493    0.3670 C   0  0  0  0  0  0  0  0  0  0  0  0
    2.6045   -0.3256    0.7510 C   0  0  0  0  0  0  0  0  0  0  0  0
    1.5105   -0.0064    1.7458 C   0  0  0  0  0  0  0  0  0  0  0  0
    0.5008    0.8483    1.1578 N   0  0  0  0  0  0  0  0  0  0  0  0
   -0.6172    0.2004    0.6578 C   0  0  0  0  0  0  0  0  0  0  0  0
   -0.5178   -1.0116    0.0904 N   0  0  0  0  0  0  0  0  0  0  0  0
   -1.6463   -1.5648   -0.3988 C   0  0  0  0  0  0  0  0  0  0  0  0
   -2.8911   -0.9665   -0.3297 C   0  0  0  0  0  0  0  0  0  0  0  0
   -4.0855   -1.5276   -0.8334 C   0  0  0  0  0  0  0  0  0  0  0  0
   -5.3039   -0.8515   -0.7147 C   0  0  0  0  0  0  0  0  0  0  0  0
   -5.2501    0.3831   -0.0770 C   0  0  0  0  0  0  0  0  0  0  0  0
   -6.2985    1.2245    0.1599 O   0  0  0  0  0  0  0  0  0  0  0  0
   -5.7268    2.2808    0.8024 C   0  0  0  0  0  0  0  0  0  0  0  0
   -4.4310    2.1909    0.9968 N   0  0  0  0  0  0  0  0  0  0  0  0
   -4.1005    0.9721    0.4326 C   0  0  0  0  0  0  0  0  0  0  0  0
   -2.8766    0.2810    0.3024 C   0  0  0  0  0  0  0  0  0  0  0  0
   -1.7657    0.8680    0.7980 N   0  0  0  0  0  0  0  0  0  0  0  0
    3.3891    0.7003    0.1989 C   0  0  0  0  0  0  0  0  0  0  0  0
    5.4297   -1.1616   -1.7989 H   0  0  0  0  0  0  0  0  0  0  0  0
    4.0492   -2.9745   -0.8406 H   0  0  0  0  0  0  0  0  0  0  0  0
    2.2469   -2.4583    0.7649 H   0  0  0  0  0  0  0  0  0  0  0  0
    1.0865   -0.9169    2.1896 H   0  0  0  0  0  0  0  0  0  0  0  0
    1.9780    0.5310    2.5812 H   0  0  0  0  0  0  0  0  0  0  0  0
    0.1365    1.5695    1.7707 H   0  0  0  0  0  0  0  0  0  0  0  0
   -1.5073   -2.5369   -0.8633 H   0  0  0  0  0  0  0  0  0  0  0  0
   -4.0678   -2.4999   -1.3235 H   0  0  0  0  0  0  0  0  0  0  0  0
   -6.2345   -1.2577   -1.0924 H   0  0  0  0  0  0  0  0  0  0  0  0
   -6.3884    3.0861    1.0897 H   0  0  0  0  0  0  0  0  0  0  0  0
    3.1846    1.7343    0.4772 H   0  0  0  0  0  0  0  0  0  0  0  0
  1  2  1  0
  2  3  1  0
  2  4  1  0
  2  5  1  0
  5  6  2  0
  6  7  1  0
  7  8  2  0
  8  9  1  0
  9 10  1  0
 10 11  1  0
 11 12  1  0
 12 13  2  0
 13 14  1  0
 14 15  2  0
 15 16  1  0
 16 17  2  0
 17 18  1  0
 18 19  1  0
 19 20  1  0
 20 21  2  0
 21 22  1  0
 22 23  1  0
 23 24  2  0
  9 25  2  0
 25  5  1  0
 24 12  1  0
 23 15  1  0
 22 18  2  0
  6 26  1  0
  7 27  1  0
  8 28  1  0
 10 29  1  0
 10 30  1  0
 11 31  1  0
 14 32  1  0
 16 33  1  0
 17 34  1  0
 20 35  1  0
 25 36  1  0
M  END
$$$$
