
     RDKit          3D

 39 42  0  0  0  0  0  0  0  0999 V2000
    7.2358    2.1909    0.8017 O   0  0  0  0  0  0  0  0  0  0  0  0
    7.3617    1.1851    0.1314 C   0  0  0  0  0  0  0  0  0  0  0  0
    8.5563    0.7758   -0.3254 O   0  0  0  0  0  0  0  0  0  0  0  0
    6.3141    0.2549   -0.3007 C   0  0  0  0  0  0  0  0  0  0  0  0
    5.0407    0.4783    0.0460 C   0  0  0  0  0  0  0  0  0  0  0  0
    3.8684   -0.4260   -0.3492 C   0  0  0  0  0  0  0  0  0  0  0  0
    2.5437   -0.5032   -0.1882 C   0  0  0  0  0  0  0  0  0  0  0  0
    1.4145    0.2784    0.4935 C   0  0  0  0  0  0  0  0  0  0  0  0
    1.6709    1.4072    1.1669 N   0  0  0  0  0  0  0  0  0  0  0  0
    0.4644    1.7992    1.6035 N   0  0  0  0  0  0  0  0  0  0  0  0
   -0.5550    0.9598    1.2516 C   0  0  0  0  0  0  0  0  0  0  0  0
   -1.9247    1.0009    1.5037 C   0  0  0  0  0  0  0  0  0  0  0  0
   -2.6805   -0.0448    0.9745 C   0  0  0  0  0  0  0  0  0  0  0  0
   -4.0695   -0.0026    1.1880 N   0  0  0  0  0  0  0  0  0  0  0  0
   -4.8441   -1.1152    0.6493 C   0  0  0  0  0  0  0  0  0  0  0  0
   -5.4670   -0.8205   -0.6882 C   0  0  0  0  0  0  0  0  0  0  0  0
   -6.0792    0.5250   -0.9994 C   0  0  0  0  0  0  0  0  0  0  0  0
   -4.8436    0.0757   -1.7322 C   0  0  0  0  0  0  0  0  0  0  0  0
   -2.1264   -1.0339    0.2434 N   0  0  0  0  0  0  0  0  0  0  0  0
   -0.7880   -1.0581    0.0053 C   0  0  0  0  0  0  0  0  0  0  0  0
    0.0375   -0.0552    0.5097 C   0  0  0  0  0  0  0  0  0  0  0  0
    2.5181   -1.7042   -0.9577 C   0  0  0  0  0  0  0  0  0  0  0  0
    3.8568   -1.6246   -1.1187 C   0  0  0  0  0  0  0  0  0  0  0  0
    9.1771    1.4546    0.0124 H   0  0  0  0  0  0  0  0  0  0  0  0
    6.6183   -0.5950   -0.8965 H   0  0  0  0  0  0  0  0  0  0  0  0
    4.7753    1.3470    0.6471 H   0  0  0  0  0  0  0  0  0  0  0  0
    0.4051    2.6555    2.1432 H   0  0  0  0  0  0  0  0  0  0  0  0
   -2.3839    1.8063    2.0628 H   0  0  0  0  0  0  0  0  0  0  0  0
   -4.2398    0.1173    2.1809 H   0  0  0  0  0  0  0  0  0  0  0  0
   -4.2820   -2.0559    0.6116 H   0  0  0  0  0  0  0  0  0  0  0  0
   -5.6707   -1.3041    1.3461 H   0  0  0  0  0  0  0  0  0  0  0  0
   -5.9961   -1.6958   -1.0522 H   0  0  0  0  0  0  0  0  0  0  0  0
   -7.0145    0.5432   -1.5459 H   0  0  0  0  0  0  0  0  0  0  0  0
   -5.9691    1.3278   -0.2794 H   0  0  0  0  0  0  0  0  0  0  0  0
   -4.9432   -0.2162   -2.7711 H   0  0  0  0  0  0  0  0  0  0  0  0
   -3.9109    0.5790   -1.5090 H   0  0  0  0  0  0  0  0  0  0  0  0
   -0.4345   -1.8903   -0.5892 H   0  0  0  0  0  0  0  0  0  0  0  0
    1.7524   -2.3980   -1.2840 H   0  0  0  0  0  0  0  0  0  0  0  0
    4.6120   -2.2184   -1.6214 H   0  0  0  0  0  0  0  0  0  0  0  0
  1  2  2  0
  2  3  1  0
  2  4  1  0
  4  5  2  3
  5  6  1  0
  6  7  2  0
  7  8  1  0
  8  9  2  0
  9 10  1  0
 10 11  1  0
 11 12  2  0
 12 13  1  0
 13 14  1  0
 14 15  1  0
 15 16  1  0
 16 17  1  0
 17 18  1  0
 13 19  2  0
 19 20  1  0
 20 21  2  0
  7 22  1  0
 22 23  2  0
 23  6  1  0
 21  8  1  0
 21 11  1  0
 18 16  1  0
  3 24  1  0
  4 25  1  0
  5 26  1  0
 10 27  1  0
 12 28  1  0
 14 29  1  0
 15 30  1  0
 15 31  1  0
 16 32  1  0
 17 33  1  0
 17 34  1  0
 18 35  1  0
 18 36  1  0
 20 37  1  0
 22 38  1  0
 23 39  1  0
M  END
$$$$
