
     RDKit          3D

 43 46  0  0  0  0  0  0  0  0999 V2000
   -4.0413    1.4624    1.0227 C   0  0  0  0  0  0  0  0  0  0  0  0
   -4.2535    0.0879    0.4297 C   0  0  0  0  0  0  0  0  0  0  0  0
   -3.1739   -0.8107    0.2420 C   0  0  0  0  0  0  0  0  0  0  0  0
   -1.7420   -0.4735    0.6080 C   0  0  0  0  0  0  0  0  0  0  0  0
   -1.0835    0.4187   -0.4416 C   0  0  0  0  0  0  0  0  0  0  0  0
    0.2933    0.7101   -0.1089 N   0  0  0  0  0  0  0  0  0  0  0  0
    1.4218    0.1786   -0.6578 C   0  0  0  0  0  0  0  0  0  0  0  0
    2.4461    0.7994    0.0244 C   0  0  0  0  0  0  0  0  0  0  0  0
    3.8769    0.6062   -0.1534 C   0  0  0  0  0  0  0  0  0  0  0  0
    4.3910   -0.2697   -1.1235 C   0  0  0  0  0  0  0  0  0  0  0  0
    5.7703   -0.4587   -1.2974 C   0  0  0  0  0  0  0  0  0  0  0  0
    6.6202    0.2657   -0.4596 C   0  0  0  0  0  0  0  0  0  0  0  0
    7.9866    0.3160   -0.3656 N   0  0  0  0  0  0  0  0  0  0  0  0
    8.4423    1.1506    0.5856 N   0  0  0  0  0  0  0  0  0  0  0  0
    7.3243    1.6525    1.1176 C   0  0  0  0  0  0  0  0  0  0  0  0
    6.1550    1.1422    0.5118 C   0  0  0  0  0  0  0  0  0  0  0  0
    4.7688    1.3187    0.6712 C   0  0  0  0  0  0  0  0  0  0  0  0
    1.9033    1.6669    0.9420 N   0  0  0  0  0  0  0  0  0  0  0  0
    0.5822    1.6055    0.8475 N   0  0  0  0  0  0  0  0  0  0  0  0
   -3.4159   -2.0708   -0.3341 C   0  0  0  0  0  0  0  0  0  0  0  0
   -4.6950   -2.4470   -0.7282 C   0  0  0  0  0  0  0  0  0  0  0  0
   -5.7552   -1.5636   -0.5648 C   0  0  0  0  0  0  0  0  0  0  0  0
   -5.5545   -0.2906   -0.0003 C   0  0  0  0  0  0  0  0  0  0  0  0
   -6.7491    0.6342    0.1408 C   0  0  0  0  0  0  0  0  0  0  0  0
   -6.5215    1.8767   -0.3707 F   0  0  0  0  0  0  0  0  0  0  0  0
   -7.1176    0.8205    1.4386 F   0  0  0  0  0  0  0  0  0  0  0  0
   -7.8670    0.1803   -0.4960 F   0  0  0  0  0  0  0  0  0  0  0  0
   -3.9611    2.2028    0.2208 H   0  0  0  0  0  0  0  0  0  0  0  0
   -4.8674    1.7388    1.6848 H   0  0  0  0  0  0  0  0  0  0  0  0
   -3.1419    1.5231    1.6390 H   0  0  0  0  0  0  0  0  0  0  0  0
   -1.7035   -0.0211    1.6054 H   0  0  0  0  0  0  0  0  0  0  0  0
   -1.1619   -1.4011    0.7111 H   0  0  0  0  0  0  0  0  0  0  0  0
   -1.6003    1.3791   -0.5472 H   0  0  0  0  0  0  0  0  0  0  0  0
   -1.0918   -0.0648   -1.4258 H   0  0  0  0  0  0  0  0  0  0  0  0
    1.3919   -0.5584   -1.4452 H   0  0  0  0  0  0  0  0  0  0  0  0
    3.7222   -0.8291   -1.7734 H   0  0  0  0  0  0  0  0  0  0  0  0
    6.1516   -1.1387   -2.0521 H   0  0  0  0  0  0  0  0  0  0  0  0
    8.6640   -0.1940   -0.9204 H   0  0  0  0  0  0  0  0  0  0  0  0
    7.4024    2.3693    1.9247 H   0  0  0  0  0  0  0  0  0  0  0  0
    4.3980    2.0038    1.4299 H   0  0  0  0  0  0  0  0  0  0  0  0
   -2.5998   -2.7768   -0.4797 H   0  0  0  0  0  0  0  0  0  0  0  0
   -4.8646   -3.4274   -1.1668 H   0  0  0  0  0  0  0  0  0  0  0  0
   -6.7499   -1.8724   -0.8854 H   0  0  0  0  0  0  0  0  0  0  0  0
  1  2  1  0
  2  3  2  0
  3  4  1  0
  4  5  1  0
  5  6  1  0
  6  7  1  0
  7  8  2  0
  8  9  1  0
  9 10  2  0
 10 11  1  0
 11 12  2  0
 12 13  1  0
 13 14  1  0
 14 15  2  0
 15 16  1  0
 16 17  2  0
  8 18  1  0
 18 19  2  0
  3 20  1  0
 20 21  2  0
 21 22  1  0
 22 23  2  0
 23 24  1  0
 24 25  1  0
 24 26  1  0
 24 27  1  0
 23  2  1  0
 19  6  1  0
 17  9  1  0
 16 12  1  0
  1 28  1  0
  1 29  1  0
  1 30  1  0
  4 31  1  0
  4 32  1  0
  5 33  1  0
  5 34  1  0
  7 35  1  0
 10 36  1  0
 11 37  1  0
 13 38  1  0
 15 39  1  0
 17 40  1  0
 20 41  1  0
 21 42  1  0
 22 43  1  0
M  END
$$$$
