
     RDKit          3D

 46 48  0  0  0  0  0  0  0  0999 V2000
   -2.3567   -3.7888   -3.3111 N   0  0  0  0  0  0  0  0  0  0  0  0
   -2.7646   -2.7098   -2.4971 C   0  0  0  0  0  0  0  0  0  0  0  0
   -3.8694   -2.0427   -2.8792 N   0  0  0  0  0  0  0  0  0  0  0  0
   -4.2527   -0.9868   -2.1202 C   0  0  0  0  0  0  0  0  0  0  0  0
   -3.6036   -0.5483   -0.9653 C   0  0  0  0  0  0  0  0  0  0  0  0
   -4.0793    0.6092   -0.1940 C   0  0  0  0  0  0  0  0  0  0  0  0
   -3.1924    1.6225    0.2156 C   0  0  0  0  0  0  0  0  0  0  0  0
   -3.6435    2.7296    0.9432 C   0  0  0  0  0  0  0  0  0  0  0  0
   -4.9904    2.8429    1.2763 C   0  0  0  0  0  0  0  0  0  0  0  0
   -5.8856    1.8488    0.8892 C   0  0  0  0  0  0  0  0  0  0  0  0
   -5.4331    0.7420    0.1613 C   0  0  0  0  0  0  0  0  0  0  0  0
   -2.4661   -1.2721   -0.5898 C   0  0  0  0  0  0  0  0  0  0  0  0
   -2.0233   -2.3595   -1.3567 C   0  0  0  0  0  0  0  0  0  0  0  0
   -0.8774   -3.0926   -0.9809 N   0  0  0  0  0  0  0  0  0  0  0  0
    0.1439   -2.3985   -1.1692 N   0  0  0  0  0  0  0  0  0  0  0  0
    1.3219   -2.9953   -0.8191 C   0  0  0  0  0  0  0  0  0  0  0  0
    2.5181   -2.4108   -0.9632 C   0  0  0  0  0  0  0  0  0  0  0  0
    2.7444   -1.0313   -1.5064 C   0  0  0  0  0  0  0  0  0  0  0  0
    3.5689   -0.2878   -0.5779 N   0  0  0  0  0  0  0  0  0  0  0  0
    4.8920   -0.6781   -0.4696 F   0  0  0  0  0  0  0  0  0  0  0  0
    3.0152    0.5787    0.3540 C   0  0  0  0  0  0  0  0  0  0  0  0
    1.8105    0.8066    0.4444 O   0  0  0  0  0  0  0  0  0  0  0  0
    3.9427    1.2566    1.3019 C   0  0  0  0  0  0  0  0  0  0  0  0
    5.2178    1.6885    0.9169 C   0  0  0  0  0  0  0  0  0  0  0  0
    6.0421    2.3418    1.8363 C   0  0  0  0  0  0  0  0  0  0  0  0
    5.5929    2.5776    3.1339 C   0  0  0  0  0  0  0  0  0  0  0  0
    4.3175    2.1655    3.5183 C   0  0  0  0  0  0  0  0  0  0  0  0
    3.4912    1.5101    2.6056 C   0  0  0  0  0  0  0  0  0  0  0  0
   -2.3247   -4.6244   -2.7331 H   0  0  0  0  0  0  0  0  0  0  0  0
   -1.3982   -3.6044   -3.6033 H   0  0  0  0  0  0  0  0  0  0  0  0
   -5.1347   -0.4727   -2.4966 H   0  0  0  0  0  0  0  0  0  0  0  0
   -2.1341    1.5658   -0.0397 H   0  0  0  0  0  0  0  0  0  0  0  0
   -2.9416    3.5003    1.2507 H   0  0  0  0  0  0  0  0  0  0  0  0
   -5.3395    3.7059    1.8400 H   0  0  0  0  0  0  0  0  0  0  0  0
   -6.9365    1.9308    1.1541 H   0  0  0  0  0  0  0  0  0  0  0  0
   -6.1519   -0.0251   -0.1147 H   0  0  0  0  0  0  0  0  0  0  0  0
   -1.9058   -0.9954    0.3002 H   0  0  0  0  0  0  0  0  0  0  0  0
    1.2716   -4.0012   -0.4063 H   0  0  0  0  0  0  0  0  0  0  0  0
    3.4043   -2.9671   -0.6672 H   0  0  0  0  0  0  0  0  0  0  0  0
    3.2968   -1.0960   -2.4495 H   0  0  0  0  0  0  0  0  0  0  0  0
    1.8117   -0.4888   -1.6906 H   0  0  0  0  0  0  0  0  0  0  0  0
    5.5759    1.5373   -0.0974 H   0  0  0  0  0  0  0  0  0  0  0  0
    7.0324    2.6746    1.5370 H   0  0  0  0  0  0  0  0  0  0  0  0
    6.2354    3.0904    3.8449 H   0  0  0  0  0  0  0  0  0  0  0  0
    3.9643    2.3566    4.5285 H   0  0  0  0  0  0  0  0  0  0  0  0
    2.4938    1.1955    2.9102 H   0  0  0  0  0  0  0  0  0  0  0  0
  1  2  1  0
  2  3  2  0
  3  4  1  0
  4  5  2  0
  5  6  1  0
  6  7  2  0
  7  8  1  0
  8  9  2  0
  9 10  1  0
 10 11  2  0
  5 12  1  0
 12 13  2  0
 13 14  1  0
 14 15  2  3
 15 16  1  0
 16 17  2  3
 17 18  1  0
 18 19  1  0
 19 20  1  0
 19 21  1  0
 21 22  2  0
 21 23  1  0
 23 24  2  0
 24 25  1  0
 25 26  2  0
 26 27  1  0
 27 28  2  0
 13  2  1  0
 28 23  1  0
 11  6  1  0
  1 29  1  0
  1 30  1  0
  4 31  1  0
  7 32  1  0
  8 33  1  0
  9 34  1  0
 10 35  1  0
 11 36  1  0
 12 37  1  0
 16 38  1  0
 17 39  1  0
 18 40  1  0
 18 41  1  0
 24 42  1  0
 25 43  1  0
 26 44  1  0
 27 45  1  0
 28 46  1  0
M  END
$$$$
