
     RDKit          3D

 54 57  0  0  0  0  0  0  0  0999 V2000
   -2.8461   -2.6116    1.1497 C   0  0  0  0  0  0  0  0  0  0  0  0
   -3.1182   -1.1972    1.5928 C   0  0  0  0  0  0  0  0  0  0  0  0
   -3.4950   -0.9726    2.9302 C   0  0  0  0  0  0  0  0  0  0  0  0
   -3.7789    0.3139    3.3788 C   0  0  0  0  0  0  0  0  0  0  0  0
   -3.6934    1.3744    2.4907 C   0  0  0  0  0  0  0  0  0  0  0  0
   -3.9646    2.6142    2.9211 F   0  0  0  0  0  0  0  0  0  0  0  0
   -3.3209    1.1763    1.1650 C   0  0  0  0  0  0  0  0  0  0  0  0
   -3.0051   -0.1061    0.6947 C   0  0  0  0  0  0  0  0  0  0  0  0
   -2.6336   -0.3582   -0.6556 N   0  0  0  0  0  0  0  0  0  0  0  0
   -2.4683    0.6024   -1.6532 C   0  0  0  0  0  0  0  0  0  0  0  0
   -1.2974    0.8531   -2.2883 C   0  0  0  0  0  0  0  0  0  0  0  0
   -0.0520    0.1423   -1.9242 C   0  0  0  0  0  0  0  0  0  0  0  0
    0.3495   -0.9312   -2.7177 C   0  0  0  0  0  0  0  0  0  0  0  0
   -0.3475   -1.2883   -3.8057 F   0  0  0  0  0  0  0  0  0  0  0  0
    1.4763   -1.6365   -2.3633 C   0  0  0  0  0  0  0  0  0  0  0  0
    2.2194   -1.3522   -1.2736 N   0  0  0  0  0  0  0  0  0  0  0  0
    1.8517   -0.3125   -0.4893 C   0  0  0  0  0  0  0  0  0  0  0  0
    2.6112   -0.0016    0.6647 N   0  0  0  0  0  0  0  0  0  0  0  0
    3.8739   -0.4907    1.0668 C   0  0  0  0  0  0  0  0  0  0  0  0
    4.8339   -0.9666    0.1646 C   0  0  0  0  0  0  0  0  0  0  0  0
    6.0975   -1.3814    0.6000 C   0  0  0  0  0  0  0  0  0  0  0  0
    6.4193   -1.2937    1.9483 C   0  0  0  0  0  0  0  0  0  0  0  0
    7.6374   -1.6858    2.4170 O   0  0  0  0  0  0  0  0  0  0  0  0
    5.5038   -0.7894    2.8600 C   0  0  0  0  0  0  0  0  0  0  0  0
    4.2421   -0.3803    2.4185 C   0  0  0  0  0  0  0  0  0  0  0  0
    0.7244    0.4834   -0.7944 C   0  0  0  0  0  0  0  0  0  0  0  0
    0.3640    1.6507    0.0901 C   0  0  0  0  0  0  0  0  0  0  0  0
   -1.1576    1.8493   -3.4131 C   0  0  0  0  0  0  0  0  0  0  0  0
   -2.4833    2.0462   -4.1285 C   0  0  0  0  0  0  0  0  0  0  0  0
   -3.5596    2.2120   -3.1879 N   0  0  0  0  0  0  0  0  0  0  0  0
   -3.7048    1.3734   -2.1130 C   0  0  0  0  0  0  0  0  0  0  0  0
   -4.8021    1.2767   -1.5723 O   0  0  0  0  0  0  0  0  0  0  0  0
   -3.4783   -2.8718    0.2949 H   0  0  0  0  0  0  0  0  0  0  0  0
   -3.0612   -3.3322    1.9459 H   0  0  0  0  0  0  0  0  0  0  0  0
   -1.7927   -2.7258    0.8761 H   0  0  0  0  0  0  0  0  0  0  0  0
   -3.5785   -1.8039    3.6271 H   0  0  0  0  0  0  0  0  0  0  0  0
   -4.0766    0.4939    4.4065 H   0  0  0  0  0  0  0  0  0  0  0  0
   -3.2802    2.0474    0.5208 H   0  0  0  0  0  0  0  0  0  0  0  0
   -1.9002   -1.0603   -0.6728 H   0  0  0  0  0  0  0  0  0  0  0  0
    1.8151   -2.4786   -2.9575 H   0  0  0  0  0  0  0  0  0  0  0  0
    1.9912    0.1068    1.4599 H   0  0  0  0  0  0  0  0  0  0  0  0
    4.6136   -1.0166   -0.8980 H   0  0  0  0  0  0  0  0  0  0  0  0
    6.8087   -1.7571   -0.1280 H   0  0  0  0  0  0  0  0  0  0  0  0
    8.1537   -2.0363    1.6728 H   0  0  0  0  0  0  0  0  0  0  0  0
    5.7698   -0.7091    3.9100 H   0  0  0  0  0  0  0  0  0  0  0  0
    3.5472    0.0267    3.1484 H   0  0  0  0  0  0  0  0  0  0  0  0
   -0.3425    2.3387   -0.3821 H   0  0  0  0  0  0  0  0  0  0  0  0
    1.2532    2.2470    0.3222 H   0  0  0  0  0  0  0  0  0  0  0  0
   -0.0791    1.2895    1.0235 H   0  0  0  0  0  0  0  0  0  0  0  0
   -0.8142    2.8026   -2.9912 H   0  0  0  0  0  0  0  0  0  0  0  0
   -0.4081    1.5316   -4.1474 H   0  0  0  0  0  0  0  0  0  0  0  0
   -2.7202    1.1747   -4.7504 H   0  0  0  0  0  0  0  0  0  0  0  0
   -2.4531    2.9300   -4.7735 H   0  0  0  0  0  0  0  0  0  0  0  0
   -4.4436    2.5903   -3.5069 H   0  0  0  0  0  0  0  0  0  0  0  0
  1  2  1  0
  2  3  2  0
  3  4  1  0
  4  5  2  0
  5  6  1  0
  5  7  1  0
  7  8  2  0
  8  9  1  0
  9 10  1  0
 10 11  2  0
 11 12  1  0
 12 13  2  0
 13 14  1  0
 13 15  1  0
 15 16  2  0
 16 17  1  0
 17 18  1  0
 18 19  1  0
 19 20  2  0
 20 21  1  0
 21 22  2  0
 22 23  1  0
 22 24  1  0
 24 25  2  0
 17 26  2  0
 26 27  1  0
 11 28  1  0
 28 29  1  0
 29 30  1  0
 30 31  1  0
 31 32  2  0
  8  2  1  0
 31 10  1  0
 26 12  1  0
 25 19  1  0
  1 33  1  0
  1 34  1  0
  1 35  1  0
  3 36  1  0
  4 37  1  0
  7 38  1  0
  9 39  1  0
 15 40  1  0
 18 41  1  0
 20 42  1  0
 21 43  1  0
 23 44  1  0
 24 45  1  0
 25 46  1  0
 27 47  1  0
 27 48  1  0
 27 49  1  0
 28 50  1  0
 28 51  1  0
 29 52  1  0
 29 53  1  0
 30 54  1  0
M  END
$$$$
