
     RDKit          3D

 35 36  0  0  0  0  0  0  0  0999 V2000
   -2.0709    2.2304    0.8351 C   0  0  0  0  0  0  0  0  0  0  0  0
   -2.5772    0.9560    0.2163 C   0  0  0  0  0  0  0  0  0  0  0  0
   -3.9341    0.8515   -0.1350 C   0  0  0  0  0  0  0  0  0  0  0  0
   -4.4523   -0.3224   -0.7093 C   0  0  0  0  0  0  0  0  0  0  0  0
   -5.9184   -0.4208   -1.0610 C   0  0  0  0  0  0  0  0  0  0  0  0
   -6.1571   -1.2557   -2.1111 F   0  0  0  0  0  0  0  0  0  0  0  0
   -6.6683   -0.8936   -0.0287 F   0  0  0  0  0  0  0  0  0  0  0  0
   -6.4669    0.7766   -1.4079 F   0  0  0  0  0  0  0  0  0  0  0  0
   -3.5974   -1.4158   -0.9090 C   0  0  0  0  0  0  0  0  0  0  0  0
   -2.2492   -1.3328   -0.5570 C   0  0  0  0  0  0  0  0  0  0  0  0
   -1.7371   -0.1513   -0.0003 C   0  0  0  0  0  0  0  0  0  0  0  0
   -0.3006   -0.1047    0.3785 C   0  0  0  0  0  0  0  0  0  0  0  0
    0.0226    0.2295    1.5114 O   0  0  0  0  0  0  0  0  0  0  0  0
    0.5704   -0.4764   -0.6262 N   0  0  0  0  0  0  0  0  0  0  0  0
    2.0393   -0.4249   -0.4604 C   0  0  0  0  0  0  0  0  0  0  0  0
    3.0680   -0.8056   -1.2566 C   0  0  0  0  0  0  0  0  0  0  0  0
    4.0543   -0.4284   -0.2762 C   0  0  0  0  0  0  0  0  0  0  0  0
    5.3876   -0.5062   -0.2457 C   0  0  0  0  0  0  0  0  0  0  0  0
    6.1632   -0.0163    0.8928 C   0  0  0  0  0  0  0  0  0  0  0  0
    7.3675   -0.1684    1.0042 O   0  0  0  0  0  0  0  0  0  0  0  0
    5.4636    0.6422    1.8318 O   0  0  0  0  0  0  0  0  0  0  0  0
    2.9676    0.0796    0.6455 C   0  0  0  0  0  0  0  0  0  0  0  0
    2.9875    1.5087    0.8088 O   0  0  0  0  0  0  0  0  0  0  0  0
   -2.7877    3.0479    0.7010 H   0  0  0  0  0  0  0  0  0  0  0  0
   -1.9132    2.0931    1.9092 H   0  0  0  0  0  0  0  0  0  0  0  0
   -1.1358    2.5483    0.3628 H   0  0  0  0  0  0  0  0  0  0  0  0
   -4.6009    1.6968    0.0404 H   0  0  0  0  0  0  0  0  0  0  0  0
   -3.9843   -2.3432   -1.3301 H   0  0  0  0  0  0  0  0  0  0  0  0
   -1.6107   -2.2033   -0.6912 H   0  0  0  0  0  0  0  0  0  0  0  0
    0.2111   -0.7631   -1.5271 H   0  0  0  0  0  0  0  0  0  0  0  0
    3.1387   -1.2557   -2.2424 H   0  0  0  0  0  0  0  0  0  0  0  0
    5.9462   -0.9387   -1.0653 H   0  0  0  0  0  0  0  0  0  0  0  0
    6.1504    0.8726    2.4952 H   0  0  0  0  0  0  0  0  0  0  0  0
    2.8700   -0.4292    1.6116 H   0  0  0  0  0  0  0  0  0  0  0  0
    3.7539    1.6393    1.3956 H   0  0  0  0  0  0  0  0  0  0  0  0
  1  2  1  0
  2  3  2  0
  3  4  1  0
  4  5  1  0
  5  6  1  0
  5  7  1  0
  5  8  1  0
  4  9  2  0
  9 10  1  0
 10 11  2  0
 11 12  1  0
 12 13  2  0
 12 14  1  0
 14 15  1  0
 15 16  2  0
 16 17  1  0
 17 18  2  3
 18 19  1  0
 19 20  2  0
 19 21  1  0
 17 22  1  0
 22 23  1  0
 11  2  1  0
 22 15  1  0
  1 24  1  0
  1 25  1  0
  1 26  1  0
  3 27  1  0
  9 28  1  0
 10 29  1  0
 14 30  1  0
 16 31  1  0
 18 32  1  0
 21 33  1  0
 22 34  1  0
 23 35  1  0
M  END
$$$$
