REMARK SMILES COc1ccc(O)c(C(=O)c2ccc(COc3ccccc3NC(=O)c3ccnc(N4CCOCC4)c3)cc2)c1F
REMARK SMILES IDX 15 1 14 2 11 3 12 4 39 5 13 6 38 7 9 8 10 9 8 10 3 11 4 12
REMARK SMILES IDX 40 13 5 14 6 15 41 16 2 17 1 18 7 19 16 21 17 22 18 23 22 24
REMARK SMILES IDX 19 25 21 26 20 27 23 28 24 29 25 31 26 32 27 33 37 34 28 35
REMARK SMILES IDX 30 36 29 37 31 38 32 39 36 40 33 41 35 42 34 43
REMARK H PARENT 7 20 23 30
ROOT
ATOM      1  C   UNL     1       0.582  -3.134   0.306  1.00  0.00     0.265 C 
ENDROOT
BRANCH   1   2
ATOM      2  C   UNL     1      -0.817  -2.775   0.759  1.00  0.00    -0.011 A 
ATOM      3  C   UNL     1      -3.409  -2.122   1.621  1.00  0.00     0.023 A 
ATOM      4  C   UNL     1      -2.459  -1.113   1.439  1.00  0.00     0.012 A 
ATOM      5  C   UNL     1      -3.055  -3.459   1.415  1.00  0.00     0.012 A 
ATOM      6  C   UNL     1      -1.170  -1.441   1.011  1.00  0.00     0.008 A 
ATOM      7  C   UNL     1      -1.767  -3.783   0.983  1.00  0.00     0.008 A 
BRANCH   3   8
ATOM      8  C   UNL     1      -4.776  -1.818   2.098  1.00  0.00     0.199 C 
ATOM      9  O   UNL     1      -5.272  -2.534   2.969  1.00  0.00    -0.288 OA
BRANCH   8  10
ATOM     10  C   UNL     1      -5.560  -0.657   1.617  1.00  0.00     0.104 A 
ATOM     11  C   UNL     1      -6.154   0.960  -0.111  1.00  0.00     0.155 A 
ATOM     12  C   UNL     1      -7.067   1.555   0.764  1.00  0.00     0.053 A 
ATOM     13  C   UNL     1      -5.414  -0.149   0.324  1.00  0.00     0.179 A 
ATOM     14  C   UNL     1      -7.242   1.040   2.050  1.00  0.00     0.051 A 
ATOM     15  C   UNL     1      -6.505  -0.066   2.466  1.00  0.00     0.130 A 
ATOM     16  F   UNL     1      -4.564  -0.732  -0.539  1.00  0.00    -0.202 F 
BRANCH  11  17
ATOM     17  O   UNL     1      -5.905   1.365  -1.394  1.00  0.00    -0.494 OA
ATOM     18  C   UNL     1      -6.618   2.498  -1.873  1.00  0.00     0.278 C 
ENDBRANCH  11  17
BRANCH  15  19
ATOM     19  O   UNL     1      -6.763  -0.528   3.729  1.00  0.00    -0.507 OA
ATOM     20  H   UNL     1      -6.348  -1.417   3.814  1.00  0.00     0.293 HD
ENDBRANCH  15  19
ENDBRANCH   8  10
ENDBRANCH   3   8
ENDBRANCH   1   2
BRANCH   1  21
ATOM     21  O   UNL     1       1.128  -2.191  -0.622  1.00  0.00    -0.487 OA
BRANCH  21  22
ATOM     22  C   UNL     1       0.658  -2.197  -1.918  1.00  0.00     0.143 A 
ATOM     23  C   UNL     1      -0.087  -3.224  -2.501  1.00  0.00     0.049 A 
ATOM     24  C   UNL     1       0.982  -1.050  -2.678  1.00  0.00     0.084 A 
ATOM     25  C   UNL     1      -0.511  -3.116  -3.827  1.00  0.00     0.004 A 
ATOM     26  C   UNL     1       0.558  -0.957  -4.005  1.00  0.00     0.030 A 
ATOM     27  C   UNL     1      -0.188  -1.988  -4.577  1.00  0.00     0.002 A 
BRANCH  24  28
ATOM     28  N   UNL     1       1.732  -0.045  -2.027  1.00  0.00    -0.319 N 
ATOM     29  C   UNL     1       2.022   1.224  -2.482  1.00  0.00     0.255 C 
ATOM     30  H   UNL     1       1.974  -0.284  -1.071  1.00  0.00     0.170 HD
ATOM     31  O   UNL     1       1.640   1.743  -3.523  1.00  0.00    -0.269 OA
BRANCH  29  32
ATOM     32  C   UNL     1       2.850   2.037  -1.556  1.00  0.00     0.045 A 
ATOM     33  C   UNL     1       2.584   3.396  -1.442  1.00  0.00     0.034 A 
ATOM     34  C   UNL     1       3.910   1.472  -0.842  1.00  0.00     0.060 A 
ATOM     35  C   UNL     1       3.386   4.126  -0.593  1.00  0.00     0.114 A 
ATOM     36  C   UNL     1       4.671   2.274   0.005  1.00  0.00     0.129 A 
ATOM     37  N   UNL     1       4.403   3.594   0.122  1.00  0.00    -0.239 NA
BRANCH  36  38
ATOM     38  N   UNL     1       5.770   1.725   0.691  1.00  0.00    -0.352 N 
ATOM     39  C   UNL     1       5.436   0.580   1.566  1.00  0.00     0.146 C 
ATOM     40  C   UNL     1       6.578   2.741   1.406  1.00  0.00     0.146 C 
ATOM     41  C   UNL     1       6.725  -0.003   2.170  1.00  0.00     0.181 C 
ATOM     42  C   UNL     1       7.822   2.077   2.017  1.00  0.00     0.181 C 
ATOM     43  O   UNL     1       7.467   0.992   2.893  1.00  0.00    -0.378 OA
ENDBRANCH  36  38
ENDBRANCH  29  32
ENDBRANCH  24  28
ENDBRANCH  21  22
ENDBRANCH   1  21
TORSDOF 10
