MODEL        8USER    Run = 8USERUSER    Estimated Free Energy of Binding    =  -9.69 kcal/mol  [=(1)+(2)+(3)-(4)]USERUSER    (1) Final Intermolecular Energy     = -12.67 kcal/molUSER        vdW + Hbond + desolv Energy     = -12.50 kcal/molUSER        Electrostatic Energy            =  -0.17 kcal/molUSER        Moving Ligand-Fixed Receptor    = -12.67 kcal/molUSER        Moving Ligand-Moving Receptor   =  +0.00 kcal/molUSER    (2) Final Total Internal Energy     =  -3.08 kcal/molUSER    (3) Torsional Free Energy           =  +2.98 kcal/molUSER    (4) Unbound System's Energy         =  -3.08 kcal/molUSERUSERREMARK SMILES COc1ccc(O)c(C(=O)c2ccc(COc3ccccc3NC(=O)c3ccnc(N4CCOCC4)c3)cc2)c1FREMARK SMILES IDX 15 1 14 2 11 3 12 4 39 5 13 6 38 7 9 8 10 9 8 10 3 11 4 12REMARK SMILES IDX 40 13 5 14 6 15 41 16 2 17 1 18 7 19 16 21 17 22 18 23 22 24REMARK SMILES IDX 19 25 21 26 20 27 23 28 24 29 25 31 26 32 27 33 37 34 28 35REMARK SMILES IDX 30 36 29 37 31 38 32 39 36 40 33 41 35 42 34 43REMARK H PARENT 7 20 23 30USER                              x       y       z     vdW  Elec       q    TypeUSER                           _______ _______ _______ _____ _____    ______ ____ROOTATOM      1  C   UNL     1      43.360  47.116  23.275 -0.16 +0.06    +0.265 C  ENDROOTBRANCH   1   2ATOM      2  C   UNL     1      42.616  46.800  21.995 -0.30 -0.00    -0.011 A  ATOM      3  C   UNL     1      41.252  46.196  19.615 -0.41 +0.00    +0.023 A  ATOM      4  C   UNL     1      40.629  45.987  20.849 -0.23 +0.00    +0.012 A  ATOM      5  C   UNL     1      42.569  46.665  19.569 -0.44 +0.00    +0.012 A  ATOM      6  C   UNL     1      41.311  46.288  22.031 -0.25 +0.00    +0.008 A  ATOM      7  C   UNL     1      43.245  46.969  20.752 -0.39 +0.00    +0.008 A  BRANCH   3   8ATOM      8  C   UNL     1      40.574  45.866  18.342 -0.40 -0.01    +0.199 C  ATOM      9  O   UNL     1      40.308  44.687  18.102 -0.26 +0.01    -0.288 OA BRANCH   8  10ATOM     10  C   UNL     1      40.149  46.893  17.363 -0.42 -0.02    +0.104 A  ATOM     11  C   UNL     1      40.547  48.938  16.093 -0.45 -0.04    +0.155 A  ATOM     12  C   UNL     1      39.284  48.816  15.508 -0.47 -0.03    +0.053 A  ATOM     13  C   UNL     1      40.971  47.966  17.012 -0.38 -0.02    +0.179 A  ATOM     14  C   UNL     1      38.464  47.733  15.830 -0.43 -0.03    +0.051 A  ATOM     15  C   UNL     1      38.900  46.772  16.739 -0.34 -0.04    +0.130 A  ATOM     16  F   UNL     1      42.201  48.077  17.542 -0.14 -0.00    -0.202 F  BRANCH  11  17ATOM     17  O   UNL     1      41.441  49.944  15.848 -0.80 +0.05    -0.494 OA ATOM     18  C   UNL     1      41.796  50.189  14.494 -0.50 -0.06    +0.278 C  ENDBRANCH  11  17BRANCH  15  19ATOM     19  O   UNL     1      38.049  45.725  16.972 -0.08 +0.15    -0.507 OA ATOM     20  H   UNL     1      38.591  44.958  17.268 +0.19 -0.06    +0.293 HD ENDBRANCH  15  19ENDBRANCH   8  10ENDBRANCH   3   8ENDBRANCH   1   2BRANCH   1  21ATOM     21  O   UNL     1      43.249  48.490  23.661 -0.48 -0.12    -0.487 OA BRANCH  21  22ATOM     22  C   UNL     1      43.803  48.882  24.861 -0.24 +0.03    +0.143 A  ATOM     23  C   UNL     1      45.086  49.409  25.023 -0.20 +0.01    +0.049 A  ATOM     24  C   UNL     1      42.967  48.717  25.989 -0.20 +0.01    +0.084 A  ATOM     25  C   UNL     1      45.538  49.774  26.293 -0.19 +0.00    +0.004 A  ATOM     26  C   UNL     1      43.433  49.079  27.254 -0.07 -0.00    +0.030 A  ATOM     27  C   UNL     1      44.716  49.607  27.405 -0.12 -0.00    +0.002 A  BRANCH  24  28ATOM     28  N   UNL     1      41.679  48.185  25.755 -0.10 -0.03    -0.319 N  ATOM     29  C   UNL     1      40.856  47.536  26.651 -0.12 +0.02    +0.255 C  ATOM     30  H   UNL     1      41.308  48.425  24.842 +0.07 +0.02    +0.170 HD ATOM     31  O   UNL     1      41.065  47.340  27.842 -0.69 -0.04    -0.269 OA BRANCH  29  32ATOM     32  C   UNL     1      39.561  47.084  26.083 -0.19 +0.00    +0.045 A  ATOM     33  C   UNL     1      38.394  47.710  26.503 -0.26 +0.00    +0.034 A  ATOM     34  C   UNL     1      39.495  46.020  25.180 -0.15 +0.00    +0.060 A  ATOM     35  C   UNL     1      37.208  47.251  25.975 -0.30 -0.00    +0.114 A  ATOM     36  C   UNL     1      38.258  45.619  24.682 -0.21 +0.01    +0.129 A  ATOM     37  N   UNL     1      37.125  46.237  25.084 -0.78 -0.05    -0.239 NA BRANCH  36  38ATOM     38  N   UNL     1      38.176  44.518  23.809 -0.11 -0.03    -0.352 N  ATOM     39  C   UNL     1      37.964  44.876  22.390 -0.30 +0.01    +0.146 C  ATOM     40  C   UNL     1      37.214  43.485  24.261 -0.31 +0.01    +0.146 C  ATOM     41  C   UNL     1      38.005  43.605  21.524 -0.29 +0.01    +0.181 C  ATOM     42  C   UNL     1      37.282  42.269  23.325 -0.37 +0.01    +0.181 C  ATOM     43  O   UNL     1      37.034  42.639  21.957 -0.22 -0.02    -0.378 OA ENDBRANCH  36  38ENDBRANCH  29  32ENDBRANCH  24  28ENDBRANCH  21  22ENDBRANCH   1  21TORSDOF 10TERENDMDL