MODEL        7USER    Run = 7USERUSER    Estimated Free Energy of Binding    = -10.19 kcal/mol  [=(1)+(2)+(3)-(4)]USERUSER    (1) Final Intermolecular Energy     = -13.47 kcal/molUSER        vdW + Hbond + desolv Energy     = -13.29 kcal/molUSER        Electrostatic Energy            =  -0.18 kcal/molUSER        Moving Ligand-Fixed Receptor    = -13.47 kcal/molUSER        Moving Ligand-Moving Receptor   =  +0.00 kcal/molUSER    (2) Final Total Internal Energy     =  -2.49 kcal/molUSER    (3) Torsional Free Energy           =  +3.28 kcal/molUSER    (4) Unbound System's Energy         =  -2.49 kcal/molUSERUSERREMARK SMILES CC(C)c1cccc(C=c2cc3c(cn2)=C(NCC2CC2)NN=C3)c1CN1CCN(CC(=O)O)CC1REMARK SMILES IDX 4 1 5 2 6 3 7 4 8 5 25 6 2 7 1 8 3 9 26 10 27 11 28 12 36 13REMARK SMILES IDX 29 14 35 15 30 16 31 17 32 18 33 19 34 20 9 22 10 23 11 24REMARK SMILES IDX 15 25 12 26 14 27 13 28 24 29 16 30 23 31 22 32 17 34 18 36REMARK SMILES IDX 19 37 20 38 21 39REMARK H PARENT 34 21 22 33 17 35USER                              x       y       z     vdW  Elec       q    TypeUSER                           _______ _______ _______ _____ _____    ______ ____ROOTATOM      1  C   UNL     1      37.037  42.578  25.236 -0.36 +0.00    -0.040 A  ATOM      2  C   UNL     1      36.489  41.754  24.231 -0.37 -0.00    +0.004 A  ATOM      3  C   UNL     1      36.564  42.103  22.886 -0.49 +0.00    +0.001 A  ATOM      4  C   UNL     1      37.180  43.290  22.516 -0.39 +0.00    +0.008 A  ATOM      5  C   UNL     1      37.723  44.145  23.486 -0.32 -0.00    -0.019 A  ATOM      6  C   UNL     1      37.659  43.802  24.860 -0.29 -0.00    -0.023 A  ENDROOTBRANCH   1   7ATOM      7  C   UNL     1      36.920  42.125  26.691 -0.48 -0.00    +0.013 C  ATOM      8  C   UNL     1      35.571  41.448  26.952 -0.67 -0.00    +0.012 C  ATOM      9  C   UNL     1      38.078  41.206  27.101 -0.48 -0.00    +0.012 C  ENDBRANCH   1   7BRANCH   6  10ATOM     10  C   UNL     1      38.262  44.738  25.904 -0.21 -0.00    +0.121 C  BRANCH  10  11ATOM     11  N   UNL     1      37.300  45.687  26.484 -0.19 +0.03    -0.297 NA ATOM     12  C   UNL     1      36.781  45.191  27.774 -0.38 -0.02    +0.100 C  ATOM     13  C   UNL     1      37.823  47.049  26.628 -0.30 -0.01    +0.100 C  ATOM     14  C   UNL     1      36.219  46.284  28.724 -0.06 -0.02    +0.100 C  ATOM     15  C   UNL     1      36.747  48.041  27.155 -0.35 -0.01    +0.100 C  ATOM     16  N   UNL     1      35.686  47.434  27.985 -0.10 +0.08    -0.291 NA BRANCH  16  17ATOM     17  C   UNL     1      35.048  48.438  28.851 -0.29 -0.02    +0.207 C  BRANCH  17  18ATOM     18  C   UNL     1      33.906  47.840  29.659 -0.25 -0.03    +0.317 C  ATOM     19  O   UNL     1      33.406  48.326  30.664 -0.21 +0.02    -0.251 OA BRANCH  18  20ATOM     20  O   UNL     1      33.462  46.657  29.178 -0.57 +0.01    -0.480 OA ATOM     21  H   UNL     1      33.895  46.575  28.306 -0.33 -0.07    +0.296 HD ENDBRANCH  18  20ENDBRANCH  17  18ENDBRANCH  16  17ENDBRANCH  10  11ENDBRANCH   6  10BRANCH   5  22ATOM     22  C   UNL     1      38.334  45.391  22.990 -0.34 +0.00    +0.036 C  BRANCH  22  23ATOM     23  C   UNL     1      39.035  45.485  21.844 -0.30 +0.00    +0.064 A  ATOM     24  C   UNL     1      40.384  46.042  21.868 -0.18 +0.00    +0.039 A  ATOM     25  N   UNL     1      38.507  45.056  20.644 -0.21 -0.00    -0.256 NA ATOM     26  C   UNL     1      41.082  46.222  20.740 -0.26 +0.00    +0.009 A  ATOM     27  C   UNL     1      39.187  45.228  19.552 -0.32 -0.00    +0.124 A  ATOM     28  C   UNL     1      40.525  45.854  19.464 -0.40 +0.00    +0.044 A  ATOM     29  C   UNL     1      42.444  46.792  20.732 -0.33 +0.03    +0.142 C  ATOM     30  C   UNL     1      41.232  46.089  18.331 -0.47 -0.00    +0.129 C  ATOM     31  N   UNL     1      43.126  47.005  19.648 -0.38 -0.06    -0.182 NA ATOM     32  N   UNL     1      42.486  46.684  18.480 -0.29 -0.01    -0.263 N  ATOM     33  H   UNL     1      43.059  46.659  17.642 -0.43 -0.08    +0.192 HD BRANCH  30  34ATOM     34  N   UNL     1      40.774  45.765  17.064 -0.15 +0.02    -0.370 N  ATOM     35  H   UNL     1      40.125  44.991  17.017 +0.13 -0.01    +0.162 HD BRANCH  34  36ATOM     36  C   UNL     1      40.632  46.669  15.935 -0.39 -0.01    +0.118 C  BRANCH  36  37ATOM     37  C   UNL     1      40.206  48.030  16.396 -0.61 -0.00    +0.008 C  ATOM     38  C   UNL     1      41.020  49.268  16.096 -0.69 -0.00    +0.006 C  ATOM     39  C   UNL     1      39.707  49.047  15.398 -0.58 -0.00    +0.006 C  ENDBRANCH  36  37ENDBRANCH  34  36ENDBRANCH  30  34ENDBRANCH  22  23ENDBRANCH   5  22TORSDOF 11TERENDMDL