REMARK SMILES CC(C)c1cccc(C=c2cc3c(cn2)=C(NCC2CC2)NN=C3)c1CN1CCN(CC(=O)O)CC1
REMARK SMILES IDX 4 1 5 2 6 3 7 4 8 5 25 6 2 7 1 8 3 9 26 10 27 11 28 12 36 13
REMARK SMILES IDX 29 14 35 15 30 16 31 17 32 18 33 19 34 20 9 22 10 23 11 24
REMARK SMILES IDX 15 25 12 26 14 27 13 28 24 29 16 30 23 31 22 32 17 34 18 36
REMARK SMILES IDX 19 37 20 38 21 39
REMARK H PARENT 34 21 22 33 17 35
ROOT
ATOM      1  C   UNL     1      -2.233  -2.690   0.288  1.00  0.00    -0.040 A 
ATOM      2  C   UNL     1      -2.037  -3.995  -0.209  1.00  0.00     0.004 A 
ATOM      3  C   UNL     1      -1.101  -4.261  -1.203  1.00  0.00     0.001 A 
ATOM      4  C   UNL     1      -0.345  -3.224  -1.732  1.00  0.00     0.008 A 
ATOM      5  C   UNL     1      -0.520  -1.909  -1.277  1.00  0.00    -0.019 A 
ATOM      6  C   UNL     1      -1.467  -1.622  -0.261  1.00  0.00    -0.023 A 
ENDROOT
BRANCH   1   7
ATOM      7  C   UNL     1      -3.276  -2.478   1.384  1.00  0.00     0.013 C 
ATOM      8  C   UNL     1      -4.690  -2.744   0.860  1.00  0.00     0.012 C 
ATOM      9  C   UNL     1      -2.987  -3.333   2.625  1.00  0.00     0.012 C 
ENDBRANCH   1   7
BRANCH   6  10
ATOM     10  C   UNL     1      -1.641  -0.188   0.230  1.00  0.00     0.121 C 
BRANCH  10  11
ATOM     11  N   UNL     1      -2.957   0.393  -0.072  1.00  0.00    -0.297 NA
ATOM     12  C   UNL     1      -3.136   1.685   0.621  1.00  0.00     0.100 C 
ATOM     13  C   UNL     1      -3.229   0.535  -1.506  1.00  0.00     0.100 C 
ATOM     14  C   UNL     1      -4.188   2.635  -0.015  1.00  0.00     0.100 C 
ATOM     15  C   UNL     1      -4.665   1.063  -1.784  1.00  0.00     0.100 C 
ATOM     16  N   UNL     1      -5.247   1.896  -0.711  1.00  0.00    -0.291 NA
BRANCH  16  17
ATOM     17  C   UNL     1      -6.317   2.762  -1.231  1.00  0.00     0.207 C 
BRANCH  17  18
ATOM     18  C   UNL     1      -7.108   3.415  -0.107  1.00  0.00     0.317 C 
ATOM     19  O   UNL     1      -7.081   4.600   0.195  1.00  0.00    -0.251 OA
BRANCH  18  20
ATOM     20  O   UNL     1      -7.875   2.549   0.591  1.00  0.00    -0.480 OA
ATOM     21  H   UNL     1      -8.256   3.091   1.309  1.00  0.00     0.296 HD
ENDBRANCH  18  20
ENDBRANCH  17  18
ENDBRANCH  16  17
ENDBRANCH  10  11
ENDBRANCH   6  10
BRANCH   5  22
ATOM     22  C   UNL     1       0.315  -0.879  -1.919  1.00  0.00     0.036 C 
BRANCH  22  23
ATOM     23  C   UNL     1       1.532  -0.510  -1.478  1.00  0.00     0.064 A 
ATOM     24  C   UNL     1       2.287   0.503  -2.209  1.00  0.00     0.039 A 
ATOM     25  N   UNL     1       2.080  -1.064  -0.340  1.00  0.00    -0.256 NA
ATOM     26  C   UNL     1       3.530   0.841  -1.846  1.00  0.00     0.009 A 
ATOM     27  C   UNL     1       3.284  -0.732   0.013  1.00  0.00     0.124 A 
ATOM     28  C   UNL     1       4.157   0.223  -0.706  1.00  0.00     0.044 A 
ATOM     29  C   UNL     1       4.321   1.855  -2.571  1.00  0.00     0.142 C 
ATOM     30  C   UNL     1       5.434   0.547  -0.385  1.00  0.00     0.129 C 
ATOM     31  N   UNL     1       5.539   2.175  -2.256  1.00  0.00    -0.182 NA
ATOM     32  N   UNL     1       6.072   1.485  -1.199  1.00  0.00    -0.263 N 
ATOM     33  H   UNL     1       6.940   1.846  -0.814  1.00  0.00     0.192 HD
BRANCH  30  34
ATOM     34  N   UNL     1       6.112   0.003   0.694  1.00  0.00    -0.370 N 
ATOM     35  H   UNL     1       5.622  -0.724   1.198  1.00  0.00     0.162 HD
BRANCH  34  36
ATOM     36  C   UNL     1       7.552  -0.093   0.855  1.00  0.00     0.118 C 
BRANCH  36  37
ATOM     37  C   UNL     1       8.091   1.124   1.545  1.00  0.00     0.008 C 
ATOM     38  C   UNL     1       7.503   1.637   2.840  1.00  0.00     0.006 C 
ATOM     39  C   UNL     1       8.858   0.986   2.838  1.00  0.00     0.006 C 
ENDBRANCH  36  37
ENDBRANCH  34  36
ENDBRANCH  30  34
ENDBRANCH  22  23
ENDBRANCH   5  22
TORSDOF 11
