MODEL        7USER    Run = 7USERUSER    Estimated Free Energy of Binding    = -12.34 kcal/mol  [=(1)+(2)+(3)-(4)]USERUSER    (1) Final Intermolecular Energy     = -14.13 kcal/molUSER        vdW + Hbond + desolv Energy     = -14.07 kcal/molUSER        Electrostatic Energy            =  -0.06 kcal/molUSER        Moving Ligand-Fixed Receptor    = -14.13 kcal/molUSER        Moving Ligand-Moving Receptor   =  +0.00 kcal/molUSER    (2) Final Total Internal Energy     =  -1.45 kcal/molUSER    (3) Torsional Free Energy           =  +1.79 kcal/molUSER    (4) Unbound System's Energy         =  -1.45 kcal/molUSERUSERREMARK SMILES Oc1nc2ccccc2n1C1CCN(Cc2ccc(-c3nc4cc(F)ccc4nc3-c3ccncc3)cc2)CC1REMARK SMILES IDX 11 1 12 2 13 3 14 4 39 5 40 6 10 7 2 8 3 9 4 10 9 11 5 12REMARK SMILES IDX 8 13 6 14 7 15 1 16 15 18 16 19 17 20 38 21 18 22 37 23REMARK SMILES IDX 19 24 20 25 21 26 30 27 22 28 29 29 23 30 28 31 24 32 27 33REMARK SMILES IDX 26 34 25 35 31 36 32 37 36 38 33 39 35 40 34 41REMARK H PARENT 1 17USER                              x       y       z     vdW  Elec       q    TypeUSER                           _______ _______ _______ _____ _____    ______ ____ROOTATOM      1  C   UNL     1      40.696  46.050  18.914 -0.46 -0.00    +0.095 C  ATOM      2  C   UNL     1      39.242  45.881  19.367 -0.37 -0.00    +0.041 C  ATOM      3  C   UNL     1      39.103  44.687  20.320 -0.36 -0.00    +0.087 C  ATOM      4  N   UNL     1      40.322  44.417  21.087 -0.14 -0.01    -0.299 NA ATOM      5  C   UNL     1      41.072  45.626  21.404 -0.30 +0.01    +0.087 C  ATOM      6  C   UNL     1      41.639  46.232  20.117 -0.43 +0.01    +0.041 C  ENDROOTBRANCH   1   7ATOM      7  N   UNL     1      40.868  47.089  17.910 -0.31 +0.03    -0.291 N  ATOM      8  C   UNL     1      41.829  48.061  17.898 -0.18 -0.01    +0.295 A  ATOM      9  N   UNL     1      41.742  48.865  16.874 -0.86 -0.03    -0.195 NA ATOM     10  C   UNL     1      40.668  48.390  16.160 -0.50 -0.02    +0.092 A  ATOM     11  C   UNL     1      40.099  47.273  16.778 -0.45 -0.01    +0.072 A  ATOM     12  C   UNL     1      40.122  48.867  14.960 -0.55 -0.01    +0.031 A  ATOM     13  C   UNL     1      38.995  46.600  16.240 -0.41 -0.01    +0.029 A  ATOM     14  C   UNL     1      39.020  48.206  14.408 -0.51 -0.00    +0.002 A  ATOM     15  C   UNL     1      38.469  47.091  15.039 -0.45 -0.00    +0.002 A  BRANCH   8  16ATOM     16  O   UNL     1      42.772  48.200  18.806 -0.29 +0.00    -0.480 OA ATOM     17  H   UNL     1      42.920  49.163  18.776 -0.28 -0.02    +0.296 HD ENDBRANCH   8  16ENDBRANCH   1   7BRANCH   4  18ATOM     18  C   UNL     1      40.129  43.497  22.215 -0.24 +0.00    +0.120 C  BRANCH  18  19ATOM     19  C   UNL     1      39.317  44.009  23.387 -0.21 -0.00    -0.034 A  ATOM     20  C   UNL     1      39.945  44.588  24.497 -0.14 +0.00    +0.006 A  ATOM     21  C   UNL     1      37.919  43.923  23.383 -0.32 +0.00    +0.006 A  ATOM     22  C   UNL     1      39.194  45.064  25.578 -0.16 +0.00    +0.011 A  ATOM     23  C   UNL     1      37.170  44.402  24.463 -0.30 +0.00    +0.011 A  ATOM     24  C   UNL     1      37.791  44.995  25.575 -0.29 +0.00    +0.002 A  BRANCH  24  25ATOM     25  C   UNL     1      36.981  45.503  26.697 -0.28 -0.01    +0.097 A  ATOM     26  N   UNL     1      37.070  46.852  26.872 -0.23 +0.04    -0.244 NA ATOM     27  C   UNL     1      36.164  44.719  27.528 -0.34 -0.02    +0.097 A  ATOM     28  C   UNL     1      36.325  47.409  27.841 -0.26 -0.02    +0.092 A  ATOM     29  N   UNL     1      35.397  45.292  28.499 -0.34 +0.07    -0.244 NA ATOM     30  C   UNL     1      36.384  48.780  28.044 -0.28 -0.01    +0.069 A  ATOM     31  C   UNL     1      35.479  46.624  28.658 -0.24 -0.02    +0.090 A  ATOM     32  C   UNL     1      35.621  49.378  29.037 -0.21 -0.00    +0.125 A  ATOM     33  C   UNL     1      34.722  47.243  29.645 -0.36 -0.01    +0.033 A  ATOM     34  C   UNL     1      34.786  48.621  29.844 -0.30 -0.00    +0.041 A  ATOM     35  F   UNL     1      35.692  50.702  29.220 -0.03 -0.02    -0.207 F  BRANCH  27  36ATOM     36  C   UNL     1      36.052  43.251  27.480 -0.46 -0.00    +0.005 A  ATOM     37  C   UNL     1      34.800  42.639  27.335 -0.56 -0.01    +0.030 A  ATOM     38  C   UNL     1      37.168  42.412  27.610 -0.37 -0.01    +0.030 A  ATOM     39  C   UNL     1      34.721  41.256  27.297 -0.51 -0.05    +0.111 A  ATOM     40  C   UNL     1      36.991  41.039  27.557 -0.43 -0.03    +0.111 A  ATOM     41  N   UNL     1      35.792  40.443  27.394 -0.35 +0.12    -0.265 NA ENDBRANCH  27  36ENDBRANCH  24  25ENDBRANCH  18  19ENDBRANCH   4  18TORSDOF 6TERENDMDL