MODEL        5USER    Run = 5USERUSER    Estimated Free Energy of Binding    =  -8.65 kcal/mol  [=(1)+(2)+(3)-(4)]USERUSER    (1) Final Intermolecular Energy     = -11.03 kcal/molUSER        vdW + Hbond + desolv Energy     = -10.91 kcal/molUSER        Electrostatic Energy            =  -0.12 kcal/molUSER        Moving Ligand-Fixed Receptor    = -11.03 kcal/molUSER        Moving Ligand-Moving Receptor   =  +0.00 kcal/molUSER    (2) Final Total Internal Energy     =  -4.23 kcal/molUSER    (3) Torsional Free Energy           =  +2.39 kcal/molUSER    (4) Unbound System's Energy         =  -4.23 kcal/molUSERUSERREMARK SMILES OCCNCc1ccccc1-c1n[nH]c2ccc(Cc3ccc(F)cc3)cc12REMARK SMILES IDX 5 1 4 2 3 4 2 5 1 6 6 8 7 9 11 10 8 11 10 12 9 13 12 14REMARK SMILES IDX 13 15 28 16 14 17 27 18 15 19 18 20 16 21 17 22 19 24 20 25REMARK SMILES IDX 21 26 26 27 22 28 25 29 23 30 24 31REMARK H PARENT 4 3 1 7 14 23USER                              x       y       z     vdW  Elec       q    TypeUSER                           _______ _______ _______ _____ _____    ______ ____ROOTATOM      1  C   UNL     1      40.699  46.031  21.629 -0.21 +0.01    +0.117 C  ENDROOTBRANCH   1   2ATOM      2  N   UNL     1      42.031  45.445  21.400 -0.13 -0.06    -0.310 NA ATOM      3  H   UNL     1      42.275  45.637  20.428 +0.07 +0.03    +0.123 HD BRANCH   2   4ATOM      4  C   UNL     1      43.073  46.058  22.238 -0.24 +0.03    +0.109 C  BRANCH   4   5ATOM      5  C   UNL     1      44.026  47.030  21.529 -0.28 +0.09    +0.171 C  BRANCH   5   6ATOM      6  O   UNL     1      43.766  47.028  20.123 -0.29 -0.23    -0.395 OA ATOM      7  H   UNL     1      42.805  46.918  20.017 +0.10 +0.05    +0.210 HD ENDBRANCH   5   6ENDBRANCH   4   5ENDBRANCH   2   4ENDBRANCH   1   2BRANCH   1   8ATOM      8  C   UNL     1      39.580  45.359  20.862 -0.33 -0.00    -0.025 A  ATOM      9  C   UNL     1      38.707  44.492  21.552 -0.34 +0.00    +0.006 A  ATOM     10  C   UNL     1      39.415  45.505  19.469 -0.40 -0.00    +0.007 A  ATOM     11  C   UNL     1      37.682  43.815  20.890 -0.37 +0.00    +0.000 A  ATOM     12  C   UNL     1      38.376  44.818  18.813 -0.38 -0.00    +0.011 A  ATOM     13  C   UNL     1      37.515  43.980  19.520 -0.34 -0.00    +0.001 A  BRANCH  10  14ATOM     14  C   UNL     1      40.289  46.348  18.659 -0.38 -0.01    +0.100 A  ATOM     15  N   UNL     1      41.591  46.489  18.950 -0.38 -0.01    -0.174 NA ATOM     16  C   UNL     1      39.927  47.124  17.517 -0.43 -0.01    +0.028 A  ATOM     17  N   UNL     1      42.042  47.354  18.028 -0.30 +0.02    -0.277 N  ATOM     18  C   UNL     1      38.750  47.350  16.775 -0.37 -0.01    +0.016 A  ATOM     19  C   UNL     1      41.097  47.765  17.130 -0.45 -0.01    +0.066 A  ATOM     20  C   UNL     1      38.783  48.218  15.668 -0.46 +0.02    -0.043 A  ATOM     21  C   UNL     1      41.168  48.633  16.038 -0.51 -0.00    +0.028 A  ATOM     22  C   UNL     1      39.988  48.846  15.316 -0.57 -0.00    +0.006 A  ATOM     23  H   UNL     1      43.017  47.626  18.065 -0.26 -0.01    +0.190 HD BRANCH  20  24ATOM     24  C   UNL     1      37.525  48.475  14.867 -0.55 -0.05    +0.071 C  BRANCH  24  25ATOM     25  C   UNL     1      37.187  47.369  13.890 -0.49 +0.02    -0.043 A  ATOM     26  C   UNL     1      37.336  46.022  14.259 -0.42 -0.00    +0.007 A  ATOM     27  C   UNL     1      36.719  47.676  12.602 -0.64 -0.00    +0.007 A  ATOM     28  C   UNL     1      37.022  45.004  13.358 -0.43 -0.01    +0.039 A  ATOM     29  C   UNL     1      36.406  46.655  11.702 -0.61 -0.02    +0.039 A  ATOM     30  C   UNL     1      36.560  45.330  12.089 -0.46 -0.04    +0.123 A  ATOM     31  F   UNL     1      36.259  44.352  11.224 -0.05 +0.07    -0.207 F  ENDBRANCH  24  25ENDBRANCH  20  24ENDBRANCH  10  14ENDBRANCH   1   8TORSDOF 8TERENDMDL