MODEL        8USER    Run = 8USERUSER    Estimated Free Energy of Binding    = -11.55 kcal/mol  [=(1)+(2)+(3)-(4)]USERUSER    (1) Final Intermolecular Energy     = -13.64 kcal/molUSER        vdW + Hbond + desolv Energy     = -13.38 kcal/molUSER        Electrostatic Energy            =  -0.26 kcal/molUSER        Moving Ligand-Fixed Receptor    = -13.64 kcal/molUSER        Moving Ligand-Moving Receptor   =  +0.00 kcal/molUSER    (2) Final Total Internal Energy     =  -1.45 kcal/molUSER    (3) Torsional Free Energy           =  +2.09 kcal/molUSER    (4) Unbound System's Energy         =  -1.45 kcal/molUSERUSERREMARK SMILES Cc1cn(C)nc1C(=O)Nc1ccc(-c2ccc(CN3CCC(n4c(O)nc5ccccc54)CC3)c(F)c2)nc1REMARK SMILES IDX 15 1 16 2 17 3 18 4 36 5 37 6 38 7 14 8 11 9 12 10 40 11REMARK SMILES IDX 13 12 39 13 10 14 8 15 9 16 7 18 2 19 3 20 4 21 6 22 1 23REMARK SMILES IDX 5 24 19 25 20 26 21 27 35 28 22 29 34 30 23 31 24 32 25 33REMARK SMILES IDX 33 34 27 35 32 36 28 37 31 38 29 39 30 40 26 41REMARK H PARENT 10 17 26 42USER                              x       y       z     vdW  Elec       q    TypeUSER                           _______ _______ _______ _____ _____    ______ ____ROOTATOM      1  C   UNL     1      39.538  47.243  24.527 -0.29 +0.00    +0.003 A  ATOM      2  C   UNL     1      39.813  46.004  23.920 -0.22 +0.00    +0.011 A  ATOM      3  C   UNL     1      40.932  45.822  23.094 -0.19 +0.00    +0.009 A  ATOM      4  C   UNL     1      41.810  46.884  22.843 -0.24 +0.00    +0.002 A  ATOM      5  C   UNL     1      41.527  48.122  23.422 -0.19 +0.02    +0.128 A  ATOM      6  F   UNL     1      42.353  49.158  23.221 -0.17 -0.07    -0.207 F  ATOM      7  C   UNL     1      40.415  48.304  24.244 -0.30 +0.01    +0.050 A  ENDROOTBRANCH   1   8ATOM      8  C   UNL     1      38.386  47.438  25.429 -0.28 +0.01    +0.070 A  ATOM      9  C   UNL     1      36.232  47.670  27.182 -0.11 -0.01    +0.060 A  ATOM     10  C   UNL     1      36.422  48.625  26.193 -0.43 -0.00    +0.030 A  ATOM     11  C   UNL     1      37.160  46.631  27.228 -0.26 -0.02    +0.137 A  ATOM     12  C   UNL     1      37.505  48.512  25.313 -0.42 +0.00    +0.031 A  ATOM     13  N   UNL     1      38.212  46.491  26.384 -0.16 +0.01    -0.254 NA BRANCH   9  14ATOM     14  N   UNL     1      35.188  47.694  28.127 -0.09 +0.08    -0.319 N  ATOM     15  C   UNL     1      35.209  48.284  29.384 -0.26 -0.03    +0.276 C  ATOM     16  O   UNL     1      36.146  48.908  29.867 -0.16 +0.04    -0.267 OA ATOM     17  H   UNL     1      34.289  47.335  27.828 -0.50 -0.07    +0.170 HD BRANCH  15  18ATOM     18  C   UNL     1      33.941  48.090  30.113 -0.28 -0.01    +0.153 A  ATOM     19  C   UNL     1      33.544  48.683  31.355 -0.23 -0.00    +0.000 A  ATOM     20  C   UNL     1      32.290  48.164  31.604 -0.25 -0.01    +0.112 A  ATOM     21  N   UNL     1      31.999  47.349  30.553 -0.28 +0.01    -0.275 N  ATOM     22  N   UNL     1      32.986  47.265  29.649 -0.65 -0.00    -0.168 NA ATOM     23  C   UNL     1      34.293  49.665  32.176 -0.13 -0.00    +0.048 C  ATOM     24  C   UNL     1      30.780  46.605  30.340 -0.55 +0.01    +0.173 C  ENDBRANCH  15  18ENDBRANCH   9  14ENDBRANCH   1   8BRANCH   4  25ATOM     25  C   UNL     1      43.045  46.692  21.995 -0.29 +0.03    +0.123 C  BRANCH  25  26ATOM     26  N   UNL     1      42.763  46.422  20.577 -0.20 -0.09    -0.299 NA ATOM     27  C   UNL     1      41.319  46.299  20.352 -0.31 +0.01    +0.087 C  ATOM     28  C   UNL     1      43.432  47.356  19.661 -0.37 +0.03    +0.087 C  ATOM     29  C   UNL     1      41.026  45.963  18.891 -0.51 +0.00    +0.041 C  ATOM     30  C   UNL     1      42.509  48.027  18.644 -0.43 +0.00    +0.041 C  ATOM     31  C   UNL     1      41.620  47.005  17.928 -0.39 -0.01    +0.095 C  BRANCH  31  32ATOM     32  N   UNL     1      40.609  47.668  17.109 -0.32 +0.05    -0.291 N  ATOM     33  C   UNL     1      40.727  48.892  16.506 -0.20 -0.05    +0.295 A  ATOM     34  C   UNL     1      39.370  47.171  16.764 -0.41 -0.02    +0.072 A  ATOM     35  N   UNL     1      39.678  49.232  15.810 -0.38 +0.09    -0.195 NA ATOM     36  C   UNL     1      38.681  45.985  17.062 -0.39 -0.01    +0.029 A  ATOM     37  C   UNL     1      38.819  48.170  15.957 -0.37 -0.05    +0.092 A  ATOM     38  C   UNL     1      37.401  45.831  16.518 -0.37 -0.00    +0.002 A  ATOM     39  C   UNL     1      37.531  47.996  15.424 -0.44 -0.02    +0.031 A  ATOM     40  C   UNL     1      36.829  46.818  15.715 -0.40 -0.00    +0.002 A  BRANCH  33  41ATOM     41  O   UNL     1      41.779  49.682  16.599 -0.83 -0.09    -0.480 OA ATOM     42  H   UNL     1      41.350  50.557  16.611 -0.14 -0.07    +0.296 HD ENDBRANCH  33  41ENDBRANCH  31  32ENDBRANCH  25  26ENDBRANCH   4  25TORSDOF 7TERENDMDL