MODEL        7USER    Run = 7USERUSER    Estimated Free Energy of Binding    =  -9.12 kcal/mol  [=(1)+(2)+(3)-(4)]USERUSER    (1) Final Intermolecular Energy     = -10.61 kcal/molUSER        vdW + Hbond + desolv Energy     = -10.72 kcal/molUSER        Electrostatic Energy            =  +0.12 kcal/molUSER        Moving Ligand-Fixed Receptor    = -10.61 kcal/molUSER        Moving Ligand-Moving Receptor   =  +0.00 kcal/molUSER    (2) Final Total Internal Energy     =  -1.62 kcal/molUSER    (3) Torsional Free Energy           =  +1.49 kcal/molUSER    (4) Unbound System's Energy         =  -1.62 kcal/molUSERUSERREMARK SMILES CNC(=O)c1ccc(Nc2nc3c(s2)CCC[C@@H]3C(=O)N2CCOCC2)cc1OCREMARK SMILES IDX 9 1 8 3 5 4 6 5 28 6 7 7 27 8 3 9 2 10 1 11 4 13 29 14 30 15REMARK SMILES IDX 10 16 11 17 14 18 12 19 13 20 18 21 15 22 17 23 16 24 19 25REMARK SMILES IDX 21 26 22 27 26 28 23 29 25 30 24 31 20 32REMARK H PARENT 9 2 2 12USER                              x       y       z     vdW  Elec       q    TypeUSER                           _______ _______ _______ _____ _____    ______ ____ROOTATOM      1  N   UNL     1      37.365  44.232  18.661 -0.13 +0.05    -0.331 N  ATOM      2  H   UNL     1      37.742  43.287  18.657 +0.13 -0.02    +0.169 HD ENDROOTBRANCH   1   3ATOM      3  C   UNL     1      36.016  44.189  18.231 -0.30 -0.01    +0.044 A  ATOM      4  C   UNL     1      33.388  43.966  17.205 -0.25 -0.03    +0.081 A  ATOM      5  C   UNL     1      33.995  45.221  17.385 -0.34 -0.01    +0.020 A  ATOM      6  C   UNL     1      34.111  42.803  17.540 -0.28 -0.04    +0.133 A  ATOM      7  C   UNL     1      35.295  45.331  17.880 -0.35 -0.01    +0.027 A  ATOM      8  C   UNL     1      35.423  42.932  18.030 -0.31 -0.02    +0.073 A  BRANCH   4   9ATOM      9  C   UNL     1      31.991  43.986  16.654 -0.20 -0.09    +0.254 C  ATOM     10  N   UNL     1      31.573  42.889  15.936 -0.13 +0.18    -0.355 N  ATOM     11  C   UNL     1      30.221  42.765  15.456 -0.19 -0.09    +0.143 C  ATOM     12  H   UNL     1      32.174  42.073  15.932 -0.46 -0.12    +0.163 HD ATOM     13  O   UNL     1      31.269  44.962  16.839 -0.72 +0.04    -0.269 OA ENDBRANCH   4   9BRANCH   6  14ATOM     14  O   UNL     1      33.496  41.588  17.359 -0.13 +0.22    -0.496 OA ATOM     15  C   UNL     1      32.653  41.106  18.398 -0.26 -0.04    +0.278 C  ENDBRANCH   6  14ENDBRANCH   1   3BRANCH   1  16ATOM     16  C   UNL     1      38.286  45.120  18.202 -0.26 -0.03    +0.187 A  ATOM     17  N   UNL     1      38.409  45.396  16.921 -0.22 +0.06    -0.224 NA ATOM     18  S   UNL     1      39.444  45.907  19.221 -0.46 +0.01    -0.102 S  ATOM     19  C   UNL     1      39.397  46.344  16.724 -0.39 -0.02    +0.069 A  ATOM     20  C   UNL     1      40.072  46.717  17.866 -0.45 -0.00    +0.031 A  ATOM     21  C   UNL     1      39.710  46.888  15.361 -0.44 -0.03    +0.129 C  ATOM     22  C   UNL     1      41.218  47.666  17.929 -0.54 -0.00    +0.049 C  ATOM     23  C   UNL     1      41.055  47.667  15.378 -0.39 -0.00    +0.020 C  ATOM     24  C   UNL     1      41.278  48.510  16.649 -0.56 -0.00    +0.007 C  BRANCH  21  25ATOM     25  C   UNL     1      38.566  47.795  14.877 -0.39 -0.10    +0.231 C  ATOM     26  N   UNL     1      37.637  47.270  13.992 -0.22 +0.14    -0.337 N  ATOM     27  C   UNL     1      37.642  45.905  13.455 -0.39 -0.05    +0.148 C  ATOM     28  C   UNL     1      36.562  48.130  13.487 -0.51 -0.08    +0.148 C  ATOM     29  C   UNL     1      36.266  45.512  12.910 -0.39 -0.08    +0.181 C  ATOM     30  C   UNL     1      36.202  47.758  12.047 -0.39 -0.09    +0.181 C  ATOM     31  O   UNL     1      35.789  46.393  11.885 -0.42 +0.21    -0.378 OA ATOM     32  O   UNL     1      38.476  48.962  15.266 -0.37 +0.19    -0.274 OA ENDBRANCH  21  25ENDBRANCH   1  16TORSDOF 5TERENDMDL