MODEL        8USER    Run = 8USERUSER    Estimated Free Energy of Binding    =  -9.67 kcal/mol  [=(1)+(2)+(3)-(4)]USERUSER    (1) Final Intermolecular Energy     = -12.05 kcal/molUSER        vdW + Hbond + desolv Energy     = -11.78 kcal/molUSER        Electrostatic Energy            =  -0.27 kcal/molUSER        Moving Ligand-Fixed Receptor    = -12.05 kcal/molUSER        Moving Ligand-Moving Receptor   =  +0.00 kcal/molUSER    (2) Final Total Internal Energy     =  -2.32 kcal/molUSER    (3) Torsional Free Energy           =  +2.39 kcal/molUSER    (4) Unbound System's Energy         =  -2.32 kcal/molUSERUSERREMARK SMILES COc1ccc(O)c(C(=O)c2ccc(Nc3nc4c(s3)CCC[C@@H]4C(=O)N3CCOCC3)cc2F)c1NREMARK SMILES IDX 11 1 12 2 13 3 14 4 33 5 34 6 35 7 9 8 10 9 8 10 3 11 4 12REMARK SMILES IDX 36 13 5 14 6 15 2 16 1 17 37 18 7 21 15 23 16 25 17 26 20 27REMARK SMILES IDX 18 28 19 29 24 30 21 31 23 32 22 33 25 34 27 35 28 36 32 37REMARK SMILES IDX 29 38 31 39 30 40 26 41REMARK H PARENT 37 19 37 20 7 22 15 24USER                              x       y       z     vdW  Elec       q    TypeUSER                           _______ _______ _______ _____ _____    ______ ____ROOTATOM      1  C   UNL     1      40.256  45.319  20.426 -0.34 +0.00    +0.059 A  ATOM      2  C   UNL     1      39.668  44.875  19.240 -0.40 -0.00    +0.017 A  ATOM      3  C   UNL     1      38.360  44.376  19.246 -0.34 -0.00    +0.027 A  ATOM      4  C   UNL     1      37.605  44.318  20.429 -0.35 -0.00    +0.043 A  ATOM      5  C   UNL     1      38.186  44.824  21.596 -0.31 +0.00    +0.066 A  ATOM      6  C   UNL     1      39.493  45.321  21.591 -0.25 +0.01    +0.136 A  ATOM      7  F   UNL     1      39.988  45.792  22.746 -0.05 -0.01    -0.206 F  ENDROOTBRANCH   1   8ATOM      8  C   UNL     1      41.652  45.813  20.376 -0.30 +0.03    +0.201 C  ATOM      9  O   UNL     1      41.956  46.629  19.504 -0.34 -0.03    -0.288 OA BRANCH   8  10ATOM     10  C   UNL     1      42.698  45.366  21.334 -0.16 +0.03    +0.091 A  ATOM     11  C   UNL     1      44.663  45.857  22.655 -0.13 +0.08    +0.142 A  ATOM     12  C   UNL     1      44.723  44.531  23.089 -0.15 +0.02    +0.052 A  ATOM     13  C   UNL     1      43.696  46.282  21.727 -0.23 +0.05    +0.089 A  ATOM     14  C   UNL     1      43.773  43.615  22.644 -0.25 +0.01    +0.051 A  ATOM     15  C   UNL     1      42.765  44.031  21.773 -0.19 +0.03    +0.129 A  BRANCH  11  16ATOM     16  O   UNL     1      45.641  46.739  23.057 -0.14 -0.28    -0.495 OA ATOM     17  C   UNL     1      45.188  47.478  24.192 -0.09 +0.06    +0.278 C  ENDBRANCH  11  16BRANCH  13  18ATOM     18  N   UNL     1      43.648  47.656  21.363 +0.02 -0.08    -0.395 N  ATOM     19  H   UNL     1      44.455  48.149  21.741 -0.50 +0.03    +0.156 HD ATOM     20  H   UNL     1      43.602  47.744  20.344 -0.43 +0.02    +0.156 HD ENDBRANCH  13  18BRANCH  15  21ATOM     21  O   UNL     1      41.849  43.108  21.332 -0.16 -0.03    -0.507 OA ATOM     22  H   UNL     1      42.223  42.215  21.435 -0.34 -0.04    +0.293 HD ENDBRANCH  15  21ENDBRANCH   8  10ENDBRANCH   1   8BRANCH   4  23ATOM     23  N   UNL     1      36.293  43.813  20.344 -0.20 +0.01    -0.331 N  ATOM     24  H   UNL     1      35.888  43.608  21.250 +0.10 +0.01    +0.169 HD BRANCH  23  25ATOM     25  C   UNL     1      35.380  43.873  19.346 -0.26 -0.03    +0.187 A  ATOM     26  N   UNL     1      35.596  44.620  18.279 -0.18 +0.07    -0.224 NA ATOM     27  S   UNL     1      33.803  43.152  19.387 -0.52 +0.01    -0.102 S  ATOM     28  C   UNL     1      34.524  44.548  17.409 -0.26 -0.03    +0.069 A  ATOM     29  C   UNL     1      33.442  43.839  17.881 -0.30 -0.01    +0.031 A  ATOM     30  C   UNL     1      34.511  45.307  16.113 -0.29 -0.10    +0.129 C  ATOM     31  C   UNL     1      32.134  43.712  17.181 -0.33 -0.02    +0.049 C  ATOM     32  C   UNL     1      33.170  45.130  15.346 -0.38 -0.02    +0.020 C  ATOM     33  C   UNL     1      31.950  44.934  16.264 -0.38 -0.00    +0.007 C  BRANCH  30  34ATOM     34  C   UNL     1      35.638  44.820  15.195 -0.23 -0.12    +0.231 C  ATOM     35  N   UNL     1      36.218  45.727  14.318 -0.16 +0.18    -0.337 N  ATOM     36  C   UNL     1      37.133  45.242  13.281 -0.42 -0.05    +0.148 C  ATOM     37  C   UNL     1      35.933  47.165  14.264 -0.30 -0.12    +0.148 C  ATOM     38  C   UNL     1      36.882  45.991  11.969 -0.54 -0.06    +0.181 C  ATOM     39  C   UNL     1      36.960  47.918  13.410 -0.51 -0.08    +0.181 C  ATOM     40  O   UNL     1      37.074  47.410  12.074 -0.95 +0.10    -0.378 OA ATOM     41  O   UNL     1      35.959  43.626  15.180 -0.27 +0.10    -0.274 OA ENDBRANCH  30  34ENDBRANCH  23  25ENDBRANCH   4  23TORSDOF 8TERENDMDL