MODEL        6USER    Run = 6USERUSER    Estimated Free Energy of Binding    = -11.20 kcal/mol  [=(1)+(2)+(3)-(4)]USERUSER    (1) Final Intermolecular Energy     = -12.99 kcal/molUSER        vdW + Hbond + desolv Energy     = -12.94 kcal/molUSER        Electrostatic Energy            =  -0.05 kcal/molUSER        Moving Ligand-Fixed Receptor    = -12.99 kcal/molUSER        Moving Ligand-Moving Receptor   =  +0.00 kcal/molUSER    (2) Final Total Internal Energy     =  -1.45 kcal/molUSER    (3) Torsional Free Energy           =  +1.79 kcal/molUSER    (4) Unbound System's Energy         =  -1.45 kcal/molUSERUSERREMARK SMILES Oc1nc2ccccc2n1C1CCN(Cc2ccc(-c3nc4ccncc4n3-c3ccncc3)cc2F)CC1REMARK SMILES IDX 11 1 12 2 13 3 14 4 38 5 39 6 10 7 2 8 3 9 4 10 9 11 5 12REMARK SMILES IDX 8 13 6 14 7 15 1 16 15 18 16 19 17 20 36 21 18 22 35 23REMARK SMILES IDX 19 24 37 25 20 26 21 27 28 28 22 29 27 30 23 31 26 32 24 33REMARK SMILES IDX 25 34 29 35 30 36 34 37 31 38 33 39 32 40REMARK H PARENT 1 17USER                              x       y       z     vdW  Elec       q    TypeUSER                           _______ _______ _______ _____ _____    ______ ____ROOTATOM      1  C   UNL     1      42.049  47.866  24.891 -0.22 +0.01    +0.095 C  ATOM      2  C   UNL     1      41.691  46.420  24.505 -0.14 +0.00    +0.041 C  ATOM      3  C   UNL     1      41.073  46.294  23.112 -0.21 +0.01    +0.087 C  ATOM      4  N   UNL     1      41.781  47.004  22.041 -0.11 -0.04    -0.299 NA ATOM      5  C   UNL     1      42.773  47.979  22.497 -0.30 +0.01    +0.087 C  ATOM      6  C   UNL     1      42.230  48.780  23.674 -0.43 +0.01    +0.041 C  ENDROOTBRANCH   1   7ATOM      7  N   UNL     1      41.171  48.454  25.896 -0.14 -0.03    -0.291 N  ATOM      8  C   UNL     1      41.537  48.971  27.110 -0.13 +0.02    +0.295 A  ATOM      9  N   UNL     1      40.528  49.410  27.812 -0.20 -0.03    -0.195 NA ATOM     10  C   UNL     1      39.431  49.168  27.022 -0.21 +0.01    +0.092 A  ATOM     11  C   UNL     1      39.797  48.580  25.808 -0.24 +0.01    +0.072 A  ATOM     12  C   UNL     1      38.077  49.433  27.286 -0.23 +0.00    +0.031 A  ATOM     13  C   UNL     1      38.853  48.244  24.824 -0.36 +0.00    +0.029 A  ATOM     14  C   UNL     1      37.122  49.100  26.318 -0.38 +0.00    +0.002 A  ATOM     15  C   UNL     1      37.507  48.517  25.108 -0.44 +0.00    +0.002 A  BRANCH   8  16ATOM     16  O   UNL     1      42.772  49.050  27.557 -0.06 -0.00    -0.480 OA ATOM     17  H   UNL     1      42.856  50.008  27.720 -0.47 -0.06    +0.296 HD ENDBRANCH   8  16ENDBRANCH   1   7BRANCH   4  18ATOM     18  C   UNL     1      42.290  46.101  20.995 -0.32 +0.03    +0.123 C  BRANCH  18  19ATOM     19  C   UNL     1      41.478  46.152  19.722 -0.43 +0.00    +0.002 A  ATOM     20  C   UNL     1      40.385  45.294  19.531 -0.42 +0.00    +0.009 A  ATOM     21  C   UNL     1      41.816  47.036  18.694 -0.45 +0.00    +0.128 A  ATOM     22  C   UNL     1      39.630  45.352  18.357 -0.43 -0.00    +0.012 A  ATOM     23  C   UNL     1      41.074  47.097  17.516 -0.45 -0.01    +0.051 A  ATOM     24  C   UNL     1      39.956  46.270  17.349 -0.45 -0.00    +0.021 A  ATOM     25  F   UNL     1      42.866  47.859  18.834 -0.23 -0.01    -0.207 F  BRANCH  24  26ATOM     26  C   UNL     1      39.174  46.351  16.113 -0.32 -0.04    +0.145 A  ATOM     27  N   UNL     1      38.253  45.461  15.797 -0.20 +0.07    -0.228 NA ATOM     28  N   UNL     1      39.217  47.387  15.169 -0.24 +0.09    -0.291 N  ATOM     29  C   UNL     1      37.633  45.934  14.676 -0.33 -0.04    +0.093 A  ATOM     30  C   UNL     1      38.207  47.125  14.251 -0.40 -0.03    +0.092 A  ATOM     31  C   UNL     1      36.571  45.374  13.967 -0.39 -0.02    +0.051 A  ATOM     32  C   UNL     1      37.783  47.736  13.077 -0.29 -0.03    +0.139 A  ATOM     33  C   UNL     1      36.170  46.064  12.838 -0.48 -0.05    +0.113 A  ATOM     34  N   UNL     1      36.747  47.200  12.390 -0.66 +0.10    -0.262 NA BRANCH  28  35ATOM     35  C   UNL     1      40.124  48.486  15.131 -0.54 -0.01    +0.051 A  ATOM     36  C   UNL     1      41.198  48.487  14.237 -0.20 -0.00    +0.047 A  ATOM     37  C   UNL     1      39.954  49.572  15.992 -0.30 -0.02    +0.047 A  ATOM     38  C   UNL     1      42.054  49.576  14.242 -0.46 -0.01    +0.113 A  ATOM     39  C   UNL     1      40.869  50.611  15.921 -0.12 -0.04    +0.113 A  ATOM     40  N   UNL     1      41.911  50.636  15.065 -0.56 +0.05    -0.265 NA ENDBRANCH  28  35ENDBRANCH  24  26ENDBRANCH  18  19ENDBRANCH   4  18TORSDOF 6TERENDMDL