REMARK SMILES Oc1nc2ccccc2n1C1CCN(Cc2ccc(-c3nc4ncccc4nc3-c3ccnc(N4CCOCC4)c3)cc2)CC1
REMARK SMILES IDX 15 1 14 2 11 3 12 4 45 5 13 6 44 7 10 8 2 9 3 10 4 11 9 12
REMARK SMILES IDX 5 13 8 14 6 15 7 16 1 17 16 19 17 20 43 21 18 22 42 23 19 24
REMARK SMILES IDX 20 25 21 26 29 27 22 28 28 29 23 30 27 31 24 32 26 33 25 34
REMARK SMILES IDX 30 35 31 36 41 37 32 38 34 39 33 40 35 41 36 42 40 43 37 44
REMARK SMILES IDX 39 45 38 46
REMARK H PARENT 1 18
ROOT
ATOM      1  C   UNL     1       2.083   0.840   0.726  1.00  0.00     0.120 C 
ENDROOT
BRANCH   1   2
ATOM      2  N   UNL     1       2.809   0.907  -0.550  1.00  0.00    -0.299 NA
ATOM      3  C   UNL     1       5.676   0.589   0.168  1.00  0.00     0.095 C 
ATOM      4  C   UNL     1       4.759  -0.623  -0.078  1.00  0.00     0.041 C 
ATOM      5  C   UNL     1       4.919   1.914   0.332  1.00  0.00     0.041 C 
ATOM      6  C   UNL     1       3.504  -0.334  -0.907  1.00  0.00     0.087 C 
ATOM      7  C   UNL     1       3.734   2.042  -0.620  1.00  0.00     0.087 C 
BRANCH   3   8
ATOM      8  N   UNL     1       6.825   0.723  -0.724  1.00  0.00    -0.291 N 
ATOM      9  C   UNL     1       6.871   0.602  -2.083  1.00  0.00     0.295 A 
ATOM     10  N   UNL     1       8.057   0.811  -2.586  1.00  0.00    -0.195 NA
ATOM     11  C   UNL     1       8.843   1.104  -1.502  1.00  0.00     0.092 A 
ATOM     12  C   UNL     1       8.106   1.062  -0.318  1.00  0.00     0.072 A 
ATOM     13  C   UNL     1      10.209   1.425  -1.458  1.00  0.00     0.031 A 
ATOM     14  C   UNL     1       8.682   1.341   0.930  1.00  0.00     0.029 A 
ATOM     15  C   UNL     1      10.800   1.700  -0.221  1.00  0.00     0.002 A 
ATOM     16  C   UNL     1      10.046   1.659   0.952  1.00  0.00     0.002 A 
BRANCH   9  17
ATOM     17  O   UNL     1       5.852   0.310  -2.860  1.00  0.00    -0.480 OA
ATOM     18  H   UNL     1       6.271   0.322  -3.740  1.00  0.00     0.296 HD
ENDBRANCH   9  17
ENDBRANCH   3   8
ENDBRANCH   1   2
BRANCH   1  19
ATOM     19  C   UNL     1       0.867  -0.062   0.673  1.00  0.00    -0.034 A 
ATOM     20  C   UNL     1       0.789  -1.208   1.473  1.00  0.00     0.006 A 
ATOM     21  C   UNL     1      -0.202   0.238  -0.180  1.00  0.00     0.006 A 
ATOM     22  C   UNL     1      -0.341  -2.030   1.426  1.00  0.00     0.011 A 
ATOM     23  C   UNL     1      -1.332  -0.585  -0.224  1.00  0.00     0.011 A 
ATOM     24  C   UNL     1      -1.430  -1.725   0.591  1.00  0.00     0.002 A 
BRANCH  24  25
ATOM     25  C   UNL     1      -2.617  -2.599   0.567  1.00  0.00     0.099 A 
ATOM     26  N   UNL     1      -2.326  -3.910   0.332  1.00  0.00    -0.224 NA
ATOM     27  C   UNL     1      -3.939  -2.165   0.747  1.00  0.00     0.098 A 
ATOM     28  C   UNL     1      -3.332  -4.781   0.241  1.00  0.00     0.178 A 
ATOM     29  N   UNL     1      -4.974  -3.042   0.643  1.00  0.00    -0.242 NA
ATOM     30  N   UNL     1      -3.040  -6.065   0.002  1.00  0.00    -0.235 NA
ATOM     31  C   UNL     1      -4.663  -4.330   0.396  1.00  0.00     0.108 A 
ATOM     32  C   UNL     1      -4.054  -6.949  -0.097  1.00  0.00     0.114 A 
ATOM     33  C   UNL     1      -5.677  -5.269   0.291  1.00  0.00     0.034 A 
ATOM     34  C   UNL     1      -5.382  -6.604   0.041  1.00  0.00     0.022 A 
BRANCH  27  35
ATOM     35  C   UNL     1      -4.354  -0.793   1.085  1.00  0.00     0.008 A 
ATOM     36  C   UNL     1      -3.783  -0.083   2.140  1.00  0.00     0.030 A 
ATOM     37  C   UNL     1      -5.384  -0.163   0.365  1.00  0.00     0.057 A 
ATOM     38  C   UNL     1      -4.242   1.193   2.402  1.00  0.00     0.114 A 
ATOM     39  C   UNL     1      -5.788   1.137   0.669  1.00  0.00     0.129 A 
ATOM     40  N   UNL     1      -5.217   1.802   1.696  1.00  0.00    -0.239 NA
BRANCH  39  41
ATOM     41  N   UNL     1      -6.813   1.754  -0.042  1.00  0.00    -0.352 N 
ATOM     42  C   UNL     1      -6.846   1.618  -1.509  1.00  0.00     0.146 C 
ATOM     43  C   UNL     1      -7.253   3.062   0.473  1.00  0.00     0.146 C 
ATOM     44  C   UNL     1      -6.889   2.998  -2.188  1.00  0.00     0.181 C 
ATOM     45  C   UNL     1      -8.386   3.602  -0.413  1.00  0.00     0.181 C 
ATOM     46  O   UNL     1      -7.998   3.814  -1.780  1.00  0.00    -0.378 OA
ENDBRANCH  39  41
ENDBRANCH  27  35
ENDBRANCH  24  25
ENDBRANCH   1  19
TORSDOF 7
