REMARK SMILES COC(=O)N1CCN(Cc2cc(-c3ccc4nnc(C(C)C)n4c3)ccc2O)CC1
REMARK SMILES IDX 10 1 11 2 12 3 25 4 26 5 27 6 9 7 8 8 3 9 5 10 6 11 30 12
REMARK SMILES IDX 7 13 29 14 4 15 2 16 1 17 28 18 13 20 14 21 24 22 15 23
REMARK SMILES IDX 23 24 16 25 19 26 17 27 18 28 20 29 21 30 22 31
REMARK H PARENT 28 19
ROOT
ATOM      1  C   UNL     1       0.994  -1.519  -0.933  1.00  0.00     0.009 A 
ATOM      2  C   UNL     1      -0.279  -1.674  -0.347  1.00  0.00     0.017 A 
ATOM      3  C   UNL     1      -1.450  -1.601  -1.115  1.00  0.00    -0.016 A 
ATOM      4  C   UNL     1      -1.353  -1.377  -2.491  1.00  0.00     0.012 A 
ATOM      5  C   UNL     1      -0.101  -1.230  -3.087  1.00  0.00     0.047 A 
ATOM      6  C   UNL     1       1.058  -1.314  -2.316  1.00  0.00     0.120 A 
ENDROOT
BRANCH   1   7
ATOM      7  C   UNL     1       2.214  -1.555  -0.036  1.00  0.00     0.124 C 
BRANCH   7   8
ATOM      8  N   UNL     1       2.175  -0.545   1.037  1.00  0.00    -0.295 NA
ATOM      9  C   UNL     1       6.023   1.423   0.721  1.00  0.00     0.409 C 
ATOM     10  N   UNL     1       4.764   0.861   0.859  1.00  0.00    -0.306 N 
ATOM     11  C   UNL     1       4.673  -0.441   1.514  1.00  0.00     0.138 C 
ATOM     12  C   UNL     1       3.664   1.225  -0.038  1.00  0.00     0.138 C 
ATOM     13  C   UNL     1       3.256  -0.763   2.023  1.00  0.00     0.106 C 
ATOM     14  C   UNL     1       2.283   0.840   0.525  1.00  0.00     0.106 C 
ATOM     15  O   UNL     1       7.030   0.982   1.264  1.00  0.00    -0.224 OA
BRANCH   9  16
ATOM     16  O   UNL     1       6.020   2.516  -0.090  1.00  0.00    -0.453 OA
ATOM     17  C   UNL     1       7.299   3.130  -0.249  1.00  0.00     0.284 C 
ENDBRANCH   9  16
ENDBRANCH   7   8
ENDBRANCH   1   7
BRANCH   6  18
ATOM     18  O   UNL     1       2.234  -1.175  -2.995  1.00  0.00    -0.508 OA
ATOM     19  H   UNL     1       2.888  -1.780  -2.610  1.00  0.00     0.293 HD
ENDBRANCH   6  18
BRANCH   3  20
ATOM     20  C   UNL     1      -2.763  -1.756  -0.472  1.00  0.00    -0.001 A 
ATOM     21  C   UNL     1      -3.279  -3.044  -0.007  1.00  0.00     0.014 A 
ATOM     22  C   UNL     1      -3.531  -0.661  -0.291  1.00  0.00     0.103 A 
ATOM     23  C   UNL     1      -4.484  -3.156   0.582  1.00  0.00     0.050 A 
ATOM     24  N   UNL     1      -4.780  -0.782   0.320  1.00  0.00    -0.286 N 
ATOM     25  C   UNL     1      -5.285  -1.998   0.763  1.00  0.00     0.160 A 
ATOM     26  C   UNL     1      -5.764   0.142   0.627  1.00  0.00     0.139 A 
ATOM     27  N   UNL     1      -6.473  -1.821   1.292  1.00  0.00    -0.130 NA
ATOM     28  N   UNL     1      -6.773  -0.485   1.207  1.00  0.00    -0.134 NA
BRANCH  26  29
ATOM     29  C   UNL     1      -5.736   1.618   0.362  1.00  0.00     0.052 C 
ATOM     30  C   UNL     1      -4.636   2.333   1.143  1.00  0.00     0.016 C 
ATOM     31  C   UNL     1      -5.691   1.945  -1.129  1.00  0.00     0.016 C 
ENDBRANCH  26  29
ENDBRANCH   3  20
TORSDOF 6
