REMARK SMILES Cc1cc(-c2nnc3ccc(-c4cnn(CC(=O)N5CCN(CF)CC5)c4F)cn23)ccc1O
REMARK SMILES IDX 12 1 13 2 14 3 15 4 27 5 28 6 11 7 5 8 6 9 30 10 7 11 29 12
REMARK SMILES IDX 8 13 9 14 10 15 4 16 2 17 3 18 33 19 32 20 31 21 1 22 34 23
REMARK SMILES IDX 16 25 17 26 19 27 20 28 26 29 21 30 25 31 22 32 18 33 23 34
REMARK SMILES IDX 24 35
REMARK H PARENT 34 24
ROOT
ATOM      1  C   UNL     1      -0.762   1.298   0.492  1.00  0.00     0.058 A 
ATOM      2  C   UNL     1      -0.571   0.222   1.397  1.00  0.00     0.147 A 
ATOM      3  N   UNL     1       0.717  -0.001   1.684  1.00  0.00    -0.178 NA
ATOM      4  N   UNL     1       1.365   0.899   0.909  1.00  0.00    -0.230 N 
ATOM      5  C   UNL     1       0.519   1.722   0.227  1.00  0.00     0.219 A 
ATOM      6  F   UNL     1       0.890   2.737  -0.566  1.00  0.00    -0.185 F 
ENDROOT
BRANCH   1   7
ATOM      7  C   UNL     1      -1.990   1.828  -0.026  1.00  0.00     0.005 A 
ATOM      8  C   UNL     1      -5.540   1.080  -0.870  1.00  0.00     0.168 A 
ATOM      9  N   UNL     1      -6.301   1.992  -1.452  1.00  0.00    -0.129 NA
ATOM     10  N   UNL     1      -4.285   1.624  -0.654  1.00  0.00    -0.282 N 
ATOM     11  N   UNL     1      -5.581   3.157  -1.575  1.00  0.00    -0.130 NA
ATOM     12  C   UNL     1      -3.107   1.074  -0.141  1.00  0.00     0.104 A 
ATOM     13  C   UNL     1      -4.380   2.933  -1.095  1.00  0.00     0.161 A 
ATOM     14  C   UNL     1      -3.229   3.751  -0.971  1.00  0.00     0.050 A 
ATOM     15  C   UNL     1      -2.096   3.231  -0.462  1.00  0.00     0.014 A 
BRANCH   8  16
ATOM     16  C   UNL     1      -5.953  -0.284  -0.550  1.00  0.00     0.020 A 
ATOM     17  C   UNL     1      -6.170  -2.140   1.022  1.00  0.00    -0.009 A 
ATOM     18  C   UNL     1      -5.773  -0.826   0.732  1.00  0.00     0.019 A 
ATOM     19  C   UNL     1      -6.765  -2.901   0.012  1.00  0.00     0.118 A 
ATOM     20  C   UNL     1      -6.972  -2.372  -1.260  1.00  0.00     0.047 A 
ATOM     21  C   UNL     1      -6.571  -1.064  -1.536  1.00  0.00     0.016 A 
ATOM     22  C   UNL     1      -5.968  -2.710   2.397  1.00  0.00     0.048 C 
BRANCH  19  23
ATOM     23  O   UNL     1      -7.150  -4.180   0.297  1.00  0.00    -0.508 OA
ATOM     24  H   UNL     1      -7.565  -4.565  -0.492  1.00  0.00     0.293 HD
ENDBRANCH  19  23
ENDBRANCH   8  16
ENDBRANCH   1   7
BRANCH   4  25
ATOM     25  C   UNL     1       2.811   0.999   0.955  1.00  0.00     0.247 C 
BRANCH  25  26
ATOM     26  C   UNL     1       3.472   0.344  -0.243  1.00  0.00     0.244 C 
ATOM     27  N   UNL     1       4.835   0.082  -0.133  1.00  0.00    -0.339 N 
ATOM     28  C   UNL     1       5.668   0.441   1.020  1.00  0.00     0.135 C 
ATOM     29  C   UNL     1       5.523  -0.606  -1.230  1.00  0.00     0.135 C 
ATOM     30  C   UNL     1       7.167   0.463   0.669  1.00  0.00     0.108 C 
ATOM     31  C   UNL     1       6.667  -1.500  -0.716  1.00  0.00     0.108 C 
ATOM     32  N   UNL     1       7.659  -0.827   0.149  1.00  0.00    -0.273 NA
ATOM     33  O   UNL     1       2.852   0.080  -1.273  1.00  0.00    -0.273 OA
BRANCH  32  34
ATOM     34  C   UNL     1       8.919  -0.634  -0.558  1.00  0.00     0.303 C 
ATOM     35  F   UNL     1       8.699   0.119  -1.666  1.00  0.00    -0.234 F 
ENDBRANCH  32  34
ENDBRANCH  25  26
ENDBRANCH   4  25
TORSDOF 6
