MODEL        9USER    Run = 9USERUSER    Estimated Free Energy of Binding    = -10.35 kcal/mol  [=(1)+(2)+(3)-(4)]USERUSER    (1) Final Intermolecular Energy     = -12.14 kcal/molUSER        vdW + Hbond + desolv Energy     = -12.00 kcal/molUSER        Electrostatic Energy            =  -0.15 kcal/molUSER        Moving Ligand-Fixed Receptor    = -12.14 kcal/molUSER        Moving Ligand-Moving Receptor   =  +0.00 kcal/molUSER    (2) Final Total Internal Energy     =  -1.03 kcal/molUSER    (3) Torsional Free Energy           =  +1.79 kcal/molUSER    (4) Unbound System's Energy         =  -1.03 kcal/molUSERUSERREMARK SMILES Cc1cc(-c2nnc3ccc(-c4cnn(CC(=O)N5CCN(CF)CC5)c4F)cn23)ccc1OREMARK SMILES IDX 12 1 13 2 14 3 15 4 27 5 28 6 11 7 5 8 6 9 30 10 7 11 29 12REMARK SMILES IDX 8 13 9 14 10 15 4 16 2 17 3 18 33 19 32 20 31 21 1 22 34 23REMARK SMILES IDX 16 25 17 26 19 27 20 28 26 29 21 30 25 31 22 32 18 33 23 34REMARK SMILES IDX 24 35REMARK H PARENT 34 24USER                              x       y       z     vdW  Elec       q    TypeUSER                           _______ _______ _______ _____ _____    ______ ____ROOTATOM      1  C   UNL     1      39.359  45.265  19.494 -0.36 -0.00    +0.058 A  ATOM      2  C   UNL     1      38.365  44.314  19.145 -0.24 -0.01    +0.147 A  ATOM      3  N   UNL     1      37.967  43.566  20.180 -0.18 +0.00    -0.178 NA ATOM      4  N   UNL     1      38.755  43.996  21.192 -0.18 -0.00    -0.230 N  ATOM      5  C   UNL     1      39.558  45.039  20.836 -0.22 +0.01    +0.219 A  ATOM      6  F   UNL     1      40.393  45.694  21.654 -0.08 -0.01    -0.185 F  ENDROOTBRANCH   1   7ATOM      7  C   UNL     1      40.005  46.236  18.659 -0.44 -0.00    +0.005 A  ATOM      8  C   UNL     1      39.900  48.034  15.399 -0.41 -0.05    +0.168 A  ATOM      9  N   UNL     1      40.877  48.856  15.051 -0.53 +0.02    -0.129 NA ATOM     10  N   UNL     1      40.181  47.521  16.654 -0.30 +0.06    -0.282 N  ATOM     11  N   UNL     1      41.777  48.938  16.086 -0.86 -0.02    -0.130 NA ATOM     12  C   UNL     1      39.522  46.573  17.442 -0.38 -0.02    +0.104 A  ATOM     13  C   UNL     1      41.356  48.142  17.042 -0.34 -0.01    +0.161 A  ATOM     14  C   UNL     1      41.876  47.820  18.320 -0.42 -0.00    +0.050 A  ATOM     15  C   UNL     1      41.236  46.920  19.090 -0.35 +0.00    +0.014 A  BRANCH   8  16ATOM     16  C   UNL     1      38.744  47.699  14.571 -0.49 -0.01    +0.020 A  ATOM     17  C   UNL     1      37.423  46.094  13.291 -0.47 +0.00    -0.009 A  ATOM     18  C   UNL     1      38.536  46.398  14.090 -0.39 -0.01    +0.019 A  ATOM     19  C   UNL     1      36.511  47.110  12.994 -0.53 -0.06    +0.118 A  ATOM     20  C   UNL     1      36.690  48.403  13.482 -0.48 -0.02    +0.047 A  ATOM     21  C   UNL     1      37.802  48.693  14.273 -0.46 -0.01    +0.016 A  ATOM     22  C   UNL     1      37.213  44.698  12.778 -0.44 -0.01    +0.048 C  BRANCH  19  23ATOM     23  O   UNL     1      35.429  46.811  12.216 -0.25 +0.34    -0.508 OA ATOM     24  H   UNL     1      34.620  47.038  12.704 -0.15 -0.26    +0.293 HD ENDBRANCH  19  23ENDBRANCH   8  16ENDBRANCH   1   7BRANCH   4  25ATOM     25  C   UNL     1      38.609  43.439  22.523 -0.21 +0.01    +0.247 C  BRANCH  25  26ATOM     26  C   UNL     1      38.011  44.433  23.500 -0.22 +0.02    +0.244 C  ATOM     27  N   UNL     1      37.364  43.898  24.611 -0.14 -0.02    -0.339 N  ATOM     28  C   UNL     1      37.178  42.465  24.864 -0.35 -0.00    +0.135 C  ATOM     29  C   UNL     1      36.818  44.804  25.627 -0.30 -0.00    +0.135 C  ATOM     30  C   UNL     1      36.050  42.196  25.877 -0.41 -0.01    +0.108 C  ATOM     31  C   UNL     1      36.889  44.189  27.038 -0.36 -0.02    +0.108 C  ATOM     32  N   UNL     1      36.272  42.853  27.179 -0.23 +0.06    -0.273 NA ATOM     33  O   UNL     1      38.065  45.649  23.317 -0.31 -0.04    -0.273 OA BRANCH  32  34ATOM     34  C   UNL     1      35.019  42.935  27.919 -0.36 -0.09    +0.303 C  ATOM     35  F   UNL     1      34.129  43.674  27.210 -0.16 +0.02    -0.234 F  ENDBRANCH  32  34ENDBRANCH  25  26ENDBRANCH   4  25TORSDOF 6TERENDMDL