MODEL        2USER    Run = 2USERUSER    Estimated Free Energy of Binding    = -10.22 kcal/mol  [=(1)+(2)+(3)-(4)]USERUSER    (1) Final Intermolecular Energy     = -12.01 kcal/molUSER        vdW + Hbond + desolv Energy     = -11.67 kcal/molUSER        Electrostatic Energy            =  -0.34 kcal/molUSER        Moving Ligand-Fixed Receptor    = -12.01 kcal/molUSER        Moving Ligand-Moving Receptor   =  +0.00 kcal/molUSER    (2) Final Total Internal Energy     =  -1.36 kcal/molUSER    (3) Torsional Free Energy           =  +1.79 kcal/molUSER    (4) Unbound System's Energy         =  -1.36 kcal/molUSERUSERREMARK SMILES COC(=O)N1CCN(Cc2cc(-c3ccc4nnc(C(C)C)n4c3)ccc2O)CC1REMARK SMILES IDX 10 1 11 2 12 3 25 4 26 5 27 6 9 7 8 8 3 9 5 10 6 11 30 12REMARK SMILES IDX 7 13 29 14 4 15 2 16 1 17 28 18 13 20 14 21 24 22 15 23REMARK SMILES IDX 23 24 16 25 19 26 17 27 18 28 20 29 21 30 22 31REMARK H PARENT 28 19USER                              x       y       z     vdW  Elec       q    TypeUSER                           _______ _______ _______ _____ _____    ______ ____ROOTATOM      1  C   UNL     1      40.352  46.736  18.186 -0.46 -0.00    +0.009 A  ATOM      2  C   UNL     1      39.125  46.110  18.490 -0.36 -0.00    +0.017 A  ATOM      3  C   UNL     1      39.062  45.003  19.348 -0.38 +0.00    -0.016 A  ATOM      4  C   UNL     1      40.240  44.514  19.921 -0.36 +0.00    +0.012 A  ATOM      5  C   UNL     1      41.460  45.127  19.637 -0.34 +0.01    +0.047 A  ATOM      6  C   UNL     1      41.510  46.233  18.790 -0.41 +0.00    +0.120 A  ENDROOTBRANCH   1   7ATOM      7  C   UNL     1      40.353  47.893  17.209 -0.38 -0.02    +0.124 C  BRANCH   7   8ATOM      8  N   UNL     1      40.998  47.566  15.924 -0.25 +0.03    -0.295 NA ATOM      9  C   UNL     1      37.659  46.685  13.305 -0.23 -0.13    +0.409 C  ATOM     10  N   UNL     1      38.771  46.984  14.076 -0.22 +0.08    -0.306 N  ATOM     11  C   UNL     1      39.222  45.976  15.033 -0.34 -0.03    +0.138 C  ATOM     12  C   UNL     1      39.161  48.370  14.348 -0.45 -0.05    +0.138 C  ATOM     13  C   UNL     1      40.675  46.188  15.493 -0.27 -0.00    +0.106 C  ATOM     14  C   UNL     1      40.616  48.496  14.838 -0.55 -0.02    +0.106 C  ATOM     15  O   UNL     1      37.144  45.574  13.253 -0.36 +0.08    -0.224 OA BRANCH   9  16ATOM     16  O   UNL     1      37.197  47.764  12.617 -0.89 +0.11    -0.453 OA ATOM     17  C   UNL     1      35.810  47.698  12.288 -0.32 -0.17    +0.284 C  ENDBRANCH   9  16ENDBRANCH   7   8ENDBRANCH   1   7BRANCH   6  18ATOM     18  O   UNL     1      42.748  46.772  18.590 -0.19 -0.06    -0.508 OA ATOM     19  H   UNL     1      42.818  47.055  17.664 -0.37 -0.09    +0.293 HD ENDBRANCH   6  18BRANCH   3  20ATOM     20  C   UNL     1      37.769  44.367  19.636 -0.37 +0.00    -0.001 A  ATOM     21  C   UNL     1      37.615  43.258  20.578 -0.26 -0.00    +0.014 A  ATOM     22  C   UNL     1      36.665  44.828  19.011 -0.21 -0.02    +0.103 A  ATOM     23  C   UNL     1      36.417  42.696  20.825 -0.43 +0.00    +0.050 A  ATOM     24  N   UNL     1      35.425  44.242  19.270 -0.19 +0.05    -0.286 N  ATOM     25  C   UNL     1      35.263  43.187  20.159 -0.31 -0.00    +0.160 A  ATOM     26  C   UNL     1      34.152  44.495  18.787 -0.29 -0.04    +0.139 A  ATOM     27  N   UNL     1      34.000  42.833  20.206 -0.70 -0.02    -0.130 NA ATOM     28  N   UNL     1      33.306  43.650  19.350 -0.43 +0.01    -0.134 NA BRANCH  26  29ATOM     29  C   UNL     1      33.753  45.540  17.788 -0.43 -0.03    +0.052 C  ATOM     30  C   UNL     1      33.929  46.959  18.323 -0.56 -0.02    +0.016 C  ATOM     31  C   UNL     1      34.431  45.346  16.434 -0.37 -0.01    +0.016 C  ENDBRANCH  26  29ENDBRANCH   3  20TORSDOF 6TERENDMDL