MODEL        2USER    Run = 2USERUSER    Estimated Free Energy of Binding    = -12.19 kcal/mol  [=(1)+(2)+(3)-(4)]USERUSER    (1) Final Intermolecular Energy     = -14.27 kcal/molUSER        vdW + Hbond + desolv Energy     = -14.09 kcal/molUSER        Electrostatic Energy            =  -0.19 kcal/molUSER        Moving Ligand-Fixed Receptor    = -14.27 kcal/molUSER        Moving Ligand-Moving Receptor   =  +0.00 kcal/molUSER    (2) Final Total Internal Energy     =  -2.17 kcal/molUSER    (3) Torsional Free Energy           =  +2.09 kcal/molUSER    (4) Unbound System's Energy         =  -2.17 kcal/molUSERUSERREMARK SMILES Oc1nc2ccccc2n1C1CCN(Cc2ccc(-c3nc4ncccc4nc3-c3ccnc(N4CCOCC4)c3)cc2)CC1REMARK SMILES IDX 15 1 14 2 11 3 12 4 45 5 13 6 44 7 10 8 2 9 3 10 4 11 9 12REMARK SMILES IDX 5 13 8 14 6 15 7 16 1 17 16 19 17 20 43 21 18 22 42 23 19 24REMARK SMILES IDX 20 25 21 26 29 27 22 28 28 29 23 30 27 31 24 32 26 33 25 34REMARK SMILES IDX 30 35 31 36 41 37 32 38 34 39 33 40 35 41 36 42 40 43 37 44REMARK SMILES IDX 39 45 38 46REMARK H PARENT 1 18USER                              x       y       z     vdW  Elec       q    TypeUSER                           _______ _______ _______ _____ _____    ______ ____ROOTATOM      1  C   UNL     1      39.198  44.343  18.974 -0.32 -0.01    +0.120 C  ENDROOTBRANCH   1   2ATOM      2  N   UNL     1      39.290  45.165  20.188 -0.19 +0.00    -0.299 NA ATOM      3  C   UNL     1      39.082  43.244  22.447 -0.28 +0.01    +0.095 C  ATOM      4  C   UNL     1      40.428  43.564  21.772 -0.25 +0.00    +0.041 C  ATOM      5  C   UNL     1      37.861  43.734  21.656 -0.40 +0.00    +0.041 C  ATOM      6  C   UNL     1      40.476  44.890  21.007 -0.33 +0.00    +0.087 C  ATOM      7  C   UNL     1      38.080  45.100  21.013 -0.17 +0.00    +0.087 C  BRANCH   3   8ATOM      8  N   UNL     1      38.978  43.567  23.868 -0.09 -0.01    -0.291 N  ATOM      9  C   UNL     1      39.738  44.426  24.607 -0.03 +0.01    +0.295 A  ATOM     10  N   UNL     1      39.365  44.512  25.855 -0.07 -0.00    -0.195 NA ATOM     11  C   UNL     1      38.285  43.673  25.949 -0.17 -0.00    +0.092 A  ATOM     12  C   UNL     1      38.009  43.066  24.724 -0.25 +0.00    +0.072 A  ATOM     13  C   UNL     1      37.480  43.386  27.063 -0.31 -0.00    +0.031 A  ATOM     14  C   UNL     1      36.940  42.174  24.556 -0.40 -0.00    +0.029 A  ATOM     15  C   UNL     1      36.413  42.495  26.914 -0.45 -0.00    +0.002 A  ATOM     16  C   UNL     1      36.149  41.901  25.680 -0.42 -0.00    +0.002 A  BRANCH   9  17ATOM     17  O   UNL     1      40.754  45.129  24.159 +0.02 -0.02    -0.480 OA ATOM     18  H   UNL     1      41.501  44.701  24.615 +0.09 +0.01    +0.296 HD ENDBRANCH   9  17ENDBRANCH   3   8ENDBRANCH   1   2BRANCH   1  19ATOM     19  C   UNL     1      37.980  44.660  18.131 -0.34 +0.01    -0.034 A  ATOM     20  C   UNL     1      37.264  43.639  17.494 +0.19 -0.00    +0.006 A  ATOM     21  C   UNL     1      37.550  45.983  17.975 -0.20 -0.00    +0.006 A  ATOM     22  C   UNL     1      36.135  43.939  16.726 -0.35 -0.00    +0.011 A  ATOM     23  C   UNL     1      36.419  46.280  17.208 -0.32 -0.01    +0.011 A  ATOM     24  C   UNL     1      35.680  45.261  16.583 -0.33 -0.00    +0.002 A  BRANCH  24  25ATOM     25  C   UNL     1      34.479  45.553  15.779 -0.23 -0.09    +0.099 A  ATOM     26  N   UNL     1      33.310  45.249  16.411 -0.20 +0.17    -0.224 NA ATOM     27  C   UNL     1      34.491  46.076  14.477 -0.20 -0.09    +0.098 A  ATOM     28  C   UNL     1      32.163  45.428  15.754 -0.23 -0.12    +0.178 A  ATOM     29  N   UNL     1      33.328  46.250  13.792 -0.13 +0.22    -0.242 NA ATOM     30  N   UNL     1      31.020  45.120  16.378 -0.72 +0.05    -0.235 NA ATOM     31  C   UNL     1      32.186  45.930  14.433 -0.31 -0.09    +0.108 A  ATOM     32  C   UNL     1      29.858  45.293  15.716 -0.28 -0.04    +0.114 A  ATOM     33  C   UNL     1      30.971  46.097  13.787 -0.56 -0.02    +0.034 A  ATOM     34  C   UNL     1      29.780  45.778  14.428 -0.35 -0.02    +0.022 A  BRANCH  27  35ATOM     35  C   UNL     1      35.687  46.512  13.737 -0.49 -0.01    +0.008 A  ATOM     36  C   UNL     1      35.739  46.513  12.344 -0.57 -0.02    +0.030 A  ATOM     37  C   UNL     1      36.845  46.910  14.427 -0.40 -0.03    +0.057 A  ATOM     38  C   UNL     1      36.906  46.920  11.728 -0.55 -0.04    +0.114 A  ATOM     39  C   UNL     1      37.987  47.328  13.743 -0.41 -0.04    +0.129 A  ATOM     40  N   UNL     1      38.009  47.320  12.393 -0.77 +0.02    -0.239 NA BRANCH  39  41ATOM     41  N   UNL     1      39.133  47.714  14.431 -0.22 +0.10    -0.352 N  ATOM     42  C   UNL     1      40.066  46.675  14.902 -0.38 -0.02    +0.146 C  ATOM     43  C   UNL     1      38.983  48.872  15.329 -0.44 -0.08    +0.146 C  ATOM     44  C   UNL     1      40.317  46.808  16.415 -0.41 -0.03    +0.181 C  ATOM     45  C   UNL     1      40.331  49.171  16.002 -0.47 -0.06    +0.181 C  ATOM     46  O   UNL     1      40.824  48.091  16.811 -0.38 +0.06    -0.378 OA ENDBRANCH  39  41ENDBRANCH  27  35ENDBRANCH  24  25ENDBRANCH   1  19TORSDOF 7TERENDMDL