MODEL        6USER    Run = 6USERUSER    Estimated Free Energy of Binding    =  -7.82 kcal/mol  [=(1)+(2)+(3)-(4)]USERUSER    (1) Final Intermolecular Energy     =  -8.71 kcal/molUSER        vdW + Hbond + desolv Energy     =  -8.79 kcal/molUSER        Electrostatic Energy            =  +0.08 kcal/molUSER        Moving Ligand-Fixed Receptor    =  -8.71 kcal/molUSER        Moving Ligand-Moving Receptor   =  +0.00 kcal/molUSER    (2) Final Total Internal Energy     =  -0.46 kcal/molUSER    (3) Torsional Free Energy           =  +0.89 kcal/molUSER    (4) Unbound System's Energy         =  -0.46 kcal/molUSERUSERREMARK SMILES Nc1nc2c3ncc(-c4ccc(N5CCNCC5)cc4)c2n1C3=OREMARK SMILES IDX 2 1 3 2 4 3 5 4 6 5 7 6 8 7 21 8 22 9 23 10 24 11 1 12 9 15REMARK SMILES IDX 10 16 20 17 11 18 19 19 12 20 13 21 14 22 18 23 15 24 17 25REMARK SMILES IDX 16 26REMARK H PARENT 1 13 1 14 16 27USER                              x       y       z     vdW  Elec       q    TypeUSER                           _______ _______ _______ _____ _____    ______ ____ROOTATOM      1  C   UNL     1      36.041  47.034  13.800 -0.33 -0.14    +0.208 A  ATOM      2  N   UNL     1      37.108  46.603  13.148 -0.37 +0.08    -0.210 NA ATOM      3  C   UNL     1      38.118  46.916  14.073 -0.37 -0.04    +0.123 A  ATOM      4  C   UNL     1      38.680  48.231  14.281 -0.38 -0.06    +0.157 A  ATOM      5  N   UNL     1      39.607  48.318  15.292 -0.33 +0.09    -0.248 NA ATOM      6  C   UNL     1      39.404  47.503  16.364 -0.39 -0.04    +0.123 A  ATOM      7  C   UNL     1      38.328  46.601  16.483 -0.38 -0.01    +0.027 A  ATOM      8  C   UNL     1      37.487  46.586  15.339 -0.33 -0.05    +0.090 A  ATOM      9  N   UNL     1      36.555  47.682  14.941 -0.25 +0.22    -0.242 N  ATOM     10  C   UNL     1      37.348  48.835  14.689 -0.35 -0.23    +0.286 C  ATOM     11  O   UNL     1      36.924  49.961  14.837 -0.47 +0.30    -0.266 OA ENDROOTBRANCH   1  12ATOM     12  N   UNL     1      34.743  46.991  13.473 -0.11 +0.32    -0.369 N  ATOM     13  H   UNL     1      34.425  46.390  12.718 -0.31 -0.13    +0.159 HD ATOM     14  H   UNL     1      34.081  47.034  14.245 -0.14 -0.22    +0.159 HD ENDBRANCH   1  12BRANCH   7  15ATOM     15  C   UNL     1      38.049  45.756  17.651 -0.37 +0.00    -0.015 A  ATOM     16  C   UNL     1      36.795  45.161  17.845 -0.34 -0.00    +0.011 A  ATOM     17  C   UNL     1      39.019  45.493  18.627 -0.41 -0.00    +0.011 A  ATOM     18  C   UNL     1      36.527  44.355  18.964 -0.35 -0.00    +0.026 A  ATOM     19  C   UNL     1      38.742  44.686  19.743 -0.36 -0.00    +0.026 A  ATOM     20  C   UNL     1      37.491  44.092  19.944 -0.34 -0.00    +0.037 A  BRANCH  20  21ATOM     21  N   UNL     1      37.210  43.304  21.048 -0.15 -0.00    -0.369 N  ATOM     22  C   UNL     1      37.814  43.564  22.366 -0.33 +0.01    +0.132 C  ATOM     23  C   UNL     1      36.503  42.019  20.898 -0.47 -0.00    +0.132 C  ATOM     24  C   UNL     1      36.959  42.936  23.489 -0.38 +0.01    +0.102 C  ATOM     25  C   UNL     1      36.909  41.012  21.999 -0.53 +0.00    +0.102 C  ATOM     26  N   UNL     1      36.736  41.480  23.384 -0.26 -0.01    -0.313 NA ATOM     27  H   UNL     1      35.783  41.283  23.690 +0.01 -0.01    +0.122 HD ENDBRANCH  20  21ENDBRANCH   7  15TORSDOF 3TERENDMDL