MODEL        2USER    Run = 2USERUSER    Estimated Free Energy of Binding    =  -8.68 kcal/mol  [=(1)+(2)+(3)-(4)]USERUSER    (1) Final Intermolecular Energy     = -10.47 kcal/molUSER        vdW + Hbond + desolv Energy     = -10.28 kcal/molUSER        Electrostatic Energy            =  -0.18 kcal/molUSER        Moving Ligand-Fixed Receptor    = -10.47 kcal/molUSER        Moving Ligand-Moving Receptor   =  +0.00 kcal/molUSER    (2) Final Total Internal Energy     =  -0.41 kcal/molUSER    (3) Torsional Free Energy           =  +1.79 kcal/molUSER    (4) Unbound System's Energy         =  -0.41 kcal/molUSERUSERREMARK SMILES Cc1cc(C(=O)Nc2cccc(-c3ccc(O)cc3O)c2)ccc1OREMARK SMILES IDX 8 1 9 2 10 3 11 4 12 5 21 6 7 7 5 8 6 9 4 11 2 12 3 13 24 14REMARK SMILES IDX 23 15 22 16 1 17 25 18 13 20 14 21 19 22 15 23 18 24 16 25REMARK SMILES IDX 20 26 17 28REMARK H PARENT 7 10 25 19 20 27 17 29USER                              x       y       z     vdW  Elec       q    TypeUSER                           _______ _______ _______ _____ _____    ______ ____ROOTATOM      1  C   UNL     1      40.240  45.460  20.230 -0.36 +0.00    +0.042 A  ATOM      2  C   UNL     1      41.598  45.694  20.443 -0.35 +0.00    +0.026 A  ATOM      3  C   UNL     1      42.341  46.429  19.518 -0.40 +0.00    +0.003 A  ATOM      4  C   UNL     1      41.732  46.935  18.369 -0.52 -0.00    +0.009 A  ATOM      5  C   UNL     1      40.369  46.716  18.125 -0.47 +0.00    -0.013 A  ATOM      6  C   UNL     1      39.637  45.976  19.071 -0.37 -0.00    +0.035 A  ENDROOTBRANCH   1   7ATOM      7  N   UNL     1      39.414  44.745  21.122 -0.14 -0.01    -0.322 N  ATOM      8  C   UNL     1      38.299  43.989  20.810 -0.22 +0.00    +0.255 C  ATOM      9  O   UNL     1      37.772  43.869  19.710 -0.22 +0.02    -0.269 OA ATOM     10  H   UNL     1      39.633  44.854  22.102 +0.09 +0.01    +0.170 HD BRANCH   8  11ATOM     11  C   UNL     1      37.675  43.295  21.971 -0.36 +0.00    +0.040 A  ATOM     12  C   UNL     1      37.044  43.350  24.322 -0.36 -0.00    -0.008 A  ATOM     13  C   UNL     1      37.619  43.965  23.201 -0.33 +0.00    +0.021 A  ATOM     14  C   UNL     1      36.513  42.063  24.184 -0.31 +0.00    +0.118 A  ATOM     15  C   UNL     1      36.547  41.394  22.959 -0.45 +0.00    +0.047 A  ATOM     16  C   UNL     1      37.125  42.012  21.849 -0.49 +0.00    +0.017 A  ATOM     17  C   UNL     1      36.988  44.071  25.638 -0.36 -0.00    +0.048 C  BRANCH  14  18ATOM     18  O   UNL     1      35.948  41.469  25.276 -0.12 +0.12    -0.508 OA ATOM     19  H   UNL     1      35.569  40.614  25.013 -0.20 -0.17    +0.293 HD ENDBRANCH  14  18ENDBRANCH   8  11ENDBRANCH   1   7BRANCH   5  20ATOM     20  C   UNL     1      39.724  47.227  16.904 -0.46 -0.01    +0.024 A  ATOM     21  C   UNL     1      38.491  46.689  16.490 -0.40 -0.01    +0.016 A  ATOM     22  C   UNL     1      40.292  48.243  16.114 -0.46 -0.03    +0.127 A  ATOM     23  C   UNL     1      37.850  47.147  15.335 -0.40 -0.02    +0.047 A  ATOM     24  C   UNL     1      39.659  48.706  14.959 -0.45 -0.04    +0.093 A  ATOM     25  C   UNL     1      38.442  48.152  14.580 -0.44 -0.06    +0.119 A  BRANCH  22  26ATOM     26  O   UNL     1      41.487  48.799  16.490 -0.75 -0.01    -0.507 OA ATOM     27  H   UNL     1      42.172  48.111  16.483 -0.30 +0.01    +0.293 HD ENDBRANCH  22  26BRANCH  25  28ATOM     28  O   UNL     1      37.854  48.629  13.446 -0.41 +0.16    -0.508 OA ATOM     29  H   UNL     1      37.746  49.590  13.531 -0.28 -0.16    +0.293 HD ENDBRANCH  25  28ENDBRANCH   5  20TORSDOF 6TERENDMDL