REMARK SMILES Cc1cc(C(=O)Nc2cccc(-c3ccc(O)cc3O)c2)ccc1O
REMARK SMILES IDX 8 1 9 2 10 3 11 4 12 5 21 6 7 7 5 8 6 9 4 11 2 12 3 13 24 14
REMARK SMILES IDX 23 15 22 16 1 17 25 18 13 20 14 21 19 22 15 23 18 24 16 25
REMARK SMILES IDX 20 26 17 28
REMARK H PARENT 7 10 25 19 20 27 17 29
ROOT
ATOM      1  C   UNL     1      -0.291  -0.009   1.266  1.00  0.00     0.042 A 
ATOM      2  C   UNL     1      -0.476   0.041   2.647  1.00  0.00     0.026 A 
ATOM      3  C   UNL     1      -1.763   0.024   3.188  1.00  0.00     0.003 A 
ATOM      4  C   UNL     1      -2.877  -0.040   2.350  1.00  0.00     0.009 A 
ATOM      5  C   UNL     1      -2.724  -0.089   0.958  1.00  0.00    -0.013 A 
ATOM      6  C   UNL     1      -1.419  -0.075   0.433  1.00  0.00     0.035 A 
ENDROOT
BRANCH   1   7
ATOM      7  N   UNL     1       0.973  -0.015   0.640  1.00  0.00    -0.322 N 
ATOM      8  C   UNL     1       2.209   0.132   1.243  1.00  0.00     0.255 C 
ATOM      9  O   UNL     1       2.431   0.379   2.422  1.00  0.00    -0.269 OA
ATOM     10  H   UNL     1       0.960  -0.071  -0.369  1.00  0.00     0.170 HD
BRANCH   8  11
ATOM     11  C   UNL     1       3.369   0.012   0.316  1.00  0.00     0.040 A 
ATOM     12  C   UNL     1       5.589   0.772  -0.334  1.00  0.00    -0.008 A 
ATOM     13  C   UNL     1       4.476   0.848   0.515  1.00  0.00     0.021 A 
ATOM     14  C   UNL     1       5.579  -0.166  -1.372  1.00  0.00     0.118 A 
ATOM     15  C   UNL     1       4.490  -1.017  -1.568  1.00  0.00     0.047 A 
ATOM     16  C   UNL     1       3.384  -0.931  -0.720  1.00  0.00     0.017 A 
ATOM     17  C   UNL     1       6.771   1.672  -0.118  1.00  0.00     0.048 C 
BRANCH  14  18
ATOM     18  O   UNL     1       6.667  -0.242  -2.194  1.00  0.00    -0.508 OA
ATOM     19  H   UNL     1       6.534  -0.962  -2.832  1.00  0.00     0.293 HD
ENDBRANCH  14  18
ENDBRANCH   8  11
ENDBRANCH   1   7
BRANCH   5  20
ATOM     20  C   UNL     1      -3.896  -0.134   0.066  1.00  0.00     0.024 A 
ATOM     21  C   UNL     1      -4.125   0.922  -0.836  1.00  0.00     0.016 A 
ATOM     22  C   UNL     1      -4.816  -1.198   0.075  1.00  0.00     0.127 A 
ATOM     23  C   UNL     1      -5.228   0.916  -1.695  1.00  0.00     0.047 A 
ATOM     24  C   UNL     1      -5.919  -1.212  -0.780  1.00  0.00     0.093 A 
ATOM     25  C   UNL     1      -6.115  -0.153  -1.658  1.00  0.00     0.119 A 
BRANCH  22  26
ATOM     26  O   UNL     1      -4.620  -2.249   0.932  1.00  0.00    -0.507 OA
ATOM     27  H   UNL     1      -5.328  -2.900   0.801  1.00  0.00     0.293 HD
ENDBRANCH  22  26
BRANCH  25  28
ATOM     28  O   UNL     1      -7.204  -0.201  -2.477  1.00  0.00    -0.508 OA
ATOM     29  H   UNL     1      -7.226   0.607  -3.015  1.00  0.00     0.293 HD
ENDBRANCH  25  28
ENDBRANCH   5  20
TORSDOF 6
