REMARK SMILES COc1cccc(C(=NNc2ccc(OC)cc2C)c2ccco2)c1
REMARK SMILES IDX 9 1 8 2 7 3 3 4 4 5 25 6 5 7 6 8 2 9 1 10 20 11 21 12 24 13
REMARK SMILES IDX 22 14 23 15 10 16 11 18 12 19 18 20 13 21 17 22 14 23 19 24
REMARK SMILES IDX 15 25 16 26
REMARK H PARENT 10 17
ROOT
ATOM      1  N   UNL     1       0.286  -0.223   0.090  1.00  0.00    -0.171 NA
ENDROOT
BRANCH   1   2
ATOM      2  C   UNL     1       1.320  -0.997  -0.108  1.00  0.00     0.133 C 
BRANCH   2   3
ATOM      3  C   UNL     1       2.681  -0.374   0.019  1.00  0.00     0.009 A 
ATOM      4  C   UNL     1       4.071   1.623  -0.103  1.00  0.00     0.119 A 
ATOM      5  C   UNL     1       5.182   0.866   0.272  1.00  0.00     0.046 A 
ATOM      6  C   UNL     1       2.825   1.000  -0.224  1.00  0.00     0.057 A 
ATOM      7  C   UNL     1       5.046  -0.501   0.527  1.00  0.00     0.005 A 
ATOM      8  C   UNL     1       3.801  -1.120   0.405  1.00  0.00     0.011 A 
BRANCH   4   9
ATOM      9  O   UNL     1       4.068   2.963  -0.377  1.00  0.00    -0.497 OA
ATOM     10  C   UNL     1       5.305   3.651  -0.247  1.00  0.00     0.278 C 
ENDBRANCH   4   9
ENDBRANCH   2   3
BRANCH   2  11
ATOM     11  C   UNL     1       1.234  -2.413  -0.430  1.00  0.00     0.154 A 
ATOM     12  C   UNL     1       0.385  -3.417   0.006  1.00  0.00     0.053 A 
ATOM     13  O   UNL     1       2.118  -2.942  -1.335  1.00  0.00    -0.463 OA
ATOM     14  C   UNL     1       0.767  -4.603  -0.664  1.00  0.00     0.043 A 
ATOM     15  C   UNL     1       1.825  -4.260  -1.470  1.00  0.00     0.196 A 
ENDBRANCH   2  11
ENDBRANCH   1   2
BRANCH   1  16
ATOM     16  N   UNL     1      -0.964  -0.727  -0.114  1.00  0.00    -0.278 N 
ATOM     17  H   UNL     1      -1.092  -1.276  -0.964  1.00  0.00     0.190 HD
BRANCH  16  18
ATOM     18  C   UNL     1      -2.069   0.125   0.138  1.00  0.00     0.059 A 
ATOM     19  C   UNL     1      -1.926   1.288   0.908  1.00  0.00     0.032 A 
ATOM     20  C   UNL     1      -3.368  -0.249  -0.271  1.00  0.00    -0.022 A 
ATOM     21  C   UNL     1      -3.023   2.098   1.209  1.00  0.00     0.048 A 
ATOM     22  C   UNL     1      -4.468   0.581   0.035  1.00  0.00     0.052 A 
ATOM     23  C   UNL     1      -4.298   1.754   0.769  1.00  0.00     0.119 A 
ATOM     24  C   UNL     1      -3.614  -1.516  -1.046  1.00  0.00     0.047 C 
BRANCH  23  25
ATOM     25  O   UNL     1      -5.284   2.632   1.128  1.00  0.00    -0.497 OA
ATOM     26  C   UNL     1      -6.602   2.336   0.685  1.00  0.00     0.278 C 
ENDBRANCH  23  25
ENDBRANCH  16  18
ENDBRANCH   1  16
TORSDOF 7
