REMARK SMILES Nc1nc2c3ncc(-c4ccc(N5CCNCC5)cc4)c2n1C3=O
REMARK SMILES IDX 2 1 3 2 4 3 5 4 6 5 7 6 8 7 21 8 22 9 23 10 24 11 1 12 9 15
REMARK SMILES IDX 10 16 20 17 11 18 19 19 12 20 13 21 14 22 18 23 15 24 17 25
REMARK SMILES IDX 16 26
REMARK H PARENT 1 13 1 14 16 27
ROOT
ATOM      1  C   UNL     1       4.666   2.028  -1.469  1.00  0.00     0.208 A 
ATOM      2  N   UNL     1       4.837   1.229  -2.509  1.00  0.00    -0.210 NA
ATOM      3  C   UNL     1       4.512  -0.012  -1.936  1.00  0.00     0.123 A 
ATOM      4  C   UNL     1       5.385  -0.796  -1.092  1.00  0.00     0.157 A 
ATOM      5  N   UNL     1       4.829  -1.945  -0.582  1.00  0.00    -0.248 NA
ATOM      6  C   UNL     1       3.499  -1.893  -0.298  1.00  0.00     0.123 A 
ATOM      7  C   UNL     1       2.688  -0.758  -0.498  1.00  0.00     0.027 A 
ATOM      8  C   UNL     1       3.390   0.331  -1.079  1.00  0.00     0.090 A 
ATOM      9  N   UNL     1       4.420   1.160  -0.386  1.00  0.00    -0.242 N 
ATOM     10  C   UNL     1       5.490   0.292  -0.037  1.00  0.00     0.286 C 
ATOM     11  O   UNL     1       6.208   0.496   0.918  1.00  0.00    -0.266 OA
ENDROOT
BRANCH   1  12
ATOM     12  N   UNL     1       4.779   3.358  -1.363  1.00  0.00    -0.369 N 
ATOM     13  H   UNL     1       5.003   3.783  -0.467  1.00  0.00     0.159 HD
ATOM     14  H   UNL     1       5.219   3.838  -2.145  1.00  0.00     0.159 HD
ENDBRANCH   1  12
BRANCH   7  15
ATOM     15  C   UNL     1       1.266  -0.653  -0.144  1.00  0.00    -0.015 A 
ATOM     16  C   UNL     1       0.661   0.586   0.107  1.00  0.00     0.011 A 
ATOM     17  C   UNL     1       0.439  -1.779  -0.046  1.00  0.00     0.011 A 
ATOM     18  C   UNL     1      -0.698   0.687   0.449  1.00  0.00     0.026 A 
ATOM     19  C   UNL     1      -0.919  -1.669   0.297  1.00  0.00     0.026 A 
ATOM     20  C   UNL     1      -1.528  -0.435   0.552  1.00  0.00     0.037 A 
BRANCH  20  21
ATOM     21  N   UNL     1      -2.864  -0.323   0.900  1.00  0.00    -0.369 N 
ATOM     22  C   UNL     1      -3.667  -1.491   1.299  1.00  0.00     0.132 C 
ATOM     23  C   UNL     1      -3.610   0.921   0.637  1.00  0.00     0.132 C 
ATOM     24  C   UNL     1      -4.891  -1.050   2.133  1.00  0.00     0.102 C 
ATOM     25  C   UNL     1      -5.113   0.646   0.401  1.00  0.00     0.102 C 
ATOM     26  N   UNL     1      -5.801  -0.092   1.474  1.00  0.00    -0.313 NA
ATOM     27  H   UNL     1      -6.131   0.567   2.179  1.00  0.00     0.122 HD
ENDBRANCH  20  21
ENDBRANCH   7  15
TORSDOF 3
