MODEL        2USER    Run = 2USERUSER    Estimated Free Energy of Binding    =  -9.00 kcal/mol  [=(1)+(2)+(3)-(4)]USERUSER    (1) Final Intermolecular Energy     = -11.09 kcal/molUSER        vdW + Hbond + desolv Energy     = -10.89 kcal/molUSER        Electrostatic Energy            =  -0.19 kcal/molUSER        Moving Ligand-Fixed Receptor    = -11.09 kcal/molUSER        Moving Ligand-Moving Receptor   =  +0.00 kcal/molUSER    (2) Final Total Internal Energy     =  -0.82 kcal/molUSER    (3) Torsional Free Energy           =  +2.09 kcal/molUSER    (4) Unbound System's Energy         =  -0.82 kcal/molUSERUSERREMARK SMILES COc1cccc(C(=NNc2ccc(OC)cc2C)c2ccco2)c1REMARK SMILES IDX 9 1 8 2 7 3 3 4 4 5 25 6 5 7 6 8 2 9 1 10 20 11 21 12 24 13REMARK SMILES IDX 22 14 23 15 10 16 11 18 12 19 18 20 13 21 17 22 14 23 19 24REMARK SMILES IDX 15 25 16 26REMARK H PARENT 10 17USER                              x       y       z     vdW  Elec       q    TypeUSER                           _______ _______ _______ _____ _____    ______ ____ROOTATOM      1  N   UNL     1      40.293  47.755  17.556 -0.35 +0.03    -0.171 NA ENDROOTBRANCH   1   2ATOM      2  C   UNL     1      40.016  48.148  16.341 -0.48 -0.04    +0.133 C  BRANCH   2   3ATOM      3  C   UNL     1      38.714  47.689  15.749 -0.47 -0.00    +0.009 A  ATOM      4  C   UNL     1      37.276  47.496  13.792 -0.44 -0.05    +0.119 A  ATOM      5  C   UNL     1      36.323  46.831  14.565 -0.39 -0.03    +0.046 A  ATOM      6  C   UNL     1      38.468  47.919  14.387 -0.48 -0.02    +0.057 A  ATOM      7  C   UNL     1      36.563  46.588  15.920 -0.38 -0.00    +0.005 A  ATOM      8  C   UNL     1      37.755  47.011  16.511 -0.34 -0.01    +0.011 A  BRANCH   4   9ATOM      9  O   UNL     1      37.165  47.792  12.462 -0.86 +0.11    -0.497 OA ATOM     10  C   UNL     1      36.911  46.708  11.578 -0.47 -0.10    +0.278 C  ENDBRANCH   4   9ENDBRANCH   2   3BRANCH   2  11ATOM     11  C   UNL     1      40.879  49.002  15.539 -0.49 -0.03    +0.154 A  ATOM     12  C   UNL     1      41.283  48.937  14.216 -0.43 -0.01    +0.053 A  ATOM     13  O   UNL     1      41.439  50.111  16.120 -0.85 +0.05    -0.463 OA ATOM     14  C   UNL     1      42.119  50.054  13.982 -0.65 -0.01    +0.043 A  ATOM     15  C   UNL     1      42.180  50.738  15.172 -0.24 -0.02    +0.196 A  ENDBRANCH   2  11ENDBRANCH   1   2BRANCH   1  16ATOM     16  N   UNL     1      41.583  47.446  17.872 -0.34 +0.02    -0.278 N  ATOM     17  H   UNL     1      42.158  47.092  17.108 -0.41 -0.06    +0.190 HD BRANCH  16  18ATOM     18  C   UNL     1      41.816  46.744  19.082 -0.47 +0.00    +0.059 A  ATOM     19  C   UNL     1      42.776  47.188  20.003 -0.41 +0.01    +0.032 A  ATOM     20  C   UNL     1      41.181  45.507  19.324 -0.42 -0.00    -0.022 A  ATOM     21  C   UNL     1      43.052  46.467  21.167 -0.30 +0.02    +0.048 A  ATOM     22  C   UNL     1      41.465  44.790  20.507 -0.32 +0.01    +0.052 A  ATOM     23  C   UNL     1      42.394  45.269  21.429 -0.20 +0.03    +0.119 A  ATOM     24  C   UNL     1      40.186  44.930  18.352 -0.45 -0.00    +0.047 C  BRANCH  23  25ATOM     25  O   UNL     1      42.753  44.663  22.602 -0.02 -0.08    -0.497 OA ATOM     26  C   UNL     1      42.579  43.254  22.679 -0.22 +0.01    +0.278 C  ENDBRANCH  23  25ENDBRANCH  16  18ENDBRANCH   1  16TORSDOF 7TERENDMDL