
     RDKit          3D

 48 51  0  0  0  0  0  0  0  0999 V2000
   -6.7350    2.8001   -0.2536 C   0  0  0  0  0  0  0  0  0  0  0  0
   -5.7115    2.0080    0.3347 O   0  0  0  0  0  0  0  0  0  0  0  0
   -5.5652    0.7157   -0.1036 C   0  0  0  0  0  0  0  0  0  0  0  0
   -6.3367    0.1449   -1.1233 C   0  0  0  0  0  0  0  0  0  0  0  0
   -6.1465   -1.1874   -1.4919 C   0  0  0  0  0  0  0  0  0  0  0  0
   -5.1716   -1.9487   -0.8595 C   0  0  0  0  0  0  0  0  0  0  0  0
   -5.0765   -3.2596   -1.2457 O   0  0  0  0  0  0  0  0  0  0  0  0
   -4.3460   -1.3841    0.1221 C   0  0  0  0  0  0  0  0  0  0  0  0
   -3.2857   -2.2440    0.6888 C   0  0  0  0  0  0  0  0  0  0  0  0
   -3.5974   -3.3887    1.0187 O   0  0  0  0  0  0  0  0  0  0  0  0
   -1.8658   -1.8189    0.7604 C   0  0  0  0  0  0  0  0  0  0  0  0
   -1.3214   -0.9029   -0.1423 C   0  0  0  0  0  0  0  0  0  0  0  0
    0.0289   -0.5442   -0.0454 C   0  0  0  0  0  0  0  0  0  0  0  0
    0.8662   -1.1112    0.9237 C   0  0  0  0  0  0  0  0  0  0  0  0
    2.2178   -0.7358    1.0890 N   0  0  0  0  0  0  0  0  0  0  0  0
    3.0809   -0.2451    0.1205 C   0  0  0  0  0  0  0  0  0  0  0  0
    2.7910   -0.3261   -1.1341 N   0  0  0  0  0  0  0  0  0  0  0  0
    3.6060    0.0786   -2.1426 C   0  0  0  0  0  0  0  0  0  0  0  0
    4.7973    0.6816   -2.1710 C   0  0  0  0  0  0  0  0  0  0  0  0
    5.2987    0.9257   -3.4098 F   0  0  0  0  0  0  0  0  0  0  0  0
    5.6280    1.1197   -1.0469 C   0  0  0  0  0  0  0  0  0  0  0  0
    6.8308    1.7874   -1.3736 C   0  0  0  0  0  0  0  0  0  0  0  0
    7.7115    2.2429   -0.3934 C   0  0  0  0  0  0  0  0  0  0  0  0
    7.4104    2.0322    0.9408 C   0  0  0  0  0  0  0  0  0  0  0  0
    6.2277    1.3755    1.2799 C   0  0  0  0  0  0  0  0  0  0  0  0
    5.3071    0.9284    0.3020 C   0  0  0  0  0  0  0  0  0  0  0  0
    4.1818    0.2359    0.7800 N   0  0  0  0  0  0  0  0  0  0  0  0
    0.2992   -2.0233    1.8284 C   0  0  0  0  0  0  0  0  0  0  0  0
   -1.0487   -2.3874    1.7404 C   0  0  0  0  0  0  0  0  0  0  0  0
   -4.5696   -0.0598    0.5305 C   0  0  0  0  0  0  0  0  0  0  0  0
   -3.6917    0.6286    1.8647 Cl  0  0  0  0  0  0  0  0  0  0  0  0
   -6.5503    2.9519   -1.3220 H   0  0  0  0  0  0  0  0  0  0  0  0
   -7.7232    2.3620   -0.0793 H   0  0  0  0  0  0  0  0  0  0  0  0
   -6.7168    3.7818    0.2294 H   0  0  0  0  0  0  0  0  0  0  0  0
   -7.1099    0.7036   -1.6414 H   0  0  0  0  0  0  0  0  0  0  0  0
   -6.7666   -1.6356   -2.2648 H   0  0  0  0  0  0  0  0  0  0  0  0
   -4.5921   -3.7482   -0.5425 H   0  0  0  0  0  0  0  0  0  0  0  0
   -1.9191   -0.4565   -0.9319 H   0  0  0  0  0  0  0  0  0  0  0  0
    0.4165    0.1933   -0.7446 H   0  0  0  0  0  0  0  0  0  0  0  0
    2.6921   -1.3095    1.7739 H   0  0  0  0  0  0  0  0  0  0  0  0
    3.1821   -0.1448   -3.1210 H   0  0  0  0  0  0  0  0  0  0  0  0
    7.0967    1.9573   -2.4165 H   0  0  0  0  0  0  0  0  0  0  0  0
    8.6290    2.7511   -0.6779 H   0  0  0  0  0  0  0  0  0  0  0  0
    8.0919    2.3698    1.7169 H   0  0  0  0  0  0  0  0  0  0  0  0
    6.0254    1.2096    2.3364 H   0  0  0  0  0  0  0  0  0  0  0  0
    3.9843    0.4599    1.7464 H   0  0  0  0  0  0  0  0  0  0  0  0
    0.9039   -2.4733    2.6120 H   0  0  0  0  0  0  0  0  0  0  0  0
   -1.4578   -3.1105    2.4432 H   0  0  0  0  0  0  0  0  0  0  0  0
  1  2  1  0
  2  3  1  0
  3  4  2  0
  4  5  1  0
  5  6  2  0
  6  7  1  0
  6  8  1  0
  8  9  1  0
  9 10  2  0
  9 11  1  0
 11 12  2  0
 12 13  1  0
 13 14  2  0
 14 15  1  0
 15 16  1  0
 16 17  2  0
 17 18  1  0
 18 19  2  0
 19 20  1  0
 19 21  1  0
 21 22  2  0
 22 23  1  0
 23 24  2  0
 24 25  1  0
 25 26  2  0
 26 27  1  0
 14 28  1  0
 28 29  2  0
  8 30  2  0
 30 31  1  0
 30  3  1  0
 29 11  1  0
 27 16  1  0
 26 21  1  0
  1 32  1  0
  1 33  1  0
  1 34  1  0
  4 35  1  0
  5 36  1  0
  7 37  1  0
 12 38  1  0
 13 39  1  0
 15 40  1  0
 18 41  1  0
 22 42  1  0
 23 43  1  0
 24 44  1  0
 25 45  1  0
 27 46  1  0
 28 47  1  0
 29 48  1  0
M  END
$$$$
