
     RDKit          3D

 44 47  0  0  0  0  0  0  0  0999 V2000
    5.6167    0.7580    2.5317 C   0  0  0  0  0  0  0  0  0  0  0  0
    4.6384    0.0440    1.7865 O   0  0  0  0  0  0  0  0  0  0  0  0
    4.5036    0.3392    0.4534 C   0  0  0  0  0  0  0  0  0  0  0  0
    5.1848    1.3832   -0.1847 C   0  0  0  0  0  0  0  0  0  0  0  0
    5.0155    1.6084   -1.5510 C   0  0  0  0  0  0  0  0  0  0  0  0
    4.1473    0.8079   -2.2816 C   0  0  0  0  0  0  0  0  0  0  0  0
    4.0669    1.0632   -3.6250 O   0  0  0  0  0  0  0  0  0  0  0  0
    3.4061   -0.2038   -1.6555 C   0  0  0  0  0  0  0  0  0  0  0  0
    2.4428   -0.9424   -2.4995 C   0  0  0  0  0  0  0  0  0  0  0  0
    2.8435   -1.3672   -3.5830 O   0  0  0  0  0  0  0  0  0  0  0  0
    1.0082   -1.0725   -2.1398 C   0  0  0  0  0  0  0  0  0  0  0  0
    0.2854   -2.1486   -2.6607 C   0  0  0  0  0  0  0  0  0  0  0  0
   -1.0691   -2.2995   -2.3487 C   0  0  0  0  0  0  0  0  0  0  0  0
   -1.7283   -1.3788   -1.5216 C   0  0  0  0  0  0  0  0  0  0  0  0
   -3.0845   -1.6114   -1.2132 N   0  0  0  0  0  0  0  0  0  0  0  0
   -3.8011   -1.0961   -0.1947 C   0  0  0  0  0  0  0  0  0  0  0  0
   -5.0719   -0.7694   -0.2082 N   0  0  0  0  0  0  0  0  0  0  0  0
   -5.3571   -0.3475    1.0684 C   0  0  0  0  0  0  0  0  0  0  0  0
   -6.5580    0.1359    1.6073 C   0  0  0  0  0  0  0  0  0  0  0  0
   -6.5891    0.4978    2.9605 C   0  0  0  0  0  0  0  0  0  0  0  0
   -5.4493    0.3779    3.7604 C   0  0  0  0  0  0  0  0  0  0  0  0
   -4.2422   -0.1048    3.2411 C   0  0  0  0  0  0  0  0  0  0  0  0
   -4.2398   -0.4532    1.8892 C   0  0  0  0  0  0  0  0  0  0  0  0
   -3.2701   -0.9547    1.0622 N   0  0  0  0  0  0  0  0  0  0  0  0
   -0.9961   -0.2927   -1.0233 C   0  0  0  0  0  0  0  0  0  0  0  0
    0.3593   -0.1312   -1.3353 C   0  0  0  0  0  0  0  0  0  0  0  0
    3.6146   -0.4669   -0.2912 C   0  0  0  0  0  0  0  0  0  0  0  0
    2.7904   -1.9646    0.5689 Br  0  0  0  0  0  0  0  0  0  0  0  0
    5.6255    0.3505    3.5472 H   0  0  0  0  0  0  0  0  0  0  0  0
    6.6171    0.6190    2.1088 H   0  0  0  0  0  0  0  0  0  0  0  0
    5.3586    1.8196    2.6020 H   0  0  0  0  0  0  0  0  0  0  0  0
    5.8713    2.0331    0.3490 H   0  0  0  0  0  0  0  0  0  0  0  0
    5.5688    2.4019   -2.0481 H   0  0  0  0  0  0  0  0  0  0  0  0
    3.7010    0.2625   -4.0639 H   0  0  0  0  0  0  0  0  0  0  0  0
    0.7729   -2.8787   -3.3040 H   0  0  0  0  0  0  0  0  0  0  0  0
   -1.6077   -3.1566   -2.7480 H   0  0  0  0  0  0  0  0  0  0  0  0
   -3.6316   -1.8206   -2.0452 H   0  0  0  0  0  0  0  0  0  0  0  0
   -7.4391    0.2230    0.9817 H   0  0  0  0  0  0  0  0  0  0  0  0
   -7.5140    0.8741    3.3913 H   0  0  0  0  0  0  0  0  0  0  0  0
   -5.5019    0.6634    4.8093 H   0  0  0  0  0  0  0  0  0  0  0  0
   -3.3592   -0.2012    3.8632 H   0  0  0  0  0  0  0  0  0  0  0  0
   -2.3295   -1.2081    1.3195 H   0  0  0  0  0  0  0  0  0  0  0  0
   -1.4793    0.4735   -0.4215 H   0  0  0  0  0  0  0  0  0  0  0  0
    0.8803    0.7431   -0.9539 H   0  0  0  0  0  0  0  0  0  0  0  0
  1  2  1  0
  2  3  1  0
  3  4  2  0
  4  5  1  0
  5  6  2  0
  6  7  1  0
  6  8  1  0
  8  9  1  0
  9 10  2  0
  9 11  1  0
 11 12  2  0
 12 13  1  0
 13 14  2  0
 14 15  1  0
 15 16  1  0
 16 17  2  0
 17 18  1  0
 18 19  2  0
 19 20  1  0
 20 21  2  0
 21 22  1  0
 22 23  2  0
 23 24  1  0
 14 25  1  0
 25 26  2  0
  8 27  2  0
 27 28  1  0
 27  3  1  0
 26 11  1  0
 24 16  1  0
 23 18  1  0
  1 29  1  0
  1 30  1  0
  1 31  1  0
  4 32  1  0
  5 33  1  0
  7 34  1  0
 12 35  1  0
 13 36  1  0
 15 37  1  0
 19 38  1  0
 20 39  1  0
 21 40  1  0
 22 41  1  0
 24 42  1  0
 25 43  1  0
 26 44  1  0
M  END
$$$$
