
     RDKit          3D

 55 59  0  0  0  0  0  0  0  0999 V2000
   -8.8334    3.6910    0.2816 N   0  0  0  0  0  0  0  0  0  0  0  0
   -7.7755    3.2409    0.1254 C   0  0  0  0  0  0  0  0  0  0  0  0
   -6.4737    2.6879   -0.0667 C   0  0  0  0  0  0  0  0  0  0  0  0
   -5.5367    3.3448   -0.8396 C   0  0  0  0  0  0  0  0  0  0  0  0
   -4.2888    2.8753   -1.0639 N   0  0  0  0  0  0  0  0  0  0  0  0
   -3.9280    1.6911   -0.4869 C   0  0  0  0  0  0  0  0  0  0  0  0
   -2.5336    1.2999   -0.7797 C   0  0  0  0  0  0  0  0  0  0  0  0
   -2.0698    1.2701   -2.1066 C   0  0  0  0  0  0  0  0  0  0  0  0
   -0.7551    0.9010   -2.4110 C   0  0  0  0  0  0  0  0  0  0  0  0
    0.1395    0.5630   -1.3899 C   0  0  0  0  0  0  0  0  0  0  0  0
    1.5589    0.1525   -1.7039 C   0  0  0  0  0  0  0  0  0  0  0  0
    1.7206   -1.2929   -1.5441 N   0  0  0  0  0  0  0  0  0  0  0  0
    3.0548   -1.7456   -1.9379 C   0  0  0  0  0  0  0  0  0  0  0  0
    4.1445   -1.3050   -0.9884 C   0  0  0  0  0  0  0  0  0  0  0  0
    5.2367   -0.5590   -1.4471 C   0  0  0  0  0  0  0  0  0  0  0  0
    6.2487   -0.1599   -0.5655 C   0  0  0  0  0  0  0  0  0  0  0  0
    6.1906   -0.4984    0.7942 C   0  0  0  0  0  0  0  0  0  0  0  0
    7.2285   -0.0969    1.7390 C   0  0  0  0  0  0  0  0  0  0  0  0
    8.0972    0.9656    1.5518 C   0  0  0  0  0  0  0  0  0  0  0  0
    9.1171    1.0477    2.9299 S   0  0  0  0  0  0  0  0  0  0  0  0
    8.3844   -0.2596    3.6675 N   0  0  0  0  0  0  0  0  0  0  0  0
    7.4023   -0.7721    2.9457 N   0  0  0  0  0  0  0  0  0  0  0  0
    5.1007   -1.2546    1.2471 C   0  0  0  0  0  0  0  0  0  0  0  0
    4.0895   -1.6524    0.3674 C   0  0  0  0  0  0  0  0  0  0  0  0
   -0.3083    0.5965   -0.0637 C   0  0  0  0  0  0  0  0  0  0  0  0
   -1.6227    0.9688    0.2364 C   0  0  0  0  0  0  0  0  0  0  0  0
   -4.8201    0.9376    0.3048 C   0  0  0  0  0  0  0  0  0  0  0  0
   -4.4962   -0.3731    0.8945 C   0  0  0  0  0  0  0  0  0  0  0  0
   -4.5011   -0.5549    2.2883 C   0  0  0  0  0  0  0  0  0  0  0  0
   -4.1996   -1.7972    2.8515 C   0  0  0  0  0  0  0  0  0  0  0  0
   -3.8923   -2.8787    2.0299 C   0  0  0  0  0  0  0  0  0  0  0  0
   -3.8881   -2.7202    0.6464 C   0  0  0  0  0  0  0  0  0  0  0  0
   -4.1909   -1.4782    0.0832 C   0  0  0  0  0  0  0  0  0  0  0  0
   -6.1085    1.4712    0.5062 C   0  0  0  0  0  0  0  0  0  0  0  0
   -5.7566    4.2954   -1.3201 H   0  0  0  0  0  0  0  0  0  0  0  0
   -2.7437    1.5411   -2.9177 H   0  0  0  0  0  0  0  0  0  0  0  0
   -0.4382    0.8864   -3.4508 H   0  0  0  0  0  0  0  0  0  0  0  0
    1.8074    0.4566   -2.7285 H   0  0  0  0  0  0  0  0  0  0  0  0
    2.2296    0.7054   -1.0350 H   0  0  0  0  0  0  0  0  0  0  0  0
    1.0280   -1.7569   -2.1292 H   0  0  0  0  0  0  0  0  0  0  0  0
    3.2761   -1.4299   -2.9651 H   0  0  0  0  0  0  0  0  0  0  0  0
    3.0588   -2.8427   -1.9542 H   0  0  0  0  0  0  0  0  0  0  0  0
    5.3114   -0.2829   -2.4967 H   0  0  0  0  0  0  0  0  0  0  0  0
    7.0844    0.4053   -0.9692 H   0  0  0  0  0  0  0  0  0  0  0  0
    8.1826    1.6680    0.7376 H   0  0  0  0  0  0  0  0  0  0  0  0
    5.0225   -1.5388    2.2952 H   0  0  0  0  0  0  0  0  0  0  0  0
    3.2482   -2.2304    0.7458 H   0  0  0  0  0  0  0  0  0  0  0  0
    0.3696    0.3275    0.7444 H   0  0  0  0  0  0  0  0  0  0  0  0
   -1.9268    0.9979    1.2802 H   0  0  0  0  0  0  0  0  0  0  0  0
   -4.7296    0.2784    2.9500 H   0  0  0  0  0  0  0  0  0  0  0  0
   -4.2011   -1.9191    3.9317 H   0  0  0  0  0  0  0  0  0  0  0  0
   -3.6537   -3.8447    2.4674 H   0  0  0  0  0  0  0  0  0  0  0  0
   -3.6460   -3.5623    0.0032 H   0  0  0  0  0  0  0  0  0  0  0  0
   -4.1815   -1.3784   -1.0006 H   0  0  0  0  0  0  0  0  0  0  0  0
   -6.8329    0.9178    1.1035 H   0  0  0  0  0  0  0  0  0  0  0  0
  1  2  3  0
  2  3  1  0
  3  4  2  0
  4  5  1  0
  5  6  2  0
  6  7  1  0
  7  8  2  0
  8  9  1  0
  9 10  2  0
 10 11  1  0
 11 12  1  0
 12 13  1  0
 13 14  1  0
 14 15  2  0
 15 16  1  0
 16 17  2  0
 17 18  1  0
 18 19  2  0
 19 20  1  0
 20 21  1  0
 21 22  2  0
 17 23  1  0
 23 24  2  0
 10 25  1  0
 25 26  2  0
  6 27  1  0
 27 28  1  0
 28 29  2  0
 29 30  1  0
 30 31  2  0
 31 32  1  0
 32 33  2  0
 27 34  2  0
 34  3  1  0
 26  7  1  0
 33 28  1  0
 24 14  1  0
 22 18  1  0
  4 35  1  0
  8 36  1  0
  9 37  1  0
 11 38  1  0
 11 39  1  0
 12 40  1  0
 13 41  1  0
 13 42  1  0
 15 43  1  0
 16 44  1  0
 19 45  1  0
 23 46  1  0
 24 47  1  0
 25 48  1  0
 26 49  1  0
 29 50  1  0
 30 51  1  0
 31 52  1  0
 32 53  1  0
 33 54  1  0
 34 55  1  0
M  END
$$$$
