
     RDKit          3D

 66 69  0  0  0  0  0  0  0  0999 V2000
   -2.4810    3.4250   -1.2356 C   0  0  0  0  0  0  0  0  0  0  0  0
   -1.8342    2.1072   -0.9105 C   0  0  0  0  0  0  0  0  0  0  0  0
   -0.4432    2.0567   -0.6894 C   0  0  0  0  0  0  0  0  0  0  0  0
    0.2222    0.8573   -0.4044 C   0  0  0  0  0  0  0  0  0  0  0  0
    1.5954    0.7674   -0.1532 N   0  0  0  0  0  0  0  0  0  0  0  0
    2.6213    1.7003   -0.0388 C   0  0  0  0  0  0  0  0  0  0  0  0
    2.3835    3.0181   -0.0196 N   0  0  0  0  0  0  0  0  0  0  0  0
    3.4482    3.8310    0.1209 C   0  0  0  0  0  0  0  0  0  0  0  0
    4.7400    3.3790    0.2352 C   0  0  0  0  0  0  0  0  0  0  0  0
    6.0424    4.4906    0.3915 Cl  0  0  0  0  0  0  0  0  0  0  0  0
    4.9123    2.0011    0.1921 C   0  0  0  0  0  0  0  0  0  0  0  0
    6.2053    1.4558    0.3468 N   0  0  0  0  0  0  0  0  0  0  0  0
    6.3537    0.0116    0.1486 C   0  0  1  0  0  0  0  0  0  0  0  0
    7.8247   -0.2912   -0.1738 C   0  0  0  0  0  0  0  0  0  0  0  0
    8.0690   -1.7791   -0.4343 C   0  0  0  0  0  0  0  0  0  0  0  0
    7.0964   -2.6923    0.3157 C   0  0  1  0  0  0  0  0  0  0  0  0
    7.7069   -3.9551    0.5470 O   0  0  0  0  0  0  0  0  0  0  0  0
    6.6505   -2.0729    1.6337 C   0  0  0  0  0  0  0  0  0  0  0  0
    5.9136   -0.7495    1.4170 C   0  0  0  0  0  0  0  0  0  0  0  0
    3.8544    1.1725    0.0688 N   0  0  0  0  0  0  0  0  0  0  0  0
   -0.5474   -0.3135   -0.3279 C   0  0  0  0  0  0  0  0  0  0  0  0
   -1.9275   -0.2915   -0.5461 C   0  0  0  0  0  0  0  0  0  0  0  0
   -2.5720    0.9163   -0.8362 C   0  0  0  0  0  0  0  0  0  0  0  0
   -4.0371    0.9000   -1.0817 C   0  0  0  0  0  0  0  0  0  0  0  0
   -4.5066    1.4040   -2.0930 O   0  0  0  0  0  0  0  0  0  0  0  0
   -4.7832    0.2851   -0.0985 N   0  0  0  0  0  0  0  0  0  0  0  0
   -6.2289    0.0923   -0.2234 C   0  0  2  0  0  0  0  0  0  0  0  0
   -6.8669    0.0523    1.1738 C   0  0  0  0  0  0  0  0  0  0  0  0
   -6.8965   -1.3313    1.8332 C   0  0  0  0  0  0  0  0  0  0  0  0
   -7.7737   -2.3855    1.1354 C   0  0  0  0  0  0  0  0  0  0  0  0
   -8.6396   -1.8341    0.1021 N   0  0  0  0  0  0  0  0  0  0  0  0
   -7.9626   -1.5735   -1.1704 C   0  0  0  0  0  0  0  0  0  0  0  0
   -6.4982   -1.1376   -1.0993 C   0  0  0  0  0  0  0  0  0  0  0  0
   -3.3657    3.5873   -0.6111 H   0  0  0  0  0  0  0  0  0  0  0  0
   -2.7650    3.4581   -2.2919 H   0  0  0  0  0  0  0  0  0  0  0  0
   -1.7992    4.2612   -1.0455 H   0  0  0  0  0  0  0  0  0  0  0  0
    0.1197    2.9841   -0.7578 H   0  0  0  0  0  0  0  0  0  0  0  0
    1.9938   -0.1595   -0.1198 H   0  0  0  0  0  0  0  0  0  0  0  0
    3.2159    4.8914    0.1377 H   0  0  0  0  0  0  0  0  0  0  0  0
    6.8561    2.0068   -0.2114 H   0  0  0  0  0  0  0  0  0  0  0  0
    5.7596   -0.3207   -0.7141 H   0  0  0  0  0  0  0  0  0  0  0  0
    8.1594    0.2864   -1.0448 H   0  0  0  0  0  0  0  0  0  0  0  0
    8.4553    0.0350    0.6645 H   0  0  0  0  0  0  0  0  0  0  0  0
    9.1102   -2.0213   -0.1863 H   0  0  0  0  0  0  0  0  0  0  0  0
    7.9743   -1.9846   -1.5085 H   0  0  0  0  0  0  0  0  0  0  0  0
    6.2150   -2.8761   -0.3101 H   0  0  0  0  0  0  0  0  0  0  0  0
    8.4580   -3.8231    1.1509 H   0  0  0  0  0  0  0  0  0  0  0  0
    7.5283   -1.9064    2.2726 H   0  0  0  0  0  0  0  0  0  0  0  0
    6.0156   -2.7710    2.1928 H   0  0  0  0  0  0  0  0  0  0  0  0
    4.8378   -0.9537    1.3492 H   0  0  0  0  0  0  0  0  0  0  0  0
    6.0421   -0.1300    2.3139 H   0  0  0  0  0  0  0  0  0  0  0  0
   -0.0724   -1.2657   -0.1023 H   0  0  0  0  0  0  0  0  0  0  0  0
   -2.4874   -1.2225   -0.5114 H   0  0  0  0  0  0  0  0  0  0  0  0
   -4.3093   -0.1170    0.6997 H   0  0  0  0  0  0  0  0  0  0  0  0
   -6.6227    0.9771   -0.7403 H   0  0  0  0  0  0  0  0  0  0  0  0
   -6.3401    0.7484    1.8391 H   0  0  0  0  0  0  0  0  0  0  0  0
   -7.8928    0.4365    1.1109 H   0  0  0  0  0  0  0  0  0  0  0  0
   -7.2707   -1.1993    2.8568 H   0  0  0  0  0  0  0  0  0  0  0  0
   -5.8745   -1.7179    1.9286 H   0  0  0  0  0  0  0  0  0  0  0  0
   -8.4107   -2.8439    1.9025 H   0  0  0  0  0  0  0  0  0  0  0  0
   -7.1630   -3.2091    0.7447 H   0  0  0  0  0  0  0  0  0  0  0  0
   -9.4274   -2.4604   -0.0671 H   0  0  0  0  0  0  0  0  0  0  0  0
   -8.0106   -2.4850   -1.7798 H   0  0  0  0  0  0  0  0  0  0  0  0
   -8.5390   -0.8120   -1.7085 H   0  0  0  0  0  0  0  0  0  0  0  0
   -6.1542   -0.9302   -2.1217 H   0  0  0  0  0  0  0  0  0  0  0  0
   -5.8776   -1.9792   -0.7624 H   0  0  0  0  0  0  0  0  0  0  0  0
  1  2  1  0
  2  3  2  0
  3  4  1  0
  4  5  1  0
  5  6  1  0
  6  7  2  0
  7  8  1  0
  8  9  2  0
  9 10  1  0
  9 11  1  0
 11 12  1  0
 12 13  1  0
 13 14  1  0
 14 15  1  0
 15 16  1  0
 16 17  1  0
 16 18  1  0
 18 19  1  0
 11 20  2  0
  4 21  2  0
 21 22  1  0
 22 23  2  0
 23 24  1  0
 24 25  2  0
 24 26  1  0
 26 27  1  0
 27 28  1  0
 28 29  1  0
 29 30  1  0
 30 31  1  0
 31 32  1  0
 32 33  1  0
 23  2  1  0
 33 27  1  0
 20  6  1  0
 19 13  1  0
  1 34  1  0
  1 35  1  0
  1 36  1  0
  3 37  1  0
  5 38  1  0
  8 39  1  0
 12 40  1  0
 13 41  1  6
 14 42  1  0
 14 43  1  0
 15 44  1  0
 15 45  1  0
 16 46  1  6
 17 47  1  0
 18 48  1  0
 18 49  1  0
 19 50  1  0
 19 51  1  0
 21 52  1  0
 22 53  1  0
 26 54  1  0
 27 55  1  6
 28 56  1  0
 28 57  1  0
 29 58  1  0
 29 59  1  0
 30 60  1  0
 30 61  1  0
 31 62  1  0
 32 63  1  0
 32 64  1  0
 33 65  1  0
 33 66  1  0
M  END
$$$$
