MODEL        7USER    Run = 7USERUSER    Estimated Free Energy of Binding    = -11.74 kcal/mol  [=(1)+(2)+(3)-(4)]USERUSER    (1) Final Intermolecular Energy     = -13.53 kcal/molUSER        vdW + Hbond + desolv Energy     = -13.40 kcal/molUSER        Electrostatic Energy            =  -0.13 kcal/molUSER        Moving Ligand-Fixed Receptor    = -13.53 kcal/molUSER        Moving Ligand-Moving Receptor   =  +0.00 kcal/molUSER    (2) Final Total Internal Energy     =  -1.52 kcal/molUSER    (3) Torsional Free Energy           =  +1.79 kcal/molUSER    (4) Unbound System's Energy         =  -1.52 kcal/molUSERUSERREMARK SMILES Oc1nc2ccccc2n1C1CCN(Cc2ccc(-c3nn(C4CCCCC4)c4ccccc34)cc2)CC1REMARK SMILES IDX 11 1 12 2 13 3 14 4 37 5 38 6 10 7 2 8 3 9 4 10 9 11 5 12REMARK SMILES IDX 8 13 6 14 7 15 1 16 15 18 16 19 17 20 36 21 18 22 35 23REMARK SMILES IDX 19 24 20 25 21 26 34 27 22 28 33 29 29 30 32 31 30 32 31 33REMARK SMILES IDX 23 34 24 35 28 36 25 37 27 38 26 39REMARK H PARENT 1 17USER                              x       y       z     vdW  Elec       q    TypeUSER                           _______ _______ _______ _____ _____    ______ ____ROOTATOM      1  C   UNL     1      39.691  45.953  17.107 -0.42 -0.01    +0.095 C  ATOM      2  C   UNL     1      38.650  44.898  17.517 -0.36 -0.01    +0.041 C  ATOM      3  C   UNL     1      37.309  45.475  17.974 -0.35 -0.02    +0.087 C  ATOM      4  N   UNL     1      36.856  46.632  17.213 -0.11 +0.17    -0.299 NA ATOM      5  C   UNL     1      37.629  46.965  16.029 -0.40 -0.05    +0.087 C  ATOM      6  C   UNL     1      39.081  47.193  16.438 -0.49 -0.01    +0.041 C  ENDROOTBRANCH   1   7ATOM      7  N   UNL     1      40.635  46.271  18.174 -0.28 +0.02    -0.291 N  ATOM      8  C   UNL     1      41.557  47.279  18.188 -0.28 -0.02    +0.295 A  ATOM      9  N   UNL     1      42.260  47.327  19.286 -0.39 -0.01    -0.195 NA ATOM     10  C   UNL     1      41.784  46.286  20.041 -0.35 +0.01    +0.092 A  ATOM     11  C   UNL     1      40.763  45.603  19.378 -0.39 +0.00    +0.072 A  ATOM     12  C   UNL     1      42.185  45.861  21.317 -0.29 +0.01    +0.031 A  ATOM     13  C   UNL     1      40.112  44.498  19.944 -0.34 +0.00    +0.029 A  ATOM     14  C   UNL     1      41.549  44.756  21.895 -0.27 +0.00    +0.002 A  ATOM     15  C   UNL     1      40.531  44.088  21.216 -0.29 +0.00    +0.002 A  BRANCH   8  16ATOM     16  O   UNL     1      41.770  48.124  17.200 -0.53 +0.01    -0.480 OA ATOM     17  H   UNL     1      42.143  47.537  16.520 -0.30 -0.08    +0.296 HD ENDBRANCH   8  16ENDBRANCH   1   7BRANCH   4  18ATOM     18  C   UNL     1      35.408  46.796  17.104 -0.14 -0.13    +0.120 C  BRANCH  18  19ATOM     19  C   UNL     1      34.570  45.563  17.368 -0.35 +0.02    -0.034 A  ATOM     20  C   UNL     1      34.134  44.753  16.311 -0.31 -0.00    +0.006 A  ATOM     21  C   UNL     1      34.234  45.190  18.677 -0.44 -0.00    +0.006 A  ATOM     22  C   UNL     1      33.395  43.591  16.556 -0.32 -0.00    +0.011 A  ATOM     23  C   UNL     1      33.494  44.029  18.924 -0.39 -0.00    +0.011 A  ATOM     24  C   UNL     1      33.081  43.210  17.867 -0.32 -0.00    +0.003 A  BRANCH  24  25ATOM     25  C   UNL     1      32.341  41.976  18.139 -0.29 -0.02    +0.100 A  ATOM     26  N   UNL     1      32.736  41.140  19.112 -0.45 -0.01    -0.171 NA ATOM     27  C   UNL     1      31.180  41.473  17.469 -0.30 -0.01    +0.028 A  ATOM     28  N   UNL     1      31.847  40.127  19.072 -0.24 -0.02    -0.261 N  ATOM     29  C   UNL     1      30.372  41.888  16.388 -0.33 -0.00    +0.013 A  ATOM     30  C   UNL     1      30.875  40.276  18.112 -0.31 -0.00    +0.069 A  ATOM     31  C   UNL     1      29.276  41.105  16.007 -0.38 -0.00    +0.001 A  ATOM     32  C   UNL     1      29.775  39.484  17.745 -0.34 +0.00    +0.028 A  ATOM     33  C   UNL     1      28.982  39.923  16.680 -0.30 +0.00    +0.002 A  BRANCH  28  34ATOM     34  C   UNL     1      31.982  39.021  20.018 -0.12 +0.03    +0.108 C  ATOM     35  C   UNL     1      31.994  37.674  19.273 -0.59 +0.01    +0.027 C  ATOM     36  C   UNL     1      30.942  39.075  21.159 -0.32 +0.00    +0.027 C  ATOM     37  C   UNL     1      31.772  36.512  20.235 -0.53 +0.00    +0.002 C  ATOM     38  C   UNL     1      29.848  38.024  20.990 -0.37 +0.00    +0.002 C  ATOM     39  C   UNL     1      30.428  36.608  20.959 -0.42 +0.00    +0.000 C  ENDBRANCH  28  34ENDBRANCH  24  25ENDBRANCH  18  19ENDBRANCH   4  18TORSDOF 6TERENDMDL