MODEL        8USER    Run = 8USERUSER    Estimated Free Energy of Binding    =  -9.73 kcal/mol  [=(1)+(2)+(3)-(4)]USERUSER    (1) Final Intermolecular Energy     = -10.93 kcal/molUSER        vdW + Hbond + desolv Energy     = -10.73 kcal/molUSER        Electrostatic Energy            =  -0.20 kcal/molUSER        Moving Ligand-Fixed Receptor    = -10.93 kcal/molUSER        Moving Ligand-Moving Receptor   =  +0.00 kcal/molUSER    (2) Final Total Internal Energy     =  -0.63 kcal/molUSER    (3) Torsional Free Energy           =  +1.19 kcal/molUSER    (4) Unbound System's Energy         =  -0.63 kcal/molUSERUSERREMARK SMILES O=C1Nc2ccc(C(F)(F)F)cc2/C1=C/N1C[C@@H](O)c2ccccc2O1REMARK SMILES IDX 15 1 14 2 2 3 3 4 4 5 13 6 5 7 12 8 6 9 7 10 1 11 8 13 9 14REMARK SMILES IDX 10 15 11 16 16 17 17 18 26 19 18 20 25 21 20 22 24 23 21 24REMARK SMILES IDX 23 25 22 26 19 27REMARK H PARENT 3 12 19 28USER                              x       y       z     vdW  Elec       q    TypeUSER                           _______ _______ _______ _____ _____    ______ ____ROOTATOM      1  C   UNL     1      38.475  47.372  14.410 -0.44 -0.05    +0.138 C  ENDROOTBRANCH   1   2ATOM      2  C   UNL     1      37.190  47.032  14.231 -0.48 -0.03    +0.068 C  ATOM      3  C   UNL     1      36.339  47.240  13.004 -0.48 -0.13    +0.257 C  ATOM      4  N   UNL     1      35.108  46.684  13.325 -0.28 +0.24    -0.321 N  ATOM      5  C   UNL     1      35.114  46.136  14.603 -0.35 -0.04    +0.049 A  ATOM      6  C   UNL     1      36.361  46.313  15.208 -0.38 -0.01    +0.013 A  ATOM      7  C   UNL     1      34.068  45.491  15.230 -0.29 -0.02    +0.027 A  ATOM      8  C   UNL     1      36.591  45.842  16.490 -0.34 -0.01    +0.024 A  ATOM      9  C   UNL     1      34.293  45.011  16.523 -0.31 -0.01    +0.015 A  ATOM     10  C   UNL     1      35.544  45.186  17.166 -0.29 -0.03    +0.056 A  ATOM     11  O   UNL     1      36.635  47.760  11.946 -1.05 +0.10    -0.269 OA ATOM     12  H   UNL     1      34.335  46.667  12.677 -0.34 -0.16    +0.170 HD BRANCH  10  13ATOM     13  C   UNL     1      35.764  44.634  18.556 -0.12 -0.11    +0.416 C  ATOM     14  F   UNL     1      35.594  43.285  18.625 -0.08 +0.03    -0.166 F  ATOM     15  F   UNL     1      37.021  44.880  19.015 -0.11 +0.03    -0.166 F  ATOM     16  F   UNL     1      34.914  45.164  19.480 -0.14 +0.05    -0.166 F  ENDBRANCH  10  13ENDBRANCH   1   2BRANCH   1  17ATOM     17  N   UNL     1      39.193  47.746  15.527 -0.32 +0.08    -0.213 N  ATOM     18  C   UNL     1      39.797  49.056  15.753 -0.44 -0.08    +0.198 C  ATOM     19  O   UNL     1      38.878  47.113  16.743 -0.22 +0.14    -0.380 OA ATOM     20  C   UNL     1      41.207  48.815  16.301 -0.44 -0.01    +0.171 C  ATOM     21  C   UNL     1      39.985  47.006  17.568 -0.35 -0.03    +0.161 A  ATOM     22  C   UNL     1      41.127  47.820  17.435 -0.49 -0.00    +0.028 A  ATOM     23  C   UNL     1      39.899  46.070  18.600 -0.41 -0.00    +0.050 A  ATOM     24  C   UNL     1      42.189  47.649  18.334 -0.51 -0.00    +0.010 A  ATOM     25  C   UNL     1      40.959  45.916  19.493 -0.43 +0.00    +0.004 A  ATOM     26  C   UNL     1      42.103  46.704  19.359 -0.49 +0.00    +0.001 A  BRANCH  20  27ATOM     27  O   UNL     1      41.793  50.042  16.743 -0.82 -0.05    -0.386 OA ATOM     28  H   UNL     1      41.183  50.746  16.461 -0.32 -0.07    +0.211 HD ENDBRANCH  20  27ENDBRANCH   1  17TORSDOF 4TERENDMDL