MODEL        5USER    Run = 5USERUSER    Estimated Free Energy of Binding    =  -9.76 kcal/mol  [=(1)+(2)+(3)-(4)]USERUSER    (1) Final Intermolecular Energy     = -12.14 kcal/molUSER        vdW + Hbond + desolv Energy     = -12.05 kcal/molUSER        Electrostatic Energy            =  -0.10 kcal/molUSER        Moving Ligand-Fixed Receptor    = -12.14 kcal/molUSER        Moving Ligand-Moving Receptor   =  +0.00 kcal/molUSER    (2) Final Total Internal Energy     =  -1.63 kcal/molUSER    (3) Torsional Free Energy           =  +2.39 kcal/molUSER    (4) Unbound System's Energy         =  -1.63 kcal/molUSERUSERREMARK SMILES COc1ccc(=O)[nH]c1C(=O)c1ccc(C(=O)N[C@@H]2CCN(C(C)C)C[C@H]2NC(=O)c2cnn(C)c2)cc1REMARK SMILES IDX 12 1 13 2 14 3 15 4 37 5 38 6 10 7 11 8 9 9 3 10 4 11 5 12REMARK SMILES IDX 8 13 6 14 7 16 2 17 1 18 16 19 18 20 17 21 19 23 20 24 27 25REMARK SMILES IDX 21 26 26 27 22 28 28 29 29 30 30 32 31 33 32 34 36 35 33 36REMARK SMILES IDX 34 37 35 38 23 39 24 40 25 41REMARK H PARENT 8 15 18 22 28 31USER                              x       y       z     vdW  Elec       q    TypeUSER                           _______ _______ _______ _____ _____    ______ ____ROOTATOM      1  C   UNL     1      26.878  43.115  17.468 -0.24 -0.00    +0.024 A  ATOM      2  C   UNL     1      27.121  44.333  16.826 -0.30 -0.00    +0.013 A  ATOM      3  C   UNL     1      28.425  44.682  16.460 -0.25 -0.00    +0.014 A  ATOM      4  C   UNL     1      29.494  43.814  16.723 -0.23 -0.01    +0.039 A  ATOM      5  C   UNL     1      29.239  42.577  17.328 -0.21 -0.00    +0.014 A  ATOM      6  C   UNL     1      27.936  42.230  17.706 -0.17 -0.00    +0.013 A  ENDROOTBRANCH   1   7ATOM      7  C   UNL     1      25.484  42.787  17.862 -0.26 -0.02    +0.213 C  ATOM      8  O   UNL     1      24.545  43.102  17.137 -0.22 -0.01    -0.287 OA BRANCH   7   9ATOM      9  C   UNL     1      25.279  42.143  19.194 -0.28 -0.02    +0.132 A  ATOM     10  C   UNL     1      25.419  40.813  19.347 -0.20 -0.02    +0.146 A  ATOM     11  C   UNL     1      25.259  40.227  20.663 -0.32 -0.01    +0.054 A  ATOM     12  C   UNL     1      24.922  40.985  21.716 -0.45 -0.01    +0.075 A  ATOM     13  N   UNL     1      24.930  42.931  20.272 -0.21 +0.12    -0.316 N  ATOM     14  C   UNL     1      24.729  42.447  21.538 -0.39 -0.07    +0.248 A  ATOM     15  H   UNL     1      24.786  43.927  20.151 -0.39 -0.12    +0.170 HD ATOM     16  O   UNL     1      24.422  43.167  22.480 -0.56 +0.10    -0.270 OA BRANCH  10  17ATOM     17  O   UNL     1      25.848  39.958  18.360 -0.04 +0.03    -0.494 OA ATOM     18  C   UNL     1      26.327  38.731  18.915 -0.15 -0.02    +0.278 C  ENDBRANCH  10  17ENDBRANCH   7   9ENDBRANCH   1   7BRANCH   4  19ATOM     19  C   UNL     1      30.865  44.244  16.314 -0.20 -0.09    +0.251 C  ATOM     20  N   UNL     1      31.834  43.264  16.247 -0.11 +0.15    -0.347 N  ATOM     21  O   UNL     1      31.093  45.424  16.079 -0.78 +0.09    -0.269 OA ATOM     22  H   UNL     1      31.643  42.372  16.680 +0.04 -0.07    +0.164 HD BRANCH  20  23ATOM     23  C   UNL     1      33.242  43.605  16.002 -0.30 -0.05    +0.107 C  ATOM     24  C   UNL     1      34.159  42.480  16.494 -0.41 -0.02    +0.042 C  ATOM     25  C   UNL     1      33.616  44.973  16.630 -0.30 -0.08    +0.118 C  ATOM     26  C   UNL     1      34.279  42.459  18.016 -0.40 -0.02    +0.087 C  ATOM     27  C   UNL     1      33.848  44.825  18.160 -0.36 -0.04    +0.111 C  ATOM     28  N   UNL     1      34.753  43.729  18.581 -0.12 +0.07    -0.299 NA BRANCH  25  29ATOM     29  N   UNL     1      34.751  45.586  15.941 -0.11 +0.30    -0.346 N  ATOM     30  C   UNL     1      34.617  46.179  14.706 -0.12 -0.26    +0.254 C  ATOM     31  H   UNL     1      35.645  45.638  16.413 +0.12 -0.11    +0.164 HD ATOM     32  O   UNL     1      33.548  46.240  14.112 -0.33 +0.28    -0.269 OA BRANCH  30  33ATOM     33  C   UNL     1      35.836  46.746  14.154 -0.38 -0.06    +0.077 A  ATOM     34  C   UNL     1      36.159  46.851  12.780 -0.51 -0.08    +0.149 A  ATOM     35  C   UNL     1      36.938  47.287  14.792 -0.35 -0.08    +0.122 A  ATOM     36  N   UNL     1      37.357  47.405  12.567 -0.99 +0.04    -0.181 NA ATOM     37  N   UNL     1      37.814  47.649  13.805 -0.31 +0.10    -0.275 N  ATOM     38  C   UNL     1      39.122  48.233  13.981 -0.29 -0.05    +0.173 C  ENDBRANCH  30  33ENDBRANCH  25  29BRANCH  28  39ATOM     39  C   UNL     1      36.197  44.003  18.400 -0.35 -0.01    +0.050 C  ATOM     40  C   UNL     1      37.049  43.450  19.558 -0.32 -0.00    +0.024 C  ATOM     41  C   UNL     1      36.485  45.513  18.309 -0.27 -0.01    +0.024 C  ENDBRANCH  28  39ENDBRANCH  20  23ENDBRANCH   4  19TORSDOF 8TERENDMDL