MODEL        4USER    Run = 4USERUSER    Estimated Free Energy of Binding    =  -9.95 kcal/mol  [=(1)+(2)+(3)-(4)]USERUSER    (1) Final Intermolecular Energy     = -12.33 kcal/molUSER        vdW + Hbond + desolv Energy     = -12.01 kcal/molUSER        Electrostatic Energy            =  -0.33 kcal/molUSER        Moving Ligand-Fixed Receptor    = -12.33 kcal/molUSER        Moving Ligand-Moving Receptor   =  +0.00 kcal/molUSER    (2) Final Total Internal Energy     =  -2.20 kcal/molUSER    (3) Torsional Free Energy           =  +2.39 kcal/molUSER    (4) Unbound System's Energy         =  -2.20 kcal/molUSERUSERREMARK SMILES COc1cc(F)c(=O)[nH]c1C(=O)c1ccc(C(=O)N[C@@H]2CCN(C(C)(F)F)C[C@H]2NC(=O)c2cnn(C)c2)cc1REMARK SMILES IDX 13 1 14 2 15 3 16 4 39 5 40 6 11 7 12 8 10 9 3 10 4 11 5 12REMARK SMILES IDX 9 13 7 14 6 15 8 17 2 18 1 19 17 20 19 21 18 22 20 24 21 25REMARK SMILES IDX 29 26 22 27 28 28 23 29 30 30 31 31 32 33 33 34 34 35 38 36REMARK SMILES IDX 35 37 36 38 37 39 24 40 25 41 26 42 27 43REMARK H PARENT 9 16 19 23 30 32USER                              x       y       z     vdW  Elec       q    TypeUSER                           _______ _______ _______ _____ _____    ______ ____ROOTATOM      1  C   UNL     1      42.347  46.564  22.140 -0.27 +0.00    +0.024 A  ATOM      2  C   UNL     1      42.287  45.245  22.610 -0.19 +0.00    +0.013 A  ATOM      3  C   UNL     1      41.721  44.967  23.857 -0.11 +0.00    +0.014 A  ATOM      4  C   UNL     1      41.232  46.006  24.656 -0.10 +0.00    +0.039 A  ATOM      5  C   UNL     1      41.267  47.322  24.177 -0.22 +0.00    +0.014 A  ATOM      6  C   UNL     1      41.827  47.602  22.925 -0.22 +0.00    +0.013 A  ENDROOTBRANCH   1   7ATOM      7  C   UNL     1      43.030  46.818  20.843 -0.30 +0.07    +0.213 C  ATOM      8  O   UNL     1      44.241  47.018  20.797 -0.54 -0.24    -0.287 OA BRANCH   7   9ATOM      9  C   UNL     1      42.221  46.866  19.594 -0.38 +0.02    +0.132 A  ATOM     10  C   UNL     1      41.423  45.844  19.228 -0.35 +0.01    +0.149 A  ATOM     11  C   UNL     1      40.639  45.948  18.017 -0.42 -0.01    +0.094 A  ATOM     12  C   UNL     1      40.756  47.026  17.233 -0.36 -0.02    +0.191 A  ATOM     13  N   UNL     1      42.358  47.976  18.780 -0.30 -0.00    -0.314 N  ATOM     14  C   UNL     1      41.669  48.149  17.600 -0.18 -0.01    +0.284 A  ATOM     15  F   UNL     1      40.055  47.152  16.090 -0.12 +0.04    -0.201 F  ATOM     16  H   UNL     1      43.001  48.713  19.055 -0.43 -0.02    +0.170 HD ATOM     17  O   UNL     1      41.793  49.155  16.910 -0.98 -0.05    -0.266 OA BRANCH  10  18ATOM     18  O   UNL     1      41.221  44.699  19.962 -0.11 -0.05    -0.494 OA ATOM     19  C   UNL     1      39.844  44.560  20.329 -0.22 +0.00    +0.278 C  ENDBRANCH  10  18ENDBRANCH   7   9ENDBRANCH   1   7BRANCH   4  20ATOM     20  C   UNL     1      40.729  45.679  26.022 -0.06 +0.01    +0.251 C  ATOM     21  N   UNL     1      40.229  44.404  26.184 -0.03 -0.00    -0.347 N  ATOM     22  O   UNL     1      40.704  46.536  26.897 -0.35 -0.03    -0.269 OA ATOM     23  H   UNL     1      40.005  43.907  25.319 +0.06 +0.00    +0.164 HD BRANCH  21  24ATOM     24  C   UNL     1      39.385  44.056  27.329 -0.16 -0.00    +0.107 C  ATOM     25  C   UNL     1      39.560  42.585  27.752 -0.29 -0.00    +0.043 C  ATOM     26  C   UNL     1      37.896  44.391  27.031 -0.27 -0.01    +0.119 C  ATOM     27  C   UNL     1      38.381  41.715  27.310 -0.40 -0.01    +0.092 C  ATOM     28  C   UNL     1      36.994  43.612  28.007 -0.32 -0.03    +0.117 C  ATOM     29  N   UNL     1      37.111  42.150  27.909 -0.21 +0.07    -0.243 NA BRANCH  26  30ATOM     30  N   UNL     1      37.626  45.830  27.089 -0.14 +0.04    -0.346 N  ATOM     31  C   UNL     1      37.334  46.571  25.961 -0.25 -0.00    +0.254 C  ATOM     32  H   UNL     1      37.765  46.314  27.962 +0.02 -0.03    +0.164 HD ATOM     33  O   UNL     1      37.310  46.074  24.840 -0.77 -0.06    -0.269 OA BRANCH  31  34ATOM     34  C   UNL     1      37.099  47.984  26.182 -0.36 -0.00    +0.077 A  ATOM     35  C   UNL     1      37.643  48.773  27.223 -0.21 -0.00    +0.149 A  ATOM     36  C   UNL     1      36.327  48.880  25.464 -0.42 -0.01    +0.122 A  ATOM     37  N   UNL     1      37.247  50.048  27.172 -0.17 -0.02    -0.181 NA ATOM     38  N   UNL     1      36.444  50.086  26.096 -0.25 -0.01    -0.275 N  ATOM     39  C   UNL     1      35.820  51.329  25.708 -0.35 +0.01    +0.173 C  ENDBRANCH  31  34ENDBRANCH  26  30BRANCH  29  40ATOM     40  C   UNL     1      35.963  41.588  27.201 -0.39 -0.10    +0.302 C  ATOM     41  C   UNL     1      34.661  42.349  27.361 -0.55 -0.03    +0.107 C  ATOM     42  F   UNL     1      36.249  41.545  25.871 -0.13 +0.05    -0.189 F  ATOM     43  F   UNL     1      35.781  40.302  27.592 -0.21 +0.09    -0.189 F  ENDBRANCH  29  40ENDBRANCH  21  24ENDBRANCH   4  20TORSDOF 8TERENDMDL