MODEL        4USER    Run = 4USERUSER    Estimated Free Energy of Binding    = -11.02 kcal/mol  [=(1)+(2)+(3)-(4)]USERUSER    (1) Final Intermolecular Energy     = -13.41 kcal/molUSER        vdW + Hbond + desolv Energy     = -13.38 kcal/molUSER        Electrostatic Energy            =  -0.02 kcal/molUSER        Moving Ligand-Fixed Receptor    = -13.41 kcal/molUSER        Moving Ligand-Moving Receptor   =  +0.00 kcal/molUSER    (2) Final Total Internal Energy     =  -2.67 kcal/molUSER    (3) Torsional Free Energy           =  +2.39 kcal/molUSER    (4) Unbound System's Energy         =  -2.67 kcal/molUSERUSERREMARK SMILES COc1ccc(=O)[nH]c1C(=O)c1ccc(C(=O)N[C@@H]2CCN(C3CC3)C[C@H]2NC(=O)c2cnn(C)c2)cc1REMARK SMILES IDX 12 1 13 2 14 3 15 4 37 5 38 6 10 7 11 8 9 9 3 10 4 11 5 12REMARK SMILES IDX 8 13 6 14 7 16 2 17 1 18 16 19 18 20 17 21 19 23 20 24 27 25REMARK SMILES IDX 21 26 26 27 22 28 28 29 29 30 30 32 31 33 32 34 36 35 33 36REMARK SMILES IDX 34 37 35 38 23 39 24 40 25 41REMARK H PARENT 8 15 18 22 28 31USER                              x       y       z     vdW  Elec       q    TypeUSER                           _______ _______ _______ _____ _____    ______ ____ROOTATOM      1  C   UNL     1      38.122  43.292  23.106 -0.31 +0.00    +0.024 A  ATOM      2  C   UNL     1      39.100  43.954  22.352 -0.27 +0.00    +0.013 A  ATOM      3  C   UNL     1      38.869  44.251  21.006 -0.31 +0.00    +0.014 A  ATOM      4  C   UNL     1      37.646  43.914  20.416 -0.34 -0.00    +0.039 A  ATOM      5  C   UNL     1      36.662  43.260  21.167 -0.42 +0.00    +0.014 A  ATOM      6  C   UNL     1      36.898  42.953  22.512 -0.41 +0.00    +0.013 A  ENDROOTBRANCH   1   7ATOM      7  C   UNL     1      38.422  42.978  24.529 -0.20 +0.01    +0.213 C  ATOM      8  O   UNL     1      39.566  42.702  24.875 -0.14 -0.01    -0.287 OA BRANCH   7   9ATOM      9  C   UNL     1      37.279  42.940  25.486 -0.26 -0.00    +0.132 A  ATOM     10  C   UNL     1      36.613  44.066  25.804 -0.27 -0.01    +0.146 A  ATOM     11  C   UNL     1      35.475  43.992  26.697 -0.30 -0.01    +0.054 A  ATOM     12  C   UNL     1      35.120  42.828  27.262 -0.51 -0.02    +0.075 A  ATOM     13  N   UNL     1      36.924  41.737  26.064 -0.20 +0.06    -0.316 N  ATOM     14  C   UNL     1      35.892  41.596  26.958 -0.36 -0.08    +0.248 A  ATOM     15  H   UNL     1      37.454  40.898  25.862 -0.26 -0.04    +0.170 HD ATOM     16  O   UNL     1      35.601  40.523  27.469 -0.49 +0.13    -0.270 OA BRANCH  10  17ATOM     17  O   UNL     1      36.837  45.290  25.217 -0.47 -0.04    -0.494 OA ATOM     18  C   UNL     1      37.416  46.209  26.147 -0.23 -0.01    +0.278 C  ENDBRANCH  10  17ENDBRANCH   7   9ENDBRANCH   1   7BRANCH   4  19ATOM     19  C   UNL     1      37.450  44.209  18.977 -0.22 -0.03    +0.251 C  ATOM     20  N   UNL     1      38.093  45.325  18.484 -0.17 +0.06    -0.347 N  ATOM     21  O   UNL     1      36.723  43.493  18.296 -0.14 +0.05    -0.269 OA ATOM     22  H   UNL     1      38.676  45.874  19.101 +0.08 -0.02    +0.164 HD BRANCH  20  23ATOM     23  C   UNL     1      37.878  45.803  17.112 -0.36 -0.03    +0.107 C  ATOM     24  C   UNL     1      38.962  46.818  16.717 -0.46 -0.01    +0.042 C  ATOM     25  C   UNL     1      36.467  46.409  16.909 -0.30 -0.08    +0.118 C  ATOM     26  C   UNL     1      38.482  47.852  15.694 -0.48 -0.04    +0.087 C  ATOM     27  C   UNL     1      36.284  46.838  15.431 -0.35 -0.10    +0.111 C  ATOM     28  N   UNL     1      37.532  47.248  14.766 -0.20 +0.16    -0.298 NA BRANCH  25  29ATOM     29  N   UNL     1      35.408  45.497  17.334 -0.12 +0.20    -0.346 N  ATOM     30  C   UNL     1      34.439  45.863  18.235 -0.34 -0.15    +0.254 C  ATOM     31  H   UNL     1      35.446  44.547  16.972 +0.12 -0.07    +0.164 HD ATOM     32  O   UNL     1      34.369  47.001  18.693 -1.04 +0.18    -0.269 OA BRANCH  30  33ATOM     33  C   UNL     1      33.520  44.810  18.627 -0.36 -0.03    +0.077 A  ATOM     34  C   UNL     1      33.299  44.175  19.873 -0.24 -0.02    +0.149 A  ATOM     35  C   UNL     1      32.608  44.194  17.788 -0.23 -0.03    +0.122 A  ATOM     36  N   UNL     1      32.336  43.249  19.823 -0.70 -0.01    -0.181 NA ATOM     37  N   UNL     1      31.933  43.284  18.541 -0.17 +0.03    -0.275 N  ATOM     38  C   UNL     1      30.874  42.406  18.104 -0.14 -0.03    +0.173 C  ENDBRANCH  30  33ENDBRANCH  25  29BRANCH  28  39ATOM     39  C   UNL     1      37.413  47.984  13.496 -0.58 -0.02    +0.056 C  ATOM     40  C   UNL     1      36.104  48.073  12.760 -0.61 -0.01    +0.021 C  ATOM     41  C   UNL     1      37.257  47.320  12.157 -0.62 -0.00    +0.021 C  ENDBRANCH  28  39ENDBRANCH  20  23ENDBRANCH   4  19TORSDOF 8TERENDMDL