MODEL        10USER    Run = 10USERUSER    Estimated Free Energy of Binding    = -10.18 kcal/mol  [=(1)+(2)+(3)-(4)]USERUSER    (1) Final Intermolecular Energy     = -12.57 kcal/molUSER        vdW + Hbond + desolv Energy     = -12.54 kcal/molUSER        Electrostatic Energy            =  -0.03 kcal/molUSER        Moving Ligand-Fixed Receptor    = -12.57 kcal/molUSER        Moving Ligand-Moving Receptor   =  +0.00 kcal/molUSER    (2) Final Total Internal Energy     =  -2.50 kcal/molUSER    (3) Torsional Free Energy           =  +2.39 kcal/molUSER    (4) Unbound System's Energy         =  -2.50 kcal/molUSERUSERREMARK SMILES COc1ccc(=O)[nH]c1C(=O)c1ccc(C(=O)N[C@@H]2CCN(C(C)(F)F)C[C@H]2NC(=O)c2cnn(C)c2)cc1REMARK SMILES IDX 12 1 13 2 14 3 15 4 38 5 39 6 10 7 11 8 9 9 3 10 4 11 5 12REMARK SMILES IDX 8 13 6 14 7 16 2 17 1 18 16 19 18 20 17 21 19 23 20 24 28 25REMARK SMILES IDX 21 26 27 27 22 28 29 29 30 30 31 32 32 33 33 34 37 35 34 36REMARK SMILES IDX 35 37 36 38 23 39 24 40 25 41 26 42REMARK H PARENT 8 15 18 22 29 31USER                              x       y       z     vdW  Elec       q    TypeUSER                           _______ _______ _______ _____ _____    ______ ____ROOTATOM      1  C   UNL     1      39.673  45.231  21.662 -0.30 +0.00    +0.024 A  ATOM      2  C   UNL     1      38.506  44.546  21.299 -0.35 +0.00    +0.013 A  ATOM      3  C   UNL     1      38.096  44.512  19.963 -0.35 -0.00    +0.014 A  ATOM      4  C   UNL     1      38.862  45.142  18.976 -0.38 -0.00    +0.039 A  ATOM      5  C   UNL     1      40.031  45.825  19.335 -0.41 -0.00    +0.014 A  ATOM      6  C   UNL     1      40.436  45.866  20.673 -0.30 +0.00    +0.013 A  ENDROOTBRANCH   1   7ATOM      7  C   UNL     1      40.052  45.265  23.102 -0.16 +0.01    +0.213 C  ATOM      8  O   UNL     1      40.116  44.236  23.766 -0.08 -0.01    -0.287 OA BRANCH   7   9ATOM      9  C   UNL     1      40.265  46.598  23.726 -0.18 +0.01    +0.132 A  ATOM     10  C   UNL     1      39.289  47.183  24.442 -0.24 +0.01    +0.146 A  ATOM     11  C   UNL     1      39.552  48.450  25.094 -0.29 +0.01    +0.054 A  ATOM     12  C   UNL     1      40.737  49.064  24.949 -0.10 +0.01    +0.075 A  ATOM     13  N   UNL     1      41.482  47.224  23.560 -0.10 -0.04    -0.316 N  ATOM     14  C   UNL     1      41.798  48.435  24.119 -0.23 +0.04    +0.248 A  ATOM     15  H   UNL     1      42.196  46.793  22.985 +0.08 +0.02    +0.170 HD ATOM     16  O   UNL     1      42.889  48.969  23.966 -0.82 -0.08    -0.270 OA BRANCH  10  17ATOM     17  O   UNL     1      38.081  46.593  24.728 -0.49 -0.08    -0.494 OA ATOM     18  C   UNL     1      37.877  46.496  26.139 -0.21 -0.00    +0.278 C  ENDBRANCH  10  17ENDBRANCH   7   9ENDBRANCH   1   7BRANCH   4  19ATOM     19  C   UNL     1      38.367  45.115  17.575 -0.27 -0.05    +0.251 C  ATOM     20  N   UNL     1      38.303  46.325  16.912 -0.17 +0.12    -0.347 N  ATOM     21  O   UNL     1      38.018  44.052  17.072 -0.21 +0.06    -0.269 OA ATOM     22  H   UNL     1      38.495  47.176  17.423 +0.09 -0.07    +0.164 HD BRANCH  20  23ATOM     23  C   UNL     1      37.607  46.441  15.630 -0.37 -0.05    +0.107 C  ATOM     24  C   UNL     1      38.191  47.573  14.775 -0.52 -0.02    +0.043 C  ATOM     25  C   UNL     1      36.073  46.606  15.791 -0.34 -0.11    +0.119 C  ATOM     26  C   UNL     1      37.121  48.331  13.983 -0.55 -0.05    +0.092 C  ATOM     27  C   UNL     1      35.445  46.588  14.378 -0.37 -0.10    +0.117 C  ATOM     28  N   UNL     1      36.069  47.500  13.398 -0.37 +0.15    -0.243 NA BRANCH  25  29ATOM     29  N   UNL     1      35.492  45.577  16.657 -0.11 +0.23    -0.346 N  ATOM     30  C   UNL     1      34.798  45.932  17.796 -0.30 -0.18    +0.254 C  ATOM     31  H   UNL     1      35.987  44.692  16.680 +0.12 -0.07    +0.164 HD ATOM     32  O   UNL     1      34.447  47.088  18.022 -0.66 +0.31    -0.269 OA BRANCH  30  33ATOM     33  C   UNL     1      34.537  44.859  18.742 -0.35 -0.03    +0.077 A  ATOM     34  C   UNL     1      33.364  44.483  19.435 -0.30 -0.03    +0.149 A  ATOM     35  C   UNL     1      35.466  43.916  19.151 -0.29 -0.02    +0.122 A  ATOM     36  N   UNL     1      33.541  43.415  20.221 -0.81 -0.02    -0.181 NA ATOM     37  N   UNL     1      34.828  43.085  20.020 -0.25 +0.00    -0.275 N  ATOM     38  C   UNL     1      35.380  41.934  20.690 -0.25 +0.00    +0.173 C  ENDBRANCH  30  33ENDBRANCH  25  29BRANCH  28  39ATOM     39  C   UNL     1      36.474  46.773  12.200 -0.49 -0.13    +0.302 C  ATOM     40  C   UNL     1      36.837  45.314  12.403 -0.54 -0.04    +0.107 C  ATOM     41  F   UNL     1      35.492  46.861  11.268 -0.10 +0.13    -0.189 F  ATOM     42  F   UNL     1      37.563  47.392  11.666 -0.21 +0.02    -0.189 F  ENDBRANCH  28  39ENDBRANCH  20  23ENDBRANCH   4  19TORSDOF 8TERENDMDL