REMARK SMILES COc1ccc(=O)[nH]c1C(=O)c1ccc(C(=O)N[C@@H]2CCN(C(C)(F)F)C[C@H]2NC(=O)c2cnn(C)c2)cc1
REMARK SMILES IDX 12 1 13 2 14 3 15 4 38 5 39 6 10 7 11 8 9 9 3 10 4 11 5 12
REMARK SMILES IDX 8 13 6 14 7 16 2 17 1 18 16 19 18 20 17 21 19 23 20 24 28 25
REMARK SMILES IDX 21 26 27 27 22 28 29 29 30 30 31 32 32 33 33 34 37 35 34 36
REMARK SMILES IDX 35 37 36 38 23 39 24 40 25 41 26 42
REMARK H PARENT 8 15 18 22 29 31
ROOT
ATOM      1  C   UNL     1      -3.368   0.234  -0.810  1.00  0.00     0.024 A 
ATOM      2  C   UNL     1      -2.944  -0.577  -1.871  1.00  0.00     0.013 A 
ATOM      3  C   UNL     1      -1.678  -1.168  -1.844  1.00  0.00     0.014 A 
ATOM      4  C   UNL     1      -0.835  -0.974  -0.744  1.00  0.00     0.039 A 
ATOM      5  C   UNL     1      -1.256  -0.167   0.320  1.00  0.00     0.014 A 
ATOM      6  C   UNL     1      -2.520   0.432   0.288  1.00  0.00     0.013 A 
ENDROOT
BRANCH   1   7
ATOM      7  C   UNL     1      -4.713   0.867  -0.899  1.00  0.00     0.213 C 
ATOM      8  O   UNL     1      -5.567   0.439  -1.669  1.00  0.00    -0.287 OA
BRANCH   7   9
ATOM      9  C   UNL     1      -4.953   2.089  -0.086  1.00  0.00     0.132 A 
ATOM     10  C   UNL     1      -5.790   2.058   0.966  1.00  0.00     0.146 A 
ATOM     11  C   UNL     1      -5.949   3.247   1.779  1.00  0.00     0.054 A 
ATOM     12  C   UNL     1      -5.311   4.385   1.463  1.00  0.00     0.075 A 
ATOM     13  N   UNL     1      -4.301   3.254  -0.427  1.00  0.00    -0.316 N 
ATOM     14  C   UNL     1      -4.421   4.427   0.273  1.00  0.00     0.248 A 
ATOM     15  H   UNL     1      -3.705   3.277  -1.245  1.00  0.00     0.170 HD
ATOM     16  O   UNL     1      -3.825   5.449  -0.043  1.00  0.00    -0.270 OA
BRANCH  10  17
ATOM     17  O   UNL     1      -6.412   0.922   1.426  1.00  0.00    -0.494 OA
ATOM     18  C   UNL     1      -7.753   0.837   0.940  1.00  0.00     0.278 C 
ENDBRANCH  10  17
ENDBRANCH   7   9
ENDBRANCH   1   7
BRANCH   4  19
ATOM     19  C   UNL     1       0.518  -1.589  -0.775  1.00  0.00     0.251 C 
ATOM     20  N   UNL     1       1.045  -1.999   0.434  1.00  0.00    -0.347 N 
ATOM     21  O   UNL     1       1.118  -1.688  -1.840  1.00  0.00    -0.269 OA
ATOM     22  H   UNL     1       0.547  -1.780   1.287  1.00  0.00     0.164 HD
BRANCH  20  23
ATOM     23  C   UNL     1       2.452  -2.385   0.545  1.00  0.00     0.107 C 
ATOM     24  C   UNL     1       2.656  -3.459   1.622  1.00  0.00     0.043 C 
ATOM     25  C   UNL     1       3.391  -1.175   0.789  1.00  0.00     0.119 C 
ATOM     26  C   UNL     1       3.958  -3.273   2.407  1.00  0.00     0.092 C 
ATOM     27  C   UNL     1       4.848  -1.693   0.759  1.00  0.00     0.117 C 
ATOM     28  N   UNL     1       5.116  -2.870   1.611  1.00  0.00    -0.243 NA
BRANCH  25  29
ATOM     29  N   UNL     1       3.177  -0.101  -0.185  1.00  0.00    -0.346 N 
ATOM     30  C   UNL     1       2.339   0.955   0.112  1.00  0.00     0.254 C 
ATOM     31  H   UNL     1       3.242  -0.374  -1.160  1.00  0.00     0.164 HD
ATOM     32  O   UNL     1       1.919   1.165   1.248  1.00  0.00    -0.269 OA
BRANCH  30  33
ATOM     33  C   UNL     1       1.947   1.790  -1.012  1.00  0.00     0.077 A 
ATOM     34  C   UNL     1       2.188   1.669  -2.400  1.00  0.00     0.149 A 
ATOM     35  C   UNL     1       1.182   2.941  -0.919  1.00  0.00     0.122 A 
ATOM     36  N   UNL     1       1.641   2.660  -3.113  1.00  0.00    -0.181 NA
ATOM     37  N   UNL     1       1.027   3.414  -2.186  1.00  0.00    -0.275 N 
ATOM     38  C   UNL     1       0.284   4.580  -2.596  1.00  0.00     0.173 C 
ENDBRANCH  30  33
ENDBRANCH  25  29
BRANCH  28  39
ATOM     39  C   UNL     1       5.714  -3.948   0.830  1.00  0.00     0.302 C 
ATOM     40  C   UNL     1       6.220  -5.138   1.625  1.00  0.00     0.107 C 
ATOM     41  F   UNL     1       4.823  -4.379  -0.097  1.00  0.00    -0.189 F 
ATOM     42  F   UNL     1       6.772  -3.444   0.137  1.00  0.00    -0.189 F 
ENDBRANCH  28  39
ENDBRANCH  20  23
ENDBRANCH   4  19
TORSDOF 8
