REMARK SMILES COc1ccc(=O)[nH]c1C(=O)c1ccc(C(=O)N[C@@H]2CCN(C3CC3)C[C@H]2NC(=O)c2cnn(C)c2)cc1
REMARK SMILES IDX 12 1 13 2 14 3 15 4 37 5 38 6 10 7 11 8 9 9 3 10 4 11 5 12
REMARK SMILES IDX 8 13 6 14 7 16 2 17 1 18 16 19 18 20 17 21 19 23 20 24 27 25
REMARK SMILES IDX 21 26 26 27 22 28 28 29 29 30 30 32 31 33 32 34 36 35 33 36
REMARK SMILES IDX 34 37 35 38 23 39 24 40 25 41
REMARK H PARENT 8 15 18 22 28 31
ROOT
ATOM      1  C   UNL     1       4.042   0.027  -0.503  1.00  0.00     0.024 A 
ATOM      2  C   UNL     1       3.670   0.411  -1.798  1.00  0.00     0.013 A 
ATOM      3  C   UNL     1       2.365   0.838  -2.057  1.00  0.00     0.014 A 
ATOM      4  C   UNL     1       1.434   0.912  -1.015  1.00  0.00     0.039 A 
ATOM      5  C   UNL     1       1.803   0.538   0.282  1.00  0.00     0.014 A 
ATOM      6  C   UNL     1       3.107   0.099   0.539  1.00  0.00     0.013 A 
ENDROOT
BRANCH   1   7
ATOM      7  C   UNL     1       5.436  -0.442  -0.280  1.00  0.00     0.213 C 
ATOM      8  O   UNL     1       6.342  -0.065  -1.016  1.00  0.00    -0.287 OA
BRANCH   7   9
ATOM      9  C   UNL     1       5.669  -1.431   0.811  1.00  0.00     0.132 A 
ATOM     10  C   UNL     1       6.576  -1.187   1.776  1.00  0.00     0.146 A 
ATOM     11  C   UNL     1       6.745  -2.142   2.852  1.00  0.00     0.054 A 
ATOM     12  C   UNL     1       6.058  -3.294   2.862  1.00  0.00     0.075 A 
ATOM     13  N   UNL     1       4.958  -2.615   0.811  1.00  0.00    -0.316 N 
ATOM     14  C   UNL     1       5.100  -3.590   1.766  1.00  0.00     0.248 A 
ATOM     15  H   UNL     1       4.310  -2.820   0.060  1.00  0.00     0.170 HD
ATOM     16  O   UNL     1       4.470  -4.639   1.740  1.00  0.00    -0.270 OA
BRANCH  10  17
ATOM     17  O   UNL     1       7.267  -0.005   1.908  1.00  0.00    -0.494 OA
ATOM     18  C   UNL     1       8.597  -0.126   1.398  1.00  0.00     0.278 C 
ENDBRANCH  10  17
ENDBRANCH   7   9
ENDBRANCH   1   7
BRANCH   4  19
ATOM     19  C   UNL     1       0.049   1.333  -1.333  1.00  0.00     0.251 C 
ATOM     20  N   UNL     1      -0.589   2.113  -0.392  1.00  0.00    -0.347 N 
ATOM     21  O   UNL     1      -0.481   0.964  -2.376  1.00  0.00    -0.269 OA
ATOM     22  H   UNL     1      -0.095   2.380   0.449  1.00  0.00     0.164 HD
BRANCH  20  23
ATOM     23  C   UNL     1      -2.004   2.487  -0.523  1.00  0.00     0.107 C 
ATOM     24  C   UNL     1      -2.306   3.753   0.295  1.00  0.00     0.042 C 
ATOM     25  C   UNL     1      -2.961   1.338  -0.118  1.00  0.00     0.118 C 
ATOM     26  C   UNL     1      -3.750   3.819   0.801  1.00  0.00     0.087 C 
ATOM     27  C   UNL     1      -4.432   1.776  -0.335  1.00  0.00     0.111 C 
ATOM     28  N   UNL     1      -4.659   3.221  -0.172  1.00  0.00    -0.298 NA
BRANCH  25  29
ATOM     29  N   UNL     1      -2.664   0.097  -0.828  1.00  0.00    -0.346 N 
ATOM     30  C   UNL     1      -3.039  -1.133  -0.347  1.00  0.00     0.254 C 
ATOM     31  H   UNL     1      -2.115   0.174  -1.681  1.00  0.00     0.164 HD
ATOM     32  O   UNL     1      -3.699  -1.260   0.681  1.00  0.00    -0.269 OA
BRANCH  30  33
ATOM     33  C   UNL     1      -2.581  -2.273  -1.121  1.00  0.00     0.077 A 
ATOM     34  C   UNL     1      -1.811  -2.353  -2.306  1.00  0.00     0.149 A 
ATOM     35  C   UNL     1      -2.823  -3.599  -0.807  1.00  0.00     0.122 A 
ATOM     36  N   UNL     1      -1.586  -3.611  -2.699  1.00  0.00    -0.181 NA
ATOM     37  N   UNL     1      -2.214  -4.348  -1.766  1.00  0.00    -0.275 N 
ATOM     38  C   UNL     1      -2.181  -5.788  -1.856  1.00  0.00     0.173 C 
ENDBRANCH  30  33
ENDBRANCH  25  29
BRANCH  28  39
ATOM     39  C   UNL     1      -6.051   3.676  -0.021  1.00  0.00     0.056 C 
ATOM     40  C   UNL     1      -6.926   3.169   1.093  1.00  0.00     0.021 C 
ATOM     41  C   UNL     1      -7.248   2.822  -0.334  1.00  0.00     0.021 C 
ENDBRANCH  28  39
ENDBRANCH  20  23
ENDBRANCH   4  19
TORSDOF 8
