MODEL        5USER    Run = 5USERUSER    Estimated Free Energy of Binding    =  -6.20 kcal/mol  [=(1)+(2)+(3)-(4)]USERUSER    (1) Final Intermolecular Energy     = -10.37 kcal/molUSER        vdW + Hbond + desolv Energy     = -10.22 kcal/molUSER        Electrostatic Energy            =  -0.29 kcal/molUSER        Moving Ligand-Fixed Receptor    = -10.51 kcal/molUSER        Moving Ligand-Moving Receptor   =  +0.14 kcal/molUSER    (2) Final Total Internal Energy     =  -2.63 kcal/molUSER    (3) Torsional Free Energy           =  +4.18 kcal/molUSER    (4) Unbound System's Energy         =  -2.63 kcal/molUSERUSERREMARK SMILES COc1ncc(F)cc1C(=O)N[C@@H]1CCCN(C)C[C@H]1NC(=O)c1cnc(N2CCN(Cc3cccnc3)CC2)c(F)c1REMARK SMILES IDX 20 1 13 2 12 3 10 4 11 5 9 7 3 8 4 9 5 10 8 11 6 12 7 13REMARK SMILES IDX 2 14 1 15 14 16 19 18 17 19 18 20 16 21 15 22 21 24 22 25REMARK SMILES IDX 23 27 24 28 25 29 43 30 26 31 41 32 27 33 42 34 28 35 29 36REMARK SMILES IDX 40 37 30 38 39 39 31 40 32 41 33 42 34 43 38 44 35 45 37 46REMARK SMILES IDX 36 47REMARK H PARENT 12 6 21 26REMARK Flexibility Score:  190.900USER                              x       y       z     vdW  Elec       q    TypeUSER                           _______ _______ _______ _____ _____    ______ ____ROOTATOM      1  C   UNL     1      24.363  53.657  -1.209 -0.21 -0.04    +0.118 C  ENDROOTBRANCH   1   2ATOM      2  C   UNL     1      24.665  53.192   0.237 -0.24 -0.06    +0.106 C  BRANCH   2   3ATOM      3  N   UNL     1      25.527  54.158   0.928 -0.09 +0.26    -0.347 N  ATOM      4  C   UNL     1      26.830  54.398   0.562 -0.25 -0.13    +0.257 C  ATOM      5  O   UNL     1      27.397  53.771  -0.327 -0.83 +0.04    -0.269 OA ATOM      6  H   UNL     1      25.103  54.789   1.598 +0.04 -0.10    +0.164 HD BRANCH   4   7ATOM      7  C   UNL     1      27.570  55.470   1.289 -0.37 -0.04    +0.104 A  ATOM      8  C   UNL     1      27.008  56.341   2.230 -0.27 -0.05    +0.226 A  ATOM      9  N   UNL     1      27.710  57.315   2.866 -0.69 -0.03    -0.218 NA ATOM     10  C   UNL     1      29.025  57.420   2.559 -0.37 -0.01    +0.154 A  ATOM     11  C   UNL     1      28.934  55.620   1.000 -0.43 -0.01    +0.060 A  ATOM     12  C   UNL     1      29.665  56.603   1.646 -0.54 -0.03    +0.142 A  ATOM     13  F   UNL     1      30.970  56.755   1.392 -0.26 +0.02    -0.205 F  BRANCH   8  14ATOM     14  O   UNL     1      25.666  56.214   2.536 -0.07 -0.03    -0.480 OA ATOM     15  C   UNL     1      25.420  55.594   3.798 -0.18 -0.06    +0.280 C  ENDBRANCH   8  14ENDBRANCH   4   7ENDBRANCH   2   3BRANCH   2  16ATOM     16  C   UNL     1      25.234  51.763   0.348 -0.39 -0.02    +0.028 CG0ATOM     17  G   UNL     1      24.834  50.843  -0.805 +0.00 +0.00    +0.000 G0 ENDBRANCH   2  16ENDBRANCH   1   2BRANCH   1  18ATOM     18  C   UNL     1      23.095  53.035  -1.848 -0.18 -0.03    +0.111 C  BRANCH  18  19ATOM     19  N   UNL     1      22.544  51.962  -1.000 -0.06 +0.10    -0.304 NA ATOM     20  C   UNL     1      21.150  51.680  -1.353 -0.09 -0.03    +0.105 C  BRANCH  19  21ATOM     21  C   UNL     1      23.328  50.722  -1.031 -0.35 -0.03    +0.084 C  BRANCH  21  22ATOM     22  C   UNL     1      24.836  50.842  -0.806 -0.31 -0.01    +0.018 CG0ATOM     23  G   UNL     1      25.234  51.763   0.348 +0.00 +0.00    +0.000 G0 ENDBRANCH  21  22ENDBRANCH  19  21ENDBRANCH  18  19ENDBRANCH   1  18BRANCH   1  24ATOM     24  N   UNL     1      24.241  55.121  -1.276 -0.06 +0.08    -0.346 N  ATOM     25  C   UNL     1      25.249  55.931  -1.749 -0.19 -0.06    +0.253 C  ATOM     26  H   UNL     1      23.319  55.463  -1.040 +0.04 -0.03    +0.164 HD ATOM     27  O   UNL     1      26.349  55.493  -2.079 -0.30 +0.07    -0.269 OA BRANCH  25  28ATOM     28  C   UNL     1      24.968  57.383  -1.904 -0.20 -0.01    +0.061 A  ATOM     29  C   UNL     1      25.247  58.114  -3.044 -0.21 -0.03    +0.127 A  ATOM     30  C   UNL     1      24.432  58.085  -0.830 -0.18 -0.01    +0.058 A  ATOM     31  N   UNL     1      25.034  59.452  -3.164 -0.14 +0.07    -0.236 NA ATOM     32  C   UNL     1      24.215  59.458  -0.933 -0.13 -0.02    +0.166 A  ATOM     33  C   UNL     1      24.527  60.149  -2.112 -0.17 -0.04    +0.164 A  ATOM     34  F   UNL     1      23.743  60.080   0.159 -0.00 -0.01    -0.203 F  BRANCH  33  35ATOM     35  N   UNL     1      24.342  61.513  -2.307 -0.08 +0.08    -0.352 N  ATOM     36  C   UNL     1      25.597  62.297  -2.346 -0.12 -0.05    +0.133 C  ATOM     37  C   UNL     1      23.170  62.243  -1.812 -0.07 -0.02    +0.133 C  ATOM     38  C   UNL     1      25.431  63.701  -1.703 -0.23 -0.03    +0.106 C  ATOM     39  C   UNL     1      23.466  62.928  -0.455 -0.10 -0.01    +0.106 C  ATOM     40  N   UNL     1      24.776  63.601  -0.392 -0.09 +0.04    -0.296 NA BRANCH  40  41ATOM     41  C   UNL     1      24.856  64.777   0.467 -0.15 -0.02    +0.121 C  BRANCH  41  42ATOM     42  C   UNL     1      25.247  64.546   1.906 -0.23 +0.00    -0.016 A  ATOM     43  C   UNL     1      24.468  63.753   2.753 -0.23 -0.00    +0.008 A  ATOM     44  C   UNL     1      26.414  65.082   2.439 -0.28 -0.01    +0.116 A  ATOM     45  C   UNL     1      24.869  63.543   4.070 -0.37 +0.00    +0.020 A  ATOM     46  N   UNL     1      26.829  64.896   3.714 -0.25 +0.02    -0.264 NA ATOM     47  C   UNL     1      26.046  64.128   4.500 -0.35 +0.00    +0.111 A  ENDBRANCH  41  42ENDBRANCH  40  41ENDBRANCH  33  35ENDBRANCH  25  28ENDBRANCH   1  24TORSDOF 8TERENDMDL