MODEL        8USER    Run = 8USERUSER    Estimated Free Energy of Binding    =  -7.43 kcal/mol  [=(1)+(2)+(3)-(4)]USERUSER    (1) Final Intermolecular Energy     = -11.91 kcal/molUSER        vdW + Hbond + desolv Energy     = -12.55 kcal/molUSER        Electrostatic Energy            =  +0.03 kcal/molUSER        Moving Ligand-Fixed Receptor    = -12.52 kcal/molUSER        Moving Ligand-Moving Receptor   =  +0.61 kcal/molUSER    (2) Final Total Internal Energy     =  -4.53 kcal/molUSER    (3) Torsional Free Energy           =  +4.47 kcal/molUSER    (4) Unbound System's Energy         =  -4.53 kcal/molUSERUSERREMARK SMILES COc1ccc(O)c(C(=O)c2ccc(C(=O)N[C@@H]3CCCN(C)C[C@H]3NC(=O)c3nc4cc(F)ccc4nc3-c3cccnc3)cc2)c1FREMARK SMILES IDX 18 1 17 3 15 4 16 5 14 7 11 8 12 9 47 10 13 11 46 12 9 13REMARK SMILES IDX 10 14 8 15 3 16 4 17 48 18 5 19 6 20 49 21 2 22 1 23 7 24REMARK SMILES IDX 25 26 24 27 22 28 23 29 21 30 20 31 19 32 26 34 27 35 28 37REMARK SMILES IDX 29 38 30 39 39 40 31 41 38 42 32 43 37 44 33 45 36 46 35 47REMARK SMILES IDX 34 48 40 49 41 50 45 51 42 52 44 53 43 54REMARK H PARENT 17 6 7 25 26 36REMARK Flexibility Score:  164.900USER                              x       y       z     vdW  Elec       q    TypeUSER                           _______ _______ _______ _____ _____    ______ ____ROOTATOM      1  C   UNL     1      38.281  42.808  23.682 -0.30 +0.01    +0.106 CG0ATOM      2  G   UNL     1      36.771  42.928  23.943 +0.00 +0.00    +0.000 G0 ENDROOTBRANCH   1   3ATOM      3  N   UNL     1      38.704  43.701  22.585 -0.09 -0.02    -0.347 N  ATOM      4  C   UNL     1      39.884  43.515  21.894 -0.08 +0.01    +0.251 C  ATOM      5  O   UNL     1      40.640  42.567  22.070 -0.17 -0.01    -0.269 OA ATOM      6  H   UNL     1      38.422  44.677  22.697 +0.09 +0.01    +0.164 HD BRANCH   4   7ATOM      7  C   UNL     1      40.233  44.570  20.900 -0.31 +0.00    +0.039 A  ATOM      8  C   UNL     1      40.969  46.478  18.973 -0.44 -0.00    +0.023 A  ATOM      9  C   UNL     1      39.620  46.155  19.164 -0.30 -0.00    +0.013 A  ATOM     10  C   UNL     1      41.950  45.830  19.736 -0.34 +0.00    +0.013 A  ATOM     11  C   UNL     1      39.253  45.209  20.128 -0.37 -0.00    +0.014 A  ATOM     12  C   UNL     1      41.584  44.880  20.694 -0.33 +0.00    +0.014 A  BRANCH   8  13ATOM     13  C   UNL     1      41.406  47.420  17.910 -0.43 -0.02    +0.199 C  ATOM     14  O   UNL     1      42.457  48.047  18.052 -0.48 -0.00    -0.288 OA BRANCH  13  15ATOM     15  C   UNL     1      40.686  47.585  16.633 -0.45 -0.02    +0.104 A  ATOM     16  C   UNL     1      39.275  46.712  14.851 -0.33 -0.04    +0.155 A  ATOM     17  C   UNL     1      39.402  47.922  14.165 -0.32 -0.01    +0.053 A  ATOM     18  C   UNL     1      39.915  46.558  16.090 -0.33 -0.03    +0.179 A  ATOM     19  C   UNL     1      40.142  48.970  14.722 -0.45 -0.02    +0.051 A  ATOM     20  C   UNL     1      40.765  48.804  15.954 -0.49 -0.02    +0.130 A  ATOM     21  F   UNL     1      39.765  45.406  16.762 -0.01 +0.03    -0.202 F  BRANCH  16  22ATOM     22  O   UNL     1      38.570  45.623  14.414 -0.10 +0.13    -0.494 OA ATOM     23  C   UNL     1      37.222  45.835  14.017 -0.29 -0.11    +0.278 C  ENDBRANCH  16  22BRANCH  20  24ATOM     24  O   UNL     1      41.451  49.882  16.446 -0.84 +0.02    -0.507 OA ATOM     25  H   UNL     1      41.935  49.588  17.251 +0.20 +0.08    +0.293 HD ENDBRANCH  20  24ENDBRANCH  13  15ENDBRANCH   8  13ENDBRANCH   4   7ENDBRANCH   1   3BRANCH   1  26ATOM     26  C   UNL     1      39.153  43.092  24.942 -0.20 +0.00    +0.118 C  BRANCH  26  27ATOM     27  C   UNL     1      38.927  42.167  26.155 -0.25 -0.00    +0.111 C  BRANCH  27  28ATOM     28  N   UNL     1      38.009  42.741  27.157 -0.13 +0.03    -0.304 NA ATOM     29  C   UNL     1      38.584  43.978  27.701 -0.23 -0.01    +0.105 C  BRANCH  28  30ATOM     30  C   UNL     1      36.707  43.061  26.538 -0.39 -0.01    +0.084 C  BRANCH  30  31ATOM     31  C   UNL     1      36.376  42.270  25.272 -0.44 -0.00    +0.018 C  BRANCH  31  32ATOM     32  C   UNL     1      36.770  42.926  23.948 -0.39 +0.00    +0.028 CG0ATOM     33  G   UNL     1      38.279  42.812  23.677 +0.00 +0.00    +0.000 G0 ENDBRANCH  31  32ENDBRANCH  30  31ENDBRANCH  28  30ENDBRANCH  27  28ENDBRANCH  26  27BRANCH  26  34ATOM     34  N   UNL     1      40.583  43.098  24.590 -0.07 -0.00    -0.345 N  ATOM     35  C   UNL     1      41.331  44.256  24.558 -0.06 +0.01    +0.272 C  ATOM     36  H   UNL     1      40.952  42.235  24.204 +0.06 -0.00    +0.164 HD ATOM     37  O   UNL     1      40.889  45.362  24.854 -0.04 -0.01    -0.267 OA BRANCH  35  38ATOM     38  C   UNL     1      42.745  44.089  24.140 -0.07 +0.01    +0.155 A  ATOM     39  N   UNL     1      43.116  42.801  23.899 -0.13 +0.01    -0.239 NA ATOM     40  C   UNL     1      43.588  45.178  23.935 -0.06 +0.02    +0.104 A  ATOM     41  C   UNL     1      44.371  42.612  23.461 -0.21 +0.00    +0.093 A  ATOM     42  N   UNL     1      44.852  44.975  23.466 -0.05 -0.08    -0.244 NA ATOM     43  C   UNL     1      44.819  41.324  23.209 -0.28 -0.01    +0.069 A  ATOM     44  C   UNL     1      45.246  43.707  23.243 -0.15 +0.02    +0.090 A  ATOM     45  C   UNL     1      46.110  41.105  22.749 -0.25 -0.02    +0.125 A  ATOM     46  C   UNL     1      46.535  43.463  22.781 -0.18 +0.01    +0.033 A  ATOM     47  C   UNL     1      46.977  42.164  22.530 -0.20 -0.00    +0.041 A  ATOM     48  F   UNL     1      46.522  39.855  22.508 -0.11 +0.08    -0.207 F  BRANCH  40  49ATOM     49  C   UNL     1      43.232  46.587  24.133 -0.12 +0.00    +0.021 A  ATOM     50  C   UNL     1      43.049  47.165  25.395 -0.10 +0.00    +0.013 A  ATOM     51  C   UNL     1      43.067  47.439  23.038 -0.23 +0.02    +0.121 A  ATOM     52  C   UNL     1      42.681  48.507  25.506 -0.25 +0.00    +0.021 A  ATOM     53  N   UNL     1      42.705  48.743  23.113 -0.77 -0.07    -0.264 NA ATOM     54  C   UNL     1      42.514  49.246  24.348 -0.31 +0.03    +0.111 A  ENDBRANCH  40  49ENDBRANCH  35  38ENDBRANCH  26  34ENDBRANCH   1  26TORSDOF 9TERENDMDL