MODEL        8USER    Run = 8USERUSER    Estimated Free Energy of Binding    =  -7.79 kcal/mol  [=(1)+(2)+(3)-(4)]USERUSER    (1) Final Intermolecular Energy     = -11.67 kcal/molUSER        vdW + Hbond + desolv Energy     = -11.86 kcal/molUSER        Electrostatic Energy            =  +0.02 kcal/molUSER        Moving Ligand-Fixed Receptor    = -11.84 kcal/molUSER        Moving Ligand-Moving Receptor   =  +0.17 kcal/molUSER    (2) Final Total Internal Energy     =  -2.45 kcal/molUSER    (3) Torsional Free Energy           =  +3.88 kcal/molUSER    (4) Unbound System's Energy         =  -2.45 kcal/molUSERUSERREMARK SMILES COc1ncc(F)cc1C(=O)N[C@@H]1CCCN(C)C[C@H]1n1cc(C(=O)c2cnc(N3CCN(C)CC3)c(F)c2)nn1REMARK SMILES IDX 20 1 13 2 12 3 10 4 11 5 9 7 3 8 4 9 5 10 8 11 6 12 7 13REMARK SMILES IDX 2 14 1 15 14 16 19 18 17 19 18 20 16 21 15 22 21 24 22 25REMARK SMILES IDX 41 26 23 27 40 28 24 29 25 30 26 31 27 32 39 33 28 34 37 35REMARK SMILES IDX 29 36 38 37 30 38 31 39 36 40 32 41 35 42 33 43 34 44REMARK H PARENT 12 6REMARK Flexibility Score:  128.900USER                              x       y       z     vdW  Elec       q    TypeUSER                           _______ _______ _______ _____ _____    ______ ____ROOTATOM      1  C   UNL     1      35.517  43.356  19.387 -0.36 -0.02    +0.145 C  ENDROOTBRANCH   1   2ATOM      2  C   UNL     1      36.151  43.225  17.975 -0.21 -0.03    +0.108 C  BRANCH   2   3ATOM      3  N   UNL     1      37.305  44.127  17.842 -0.10 +0.07    -0.347 N  ATOM      4  C   UNL     1      37.173  45.467  17.549 -0.24 -0.08    +0.257 C  ATOM      5  O   UNL     1      36.081  46.025  17.530 -0.26 +0.15    -0.269 OA ATOM      6  H   UNL     1      38.231  43.716  17.758 +0.10 -0.02    +0.164 HD BRANCH   4   7ATOM      7  C   UNL     1      38.409  46.250  17.260 -0.33 -0.03    +0.104 A  ATOM      8  C   UNL     1      39.675  45.982  17.789 -0.29 -0.03    +0.226 A  ATOM      9  N   UNL     1      40.780  46.722  17.505 -0.34 +0.02    -0.218 NA ATOM     10  C   UNL     1      40.619  47.763  16.655 -0.42 -0.03    +0.154 A  ATOM     11  C   UNL     1      38.291  47.338  16.381 -0.35 -0.03    +0.060 A  ATOM     12  C   UNL     1      39.409  48.098  16.080 -0.39 -0.05    +0.142 A  ATOM     13  F   UNL     1      39.314  49.141  15.248 -0.14 +0.12    -0.205 F  BRANCH   8  14ATOM     14  O   UNL     1      39.827  44.909  18.651 -0.13 +0.02    -0.480 OA ATOM     15  C   UNL     1      40.392  45.260  19.913 -0.28 +0.01    +0.280 C  ENDBRANCH   8  14ENDBRANCH   4   7ENDBRANCH   2   3BRANCH   2  16ATOM     16  C   UNL     1      35.160  43.555  16.847 -0.40 -0.01    +0.028 CG0ATOM     17  G   UNL     1      33.847  42.759  16.852 +0.00 +0.00    +0.000 G0 ENDBRANCH   2  16ENDBRANCH   1   2BRANCH   1  18ATOM     18  C   UNL     1      34.230  42.535  19.626 -0.37 +0.00    +0.113 C  BRANCH  18  19ATOM     19  N   UNL     1      32.945  43.118  19.215 -0.32 +0.02    -0.304 NA ATOM     20  C   UNL     1      32.723  44.385  19.917 -0.31 -0.01    +0.105 C  BRANCH  19  21ATOM     21  C   UNL     1      32.735  43.267  17.772 -0.32 -0.02    +0.084 C  BRANCH  21  22ATOM     22  C   UNL     1      33.848  42.760  16.852 -0.42 -0.01    +0.018 CG0ATOM     23  G   UNL     1      35.161  43.555  16.849 +0.00 +0.00    +0.000 G0 ENDBRANCH  21  22ENDBRANCH  19  21ENDBRANCH  18  19ENDBRANCH   1  18BRANCH   1  24ATOM     24  N   UNL     1      36.466  43.170  20.478 -0.26 +0.01    -0.245 N  ATOM     25  C   UNL     1      37.256  44.082  21.104 -0.30 +0.00    +0.143 A  ATOM     26  N   UNL     1      36.702  41.926  20.946 -0.45 +0.00    -0.066 NA ATOM     27  C   UNL     1      37.974  43.346  22.024 -0.26 +0.01    +0.153 A  ATOM     28  N   UNL     1      37.609  42.027  21.907 -0.35 -0.01    -0.127 NA BRANCH  27  29ATOM     29  C   UNL     1      38.936  43.864  22.983 -0.20 +0.01    +0.216 C  ATOM     30  O   UNL     1      39.994  43.285  23.230 -0.15 -0.01    -0.287 OA BRANCH  29  31ATOM     31  C   UNL     1      38.664  45.139  23.685 -0.26 +0.00    +0.046 A  ATOM     32  C   UNL     1      37.643  45.169  24.623 -0.23 +0.01    +0.126 A  ATOM     33  C   UNL     1      39.329  46.332  23.424 -0.27 +0.01    +0.057 A  ATOM     34  N   UNL     1      37.279  46.276  25.324 -0.81 -0.03    -0.236 NA ATOM     35  C   UNL     1      38.966  47.477  24.130 -0.28 +0.02    +0.166 A  ATOM     36  C   UNL     1      37.945  47.436  25.097 -0.26 +0.02    +0.164 A  ATOM     37  F   UNL     1      39.595  48.624  23.827 -0.12 -0.03    -0.203 F  BRANCH  36  38ATOM     38  N   UNL     1      37.558  48.595  25.802 -0.18 -0.02    -0.352 N  ATOM     39  C   UNL     1      37.186  48.337  27.210 -0.29 -0.01    +0.133 C  ATOM     40  C   UNL     1      36.534  49.396  25.097 -0.40 -0.01    +0.133 C  ATOM     41  C   UNL     1      36.875  49.665  27.943 -0.24 +0.00    +0.105 C  ATOM     42  C   UNL     1      36.248  50.708  25.865 -0.38 +0.01    +0.105 C  ATOM     43  N   UNL     1      35.833  50.466  27.264 -0.13 -0.02    -0.303 NA ATOM     44  C   UNL     1      35.618  51.730  27.962 -0.18 +0.02    +0.105 C  ENDBRANCH  36  38ENDBRANCH  29  31ENDBRANCH  27  29ENDBRANCH   1  24TORSDOF 7TERENDMDL