REMARK SMILES COc1ccc(O)c(C(=O)c2ccc(C(=O)N[C@@H]3CCCN(C)C[C@H]3NC(=O)c3nc4cc(F)ccc4nc3-c3cccnc3)cc2)c1F
REMARK SMILES IDX 18 1 17 3 15 4 16 5 14 7 11 8 12 9 47 10 13 11 46 12 9 13
REMARK SMILES IDX 10 14 8 15 3 16 4 17 48 18 5 19 6 20 49 21 2 22 1 23 7 24
REMARK SMILES IDX 25 26 24 27 22 28 23 29 21 30 20 31 19 32 26 34 27 35 28 37
REMARK SMILES IDX 29 38 30 39 39 40 31 41 38 42 32 43 37 44 33 45 36 46 35 47
REMARK SMILES IDX 34 48 40 49 41 50 45 51 42 52 44 53 43 54
REMARK H PARENT 17 6 7 25 26 36
REMARK Flexibility Score:  164.900
ROOT
ATOM      1  C   UNL     1      -1.452  -2.378  -1.186  1.00  0.00     0.106 CG0
ATOM      2  G   UNL     1      -1.492  -3.775  -1.827  1.00  0.00     0.000 G0
ENDROOT
BRANCH   1   3
ATOM      3  N   UNL     1      -0.072  -1.998  -0.825  1.00  0.00    -0.347 N 
ATOM      4  C   UNL     1       0.630  -2.631   0.180  1.00  0.00     0.251 C 
ATOM      5  O   UNL     1       0.212  -3.599   0.804  1.00  0.00    -0.269 OA
ATOM      6  H   UNL     1       0.139  -1.004  -0.935  1.00  0.00     0.164 HD
BRANCH   4   7
ATOM      7  C   UNL     1       1.964  -2.053   0.511  1.00  0.00     0.039 A 
ATOM      8  C   UNL     1       4.516  -1.077   1.167  1.00  0.00     0.023 A 
ATOM      9  C   UNL     1       3.976  -0.838  -0.102  1.00  0.00     0.013 A 
ATOM     10  C   UNL     1       3.783  -1.822   2.101  1.00  0.00     0.013 A 
ATOM     11  C   UNL     1       2.703  -1.319  -0.427  1.00  0.00     0.014 A 
ATOM     12  C   UNL     1       2.514  -2.309   1.774  1.00  0.00     0.014 A 
BRANCH   8  13
ATOM     13  C   UNL     1       5.893  -0.649   1.527  1.00  0.00     0.199 C 
ATOM     14  O   UNL     1       6.559  -1.339   2.300  1.00  0.00    -0.288 OA
BRANCH  13  15
ATOM     15  C   UNL     1       6.551   0.530   0.932  1.00  0.00     0.104 A 
ATOM     16  C   UNL     1       6.484   2.814   0.093  1.00  0.00     0.155 A 
ATOM     17  C   UNL     1       7.828   2.713  -0.274  1.00  0.00     0.053 A 
ATOM     18  C   UNL     1       5.858   1.718   0.704  1.00  0.00     0.179 A 
ATOM     19  C   UNL     1       8.540   1.538  -0.014  1.00  0.00     0.051 A 
ATOM     20  C   UNL     1       7.907   0.462   0.599  1.00  0.00     0.130 A 
ATOM     21  F   UNL     1       4.576   1.829   1.085  1.00  0.00    -0.202 F 
BRANCH  16  22
ATOM     22  O   UNL     1       5.690   3.913  -0.099  1.00  0.00    -0.494 OA
ATOM     23  C   UNL     1       6.287   5.051  -0.708  1.00  0.00     0.278 C 
ENDBRANCH  16  22
BRANCH  20  24
ATOM     24  O   UNL     1       8.675  -0.645   0.843  1.00  0.00    -0.507 OA
ATOM     25  H   UNL     1       8.204  -1.196   1.509  1.00  0.00     0.293 HD
ENDBRANCH  20  24
ENDBRANCH  13  15
ENDBRANCH   8  13
ENDBRANCH   4   7
ENDBRANCH   1   3
BRANCH   1  26
ATOM     26  C   UNL     1      -2.074  -1.266  -2.082  1.00  0.00     0.118 C 
BRANCH  26  27
ATOM     27  C   UNL     1      -3.133  -1.723  -3.106  1.00  0.00     0.111 C 
BRANCH  27  28
ATOM     28  N   UNL     1      -4.239  -2.484  -2.493  1.00  0.00    -0.304 NA
ATOM     29  C   UNL     1      -5.490  -2.199  -3.209  1.00  0.00     0.105 C 
BRANCH  28  30
ATOM     30  C   UNL     1      -3.972  -3.934  -2.573  1.00  0.00     0.084 C 
BRANCH  30  31
ATOM     31  C   UNL     1      -2.858  -4.442  -1.657  1.00  0.00     0.018 C 
BRANCH  31  32
ATOM     32  C   UNL     1      -1.492  -3.775  -1.827  1.00  0.00     0.028 CG0
ATOM     33  G   UNL     1      -1.452  -2.378  -1.186  1.00  0.00     0.000 G0
ENDBRANCH  31  32
ENDBRANCH  30  31
ENDBRANCH  28  30
ENDBRANCH  27  28
ENDBRANCH  26  27
BRANCH  26  34
ATOM     34  N   UNL     1      -2.631  -0.185  -1.252  1.00  0.00    -0.345 N 
ATOM     35  C   UNL     1      -1.833   0.722  -0.587  1.00  0.00     0.272 C 
ATOM     36  H   UNL     1      -3.624  -0.242  -1.051  1.00  0.00     0.164 HD
ATOM     37  O   UNL     1      -0.608   0.734  -0.659  1.00  0.00    -0.267 OA
BRANCH  35  38
ATOM     38  C   UNL     1      -2.555   1.719   0.241  1.00  0.00     0.155 A 
ATOM     39  N   UNL     1      -2.725   2.933  -0.354  1.00  0.00    -0.239 NA
ATOM     40  C   UNL     1      -3.083   1.400   1.489  1.00  0.00     0.104 A 
ATOM     41  C   UNL     1      -3.426   3.845   0.338  1.00  0.00     0.093 A 
ATOM     42  N   UNL     1      -3.815   2.327   2.171  1.00  0.00    -0.244 NA
ATOM     43  C   UNL     1      -3.624   5.106  -0.203  1.00  0.00     0.069 A 
ATOM     44  C   UNL     1      -3.975   3.541   1.610  1.00  0.00     0.090 A 
ATOM     45  C   UNL     1      -4.352   6.064   0.491  1.00  0.00     0.125 A 
ATOM     46  C   UNL     1      -4.700   4.516   2.286  1.00  0.00     0.033 A 
ATOM     47  C   UNL     1      -4.895   5.782   1.734  1.00  0.00     0.041 A 
ATOM     48  F   UNL     1      -4.536   7.274  -0.050  1.00  0.00    -0.207 F 
BRANCH  40  49
ATOM     49  C   UNL     1      -2.973   0.100   2.159  1.00  0.00     0.021 A 
ATOM     50  C   UNL     1      -1.764  -0.590   2.308  1.00  0.00     0.013 A 
ATOM     51  C   UNL     1      -4.102  -0.517   2.704  1.00  0.00     0.121 A 
ATOM     52  C   UNL     1      -1.739  -1.838   2.931  1.00  0.00     0.021 A 
ATOM     53  N   UNL     1      -4.112  -1.730   3.309  1.00  0.00    -0.264 NA
ATOM     54  C   UNL     1      -2.928  -2.366   3.403  1.00  0.00     0.111 A 
ENDBRANCH  40  49
ENDBRANCH  35  38
ENDBRANCH  26  34
ENDBRANCH   1  26
TORSDOF 9
