REMARK SMILES COc1ncc(F)cc1C(=O)N[C@@H]1CCCN(C)C[C@H]1n1cc(C(=O)c2cnc(N3CCN(C)CC3)c(F)c2)nn1
REMARK SMILES IDX 20 1 13 2 12 3 10 4 11 5 9 7 3 8 4 9 5 10 8 11 6 12 7 13
REMARK SMILES IDX 2 14 1 15 14 16 19 18 17 19 18 20 16 21 15 22 21 24 22 25
REMARK SMILES IDX 41 26 23 27 40 28 24 29 25 30 26 31 27 32 39 33 28 34 37 35
REMARK SMILES IDX 29 36 38 37 30 38 31 39 36 40 32 41 35 42 33 43 34 44
REMARK H PARENT 12 6
REMARK Flexibility Score:  128.900
ROOT
ATOM      1  C   UNL     1      -3.261  -1.856   0.407  1.00  0.00     0.145 C 
ENDROOT
BRANCH   1   2
ATOM      2  C   UNL     1      -4.246  -1.354  -0.684  1.00  0.00     0.108 C 
BRANCH   2   3
ATOM      3  N   UNL     1      -4.584   0.060  -0.462  1.00  0.00    -0.347 N 
ATOM      4  C   UNL     1      -3.853   1.095  -1.005  1.00  0.00     0.257 C 
ATOM      5  O   UNL     1      -2.966   0.903  -1.830  1.00  0.00    -0.269 OA
ATOM      6  H   UNL     1      -5.245   0.288   0.276  1.00  0.00     0.164 HD
BRANCH   4   7
ATOM      7  C   UNL     1      -4.172   2.486  -0.573  1.00  0.00     0.104 A 
ATOM      8  C   UNL     1      -5.080   2.829   0.434  1.00  0.00     0.226 A 
ATOM      9  N   UNL     1      -5.348   4.111   0.798  1.00  0.00    -0.218 NA
ATOM     10  C   UNL     1      -4.680   5.088   0.141  1.00  0.00     0.154 A 
ATOM     11  C   UNL     1      -3.501   3.532  -1.225  1.00  0.00     0.060 A 
ATOM     12  C   UNL     1      -3.762   4.843  -0.861  1.00  0.00     0.142 A 
ATOM     13  F   UNL     1      -3.136   5.853  -1.475  1.00  0.00    -0.205 F 
BRANCH   8  14
ATOM     14  O   UNL     1      -5.750   1.819   1.103  1.00  0.00    -0.480 OA
ATOM     15  C   UNL     1      -6.592   2.286   2.155  1.00  0.00     0.280 C 
ENDBRANCH   8  14
ENDBRANCH   4   7
ENDBRANCH   2   3
BRANCH   2  16
ATOM     16  C   UNL     1      -5.558  -2.155  -0.714  1.00  0.00     0.028 CG0
ATOM     17  G   UNL     1      -5.459  -3.584  -1.266  1.00  0.00     0.000 G0
ENDBRANCH   2  16
ENDBRANCH   1   2
BRANCH   1  18
ATOM     18  C   UNL     1      -3.370  -3.354   0.773  1.00  0.00     0.113 C 
BRANCH  18  19
ATOM     19  N   UNL     1      -3.220  -4.346  -0.300  1.00  0.00    -0.304 NA
ATOM     20  C   UNL     1      -3.391  -5.698   0.240  1.00  0.00     0.105 C 
BRANCH  19  21
ATOM     21  C   UNL     1      -4.051  -4.142  -1.490  1.00  0.00     0.084 C 
BRANCH  21  22
ATOM     22  C   UNL     1      -5.459  -3.584  -1.266  1.00  0.00     0.018 CG0
ATOM     23  G   UNL     1      -5.558  -2.155  -0.714  1.00  0.00     0.000 G0
ENDBRANCH  21  22
ENDBRANCH  19  21
ENDBRANCH  18  19
ENDBRANCH   1  18
BRANCH   1  24
ATOM     24  N   UNL     1      -1.875  -1.475   0.169  1.00  0.00    -0.245 N 
ATOM     25  C   UNL     1      -1.087  -1.705  -0.915  1.00  0.00     0.143 A 
ATOM     26  N   UNL     1      -1.179  -0.858   1.148  1.00  0.00    -0.066 NA
ATOM     27  C   UNL     1       0.135  -1.160  -0.578  1.00  0.00     0.153 A 
ATOM     28  N   UNL     1       0.046  -0.643   0.692  1.00  0.00    -0.127 NA
BRANCH  27  29
ATOM     29  C   UNL     1       1.318  -1.105  -1.421  1.00  0.00     0.216 C 
ATOM     30  O   UNL     1       1.295  -1.434  -2.607  1.00  0.00    -0.287 OA
BRANCH  29  31
ATOM     31  C   UNL     1       2.601  -0.624  -0.861  1.00  0.00     0.046 A 
ATOM     32  C   UNL     1       3.486   0.028  -1.707  1.00  0.00     0.126 A 
ATOM     33  C   UNL     1       3.008  -0.833   0.452  1.00  0.00     0.057 A 
ATOM     34  N   UNL     1       4.702   0.502  -1.326  1.00  0.00    -0.236 NA
ATOM     35  C   UNL     1       4.253  -0.358   0.858  1.00  0.00     0.166 A 
ATOM     36  C   UNL     1       5.092   0.329  -0.038  1.00  0.00     0.164 A 
ATOM     37  F   UNL     1       4.639  -0.612   2.119  1.00  0.00    -0.203 F 
BRANCH  36  38
ATOM     38  N   UNL     1       6.362   0.796   0.360  1.00  0.00    -0.352 N 
ATOM     39  C   UNL     1       6.319   1.721   1.514  1.00  0.00     0.133 C 
ATOM     40  C   UNL     1       7.163   1.342  -0.757  1.00  0.00     0.133 C 
ATOM     41  C   UNL     1       7.752   2.107   1.955  1.00  0.00     0.105 C 
ATOM     42  C   UNL     1       8.582   1.720  -0.272  1.00  0.00     0.105 C 
ATOM     43  N   UNL     1       8.559   2.678   0.855  1.00  0.00    -0.303 NA
ATOM     44  C   UNL     1       9.915   2.972   1.308  1.00  0.00     0.105 C 
ENDBRANCH  36  38
ENDBRANCH  29  31
ENDBRANCH  27  29
ENDBRANCH   1  24
TORSDOF 7
