MODEL        5USER    Run = 5USERUSER    Estimated Free Energy of Binding    =  -7.17 kcal/mol  [=(1)+(2)+(3)-(4)]USERUSER    (1) Final Intermolecular Energy     = -11.34 kcal/molUSER        vdW + Hbond + desolv Energy     = -11.96 kcal/molUSER        Electrostatic Energy            =  -0.12 kcal/molUSER        Moving Ligand-Fixed Receptor    = -12.07 kcal/molUSER        Moving Ligand-Moving Receptor   =  +0.73 kcal/molUSER    (2) Final Total Internal Energy     =  -2.85 kcal/molUSER    (3) Torsional Free Energy           =  +4.18 kcal/molUSER    (4) Unbound System's Energy         =  -2.85 kcal/molUSERUSERREMARK SMILES COc1ccc(O)c(C(=O)c2ccc(C(=O)N[C@@H]3CCCN(C)C[C@H]3NC(=O)c3ccncc3)cc2)c1FREMARK SMILES IDX 15 1 16 2 17 3 14 5 11 6 12 7 36 8 13 9 35 10 9 11 10 12REMARK SMILES IDX 8 13 3 14 4 15 37 16 5 17 6 18 38 19 2 20 1 21 7 22 18 24REMARK SMILES IDX 19 25 25 27 24 28 22 29 23 30 21 31 20 32 26 34 27 35 28 37REMARK SMILES IDX 29 38 30 39 34 40 31 41 33 42 32 43REMARK H PARENT 17 4 7 23 26 36REMARK Flexibility Score:   88.900USER                              x       y       z     vdW  Elec       q    TypeUSER                           _______ _______ _______ _____ _____    ______ ____ROOTATOM      1  C   UNL     1      38.846  43.333  22.860 -0.19 +0.01    +0.251 C  ATOM      2  O   UNL     1      38.847  42.107  22.851 -0.19 -0.04    -0.269 OA ATOM      3  N   UNL     1      38.367  44.088  23.910 -0.08 -0.02    -0.347 N  ATOM      4  H   UNL     1      38.505  45.089  23.899 +0.08 +0.01    +0.164 HD ENDROOTBRANCH   1   5ATOM      5  C   UNL     1      39.409  44.086  21.708 -0.26 +0.00    +0.039 A  ATOM      6  C   UNL     1      40.552  45.459  19.550 -0.41 +0.00    +0.023 A  ATOM      7  C   UNL     1      41.335  44.590  20.317 -0.35 +0.00    +0.013 A  ATOM      8  C   UNL     1      39.190  45.611  19.837 -0.35 -0.00    +0.013 A  ATOM      9  C   UNL     1      40.763  43.907  21.394 -0.28 +0.00    +0.014 A  ATOM     10  C   UNL     1      38.618  44.929  20.917 -0.34 +0.00    +0.014 A  BRANCH   6  11ATOM     11  C   UNL     1      41.108  46.175  18.379 -0.42 -0.00    +0.199 C  ATOM     12  O   UNL     1      42.327  46.330  18.302 -0.30 -0.01    -0.288 OA BRANCH  11  13ATOM     13  C   UNL     1      40.265  46.763  17.314 -0.42 -0.02    +0.104 A  ATOM     14  C   UNL     1      38.324  46.691  15.838 -0.30 -0.06    +0.155 A  ATOM     15  C   UNL     1      38.694  47.924  15.297 -0.47 -0.02    +0.053 A  ATOM     16  C   UNL     1      39.121  46.118  16.841 -0.30 -0.04    +0.179 A  ATOM     17  C   UNL     1      39.855  48.563  15.740 -0.52 -0.02    +0.051 A  ATOM     18  C   UNL     1      40.641  47.978  16.731 -0.43 -0.02    +0.130 A  ATOM     19  F   UNL     1      38.776  44.913  17.326 -0.08 +0.04    -0.202 F  BRANCH  14  20ATOM     20  O   UNL     1      37.223  45.964  15.474 -0.04 +0.23    -0.494 OA ATOM     21  C   UNL     1      37.377  45.034  14.410 -0.22 -0.10    +0.278 C  ENDBRANCH  14  20BRANCH  18  22ATOM     22  O   UNL     1      41.777  48.655  17.083 -0.65 -0.05    -0.507 OA ATOM     23  H   UNL     1      42.522  48.011  17.096 -0.32 -0.01    +0.293 HD ENDBRANCH  18  22ENDBRANCH  11  13ENDBRANCH   6  11ENDBRANCH   1   5BRANCH   3  24ATOM     24  C   UNL     1      37.772  43.472  25.096 -0.28 +0.00    +0.106 C  BRANCH  24  25ATOM     25  C   UNL     1      36.694  42.441  24.725 -0.44 +0.00    +0.028 CG0ATOM     26  G   UNL     1      35.848  41.850  25.851 +0.00 +0.00    +0.000 G0 ENDBRANCH  24  25BRANCH  24  27ATOM     27  C   UNL     1      37.332  44.509  26.168 -0.30 -0.01    +0.118 C  BRANCH  27  28ATOM     28  C   UNL     1      36.810  43.908  27.499 -0.39 -0.02    +0.111 C  BRANCH  28  29ATOM     29  N   UNL     1      37.208  42.556  27.899 -0.15 +0.08    -0.304 NA ATOM     30  C   UNL     1      38.633  42.373  28.104 -0.35 -0.01    +0.105 C  BRANCH  29  31ATOM     31  C   UNL     1      36.543  41.494  27.162 -0.54 -0.02    +0.084 C  BRANCH  31  32ATOM     32  C   UNL     1      35.847  41.852  25.851 -0.48 -0.00    +0.018 CG0ATOM     33  G   UNL     1      36.687  42.452  24.726 +0.00 +0.00    +0.000 G0 ENDBRANCH  31  32ENDBRANCH  29  31ENDBRANCH  28  29ENDBRANCH  27  28BRANCH  27  34ATOM     34  N   UNL     1      38.355  45.539  26.395 -0.08 +0.01    -0.346 N  ATOM     35  C   UNL     1      38.404  46.687  25.632 -0.20 +0.01    +0.251 C  ATOM     36  H   UNL     1      39.085  45.357  27.069 +0.05 -0.00    +0.164 HD ATOM     37  O   UNL     1      37.641  46.905  24.699 -0.69 -0.06    -0.269 OA BRANCH  35  38ATOM     38  C   UNL     1      39.467  47.670  25.969 -0.22 +0.00    +0.042 A  ATOM     39  C   UNL     1      39.414  48.292  27.217 -0.22 +0.00    +0.034 A  ATOM     40  C   UNL     1      40.518  47.957  25.099 -0.25 +0.00    +0.034 A  ATOM     41  C   UNL     1      40.406  49.200  27.533 -0.23 +0.01    +0.112 A  ATOM     42  C   UNL     1      41.463  48.880  25.512 -0.26 +0.02    +0.112 A  ATOM     43  N   UNL     1      41.425  49.511  26.706 -0.13 -0.02    -0.265 NA ENDBRANCH  35  38ENDBRANCH  27  34ENDBRANCH  24  27ENDBRANCH   3  24TORSDOF 8TERENDMDL