REMARK SMILES COc1ccc(O)c(C(=O)c2ccc(C(=O)N[C@@H]3C[C@@H](F)CNC[C@H]3NC(=O)c3ccncc3)cc2)c1F
REMARK SMILES IDX 15 1 16 2 17 3 14 5 11 6 12 7 36 8 13 9 35 10 9 11 10 12
REMARK SMILES IDX 8 13 3 14 4 15 37 16 5 17 6 18 38 19 2 20 1 21 7 22 18 24
REMARK SMILES IDX 19 25 20 26 21 27 25 29 24 30 23 31 22 33 26 35 27 36 28 38
REMARK SMILES IDX 29 39 30 40 34 41 31 42 33 43 32 44
REMARK H PARENT 17 4 7 23 23 32 26 37
REMARK Flexibility Score:   88.900
ROOT
ATOM      1  C   UNL     1      -0.354   0.509   1.498  1.00  0.00     0.251 C 
ATOM      2  O   UNL     1      -0.265   1.613   2.024  1.00  0.00    -0.269 OA
ATOM      3  N   UNL     1      -1.442  -0.326   1.660  1.00  0.00    -0.347 N 
ATOM      4  H   UNL     1      -1.598  -0.982   0.892  1.00  0.00     0.164 HD
ENDROOT
BRANCH   1   5
ATOM      5  C   UNL     1       0.724   0.022   0.588  1.00  0.00     0.039 A 
ATOM      6  C   UNL     1       2.799  -0.800  -1.114  1.00  0.00     0.023 A 
ATOM      7  C   UNL     1       1.925  -1.744  -0.560  1.00  0.00     0.013 A 
ATOM      8  C   UNL     1       2.622   0.559  -0.835  1.00  0.00     0.013 A 
ATOM      9  C   UNL     1       0.897  -1.336   0.296  1.00  0.00     0.014 A 
ATOM     10  C   UNL     1       1.595   0.965   0.023  1.00  0.00     0.014 A 
BRANCH   6  11
ATOM     11  C   UNL     1       3.854  -1.282  -2.037  1.00  0.00     0.199 C 
ATOM     12  O   UNL     1       3.592  -2.213  -2.803  1.00  0.00    -0.288 OA
BRANCH  11  13
ATOM     13  C   UNL     1       5.200  -0.675  -2.130  1.00  0.00     0.104 A 
ATOM     14  C   UNL     1       7.107   0.477  -1.133  1.00  0.00     0.155 A 
ATOM     15  C   UNL     1       7.759   0.462  -2.367  1.00  0.00     0.053 A 
ATOM     16  C   UNL     1       5.834  -0.102  -1.025  1.00  0.00     0.179 A 
ATOM     17  C   UNL     1       7.151  -0.138  -3.472  1.00  0.00     0.051 A 
ATOM     18  C   UNL     1       5.888  -0.713  -3.349  1.00  0.00     0.130 A 
ATOM     19  F   UNL     1       5.235  -0.118   0.178  1.00  0.00    -0.202 F 
BRANCH  14  20
ATOM     20  O   UNL     1       7.607   1.021   0.020  1.00  0.00    -0.494 OA
ATOM     21  C   UNL     1       8.913   1.576  -0.036  1.00  0.00     0.278 C 
ENDBRANCH  14  20
BRANCH  18  22
ATOM     22  O   UNL     1       5.380  -1.308  -4.473  1.00  0.00    -0.507 OA
ATOM     23  H   UNL     1       4.602  -1.849  -4.203  1.00  0.00     0.293 HD
ENDBRANCH  18  22
ENDBRANCH  11  13
ENDBRANCH   6  11
ENDBRANCH   1   5
BRANCH   3  24
ATOM     24  C   UNL     1      -2.669   0.133   2.331  1.00  0.00     0.109 C 
BRANCH  24  25
ATOM     25  C   UNL     1      -2.462   0.279   3.847  1.00  0.00     0.066 C 
BRANCH  25  26
ATOM     26  C   UNL     1      -3.552   1.086   4.569  1.00  0.00     0.182 CG0
ATOM     27  F   UNL     1      -2.988   2.258   4.997  1.00  0.00    -0.246 F 
ATOM     28  G   UNL     1      -4.802   1.466   3.755  1.00  0.00     0.000 G0
ENDBRANCH  25  26
ENDBRANCH  24  25
BRANCH  24  29
ATOM     29  C   UNL     1      -3.843  -0.836   1.981  1.00  0.00     0.118 C 
BRANCH  29  30
ATOM     30  C   UNL     1      -4.992  -0.879   3.009  1.00  0.00     0.108 C 
BRANCH  30  31
ATOM     31  N   UNL     1      -5.669   0.398   3.240  1.00  0.00    -0.312 NA
ATOM     32  H   UNL     1      -6.427   0.243   3.909  1.00  0.00     0.122 HD
BRANCH  31  33
ATOM     33  C   UNL     1      -4.802   1.466   3.755  1.00  0.00     0.118 CG0
ATOM     34  G   UNL     1      -3.552   1.086   4.569  1.00  0.00     0.000 G0
ENDBRANCH  31  33
ENDBRANCH  30  31
ENDBRANCH  29  30
BRANCH  29  35
ATOM     35  N   UNL     1      -4.381  -0.524   0.650  1.00  0.00    -0.346 N 
ATOM     36  C   UNL     1      -3.735  -0.893  -0.506  1.00  0.00     0.251 C 
ATOM     37  H   UNL     1      -5.204   0.066   0.636  1.00  0.00     0.164 HD
ATOM     38  O   UNL     1      -2.716  -1.581  -0.501  1.00  0.00    -0.269 OA
BRANCH  36  39
ATOM     39  C   UNL     1      -4.323  -0.437  -1.793  1.00  0.00     0.042 A 
ATOM     40  C   UNL     1      -4.008  -1.156  -2.947  1.00  0.00     0.034 A 
ATOM     41  C   UNL     1      -5.144   0.685  -1.890  1.00  0.00     0.034 A 
ATOM     42  C   UNL     1      -4.552  -0.738  -4.146  1.00  0.00     0.112 A 
ATOM     43  C   UNL     1      -5.636   1.022  -3.139  1.00  0.00     0.112 A 
ATOM     44  N   UNL     1      -5.365   0.332  -4.265  1.00  0.00    -0.265 NA
ENDBRANCH  36  39
ENDBRANCH  29  35
ENDBRANCH  24  29
ENDBRANCH   3  24
TORSDOF 8
