MODEL        10USER    Run = 10USERUSER    Estimated Free Energy of Binding    =  -7.20 kcal/mol  [=(1)+(2)+(3)-(4)]USERUSER    (1) Final Intermolecular Energy     = -11.38 kcal/molUSER        vdW + Hbond + desolv Energy     = -11.09 kcal/molUSER        Electrostatic Energy            =  -0.36 kcal/molUSER        Moving Ligand-Fixed Receptor    = -11.45 kcal/molUSER        Moving Ligand-Moving Receptor   =  +0.07 kcal/molUSER    (2) Final Total Internal Energy     =  -2.80 kcal/molUSER    (3) Torsional Free Energy           =  +4.18 kcal/molUSER    (4) Unbound System's Energy         =  -2.80 kcal/molUSERUSERREMARK SMILES COc1ccc(O)c(C(=O)c2ccc(C(=O)N[C@@H]3CCCNC[C@H]3NC(=O)c3ccncc3)cc2)c1FREMARK SMILES IDX 15 1 16 2 17 3 14 5 11 6 12 7 35 8 13 9 34 10 9 11 10 12REMARK SMILES IDX 8 13 3 14 4 15 36 16 5 17 6 18 37 19 2 20 1 21 7 22 18 24REMARK SMILES IDX 19 25 24 27 23 28 22 29 21 31 20 32 25 34 26 35 27 37 28 38REMARK SMILES IDX 29 39 33 40 30 41 32 42 31 43REMARK H PARENT 17 4 7 23 22 30 25 36REMARK Flexibility Score:   88.900USER                              x       y       z     vdW  Elec       q    TypeUSER                           _______ _______ _______ _____ _____    ______ ____ROOTATOM      1  C   UNL     1      39.667  43.706  24.572 -0.11 +0.01    +0.251 C  ATOM      2  O   UNL     1      40.206  42.689  24.995 -0.15 -0.00    -0.269 OA ATOM      3  N   UNL     1      38.559  44.278  25.165 -0.04 -0.01    -0.347 N  ATOM      4  H   UNL     1      38.054  44.983  24.645 +0.08 +0.01    +0.164 HD ENDROOTBRANCH   1   5ATOM      5  C   UNL     1      40.151  44.349  23.319 -0.18 +0.00    +0.039 A  ATOM      6  C   UNL     1      41.013  45.448  20.888 -0.33 +0.00    +0.023 A  ATOM      7  C   UNL     1      41.099  44.069  21.102 -0.32 +0.00    +0.013 A  ATOM      8  C   UNL     1      40.496  46.279  21.889 -0.09 +0.00    +0.013 A  ATOM      9  C   UNL     1      40.680  43.523  22.319 -0.28 +0.00    +0.014 A  ATOM     10  C   UNL     1      40.076  45.731  23.109 -0.23 +0.00    +0.014 A  BRANCH   6  11ATOM     11  C   UNL     1      41.393  45.968  19.556 -0.36 +0.02    +0.199 C  ATOM     12  O   UNL     1      42.593  46.094  19.305 -0.18 -0.08    -0.288 OA BRANCH  11  13ATOM     13  C   UNL     1      40.423  46.303  18.487 -0.40 -0.01    +0.104 A  ATOM     14  C   UNL     1      38.278  46.004  17.362 -0.28 -0.04    +0.155 A  ATOM     15  C   UNL     1      38.623  46.995  16.438 -0.39 -0.02    +0.053 A  ATOM     16  C   UNL     1      39.184  45.669  18.382 -0.30 -0.02    +0.179 A  ATOM     17  C   UNL     1      39.850  47.656  16.549 -0.46 -0.01    +0.051 A  ATOM     18  C   UNL     1      40.732  47.321  17.573 -0.42 -0.02    +0.130 A  ATOM     19  F   UNL     1      38.822  44.741  19.283 -0.10 +0.01    -0.202 F  BRANCH  14  20ATOM     20  O   UNL     1      37.104  45.300  17.365 -0.07 +0.17    -0.494 OA ATOM     21  C   UNL     1      35.905  46.036  17.139 -0.22 -0.18    +0.278 C  ENDBRANCH  14  20BRANCH  18  22ATOM     22  O   UNL     1      41.896  48.043  17.622 -0.42 +0.01    -0.507 OA ATOM     23  H   UNL     1      42.643  47.399  17.595 -0.38 -0.06    +0.293 HD ENDBRANCH  18  22ENDBRANCH  11  13ENDBRANCH   6  11ENDBRANCH   1   5BRANCH   3  24ATOM     24  C   UNL     1      37.831  43.580  26.232 -0.25 -0.01    +0.106 C  BRANCH  24  25ATOM     25  C   UNL     1      37.562  42.128  25.813 -0.39 -0.00    +0.028 CG0ATOM     26  G   UNL     1      37.027  41.203  26.918 +0.00 +0.00    +0.000 G0 ENDBRANCH  24  25BRANCH  24  27ATOM     27  C   UNL     1      36.551  44.372  26.622 -0.36 -0.02    +0.118 C  BRANCH  27  28ATOM     28  C   UNL     1      35.598  43.635  27.593 -0.51 -0.03    +0.108 C  BRANCH  28  29ATOM     29  N   UNL     1      34.853  42.490  27.059 -0.30 +0.06    -0.315 NA ATOM     30  H   UNL     1      33.938  42.436  27.501 +0.04 -0.02    +0.122 HD BRANCH  29  31ATOM     31  C   UNL     1      35.517  41.194  27.141 -0.63 -0.03    +0.081 C  BRANCH  31  32ATOM     32  C   UNL     1      37.027  41.203  26.918 -0.49 -0.00    +0.017 CG0ATOM     33  G   UNL     1      37.561  42.128  25.812 +0.00 +0.00    +0.000 G0 ENDBRANCH  31  32ENDBRANCH  29  31ENDBRANCH  28  29ENDBRANCH  27  28BRANCH  27  34ATOM     34  N   UNL     1      36.915  45.695  27.144 -0.17 +0.07    -0.346 N  ATOM     35  C   UNL     1      37.178  46.753  26.305 -0.24 -0.02    +0.251 C  ATOM     36  H   UNL     1      36.699  45.883  28.110 +0.05 -0.04    +0.164 HD ATOM     37  O   UNL     1      37.219  46.658  25.085 -0.83 -0.06    -0.269 OA BRANCH  35  38ATOM     38  C   UNL     1      37.389  48.071  26.952 -0.30 -0.00    +0.042 A  ATOM     39  C   UNL     1      36.281  48.897  27.149 -0.35 -0.00    +0.034 A  ATOM     40  C   UNL     1      38.656  48.511  27.339 -0.23 -0.00    +0.034 A  ATOM     41  C   UNL     1      36.485  50.124  27.749 -0.20 +0.01    +0.112 A  ATOM     42  C   UNL     1      38.754  49.758  27.929 -0.19 +0.02    +0.112 A  ATOM     43  N   UNL     1      37.695  50.570  28.148 -0.10 -0.06    -0.265 NA ENDBRANCH  35  38ENDBRANCH  27  34ENDBRANCH  24  27ENDBRANCH   3  24TORSDOF 8TERENDMDL