MODEL        1USER    Run = 1USERUSER    Estimated Free Energy of Binding    =  -7.40 kcal/mol  [=(1)+(2)+(3)-(4)]USERUSER    (1) Final Intermolecular Energy     = -11.57 kcal/molUSER        vdW + Hbond + desolv Energy     = -11.61 kcal/molUSER        Electrostatic Energy            =  -0.31 kcal/molUSER        Moving Ligand-Fixed Receptor    = -11.92 kcal/molUSER        Moving Ligand-Moving Receptor   =  +0.35 kcal/molUSER    (2) Final Total Internal Energy     =  -3.05 kcal/molUSER    (3) Torsional Free Energy           =  +4.18 kcal/molUSER    (4) Unbound System's Energy         =  -3.05 kcal/molUSERUSERREMARK SMILES COc1ccc(O)c(C(=O)c2ccc(C(=O)N[C@@H]3C[C@@H](F)CNC[C@H]3NC(=O)c3ccncc3)cc2)c1FREMARK SMILES IDX 15 1 16 2 17 3 14 5 11 6 12 7 36 8 13 9 35 10 9 11 10 12REMARK SMILES IDX 8 13 3 14 4 15 37 16 5 17 6 18 38 19 2 20 1 21 7 22 18 24REMARK SMILES IDX 19 25 20 26 21 27 25 29 24 30 23 31 22 33 26 35 27 36 28 38REMARK SMILES IDX 29 39 30 40 34 41 31 42 33 43 32 44REMARK H PARENT 17 4 7 23 23 32 26 37REMARK Flexibility Score:   88.900USER                              x       y       z     vdW  Elec       q    TypeUSER                           _______ _______ _______ _____ _____    ______ ____ROOTATOM      1  C   UNL     1      37.245  44.392  19.903 -0.25 -0.02    +0.251 C  ATOM      2  O   UNL     1      36.427  44.299  20.812 -0.31 +0.00    -0.269 OA ATOM      3  N   UNL     1      36.974  44.033  18.597 -0.11 +0.06    -0.347 N  ATOM      4  H   UNL     1      37.534  44.520  17.894 +0.11 -0.03    +0.164 HD ENDROOTBRANCH   1   5ATOM      5  C   UNL     1      38.598  44.962  20.166 -0.33 -0.00    +0.039 A  ATOM      6  C   UNL     1      41.148  46.069  20.560 -0.31 +0.00    +0.023 A  ATOM      7  C   UNL     1      40.363  45.696  21.659 -0.28 +0.00    +0.013 A  ATOM      8  C   UNL     1      40.667  45.868  19.262 -0.44 +0.00    +0.013 A  ATOM      9  C   UNL     1      39.089  45.153  21.463 -0.34 +0.00    +0.014 A  ATOM     10  C   UNL     1      39.391  45.328  19.068 -0.41 -0.00    +0.014 A  BRANCH   6  11ATOM     11  C   UNL     1      42.502  46.613  20.821 -0.31 +0.05    +0.199 C  ATOM     12  O   UNL     1      43.027  47.332  19.968 -0.39 -0.06    -0.288 OA BRANCH  11  13ATOM     13  C   UNL     1      43.248  46.382  22.078 -0.23 +0.03    +0.104 A  ATOM     14  C   UNL     1      44.350  44.905  23.678 -0.06 +0.03    +0.155 A  ATOM     15  C   UNL     1      44.664  46.006  24.476 -0.05 +0.01    +0.053 A  ATOM     16  C   UNL     1      43.650  45.106  22.479 -0.13 +0.06    +0.179 A  ATOM     17  C   UNL     1      44.298  47.291  24.070 -0.15 +0.01    +0.051 A  ATOM     18  C   UNL     1      43.607  47.477  22.874 -0.24 +0.03    +0.130 A  ATOM     19  F   UNL     1      43.390  44.042  21.700 -0.06 -0.06    -0.202 F  BRANCH  14  20ATOM     20  O   UNL     1      44.668  43.604  23.964 -0.00 -0.05    -0.494 OA ATOM     21  C   UNL     1      43.596  42.726  24.277 -0.12 -0.01    +0.278 C  ENDBRANCH  14  20BRANCH  18  22ATOM     22  O   UNL     1      43.316  48.772  22.536 -0.55 -0.11    -0.507 OA ATOM     23  H   UNL     1      43.284  48.827  21.553 -0.39 -0.06    +0.293 HD ENDBRANCH  18  22ENDBRANCH  11  13ENDBRANCH   6  11ENDBRANCH   1   5BRANCH   3  24ATOM     24  C   UNL     1      35.611  43.687  18.162 -0.31 -0.03    +0.109 C  BRANCH  24  25ATOM     25  C   UNL     1      34.897  42.802  19.196 -0.43 -0.01    +0.066 C  BRANCH  25  26ATOM     26  C   UNL     1      33.379  42.679  18.996 -0.32 -0.02    +0.182 CG0ATOM     27  F   UNL     1      32.768  43.252  20.079 -0.10 -0.03    -0.246 F  ATOM     28  G   UNL     1      32.778  43.343  17.744 +0.00 +0.00    +0.000 G0 ENDBRANCH  25  26ENDBRANCH  24  25BRANCH  24  29ATOM     29  C   UNL     1      35.673  43.023  16.750 -0.39 -0.04    +0.118 C  BRANCH  29  30ATOM     30  C   UNL     1      34.455  42.153  16.376 -0.18 -0.06    +0.108 C  BRANCH  30  31ATOM     31  N   UNL     1      33.163  42.841  16.416 -0.15 +0.15    -0.312 NA ATOM     32  H   UNL     1      32.443  42.190  16.092 -0.47 -0.08    +0.122 HD BRANCH  31  33ATOM     33  C   UNL     1      32.777  43.343  17.741 -0.29 -0.03    +0.118 CG0ATOM     34  G   UNL     1      33.377  42.681  18.994 +0.00 +0.00    +0.000 G0 ENDBRANCH  31  33ENDBRANCH  30  31ENDBRANCH  29  30BRANCH  29  35ATOM     35  N   UNL     1      35.888  44.044  15.716 -0.16 +0.14    -0.346 N  ATOM     36  C   UNL     1      37.096  44.679  15.554 -0.24 -0.09    +0.251 C  ATOM     37  H   UNL     1      35.064  44.323  15.196 +0.11 -0.08    +0.164 HD ATOM     38  O   UNL     1      38.094  44.372  16.202 -0.13 +0.07    -0.269 OA BRANCH  36  39ATOM     39  C   UNL     1      37.167  45.764  14.540 -0.37 -0.02    +0.042 A  ATOM     40  C   UNL     1      37.627  47.016  14.953 -0.41 -0.02    +0.034 A  ATOM     41  C   UNL     1      36.769  45.585  13.217 -0.48 -0.01    +0.034 A  ATOM     42  C   UNL     1      37.697  48.028  14.016 -0.45 -0.05    +0.112 A  ATOM     43  C   UNL     1      36.875  46.665  12.356 -0.56 -0.04    +0.112 A  ATOM     44  N   UNL     1      37.337  47.877  12.724 -0.93 +0.05    -0.265 NA ENDBRANCH  36  39ENDBRANCH  29  35ENDBRANCH  24  29ENDBRANCH   3  24TORSDOF 8TERENDMDL