MODEL        8USER    Run = 8USERUSER    Estimated Free Energy of Binding    = -13.62 kcal/mol  [=(1)+(2)+(3)-(4)]USERUSER    (1) Final Intermolecular Energy     = -16.60 kcal/molUSER        vdW + Hbond + desolv Energy     = -16.46 kcal/molUSER        Electrostatic Energy            =  -0.14 kcal/molUSER        Moving Ligand-Fixed Receptor    = -16.60 kcal/molUSER        Moving Ligand-Moving Receptor   =  +0.00 kcal/molUSER    (2) Final Total Internal Energy     =  -2.42 kcal/molUSER    (3) Torsional Free Energy           =  +2.98 kcal/molUSER    (4) Unbound System's Energy         =  -2.42 kcal/molUSERUSERREMARK SMILES O=S(=O)(N1CCN(Cc2ccc(-c3nc4ccccc4nc3-c3ccc(CN4CCC(n5c(O)nc6ccccc65)CC4)cc3)cc2)CC1)C(F)(F)FREMARK SMILES IDX 13 1 14 2 15 3 16 4 17 5 18 6 19 7 20 8 21 9 22 10 12 11REMARK SMILES IDX 9 12 10 13 47 14 11 15 46 16 8 17 7 18 4 19 5 20 49 21 6 22REMARK SMILES IDX 48 23 2 24 1 25 3 26 50 27 51 28 52 29 53 30 23 31 24 32REMARK SMILES IDX 45 33 25 34 44 35 26 36 27 37 28 38 29 39 43 40 30 41 42 42REMARK SMILES IDX 31 43 32 44 33 45 41 46 35 47 40 48 36 49 39 50 37 51 38 52REMARK SMILES IDX 34 53REMARK H PARENT 34 54USER                              x       y       z     vdW  Elec       q    TypeUSER                           _______ _______ _______ _____ _____    ______ ____ROOTATOM      1  C   UNL     1      33.380  42.349  17.836 -0.31 -0.03    +0.097 A  ATOM      2  N   UNL     1      32.239  41.854  17.281 -0.17 +0.09    -0.244 NA ATOM      3  C   UNL     1      31.548  40.949  17.994 -0.30 -0.01    +0.089 A  ATOM      4  C   UNL     1      30.382  40.406  17.464 -0.33 -0.00    +0.030 A  ATOM      5  C   UNL     1      29.635  39.458  18.165 -0.33 +0.00    +0.002 A  ATOM      6  C   UNL     1      30.060  39.048  19.422 -0.34 +0.00    +0.002 A  ATOM      7  C   UNL     1      31.228  39.588  19.965 -0.35 +0.00    +0.030 A  ATOM      8  C   UNL     1      31.980  40.530  19.273 -0.29 +0.01    +0.089 A  ATOM      9  N   UNL     1      33.097  41.029  19.832 -0.02 -0.07    -0.244 NA ATOM     10  C   UNL     1      33.796  41.956  19.118 -0.29 -0.00    +0.097 A  ENDROOTBRANCH   1  11ATOM     11  C   UNL     1      34.113  43.285  16.967 -0.35 -0.00    +0.002 A  ATOM     12  C   UNL     1      35.510  45.106  15.295 -0.33 +0.02    -0.034 A  ATOM     13  C   UNL     1      36.026  43.829  15.555 -0.38 -0.00    +0.006 A  ATOM     14  C   UNL     1      34.290  45.465  15.881 -0.31 -0.01    +0.006 A  ATOM     15  C   UNL     1      35.338  42.931  16.377 -0.44 -0.00    +0.011 A  ATOM     16  C   UNL     1      33.595  44.561  16.693 -0.31 -0.01    +0.011 A  BRANCH  12  17ATOM     17  C   UNL     1      36.276  46.077  14.421 -0.39 -0.07    +0.120 C  BRANCH  17  18ATOM     18  N   UNL     1      37.484  46.664  14.995 -0.17 +0.15    -0.296 NA ATOM     19  N   UNL     1      39.394  48.453  16.364 -0.29 +0.08    -0.192 NA ATOM     20  C   UNL     1      38.951  47.130  16.921 -0.38 -0.04    +0.118 C  ATOM     21  C   UNL     1      38.472  48.980  15.305 -0.36 -0.08    +0.118 C  ATOM     22  C   UNL     1      37.540  46.726  16.454 -0.36 -0.05    +0.101 C  ATOM     23  C   UNL     1      37.986  47.879  14.338 -0.51 -0.05    +0.101 C  BRANCH  19  24ATOM     24  S   UNL     1      41.065  48.559  15.960 -0.52 -0.04    +0.314 S  ATOM     25  O   UNL     1      41.791  48.481  17.217 -0.88 -0.01    -0.203 OA ATOM     26  O   UNL     1      41.298  47.540  14.948 -0.29 -0.00    -0.203 OA BRANCH  24  27ATOM     27  C   UNL     1      41.253  50.257  15.199 -0.23 -0.14    +0.511 C  ATOM     28  F   UNL     1      40.379  51.157  15.740 -0.19 +0.09    -0.155 F  ATOM     29  F   UNL     1      42.504  50.768  15.379 -0.23 +0.00    -0.155 F  ATOM     30  F   UNL     1      41.015  50.250  13.855 -0.13 +0.06    -0.155 F  ENDBRANCH  24  27ENDBRANCH  19  24ENDBRANCH  17  18ENDBRANCH  12  17ENDBRANCH   1  11BRANCH  10  31ATOM     31  C   UNL     1      34.968  42.502  19.824 -0.44 -0.00    +0.002 A  ATOM     32  C   UNL     1      35.434  43.796  19.545 -0.39 -0.00    +0.011 A  ATOM     33  C   UNL     1      35.665  41.746  20.781 -0.38 +0.00    +0.011 A  ATOM     34  C   UNL     1      36.539  44.328  20.217 -0.36 -0.00    +0.006 A  ATOM     35  C   UNL     1      36.774  42.273  21.450 -0.49 +0.00    +0.006 A  ATOM     36  C   UNL     1      37.229  43.568  21.172 -0.38 -0.00    -0.034 A  BRANCH  36  37ATOM     37  C   UNL     1      38.409  44.138  21.932 -0.32 +0.01    +0.120 C  BRANCH  37  38ATOM     38  N   UNL     1      38.063  45.200  22.894 -0.19 -0.03    -0.299 NA ATOM     39  C   UNL     1      37.745  44.611  24.206 -0.31 +0.01    +0.087 C  ATOM     40  C   UNL     1      39.103  46.225  22.998 -0.32 +0.01    +0.087 C  ATOM     41  C   UNL     1      37.977  45.556  25.389 -0.31 +0.00    +0.041 C  ATOM     42  C   UNL     1      38.555  47.428  23.772 -0.29 +0.01    +0.041 C  ATOM     43  C   UNL     1      37.708  47.008  24.988 -0.14 +0.02    +0.095 C  BRANCH  43  44ATOM     44  N   UNL     1      37.836  47.923  26.114 -0.17 -0.00    -0.291 N  ATOM     45  C   UNL     1      36.817  48.592  26.738 -0.22 -0.02    +0.295 A  ATOM     46  C   UNL     1      39.005  48.304  26.739 -0.22 +0.00    +0.072 A  ATOM     47  N   UNL     1      37.221  49.357  27.713 -0.17 -0.00    -0.195 NA ATOM     48  C   UNL     1      40.354  47.975  26.548 -0.21 +0.00    +0.029 A  ATOM     49  C   UNL     1      38.584  49.193  27.732 -0.19 +0.00    +0.092 A  ATOM     50  C   UNL     1      41.286  48.574  27.404 -0.23 +0.00    +0.002 A  ATOM     51  C   UNL     1      39.536  49.780  28.580 -0.23 +0.00    +0.031 A  ATOM     52  C   UNL     1      40.888  49.462  28.405 -0.25 +0.00    +0.002 A  BRANCH  45  53ATOM     53  O   UNL     1      35.543  48.492  26.416 -0.17 +0.09    -0.480 OA ATOM     54  H   UNL     1      35.263  47.753  26.987 -0.30 -0.13    +0.296 HD ENDBRANCH  45  53ENDBRANCH  43  44ENDBRANCH  37  38ENDBRANCH  36  37ENDBRANCH  10  31TORSDOF 10TERENDMDL