MODEL        2USER    Run = 2USERUSER    Estimated Free Energy of Binding    = -12.64 kcal/mol  [=(1)+(2)+(3)-(4)]USERUSER    (1) Final Intermolecular Energy     = -14.73 kcal/molUSER        vdW + Hbond + desolv Energy     = -14.66 kcal/molUSER        Electrostatic Energy            =  -0.07 kcal/molUSER        Moving Ligand-Fixed Receptor    = -14.73 kcal/molUSER        Moving Ligand-Moving Receptor   =  +0.00 kcal/molUSER    (2) Final Total Internal Energy     =  -1.85 kcal/molUSER    (3) Torsional Free Energy           =  +2.09 kcal/molUSER    (4) Unbound System's Energy         =  -1.85 kcal/molUSERUSERREMARK SMILES O=C(c1ccc(-c2nc3ccc(F)cc3nc2-c2ccc(CN3CCC(n4c(O)nc5cc(F)ccc54)CC3)cc2)cc1)N1CCSCC1REMARK SMILES IDX 18 1 19 2 20 3 21 4 40 5 41 6 17 7 7 8 8 9 9 10 16 11 10 12REMARK SMILES IDX 15 13 11 14 14 15 12 16 13 17 6 18 3 19 4 20 43 21 5 22REMARK SMILES IDX 42 23 2 24 44 25 45 26 49 27 46 28 48 29 47 30 1 31 22 32REMARK SMILES IDX 23 33 24 34 39 35 25 36 38 37 26 38 27 39 28 40 37 41 30 42REMARK SMILES IDX 36 43 31 44 35 45 32 46 33 47 34 48 29 49REMARK H PARENT 29 50USER                              x       y       z     vdW  Elec       q    TypeUSER                           _______ _______ _______ _____ _____    ______ ____ROOTATOM      1  C   UNL     1      37.907  43.870  21.138 -0.36 +0.00    +0.002 A  ATOM      2  C   UNL     1      38.630  44.358  22.241 -0.32 +0.00    +0.011 A  ATOM      3  C   UNL     1      38.556  43.737  23.492 -0.27 +0.00    +0.006 A  ATOM      4  C   UNL     1      37.759  42.601  23.675 -0.34 -0.00    -0.034 A  ATOM      5  C   UNL     1      37.040  42.102  22.582 -0.50 +0.00    +0.006 A  ATOM      6  C   UNL     1      37.122  42.720  21.330 -0.42 +0.00    +0.011 A  ENDROOTBRANCH   1   7ATOM      7  C   UNL     1      38.002  44.542  19.830 -0.30 -0.00    +0.097 A  ATOM      8  C   UNL     1      37.088  44.389  18.774 -0.29 -0.02    +0.097 A  ATOM      9  N   UNL     1      37.294  44.997  17.573 -0.20 +0.07    -0.244 NA ATOM     10  C   UNL     1      38.383  45.774  17.442 -0.33 -0.02    +0.090 A  ATOM     11  N   UNL     1      39.097  45.346  19.697 -0.24 +0.01    -0.244 NA ATOM     12  C   UNL     1      38.624  46.417  16.234 -0.39 -0.01    +0.033 A  ATOM     13  C   UNL     1      39.289  45.951  18.514 -0.35 -0.01    +0.092 A  ATOM     14  C   UNL     1      39.745  47.228  16.062 -0.47 -0.01    +0.041 A  ATOM     15  C   UNL     1      40.400  46.762  18.336 -0.40 -0.01    +0.069 A  ATOM     16  C   UNL     1      40.624  47.393  17.119 -0.43 -0.02    +0.125 A  ATOM     17  F   UNL     1      41.705  48.169  16.967 -0.16 +0.00    -0.207 F  BRANCH   8  18ATOM     18  C   UNL     1      35.839  43.609  18.838 -0.35 -0.00    +0.002 A  ATOM     19  C   UNL     1      33.468  42.088  18.928 -0.38 -0.00    +0.040 A  ATOM     20  C   UNL     1      34.476  41.752  18.023 -0.37 -0.00    +0.014 A  ATOM     21  C   UNL     1      33.611  43.204  19.757 -0.36 +0.00    +0.014 A  ATOM     22  C   UNL     1      35.651  42.506  17.982 -0.23 -0.00    +0.011 A  ATOM     23  C   UNL     1      34.789  43.955  19.711 -0.40 -0.00    +0.011 A  BRANCH  19  24ATOM     24  C   UNL     1      32.224  41.285  18.939 -0.26 -0.01    +0.253 C  ATOM     25  N   UNL     1      31.278  41.481  17.932 -0.11 +0.06    -0.337 N  ATOM     26  C   UNL     1      31.256  42.650  17.040 -0.27 -0.04    +0.130 C  ATOM     27  C   UNL     1      30.123  40.577  17.902 -0.27 -0.01    +0.130 C  ATOM     28  C   UNL     1      29.850  43.122  16.668 -0.27 -0.03    +0.091 C  ATOM     29  C   UNL     1      29.563  40.354  16.502 -0.39 -0.00    +0.091 C  ATOM     30  S   UNL     1      28.910  41.874  15.726 -0.34 +0.07    -0.158 SA ATOM     31  O   UNL     1      32.084  40.469  19.847 -0.82 -0.06    -0.269 OA ENDBRANCH  19  24ENDBRANCH   8  18ENDBRANCH   1   7BRANCH   4  32ATOM     32  C   UNL     1      37.668  41.937  25.035 -0.23 -0.00    +0.120 C  BRANCH  32  33ATOM     33  N   UNL     1      37.288  42.854  26.122 -0.13 +0.02    -0.299 NA ATOM     34  C   UNL     1      38.448  43.569  26.677 -0.23 -0.00    +0.087 C  ATOM     35  C   UNL     1      36.167  43.721  25.743 -0.35 -0.00    +0.087 C  ATOM     36  C   UNL     1      38.097  44.950  27.225 -0.29 -0.00    +0.041 C  ATOM     37  C   UNL     1      36.576  45.079  25.173 -0.08 +0.00    +0.041 C  ATOM     38  C   UNL     1      37.575  45.821  26.077 -0.31 -0.00    +0.095 C  BRANCH  38  39ATOM     39  N   UNL     1      37.112  47.127  26.525 -0.20 +0.03    -0.291 N  ATOM     40  C   UNL     1      37.369  48.307  25.877 -0.23 +0.01    +0.295 A  ATOM     41  C   UNL     1      36.341  47.438  27.627 -0.23 -0.02    +0.072 A  ATOM     42  N   UNL     1      36.834  49.345  26.458 -0.26 -0.00    -0.195 NA ATOM     43  C   UNL     1      35.769  46.681  28.661 -0.32 -0.01    +0.032 A  ATOM     44  C   UNL     1      36.184  48.826  27.550 -0.29 -0.01    +0.095 A  ATOM     45  C   UNL     1      35.008  47.366  29.613 -0.35 -0.01    +0.041 A  ATOM     46  C   UNL     1      35.428  49.499  28.520 -0.23 -0.00    +0.070 A  ATOM     47  C   UNL     1      34.845  48.745  29.537 -0.26 -0.01    +0.125 A  ATOM     48  F   UNL     1      34.101  49.366  30.464 -0.04 +0.00    -0.207 F  BRANCH  40  49ATOM     49  O   UNL     1      38.057  48.418  24.760 -0.22 -0.06    -0.480 OA ATOM     50  H   UNL     1      38.909  48.756  25.092 +0.16 +0.04    +0.296 HD ENDBRANCH  40  49ENDBRANCH  38  39ENDBRANCH  32  33ENDBRANCH   4  32TORSDOF 7TERENDMDL