MODEL        6USER    Run = 6USERUSER    Estimated Free Energy of Binding    = -11.39 kcal/mol  [=(1)+(2)+(3)-(4)]USERUSER    (1) Final Intermolecular Energy     = -13.48 kcal/molUSER        vdW + Hbond + desolv Energy     = -13.28 kcal/molUSER        Electrostatic Energy            =  -0.20 kcal/molUSER        Moving Ligand-Fixed Receptor    = -13.48 kcal/molUSER        Moving Ligand-Moving Receptor   =  +0.00 kcal/molUSER    (2) Final Total Internal Energy     =  -2.33 kcal/molUSER    (3) Torsional Free Energy           =  +2.09 kcal/molUSER    (4) Unbound System's Energy         =  -2.33 kcal/molUSERUSERREMARK SMILES CN1CCN(C(=O)c2ccc(-c3nc4ccccc4nc3-c3ccc(CN4CCC(n5c(O)nc6ccccc65)CC4)cc3)cc2)CC1REMARK SMILES IDX 22 1 23 2 24 3 25 4 43 5 44 6 21 7 12 8 13 9 14 10 20 11REMARK SMILES IDX 15 12 19 13 16 14 18 15 17 16 11 17 8 18 9 19 46 20 10 21REMARK SMILES IDX 45 22 6 23 2 24 3 25 48 26 4 27 47 28 5 29 1 30 7 31 26 32REMARK SMILES IDX 27 33 28 34 42 35 29 36 41 37 30 38 31 39 32 40 40 41 34 42REMARK SMILES IDX 39 43 35 44 38 45 36 46 37 47 33 48REMARK H PARENT 33 49USER                              x       y       z     vdW  Elec       q    TypeUSER                           _______ _______ _______ _____ _____    ______ ____ROOTATOM      1  C   UNL     1      29.450  41.882  17.217 -0.24 -0.00    +0.002 A  ATOM      2  C   UNL     1      30.390  41.533  16.234 -0.34 -0.00    +0.011 A  ATOM      3  C   UNL     1      31.219  42.496  15.650 -0.26 -0.00    +0.006 A  ATOM      4  C   UNL     1      31.114  43.844  16.009 -0.31 +0.01    -0.034 A  ATOM      5  C   UNL     1      30.186  44.197  17.000 -0.15 -0.00    +0.006 A  ATOM      6  C   UNL     1      29.364  43.233  17.590 -0.17 -0.00    +0.011 A  ENDROOTBRANCH   1   7ATOM      7  C   UNL     1      28.567  40.859  17.800 -0.16 -0.00    +0.097 A  ATOM      8  C   UNL     1      27.204  40.703  17.506 -0.18 +0.00    +0.097 A  ATOM      9  N   UNL     1      26.487  39.670  18.038 -0.17 -0.02    -0.244 NA ATOM     10  C   UNL     1      27.127  38.827  18.868 -0.16 +0.01    +0.089 A  ATOM     11  N   UNL     1      29.204  40.013  18.657 -0.10 -0.02    -0.244 NA ATOM     12  C   UNL     1      26.435  37.763  19.433 -0.20 -0.01    +0.030 A  ATOM     13  C   UNL     1      28.492  39.002  19.183 -0.23 +0.01    +0.089 A  ATOM     14  C   UNL     1      27.061  36.867  20.302 -0.31 -0.00    +0.002 A  ATOM     15  C   UNL     1      29.107  38.106  20.049 -0.30 +0.00    +0.030 A  ATOM     16  C   UNL     1      28.404  37.040  20.610 -0.32 -0.00    +0.002 A  BRANCH   8  17ATOM     17  C   UNL     1      26.397  41.602  16.656 -0.25 -0.00    +0.002 A  ATOM     18  C   UNL     1      24.775  43.223  15.014 -0.32 -0.00    +0.040 A  ATOM     19  C   UNL     1      24.937  43.541  16.362 -0.28 +0.00    +0.014 A  ATOM     20  C   UNL     1      25.442  42.125  14.465 -0.29 -0.01    +0.014 A  ATOM     21  C   UNL     1      25.731  42.727  17.177 -0.30 -0.00    +0.011 A  ATOM     22  C   UNL     1      26.237  41.320  15.285 -0.34 -0.00    +0.011 A  BRANCH  18  23ATOM     23  C   UNL     1      23.916  44.082  14.168 -0.22 +0.02    +0.253 C  ATOM     24  N   UNL     1      25.348  46.324  11.199 -0.60 +0.01    -0.303 NA ATOM     25  C   UNL     1      23.915  46.056  11.477 -0.15 +0.00    +0.105 C  ATOM     26  C   UNL     1      26.197  45.530  12.114 -0.22 -0.02    +0.105 C  ATOM     27  C   UNL     1      23.520  46.172  12.965 -0.17 +0.00    +0.135 C  ATOM     28  C   UNL     1      25.817  45.632  13.610 -0.27 -0.03    +0.135 C  ATOM     29  N   UNL     1      24.389  45.342  13.800 -0.11 -0.02    -0.336 N  ATOM     30  C   UNL     1      25.654  47.751  11.276 -0.33 -0.05    +0.105 C  ATOM     31  O   UNL     1      22.814  43.646  13.846 -0.53 -0.06    -0.269 OA ENDBRANCH  18  23ENDBRANCH   8  17ENDBRANCH   1   7BRANCH   4  32ATOM     32  C   UNL     1      31.970  44.903  15.341 -0.37 -0.07    +0.120 C  BRANCH  32  33ATOM     33  N   UNL     1      33.245  45.230  15.999 -0.14 +0.24    -0.299 NA ATOM     34  C   UNL     1      34.405  44.493  15.496 -0.20 -0.05    +0.087 C  ATOM     35  C   UNL     1      33.149  45.330  17.455 -0.34 -0.05    +0.087 C  ATOM     36  C   UNL     1      35.015  43.550  16.528 -0.41 -0.02    +0.041 C  ATOM     37  C   UNL     1      34.519  45.501  18.111 -0.46 -0.02    +0.041 C  ATOM     38  C   UNL     1      35.472  44.343  17.761 -0.30 -0.03    +0.095 C  BRANCH  38  39ATOM     39  N   UNL     1      35.773  43.479  18.896 -0.16 +0.05    -0.291 N  ATOM     40  C   UNL     1      35.166  42.295  19.208 -0.19 -0.03    +0.295 A  ATOM     41  C   UNL     1      36.732  43.702  19.865 -0.34 -0.01    +0.072 A  ATOM     42  N   UNL     1      35.642  41.735  20.287 -0.27 +0.00    -0.195 NA ATOM     43  C   UNL     1      37.666  44.724  20.085 -0.29 -0.00    +0.029 A  ATOM     44  C   UNL     1      36.620  42.599  20.715 -0.38 -0.00    +0.092 A  ATOM     45  C   UNL     1      38.495  44.604  21.207 -0.36 +0.00    +0.002 A  ATOM     46  C   UNL     1      37.460  42.499  21.833 -0.39 +0.00    +0.031 A  ATOM     47  C   UNL     1      38.396  43.512  22.069 -0.32 +0.00    +0.002 A  BRANCH  40  48ATOM     48  O   UNL     1      34.199  41.737  18.511 -0.14 +0.09    -0.480 OA ATOM     49  H   UNL     1      34.695  41.098  17.968 -0.24 -0.11    +0.296 HD ENDBRANCH  40  48ENDBRANCH  38  39ENDBRANCH  32  33ENDBRANCH   4  32TORSDOF 7TERENDMDL