REMARK SMILES O=S(=O)(N1CCN(Cc2ccc(-c3nc4ccccc4nc3-c3ccc(CN4CCC(n5c(O)nc6ccccc65)CC4)cc3)cc2)CC1)C(F)(F)F
REMARK SMILES IDX 13 1 14 2 15 3 16 4 17 5 18 6 19 7 20 8 21 9 22 10 12 11
REMARK SMILES IDX 9 12 10 13 47 14 11 15 46 16 8 17 7 18 4 19 5 20 49 21 6 22
REMARK SMILES IDX 48 23 2 24 1 25 3 26 50 27 51 28 52 29 53 30 23 31 24 32
REMARK SMILES IDX 45 33 25 34 44 35 26 36 27 37 28 38 29 39 43 40 30 41 42 42
REMARK SMILES IDX 31 43 32 44 33 45 41 46 35 47 40 48 36 49 39 50 37 51 38 52
REMARK SMILES IDX 34 53
REMARK H PARENT 34 54
ROOT
ATOM      1  C   UNL     1      -2.089  -2.286  -1.550  1.00  0.00     0.097 A 
ATOM      2  N   UNL     1      -2.860  -3.093  -2.330  1.00  0.00    -0.244 NA
ATOM      3  C   UNL     1      -2.227  -3.894  -3.205  1.00  0.00     0.089 A 
ATOM      4  C   UNL     1      -2.973  -4.727  -4.032  1.00  0.00     0.030 A 
ATOM      5  C   UNL     1      -2.360  -5.570  -4.960  1.00  0.00     0.002 A 
ATOM      6  C   UNL     1      -0.975  -5.583  -5.061  1.00  0.00     0.002 A 
ATOM      7  C   UNL     1      -0.216  -4.751  -4.234  1.00  0.00     0.030 A 
ATOM      8  C   UNL     1      -0.818  -3.906  -3.309  1.00  0.00     0.089 A 
ATOM      9  N   UNL     1      -0.052  -3.123  -2.528  1.00  0.00    -0.244 NA
ATOM     10  C   UNL     1      -0.687  -2.318  -1.631  1.00  0.00     0.097 A 
ENDROOT
BRANCH   1  11
ATOM     11  C   UNL     1      -2.857  -1.395  -0.665  1.00  0.00     0.002 A 
ATOM     12  C   UNL     1      -4.349   0.306   1.052  1.00  0.00    -0.034 A 
ATOM     13  C   UNL     1      -3.463   0.839   0.105  1.00  0.00     0.006 A 
ATOM     14  C   UNL     1      -4.480  -1.086   1.133  1.00  0.00     0.006 A 
ATOM     15  C   UNL     1      -2.729   0.002  -0.741  1.00  0.00     0.011 A 
ATOM     16  C   UNL     1      -3.756  -1.923   0.276  1.00  0.00     0.011 A 
BRANCH  12  17
ATOM     17  C   UNL     1      -5.121   1.222   1.978  1.00  0.00     0.120 C 
BRANCH  17  18
ATOM     18  N   UNL     1      -6.511   1.495   1.622  1.00  0.00    -0.296 NA
ATOM     19  N   UNL     1      -9.137   1.540   0.271  1.00  0.00    -0.192 NA
ATOM     20  C   UNL     1      -8.894   0.863   1.590  1.00  0.00     0.118 C 
ATOM     21  C   UNL     1      -7.874   1.796  -0.496  1.00  0.00     0.118 C 
ATOM     22  C   UNL     1      -7.442   0.376   1.755  1.00  0.00     0.101 C 
ATOM     23  C   UNL     1      -6.721   2.290   0.404  1.00  0.00     0.101 C 
BRANCH  19  24
ATOM     24  S   UNL     1     -10.216   2.881   0.320  1.00  0.00     0.314 S 
ATOM     25  O   UNL     1      -9.627   3.841   1.239  1.00  0.00    -0.203 OA
ATOM     26  O   UNL     1     -10.431   3.273  -1.064  1.00  0.00    -0.203 OA
BRANCH  24  27
ATOM     27  C   UNL     1     -11.798   2.180   1.029  1.00  0.00     0.511 C 
ATOM     28  F   UNL     1     -11.620   1.704   2.298  1.00  0.00    -0.155 F 
ATOM     29  F   UNL     1     -12.791   3.111   1.095  1.00  0.00    -0.155 F 
ATOM     30  F   UNL     1     -12.277   1.137   0.291  1.00  0.00    -0.155 F 
ENDBRANCH  24  27
ENDBRANCH  19  24
ENDBRANCH  17  18
ENDBRANCH  12  17
ENDBRANCH   1  11
BRANCH  10  31
ATOM     31  C   UNL     1       0.220  -1.542  -0.769  1.00  0.00     0.002 A 
ATOM     32  C   UNL     1       1.181  -0.684  -1.327  1.00  0.00     0.011 A 
ATOM     33  C   UNL     1       0.167  -1.645   0.631  1.00  0.00     0.011 A 
ATOM     34  C   UNL     1       2.040   0.065  -0.516  1.00  0.00     0.006 A 
ATOM     35  C   UNL     1       1.028  -0.901   1.444  1.00  0.00     0.006 A 
ATOM     36  C   UNL     1       1.980  -0.042   0.880  1.00  0.00    -0.034 A 
BRANCH  36  37
ATOM     37  C   UNL     1       2.881   0.785   1.775  1.00  0.00     0.120 C 
BRANCH  37  38
ATOM     38  N   UNL     1       4.287   0.850   1.336  1.00  0.00    -0.299 NA
ATOM     39  C   UNL     1       4.998   1.911   2.068  1.00  0.00     0.087 C 
ATOM     40  C   UNL     1       4.971  -0.440   1.451  1.00  0.00     0.087 C 
ATOM     41  C   UNL     1       6.509   1.689   2.181  1.00  0.00     0.041 C 
ATOM     42  C   UNL     1       6.310  -0.372   0.710  1.00  0.00     0.041 C 
ATOM     43  C   UNL     1       7.047   0.959   0.948  1.00  0.00     0.095 C 
BRANCH  43  44
ATOM     44  N   UNL     1       8.495   0.810   0.984  1.00  0.00    -0.291 N 
ATOM     45  C   UNL     1       9.216   0.085   1.894  1.00  0.00     0.295 A 
ATOM     46  C   UNL     1       9.406   1.392   0.127  1.00  0.00     0.072 A 
ATOM     47  N   UNL     1      10.504   0.137   1.695  1.00  0.00    -0.195 NA
ATOM     48  C   UNL     1       9.283   2.240  -0.982  1.00  0.00     0.029 A 
ATOM     49  C   UNL     1      10.645   0.948   0.596  1.00  0.00     0.092 A 
ATOM     50  C   UNL     1      10.465   2.633  -1.622  1.00  0.00     0.002 A 
ATOM     51  C   UNL     1      11.817   1.353  -0.062  1.00  0.00     0.031 A 
ATOM     52  C   UNL     1      11.713   2.198  -1.173  1.00  0.00     0.002 A 
BRANCH  45  53
ATOM     53  O   UNL     1       8.695  -0.613   2.883  1.00  0.00    -0.480 OA
ATOM     54  H   UNL     1       9.498  -0.981   3.296  1.00  0.00     0.296 HD
ENDBRANCH  45  53
ENDBRANCH  43  44
ENDBRANCH  37  38
ENDBRANCH  36  37
ENDBRANCH  10  31
TORSDOF 10
