REMARK SMILES O=C(c1ccc(-c2nc3ccc(F)cc3nc2-c2ccc(CN3CCC(n4c(O)nc5cc(F)ccc54)CC3)cc2)cc1)N1CCSCC1
REMARK SMILES IDX 18 1 19 2 20 3 21 4 40 5 41 6 17 7 7 8 8 9 9 10 16 11 10 12
REMARK SMILES IDX 15 13 11 14 14 15 12 16 13 17 6 18 3 19 4 20 43 21 5 22
REMARK SMILES IDX 42 23 2 24 44 25 45 26 49 27 46 28 48 29 47 30 1 31 22 32
REMARK SMILES IDX 23 33 24 34 39 35 25 36 38 37 26 38 27 39 28 40 37 41 30 42
REMARK SMILES IDX 36 43 31 44 35 45 32 46 33 47 34 48 29 49
REMARK H PARENT 29 50
ROOT
ATOM      1  C   UNL     1      -1.309   1.460  -2.144  1.00  0.00     0.002 A 
ATOM      2  C   UNL     1      -0.518   2.548  -1.736  1.00  0.00     0.011 A 
ATOM      3  C   UNL     1       0.406   2.426  -0.693  1.00  0.00     0.006 A 
ATOM      4  C   UNL     1       0.572   1.204  -0.031  1.00  0.00    -0.034 A 
ATOM      5  C   UNL     1      -0.205   0.111  -0.433  1.00  0.00     0.006 A 
ATOM      6  C   UNL     1      -1.123   0.234  -1.482  1.00  0.00     0.011 A 
ENDROOT
BRANCH   1   7
ATOM      7  C   UNL     1      -2.276   1.614  -3.246  1.00  0.00     0.097 A 
ATOM      8  C   UNL     1      -3.626   1.231  -3.196  1.00  0.00     0.097 A 
ATOM      9  N   UNL     1      -4.431   1.348  -4.289  1.00  0.00    -0.244 NA
ATOM     10  C   UNL     1      -3.897   1.871  -5.406  1.00  0.00     0.090 A 
ATOM     11  N   UNL     1      -1.744   2.160  -4.378  1.00  0.00    -0.244 NA
ATOM     12  C   UNL     1      -4.688   2.013  -6.541  1.00  0.00     0.033 A 
ATOM     13  C   UNL     1      -2.545   2.283  -5.449  1.00  0.00     0.092 A 
ATOM     14  C   UNL     1      -4.167   2.549  -7.718  1.00  0.00     0.041 A 
ATOM     15  C   UNL     1      -2.035   2.818  -6.623  1.00  0.00     0.069 A 
ATOM     16  C   UNL     1      -2.841   2.948  -7.746  1.00  0.00     0.125 A 
ATOM     17  F   UNL     1      -2.329   3.464  -8.871  1.00  0.00    -0.207 F 
BRANCH   8  18
ATOM     18  C   UNL     1      -4.317   0.704  -2.005  1.00  0.00     0.002 A 
ATOM     19  C   UNL     1      -5.650  -0.342   0.247  1.00  0.00     0.040 A 
ATOM     20  C   UNL     1      -5.733  -1.003  -0.979  1.00  0.00     0.014 A 
ATOM     21  C   UNL     1      -4.947   0.861   0.351  1.00  0.00     0.014 A 
ATOM     22  C   UNL     1      -5.069  -0.484  -2.093  1.00  0.00     0.011 A 
ATOM     23  C   UNL     1      -4.285   1.376  -0.768  1.00  0.00     0.011 A 
BRANCH  19  24
ATOM     24  C   UNL     1      -6.378  -0.902   1.409  1.00  0.00     0.253 C 
ATOM     25  N   UNL     1      -5.690  -1.115   2.604  1.00  0.00    -0.337 N 
ATOM     26  C   UNL     1      -4.224  -1.141   2.717  1.00  0.00     0.130 C 
ATOM     27  C   UNL     1      -6.472  -1.545   3.768  1.00  0.00     0.130 C 
ATOM     28  C   UNL     1      -3.696  -2.151   3.737  1.00  0.00     0.091 C 
ATOM     29  C   UNL     1      -5.884  -1.087   5.098  1.00  0.00     0.091 C 
ATOM     30  S   UNL     1      -4.229  -1.780   5.442  1.00  0.00    -0.158 SA
ATOM     31  O   UNL     1      -7.572  -1.152   1.263  1.00  0.00    -0.269 OA
ENDBRANCH  19  24
ENDBRANCH   8  18
ENDBRANCH   1   7
BRANCH   4  32
ATOM     32  C   UNL     1       1.563   1.076   1.109  1.00  0.00     0.120 C 
BRANCH  32  33
ATOM     33  N   UNL     1       2.526  -0.025   0.942  1.00  0.00    -0.299 NA
ATOM     34  C   UNL     1       3.346   0.133  -0.270  1.00  0.00     0.087 C 
ATOM     35  C   UNL     1       3.296  -0.272   2.166  1.00  0.00     0.087 C 
ATOM     36  C   UNL     1       4.737  -0.483  -0.138  1.00  0.00     0.041 C 
ATOM     37  C   UNL     1       4.635   0.462   2.236  1.00  0.00     0.041 C 
ATOM     38  C   UNL     1       5.495   0.239   0.980  1.00  0.00     0.095 C 
BRANCH  38  39
ATOM     39  N   UNL     1       6.798  -0.353   1.252  1.00  0.00    -0.291 N 
ATOM     40  C   UNL     1       7.997   0.272   1.029  1.00  0.00     0.295 A 
ATOM     41  C   UNL     1       7.088  -1.594   1.782  1.00  0.00     0.072 A 
ATOM     42  N   UNL     1       9.029  -0.450   1.368  1.00  0.00    -0.195 NA
ATOM     43  C   UNL     1       6.306  -2.677   2.211  1.00  0.00     0.032 A 
ATOM     44  C   UNL     1       8.486  -1.617   1.844  1.00  0.00     0.095 A 
ATOM     45  C   UNL     1       6.978  -3.788   2.730  1.00  0.00     0.041 A 
ATOM     46  C   UNL     1       9.144  -2.744   2.356  1.00  0.00     0.070 A 
ATOM     47  C   UNL     1       8.367  -3.813   2.798  1.00  0.00     0.125 A 
ATOM     48  F   UNL     1       8.975  -4.893   3.310  1.00  0.00    -0.207 F 
BRANCH  40  49
ATOM     49  O   UNL     1       8.134   1.491   0.551  1.00  0.00    -0.480 OA
ATOM     50  H   UNL     1       9.103   1.596   0.568  1.00  0.00     0.296 HD
ENDBRANCH  40  49
ENDBRANCH  38  39
ENDBRANCH  32  33
ENDBRANCH   4  32
TORSDOF 7
