REMARK SMILES CC[C@@H]1Cc2cc(NCC(N)=O)cc(-c3ccccc3)c2[S@H]1O
REMARK SMILES IDX 8 1 7 3 3 4 4 5 22 6 5 7 21 8 6 9 14 10 13 11 2 13 1 14
REMARK SMILES IDX 23 15 15 17 16 18 20 19 17 20 19 21 18 22 9 23 10 24 11 25
REMARK SMILES IDX 12 26
REMARK H PARENT 8 2 22 12 23 16 11 27 11 28
ROOT
ATOM      1  N   UNL     1       3.535  -0.200  -0.185  1.00  0.00    -0.376 N 
ATOM      2  H   UNL     1       3.867  -1.119  -0.481  1.00  0.00     0.161 HD
ENDROOT
BRANCH   1   3
ATOM      3  C   UNL     1       2.131  -0.187  -0.125  1.00  0.00     0.035 A 
ATOM      4  C   UNL     1      -2.191  -2.325   0.381  1.00  0.00     0.058 C 
ATOM      5  C   UNL     1      -0.717  -2.622   0.741  1.00  0.00     0.052 C 
ATOM      6  S   UNL     1      -2.312  -0.541   0.400  1.00  0.00    -0.120 S 
ATOM      7  C   UNL     1       0.095  -1.411   0.357  1.00  0.00    -0.030 A 
ATOM      8  C   UNL     1      -0.624  -0.228   0.198  1.00  0.00     0.021 A 
ATOM      9  C   UNL     1       1.477  -1.382   0.223  1.00  0.00     0.030 A 
ATOM     10  C   UNL     1      -0.042   0.992  -0.109  1.00  0.00    -0.002 A 
ATOM     11  C   UNL     1       1.360   0.988  -0.252  1.00  0.00     0.035 A 
ATOM     12  H   UNL     1      -2.937  -0.015   1.479  1.00  0.00     0.115 HD
BRANCH   4  13
ATOM     13  C   UNL     1      -3.203  -2.949   1.336  1.00  0.00     0.012 C 
ATOM     14  C   UNL     1      -3.168  -4.469   1.314  1.00  0.00     0.005 C 
ENDBRANCH   4  13
BRANCH   6  15
ATOM     15  O   UNL     1      -3.053  -0.272  -1.015  1.00  0.00    -0.350 OA
ATOM     16  H   UNL     1      -2.917   0.632  -1.391  1.00  0.00     0.226 HD
ENDBRANCH   6  15
BRANCH  10  17
ATOM     17  C   UNL     1      -0.811   2.228  -0.287  1.00  0.00    -0.017 A 
ATOM     18  C   UNL     1      -0.877   2.854  -1.543  1.00  0.00     0.009 A 
ATOM     19  C   UNL     1      -1.503   2.813   0.784  1.00  0.00     0.009 A 
ATOM     20  C   UNL     1      -1.619   4.024  -1.723  1.00  0.00     0.001 A 
ATOM     21  C   UNL     1      -2.244   3.983   0.606  1.00  0.00     0.001 A 
ATOM     22  C   UNL     1      -2.302   4.588  -0.648  1.00  0.00     0.000 A 
ENDBRANCH  10  17
ENDBRANCH   1   3
BRANCH   1  23
ATOM     23  C   UNL     1       4.218   0.863  -0.949  1.00  0.00     0.213 C 
BRANCH  23  24
ATOM     24  C   UNL     1       5.737   0.641  -0.943  1.00  0.00     0.236 C 
ATOM     25  N   UNL     1       6.198  -0.222   0.015  1.00  0.00    -0.368 N 
ATOM     26  O   UNL     1       6.508   1.202  -1.713  1.00  0.00    -0.273 OA
ATOM     27  H   UNL     1       7.200  -0.272   0.146  1.00  0.00     0.159 HD
ATOM     28  H   UNL     1       5.593  -0.412   0.807  1.00  0.00     0.159 HD
ENDBRANCH  23  24
ENDBRANCH   1  23
TORSDOF 6
