REMARK SMILES N#CC[C@H](C1CCCC1)n1cc(-c2ncnc3[nH]ccc23)cn1
REMARK SMILES IDX 4 1 3 2 2 3 1 4 5 5 6 6 9 7 7 8 8 9 10 10 11 11 23 12 12 13
REMARK SMILES IDX 22 14 13 15 14 16 21 17 15 18 20 19 17 20 16 21 19 22 18 23
REMARK H PARENT 18 24
ROOT
ATOM      1  C   UNL     1      -1.883   0.612  -0.498  1.00  0.00     0.124 C 
ENDROOT
BRANCH   1   2
ATOM      2  C   UNL     1      -1.872   2.134  -0.724  1.00  0.00     0.147 C 
BRANCH   2   3
ATOM      3  C   UNL     1      -1.047   2.847   0.258  1.00  0.00     0.064 C 
ATOM      4  N   UNL     1      -0.397   3.388   1.052  1.00  0.00    -0.198 NA
ENDBRANCH   2   3
ENDBRANCH   1   2
BRANCH   1   5
ATOM      5  C   UNL     1      -2.330   0.151   0.921  1.00  0.00     0.015 C 
ATOM      6  C   UNL     1      -3.723   0.644   1.329  1.00  0.00     0.006 C 
ATOM      7  C   UNL     1      -2.524  -1.370   1.015  1.00  0.00     0.006 C 
ATOM      8  C   UNL     1      -4.693  -0.314   0.647  1.00  0.00     0.000 C 
ATOM      9  C   UNL     1      -3.933  -1.629   0.487  1.00  0.00     0.000 C 
ENDBRANCH   1   5
BRANCH   1  10
ATOM     10  N   UNL     1      -0.587   0.053  -0.898  1.00  0.00    -0.268 N 
ATOM     11  C   UNL     1       0.568  -0.008  -0.169  1.00  0.00     0.119 A 
ATOM     12  N   UNL     1      -0.448  -0.421  -2.150  1.00  0.00    -0.181 NA
ATOM     13  C   UNL     1       1.525  -0.554  -0.999  1.00  0.00     0.039 A 
ATOM     14  C   UNL     1       0.826  -0.821  -2.195  1.00  0.00     0.145 A 
BRANCH  13  15
ATOM     15  C   UNL     1       2.899  -0.840  -0.662  1.00  0.00     0.086 A 
ATOM     16  N   UNL     1       3.476  -1.898  -1.284  1.00  0.00    -0.235 NA
ATOM     17  C   UNL     1       3.648  -0.068   0.236  1.00  0.00     0.045 A 
ATOM     18  C   UNL     1       4.754  -2.187  -0.978  1.00  0.00     0.224 A 
ATOM     19  C   UNL     1       3.478   1.103   1.033  1.00  0.00     0.032 A 
ATOM     20  C   UNL     1       4.954  -0.492   0.443  1.00  0.00     0.141 A 
ATOM     21  N   UNL     1       5.566  -1.543  -0.123  1.00  0.00    -0.219 NA
ATOM     22  C   UNL     1       4.661   1.335   1.704  1.00  0.00     0.085 A 
ATOM     23  N   UNL     1       5.547   0.355   1.339  1.00  0.00    -0.346 N 
ATOM     24  H   UNL     1       6.501   0.259   1.655  1.00  0.00     0.167 HD
ENDBRANCH  13  15
ENDBRANCH   1  10
TORSDOF 5
