MODEL        2USER    Run = 2USERUSER    Estimated Free Energy of Binding    =  -7.99 kcal/mol  [=(1)+(2)+(3)-(4)]USERUSER    (1) Final Intermolecular Energy     =  -9.18 kcal/molUSER        vdW + Hbond + desolv Energy     =  -9.07 kcal/molUSER        Electrostatic Energy            =  -0.11 kcal/molUSER        Moving Ligand-Fixed Receptor    =  -9.18 kcal/molUSER        Moving Ligand-Moving Receptor   =  +0.00 kcal/molUSER    (2) Final Total Internal Energy     =  -0.55 kcal/molUSER    (3) Torsional Free Energy           =  +1.19 kcal/molUSER    (4) Unbound System's Energy         =  -0.55 kcal/molUSERUSERREMARK SMILES CN(C)c1ccc(-c2ccc(-c3ccnc(N)n3)cc2)cc1REMARK SMILES IDX 8 1 9 2 10 3 11 4 19 5 20 6 7 7 4 8 5 9 22 10 6 11 21 12REMARK SMILES IDX 2 13 1 14 3 15 12 16 13 17 18 18 14 19 16 20 15 21 17 22REMARK H PARENT 17 23 17 24USER                              x       y       z     vdW  Elec       q    TypeUSER                           _______ _______ _______ _____ _____    ______ ____ROOTATOM      1  C   UNL     1      36.190  44.750  17.106 -0.31 +0.01    -0.018 A  ATOM      2  C   UNL     1      37.258  44.734  18.013 -0.35 -0.00    +0.009 A  ATOM      3  C   UNL     1      38.333  45.624  17.880 -0.38 -0.00    +0.011 A  ATOM      4  C   UNL     1      38.383  46.568  16.840 -0.40 -0.00    +0.000 A  ATOM      5  C   UNL     1      37.313  46.573  15.929 -0.38 -0.01    +0.011 A  ATOM      6  C   UNL     1      36.238  45.683  16.061 -0.35 -0.01    +0.009 A  ENDROOTBRANCH   1   7ATOM      7  C   UNL     1      35.062  43.816  17.243 -0.31 +0.01    -0.018 A  ATOM      8  C   UNL     1      32.853  41.983  17.502 -0.33 -0.01    +0.036 A  ATOM      9  C   UNL     1      33.982  41.919  18.335 -0.39 -0.01    +0.026 A  ATOM     10  C   UNL     1      32.862  43.013  16.549 -0.31 -0.01    +0.026 A  ATOM     11  C   UNL     1      35.062  42.807  18.211 -0.37 -0.00    +0.011 A  ATOM     12  C   UNL     1      33.940  43.905  16.414 -0.32 -0.01    +0.011 A  BRANCH   8  13ATOM     13  N   UNL     1      31.770  41.105  17.644 -0.12 +0.10    -0.378 N  ATOM     14  C   UNL     1      32.033  39.713  18.002 -0.42 -0.01    +0.143 C  ATOM     15  C   UNL     1      30.564  41.334  16.849 -0.30 -0.04    +0.143 C  ENDBRANCH   8  13ENDBRANCH   1   7BRANCH   4  16ATOM     16  C   UNL     1      39.525  47.500  16.721 -0.41 -0.02    +0.076 A  ATOM     17  C   UNL     1      39.571  48.518  15.788 -0.50 -0.02    +0.049 A  ATOM     18  N   UNL     1      40.535  47.304  17.600 -0.36 +0.03    -0.213 NA ATOM     19  C   UNL     1      40.699  49.301  15.798 -0.53 -0.03    +0.117 A  ATOM     20  C   UNL     1      41.581  48.130  17.535 -0.25 -0.01    +0.220 A  ATOM     21  N   UNL     1      41.720  49.119  16.653 -0.88 -0.04    -0.222 NA BRANCH  20  22ATOM     22  N   UNL     1      42.620  47.913  18.416 -0.28 -0.00    -0.368 N  ATOM     23  H   UNL     1      42.890  48.789  18.839 -0.31 -0.01    +0.159 HD ATOM     24  H   UNL     1      43.342  47.375  17.958 -0.51 -0.01    +0.159 HD ENDBRANCH  20  22ENDBRANCH   4  16TORSDOF 4TERENDMDL