REMARK SMILES COC1=c2cc[nH]c2=C(N2CC[C@@H](Cc3ccccc3)C2=O)C[C@@H]1C
REMARK SMILES IDX 3 1 4 2 5 3 6 4 7 5 8 6 9 7 23 8 24 9 25 10 2 12 1 13 10 14
REMARK SMILES IDX 11 15 21 16 12 17 13 18 22 19 14 20 15 21 16 22 20 23 17 24
REMARK SMILES IDX 19 25 18 26
REMARK H PARENT 7 11
ROOT
ATOM      1  C   UNL     1      -4.430   0.103   0.232  1.00  0.00     0.108 C 
ATOM      2  C   UNL     1      -3.686   0.728  -0.694  1.00  0.00     0.039 A 
ATOM      3  C   UNL     1      -4.102   1.563  -1.811  1.00  0.00     0.031 A 
ATOM      4  C   UNL     1      -2.979   1.816  -2.505  1.00  0.00     0.083 A 
ATOM      5  N   UNL     1      -1.887   1.195  -1.939  1.00  0.00    -0.360 N 
ATOM      6  C   UNL     1      -2.216   0.626  -0.728  1.00  0.00     0.069 A 
ATOM      7  C   UNL     1      -1.491   0.153   0.306  1.00  0.00     0.046 C 
ATOM      8  C   UNL     1      -2.273  -0.308   1.540  1.00  0.00     0.067 C 
ATOM      9  C   UNL     1      -3.755  -0.712   1.312  1.00  0.00     0.058 C 
ATOM     10  C   UNL     1      -3.853  -2.207   0.984  1.00  0.00     0.016 C 
ATOM     11  H   UNL     1      -0.939   1.560  -2.060  1.00  0.00     0.166 HD
ENDROOT
BRANCH   1  12
ATOM     12  O   UNL     1      -5.804   0.192   0.331  1.00  0.00    -0.500 OA
ATOM     13  C   UNL     1      -6.478  -0.502  -0.719  1.00  0.00     0.278 C 
ENDBRANCH   1  12
BRANCH   7  14
ATOM     14  N   UNL     1      -0.091   0.122   0.368  1.00  0.00    -0.314 N 
ATOM     15  C   UNL     1       0.630  -0.520   1.451  1.00  0.00     0.126 C 
ATOM     16  C   UNL     1       0.825   0.784  -0.481  1.00  0.00     0.230 C 
ATOM     17  C   UNL     1       2.047  -0.662   0.936  1.00  0.00     0.036 C 
ATOM     18  C   UNL     1       2.219   0.590   0.093  1.00  0.00     0.085 C 
ATOM     19  O   UNL     1       0.605   1.474  -1.466  1.00  0.00    -0.274 OA
BRANCH  18  20
ATOM     20  C   UNL     1       3.276   0.478  -1.002  1.00  0.00     0.049 C 
BRANCH  20  21
ATOM     21  C   UNL     1       4.670   0.309  -0.447  1.00  0.00    -0.047 A 
ATOM     22  C   UNL     1       5.296  -0.945  -0.461  1.00  0.00     0.004 A 
ATOM     23  C   UNL     1       5.349   1.402   0.106  1.00  0.00     0.004 A 
ATOM     24  C   UNL     1       6.577  -1.100   0.069  1.00  0.00     0.000 A 
ATOM     25  C   UNL     1       6.631   1.244   0.636  1.00  0.00     0.000 A 
ATOM     26  C   UNL     1       7.244  -0.007   0.618  1.00  0.00     0.000 A 
ENDBRANCH  20  21
ENDBRANCH  18  20
ENDBRANCH   7  14
TORSDOF 4
