MODEL        6USER    Run = 6USERUSER    Estimated Free Energy of Binding    =  -9.27 kcal/mol  [=(1)+(2)+(3)-(4)]USERUSER    (1) Final Intermolecular Energy     = -12.55 kcal/molUSER        vdW + Hbond + desolv Energy     = -12.45 kcal/molUSER        Electrostatic Energy            =  -0.11 kcal/molUSER        Moving Ligand-Fixed Receptor    = -12.55 kcal/molUSER        Moving Ligand-Moving Receptor   =  +0.00 kcal/molUSER    (2) Final Total Internal Energy     =  -1.44 kcal/molUSER    (3) Torsional Free Energy           =  +3.28 kcal/molUSER    (4) Unbound System's Energy         =  -1.44 kcal/molUSERUSERREMARK SMILES CCCNC=NC=NC(=O)N(C)Cc1cc(-c2ccc(Cl)cc2)cnc1C1=CN=CNC1REMARK SMILES IDX 8 1 7 2 6 3 5 4 4 5 3 7 2 8 1 9 9 10 10 11 11 12 12 13 13 14REMARK SMILES IDX 14 15 15 16 26 17 16 18 25 19 24 20 27 21 28 22 32 23 29 24REMARK SMILES IDX 31 25 30 26 17 28 18 29 23 30 19 31 22 32 20 33 21 34REMARK H PARENT 4 6 31 27USER                              x       y       z     vdW  Elec       q    TypeUSER                           _______ _______ _______ _____ _____    ______ ____ROOTATOM      1  N   UNL     1      33.935  45.088  16.589 -0.20 +0.13    -0.182 NA ENDROOTBRANCH   1   2ATOM      2  C   UNL     1      32.774  45.643  16.468 -0.03 -0.20    +0.229 C  BRANCH   2   3ATOM      3  N   UNL     1      31.596  44.960  16.501 -0.64 +0.07    -0.227 NA BRANCH   3   4ATOM      4  C   UNL     1      31.560  43.800  15.949 -0.27 -0.09    +0.194 C  ATOM      5  N   UNL     1      31.666  42.524  16.450 -0.09 +0.17    -0.376 N  ATOM      6  H   UNL     1      31.486  41.816  15.741 -0.41 -0.12    +0.161 HD BRANCH   5   7ATOM      7  C   UNL     1      32.803  42.126  17.277 -0.31 -0.04    +0.113 C  BRANCH   7   8ATOM      8  C   UNL     1      32.626  42.656  18.701 -0.41 -0.00    +0.018 C  ATOM      9  C   UNL     1      33.946  42.757  19.453 -0.47 -0.00    +0.006 C  ENDBRANCH   7   8ENDBRANCH   5   7ENDBRANCH   3   4ENDBRANCH   2   3ENDBRANCH   1   2BRANCH   1  10ATOM     10  C   UNL     1      34.775  45.655  17.502 -0.20 -0.23    +0.345 C  ATOM     11  O   UNL     1      34.493  46.693  18.095 -0.58 +0.22    -0.246 OA BRANCH  10  12ATOM     12  N   UNL     1      36.004  45.026  17.661 -0.12 +0.12    -0.322 N  ATOM     13  C   UNL     1      36.553  44.678  18.961 -0.29 -0.03    +0.149 C  BRANCH  12  14ATOM     14  C   UNL     1      36.845  44.801  16.492 -0.29 -0.06    +0.159 C  BRANCH  14  15ATOM     15  C   UNL     1      38.021  45.748  16.410 -0.37 +0.00    -0.002 A  ATOM     16  C   UNL     1      38.936  45.789  17.481 -0.40 -0.00    +0.018 A  ATOM     17  C   UNL     1      38.316  46.528  15.288 -0.36 -0.03    +0.074 A  ATOM     18  C   UNL     1      40.089  46.578  17.433 -0.49 -0.00    +0.000 A  ATOM     19  N   UNL     1      39.435  47.287  15.201 -0.27 +0.07    -0.255 NA ATOM     20  C   UNL     1      40.277  47.301  16.261 -0.42 -0.02    +0.120 A  BRANCH  17  21ATOM     21  C   UNL     1      37.484  46.595  14.084 -0.50 -0.01    +0.016 C  ATOM     22  C   UNL     1      37.028  45.498  13.455 -0.45 -0.04    +0.120 C  ATOM     23  C   UNL     1      37.096  47.966  13.621 -0.52 -0.07    +0.153 C  ATOM     24  N   UNL     1      36.239  45.524  12.333 -0.37 +0.10    -0.247 NA ATOM     25  N   UNL     1      36.520  47.891  12.290 -0.37 +0.15    -0.372 N  ATOM     26  C   UNL     1      36.033  46.698  11.833 -0.51 -0.10    +0.192 C  ATOM     27  H   UNL     1      36.068  48.735  11.962 -0.17 -0.07    +0.161 HD ENDBRANCH  17  21BRANCH  18  28ATOM     28  C   UNL     1      41.051  46.622  18.544 -0.50 +0.00    -0.017 A  ATOM     29  C   UNL     1      40.807  45.925  19.741 -0.40 +0.00    +0.010 A  ATOM     30  C   UNL     1      42.245  47.360  18.445 -0.50 -0.00    +0.010 A  ATOM     31  C   UNL     1      41.725  45.959  20.797 -0.34 +0.00    +0.021 A  ATOM     32  C   UNL     1      43.164  47.396  19.500 -0.45 +0.00    +0.021 A  ATOM     33  C   UNL     1      42.901  46.692  20.671 -0.36 +0.01    +0.041 A  ATOM     34  Cl  UNL     1      44.029  46.732  21.970 -0.42 -0.04    -0.084 Cl ENDBRANCH  18  28ENDBRANCH  14  15ENDBRANCH  12  14ENDBRANCH  10  12ENDBRANCH   1  10TORSDOF 11TERENDMDL