REMARK SMILES O=C(O)C=CC=C[C@@H](F)n1nnc2cc(N3CCC(O)CC3)ccc21
REMARK SMILES IDX 6 1 5 2 4 3 2 4 1 5 3 6 7 8 8 9 9 10 10 11 11 12 25 13 12 14
REMARK SMILES IDX 24 15 13 16 23 17 14 18 15 19 16 20 17 21 22 22 18 23 21 24
REMARK SMILES IDX 19 25 20 26
REMARK H PARENT 3 7 20 27
ROOT
ATOM      1  C   UNL     1       4.744   0.671   0.081  1.00  0.00     0.001 C 
ENDROOT
BRANCH   1   2
ATOM      2  C   UNL     1       5.662   0.801  -1.029  1.00  0.00     0.007 C 
BRANCH   2   3
ATOM      3  C   UNL     1       6.300  -0.183  -1.680  1.00  0.00     0.093 C 
BRANCH   3   4
ATOM      4  C   UNL     1       6.198  -1.627  -1.413  1.00  0.00     0.328 C 
ATOM      5  O   UNL     1       5.513  -2.200  -0.590  1.00  0.00    -0.247 OA
BRANCH   4   6
ATOM      6  O   UNL     1       7.010  -2.297  -2.248  1.00  0.00    -0.478 OA
ATOM      7  H   UNL     1       6.880  -3.237  -2.003  1.00  0.00     0.297 HD
ENDBRANCH   4   6
ENDBRANCH   3   4
ENDBRANCH   2   3
ENDBRANCH   1   2
BRANCH   1   8
ATOM      8  C   UNL     1       4.131   1.724   0.644  1.00  0.00     0.034 C 
BRANCH   8   9
ATOM      9  C   UNL     1       3.172   1.630   1.799  1.00  0.00     0.310 C 
ATOM     10  F   UNL     1       3.616   2.415   2.824  1.00  0.00    -0.217 F 
BRANCH   9  11
ATOM     11  N   UNL     1       1.819   2.005   1.400  1.00  0.00    -0.207 N 
ATOM     12  N   UNL     1       1.441   3.302   1.368  1.00  0.00    -0.063 NA
ATOM     13  C   UNL     1       0.806   1.176   0.986  1.00  0.00     0.093 A 
ATOM     14  N   UNL     1       0.181   3.341   0.955  1.00  0.00    -0.130 NA
ATOM     15  C   UNL     1       0.681  -0.202   0.816  1.00  0.00     0.032 A 
ATOM     16  C   UNL     1      -0.228   2.058   0.711  1.00  0.00     0.115 A 
ATOM     17  C   UNL     1      -0.564  -0.666   0.358  1.00  0.00     0.028 A 
ATOM     18  C   UNL     1      -1.461   1.562   0.254  1.00  0.00     0.058 A 
ATOM     19  C   UNL     1      -1.656   0.180   0.074  1.00  0.00     0.039 A 
BRANCH  19  20
ATOM     20  N   UNL     1      -2.866  -0.338  -0.381  1.00  0.00    -0.371 N 
ATOM     21  C   UNL     1      -3.281  -1.688   0.023  1.00  0.00     0.119 C 
ATOM     22  C   UNL     1      -3.850   0.523  -1.046  1.00  0.00     0.119 C 
ATOM     23  C   UNL     1      -4.797  -1.772   0.137  1.00  0.00     0.053 C 
ATOM     24  C   UNL     1      -4.758  -0.305  -1.952  1.00  0.00     0.053 C 
ATOM     25  C   UNL     1      -5.465  -1.425  -1.189  1.00  0.00     0.118 C 
BRANCH  25  26
ATOM     26  O   UNL     1      -6.830  -1.075  -0.952  1.00  0.00    -0.393 OA
ATOM     27  H   UNL     1      -6.848  -0.296  -0.370  1.00  0.00     0.210 HD
ENDBRANCH  25  26
ENDBRANCH  19  20
ENDBRANCH   9  11
ENDBRANCH   8   9
ENDBRANCH   1   8
TORSDOF 9
