REMARK SMILES Cc1ccc(F)cc1-c1cccc(C(=O)Nc2cccc(C(=O)N(C)C)c2)c1N
REMARK SMILES IDX 14 1 15 2 16 3 13 5 9 6 10 7 28 8 11 9 12 10 8 11 2 12 3 13
REMARK SMILES IDX 4 14 7 15 5 16 1 17 6 18 29 19 17 22 18 23 27 24 19 25 21 26
REMARK SMILES IDX 20 27 22 28 24 29 23 30 25 31 26 32
REMARK H PARENT 16 4 29 20 29 21
ROOT
ATOM      1  C   UNL     1       0.026  -1.039   0.036  1.00  0.00     0.257 C 
ATOM      2  O   UNL     1       0.280  -2.121   0.551  1.00  0.00    -0.269 OA
ATOM      3  N   UNL     1      -1.204  -0.397   0.056  1.00  0.00    -0.322 N 
ATOM      4  H   UNL     1      -1.224   0.560  -0.272  1.00  0.00     0.170 HD
ENDROOT
BRANCH   1   5
ATOM      5  C   UNL     1       1.121  -0.265  -0.635  1.00  0.00     0.063 A 
ATOM      6  C   UNL     1       3.423   0.534  -0.740  1.00  0.00     0.006 A 
ATOM      7  C   UNL     1       3.082   1.285  -1.881  1.00  0.00     0.011 A 
ATOM      8  C   UNL     1       2.429  -0.245  -0.092  1.00  0.00     0.052 A 
ATOM      9  C   UNL     1       1.795   1.247  -2.411  1.00  0.00     0.002 A 
ATOM     10  C   UNL     1       0.819   0.470  -1.796  1.00  0.00     0.016 A 
BRANCH   6  11
ATOM     11  C   UNL     1       4.816   0.592  -0.255  1.00  0.00    -0.010 A 
ATOM     12  C   UNL     1       5.787  -0.370  -0.623  1.00  0.00    -0.043 A 
ATOM     13  C   UNL     1       7.096  -0.265  -0.117  1.00  0.00     0.007 A 
ATOM     14  C   UNL     1       7.449   0.783   0.730  1.00  0.00     0.039 A 
ATOM     15  C   UNL     1       5.194   1.642   0.601  1.00  0.00     0.048 A 
ATOM     16  C   UNL     1       6.495   1.727   1.080  1.00  0.00     0.123 A 
ATOM     17  C   UNL     1       5.444  -1.528  -1.524  1.00  0.00     0.045 C 
ATOM     18  F   UNL     1       6.832   2.735   1.895  1.00  0.00    -0.207 F 
ENDBRANCH   6  11
BRANCH   8  19
ATOM     19  N   UNL     1       2.798  -1.103   0.959  1.00  0.00    -0.398 N 
ATOM     20  H   UNL     1       2.026  -1.574   1.433  1.00  0.00     0.156 HD
ATOM     21  H   UNL     1       3.555  -0.796   1.557  1.00  0.00     0.156 HD
ENDBRANCH   8  19
ENDBRANCH   1   5
BRANCH   3  22
ATOM     22  C   UNL     1      -2.417  -0.882   0.592  1.00  0.00     0.042 A 
ATOM     23  C   UNL     1      -2.579  -2.164   1.126  1.00  0.00     0.026 A 
ATOM     24  C   UNL     1      -3.515  -0.015   0.571  1.00  0.00     0.040 A 
ATOM     25  C   UNL     1      -3.811  -2.569   1.655  1.00  0.00     0.003 A 
ATOM     26  C   UNL     1      -4.753  -0.434   1.077  1.00  0.00     0.042 A 
ATOM     27  C   UNL     1      -4.899  -1.702   1.641  1.00  0.00     0.014 A 
BRANCH  26  28
ATOM     28  C   UNL     1      -5.907   0.490   1.078  1.00  0.00     0.253 C 
ATOM     29  N   UNL     1      -6.325   1.046  -0.132  1.00  0.00    -0.345 N 
ATOM     30  O   UNL     1      -6.429   0.742   2.161  1.00  0.00    -0.269 OA
ATOM     31  C   UNL     1      -7.402   2.021  -0.085  1.00  0.00     0.146 C 
ATOM     32  C   UNL     1      -6.069   0.447  -1.435  1.00  0.00     0.146 C 
ENDBRANCH  26  28
ENDBRANCH   3  22
TORSDOF 5
