MODEL        3USER    Run = 3USERUSER    Estimated Free Energy of Binding    = -10.31 kcal/mol  [=(1)+(2)+(3)-(4)]USERUSER    (1) Final Intermolecular Energy     = -11.80 kcal/molUSER        vdW + Hbond + desolv Energy     = -11.70 kcal/molUSER        Electrostatic Energy            =  -0.10 kcal/molUSER        Moving Ligand-Fixed Receptor    = -11.80 kcal/molUSER        Moving Ligand-Moving Receptor   =  +0.00 kcal/molUSER    (2) Final Total Internal Energy     =  -0.93 kcal/molUSER    (3) Torsional Free Energy           =  +1.49 kcal/molUSER    (4) Unbound System's Energy         =  -0.93 kcal/molUSERUSERREMARK SMILES CCN1C(Oc2ccc(Cl)cc2)=CC2=C(I)C(N[C@H]3CC[C@@H](N)CC3)=N[C@]21CREMARK SMILES IDX 3 1 4 2 13 3 14 4 15 5 16 6 17 7 18 8 26 9 27 10 28 11 2 13REMARK SMILES IDX 1 14 5 15 6 16 7 17 12 18 8 19 11 20 9 21 10 22 19 23 25 24REMARK SMILES IDX 20 25 24 26 21 27 22 28 23 29REMARK H PARENT 18 12 23 30 23 31USER                              x       y       z     vdW  Elec       q    TypeUSER                           _______ _______ _______ _____ _____    ______ ____ROOTATOM      1  N   UNL     1      39.030  45.607  22.661 -0.16 -0.03    -0.314 N  ATOM      2  C   UNL     1      37.952  44.949  23.253 -0.24 +0.02    +0.198 C  ATOM      3  C   UNL     1      37.338  44.134  22.370 -0.38 +0.01    +0.076 C  ATOM      4  C   UNL     1      38.025  44.331  21.120 -0.41 +0.00    +0.022 C  ATOM      5  C   UNL     1      37.621  44.391  19.860 -0.38 -0.00    +0.063 C  ATOM      6  I   UNL     1      35.909  43.880  18.997 -1.03 +0.01    -0.040 I  ATOM      7  C   UNL     1      38.606  45.384  19.312 -0.31 -0.01    +0.138 C  ATOM      8  N   UNL     1      38.544  45.842  18.013 -0.17 +0.07    -0.367 N  ATOM      9  N   UNL     1      39.505  45.842  20.156 -0.22 -0.00    -0.235 NA ATOM     10  C   UNL     1      39.328  45.029  21.359 -0.29 +0.01    +0.161 C  ATOM     11  C   UNL     1      40.505  44.051  21.459 -0.30 +0.00    +0.067 C  ATOM     12  H   UNL     1      37.686  45.631  17.514 +0.10 -0.05    +0.162 HD ENDROOTBRANCH   1  13ATOM     13  C   UNL     1      39.840  46.662  23.227 -0.25 +0.01    +0.119 C  ATOM     14  C   UNL     1      38.990  47.682  23.970 -0.42 +0.00    +0.027 C  ENDBRANCH   1  13BRANCH   2  15ATOM     15  O   UNL     1      37.560  45.233  24.539 -0.38 -0.06    -0.441 OA BRANCH  15  16ATOM     16  C   UNL     1      37.137  44.191  25.330 -0.25 +0.00    +0.129 A  ATOM     17  C   UNL     1      36.124  44.339  26.280 -0.27 -0.01    +0.049 A  ATOM     18  C   UNL     1      37.707  42.939  25.096 -0.29 +0.00    +0.049 A  ATOM     19  C   UNL     1      35.708  43.236  27.029 -0.48 -0.00    +0.024 A  ATOM     20  C   UNL     1      37.289  41.836  25.842 -0.35 -0.00    +0.024 A  ATOM     21  C   UNL     1      36.295  41.989  26.808 -0.47 -0.01    +0.041 A  ATOM     22  Cl  UNL     1      35.782  40.630  27.730 -0.68 +0.04    -0.084 Cl ENDBRANCH  15  16ENDBRANCH   2  15BRANCH   8  23ATOM     23  C   UNL     1      39.235  47.045  17.571 -0.33 -0.02    +0.080 C  ATOM     24  C   UNL     1      40.740  46.868  17.782 -0.56 -0.00    +0.026 C  ATOM     25  C   UNL     1      38.913  47.322  16.094 -0.50 -0.01    +0.026 C  ATOM     26  C   UNL     1      41.536  48.111  17.372 -0.49 -0.00    +0.021 C  ATOM     27  C   UNL     1      40.004  48.116  15.364 -0.61 -0.01    +0.021 C  ATOM     28  C   UNL     1      40.814  48.980  16.331 -0.56 -0.01    +0.050 C  BRANCH  28  29ATOM     29  N   UNL     1      41.770  49.808  15.602 -0.79 -0.00    -0.328 NA ATOM     30  H   UNL     1      41.719  50.773  15.922 -0.31 -0.02    +0.119 HD ATOM     31  H   UNL     1      41.530  49.823  14.612 +0.08 -0.02    +0.119 HD ENDBRANCH  28  29ENDBRANCH   8  23TORSDOF 5TERENDMDL