MODEL        3USER    Run = 3USERUSER    Estimated Free Energy of Binding    =  -8.12 kcal/mol  [=(1)+(2)+(3)-(4)]USERUSER    (1) Final Intermolecular Energy     = -10.81 kcal/molUSER        vdW + Hbond + desolv Energy     = -10.55 kcal/molUSER        Electrostatic Energy            =  -0.26 kcal/molUSER        Moving Ligand-Fixed Receptor    = -10.81 kcal/molUSER        Moving Ligand-Moving Receptor   =  +0.00 kcal/molUSER    (2) Final Total Internal Energy     =  -0.82 kcal/molUSER    (3) Torsional Free Energy           =  +2.68 kcal/molUSER    (4) Unbound System's Energy         =  -0.82 kcal/molUSERUSERREMARK SMILES O=C(O)C=CC=C[C@@H](F)n1nnc2cc(N3CCC(O)CC3)ccc21REMARK SMILES IDX 6 1 5 2 4 3 2 4 1 5 3 6 7 8 8 9 9 10 10 11 11 12 25 13 12 14REMARK SMILES IDX 24 15 13 16 23 17 14 18 15 19 16 20 17 21 22 22 18 23 21 24REMARK SMILES IDX 19 25 20 26REMARK H PARENT 3 7 20 27USER                              x       y       z     vdW  Elec       q    TypeUSER                           _______ _______ _______ _____ _____    ______ ____ROOTATOM      1  C   UNL     1      39.348  44.379  22.229 -0.32 +0.00    +0.001 C  ENDROOTBRANCH   1   2ATOM      2  C   UNL     1      37.918  44.426  22.442 -0.40 +0.00    +0.007 C  BRANCH   2   3ATOM      3  C   UNL     1      37.271  44.562  23.609 -0.25 +0.01    +0.093 C  BRANCH   3   4ATOM      4  C   UNL     1      37.758  45.261  24.810 -0.17 +0.03    +0.328 C  ATOM      5  O   UNL     1      38.730  45.008  25.493 -0.11 -0.00    -0.247 OA BRANCH   4   6ATOM      6  O   UNL     1      36.945  46.293  25.091 -0.72 -0.11    -0.478 OA ATOM      7  H   UNL     1      36.146  45.870  25.471 -0.42 -0.03    +0.297 HD ENDBRANCH   4   6ENDBRANCH   3   4ENDBRANCH   2   3ENDBRANCH   1   2BRANCH   1   8ATOM      8  C   UNL     1      40.064  45.455  21.869 -0.32 +0.00    +0.034 C  BRANCH   8   9ATOM      9  C   UNL     1      41.385  45.395  21.152 -0.19 +0.04    +0.310 C  ATOM     10  F   UNL     1      41.706  44.092  20.899 -0.09 -0.03    -0.217 F  BRANCH   9  11ATOM     11  N   UNL     1      41.359  46.176  19.920 -0.28 -0.02    -0.207 N  ATOM     12  N   UNL     1      42.368  47.021  19.614 -0.47 -0.01    -0.063 NA ATOM     13  C   UNL     1      40.406  46.154  18.931 -0.38 -0.00    +0.093 A  ATOM     14  N   UNL     1      42.086  47.573  18.441 -0.50 +0.00    -0.130 NA ATOM     15  C   UNL     1      39.211  45.460  18.744 -0.40 -0.00    +0.032 A  ATOM     16  C   UNL     1      40.897  47.058  18.002 -0.43 -0.01    +0.115 A  ATOM     17  C   UNL     1      38.509  45.732  17.558 -0.38 -0.01    +0.028 A  ATOM     18  C   UNL     1      40.170  47.307  16.825 -0.47 -0.01    +0.058 A  ATOM     19  C   UNL     1      38.950  46.649  16.582 -0.40 -0.01    +0.039 A  BRANCH  19  20ATOM     20  N   UNL     1      38.212  46.875  15.422 -0.13 +0.16    -0.371 N  ATOM     21  C   UNL     1      37.399  48.092  15.299 -0.46 -0.09    +0.119 C  ATOM     22  C   UNL     1      38.424  46.054  14.225 -0.38 -0.03    +0.119 C  ATOM     23  C   UNL     1      37.343  48.555  13.850 -0.58 -0.03    +0.053 C  ATOM     24  C   UNL     1      37.174  46.058  13.348 -0.52 -0.02    +0.053 C  ATOM     25  C   UNL     1      36.753  47.473  12.952 -0.61 -0.05    +0.118 C  BRANCH  25  26ATOM     26  O   UNL     1      37.118  47.735  11.596 -0.89 +0.08    -0.393 OA ATOM     27  H   UNL     1      36.564  48.464  11.267 -0.26 -0.12    +0.210 HD ENDBRANCH  25  26ENDBRANCH  19  20ENDBRANCH   9  11ENDBRANCH   8   9ENDBRANCH   1   8TORSDOF 9TERENDMDL