MODEL        9USER    Run = 9USERUSER    Estimated Free Energy of Binding    =  -9.14 kcal/mol  [=(1)+(2)+(3)-(4)]USERUSER    (1) Final Intermolecular Energy     = -10.63 kcal/molUSER        vdW + Hbond + desolv Energy     = -10.56 kcal/molUSER        Electrostatic Energy            =  -0.07 kcal/molUSER        Moving Ligand-Fixed Receptor    = -10.63 kcal/molUSER        Moving Ligand-Moving Receptor   =  +0.00 kcal/molUSER    (2) Final Total Internal Energy     =  -1.42 kcal/molUSER    (3) Torsional Free Energy           =  +1.49 kcal/molUSER    (4) Unbound System's Energy         =  -1.42 kcal/molUSERUSERREMARK SMILES Cc1ccc(F)cc1-c1cccc(C(=O)Nc2cccc(C(=O)N(C)C)c2)c1NREMARK SMILES IDX 14 1 15 2 16 3 13 5 9 6 10 7 28 8 11 9 12 10 8 11 2 12 3 13REMARK SMILES IDX 4 14 7 15 5 16 1 17 6 18 29 19 17 22 18 23 27 24 19 25 21 26REMARK SMILES IDX 20 27 22 28 24 29 23 30 25 31 26 32REMARK H PARENT 16 4 29 20 29 21USER                              x       y       z     vdW  Elec       q    TypeUSER                           _______ _______ _______ _____ _____    ______ ____ROOTATOM      1  C   UNL     1      36.523  44.267  17.575 -0.21 -0.07    +0.257 C  ATOM      2  O   UNL     1      36.873  43.728  16.532 -0.25 +0.08    -0.269 OA ATOM      3  N   UNL     1      37.324  45.047  18.396 -0.16 +0.07    -0.322 N  ATOM      4  H   UNL     1      36.859  45.555  19.137 +0.10 -0.02    +0.170 HD ENDROOTBRANCH   1   5ATOM      5  C   UNL     1      35.095  44.159  18.019 -0.27 -0.02    +0.063 A  ATOM      6  C   UNL     1      32.979  42.953  18.148 -0.34 -0.00    +0.006 A  ATOM      7  C   UNL     1      32.410  44.074  18.783 -0.35 -0.00    +0.011 A  ATOM      8  C   UNL     1      34.339  42.994  17.743 -0.32 -0.02    +0.052 A  ATOM      9  C   UNL     1      33.168  45.208  19.059 -0.31 -0.00    +0.002 A  ATOM     10  C   UNL     1      34.508  45.250  18.685 -0.42 -0.01    +0.016 A  BRANCH   6  11ATOM     11  C   UNL     1      32.126  41.770  17.921 -0.35 +0.00    -0.010 A  ATOM     12  C   UNL     1      31.131  41.735  16.915 -0.27 +0.02    -0.043 A  ATOM     13  C   UNL     1      30.343  40.579  16.757 -0.36 -0.00    +0.007 A  ATOM     14  C   UNL     1      30.541  39.466  17.571 -0.28 +0.00    +0.039 A  ATOM     15  C   UNL     1      32.310  40.635  18.731 -0.34 -0.00    +0.048 A  ATOM     16  C   UNL     1      31.524  39.504  18.549 -0.35 +0.01    +0.123 A  ATOM     17  C   UNL     1      30.872  42.922  16.024 -0.36 -0.02    +0.045 C  ATOM     18  F   UNL     1      31.716  38.436  19.333 -0.12 -0.04    -0.207 F  ENDBRANCH   6  11BRANCH   8  19ATOM     19  N   UNL     1      34.945  41.830  17.238 -0.08 +0.19    -0.398 N  ATOM     20  H   UNL     1      34.590  40.950  17.615 -0.47 -0.09    +0.156 HD ATOM     21  H   UNL     1      35.945  41.865  17.082 -0.08 -0.07    +0.156 HD ENDBRANCH   8  19ENDBRANCH   1   5BRANCH   3  22ATOM     22  C   UNL     1      38.703  45.313  18.249 -0.37 -0.01    +0.042 A  ATOM     23  C   UNL     1      39.716  44.496  18.762 -0.38 -0.00    +0.026 A  ATOM     24  C   UNL     1      39.059  46.473  17.553 -0.39 -0.01    +0.040 A  ATOM     25  C   UNL     1      41.064  44.816  18.562 -0.40 +0.00    +0.003 A  ATOM     26  C   UNL     1      40.409  46.804  17.379 -0.47 -0.01    +0.042 A  ATOM     27  C   UNL     1      41.415  45.966  17.861 -0.41 -0.00    +0.014 A  BRANCH  26  28ATOM     28  C   UNL     1      40.786  48.016  16.621 -0.40 -0.04    +0.253 C  ATOM     29  N   UNL     1      40.450  48.097  15.269 -0.26 +0.07    -0.345 N  ATOM     30  O   UNL     1      41.404  48.890  17.224 -0.90 -0.00    -0.269 OA ATOM     31  C   UNL     1      40.915  49.259  14.531 -0.55 -0.04    +0.146 C  ATOM     32  C   UNL     1      39.360  47.351  14.655 -0.43 -0.04    +0.146 C  ENDBRANCH  26  28ENDBRANCH   3  22TORSDOF 5TERENDMDL