REMARK SMILES Nc1ncnc2c1ncn2[C@H]1CC[C@@H](O)C[C@@H]1NCc1ccccc1
REMARK SMILES IDX 11 1 12 2 13 3 14 4 16 5 17 6 10 7 2 8 3 9 7 10 4 11 6 12
REMARK SMILES IDX 8 13 5 14 9 15 1 16 18 19 19 21 20 22 21 23 25 24 22 25
REMARK SMILES IDX 24 26 23 27 15 28
REMARK H PARENT 1 17 1 18 18 20 15 29
ROOT
ATOM      1  C   UNL     1       1.097   1.323   0.345  1.00  0.00     0.107 C 
ATOM      2  C   UNL     1       1.961   2.595   0.202  1.00  0.00     0.030 C 
ATOM      3  C   UNL     1       1.795   3.256  -1.158  1.00  0.00     0.034 C 
ATOM      4  C   UNL     1       0.341   3.656  -1.427  1.00  0.00     0.116 C 
ATOM      5  C   UNL     1      -0.687   2.716  -0.785  1.00  0.00     0.052 C 
ATOM      6  C   UNL     1      -0.121   1.295  -0.632  1.00  0.00     0.079 C 
ENDROOT
BRANCH   1   7
ATOM      7  N   UNL     1       1.912   0.114   0.251  1.00  0.00    -0.310 N 
ATOM      8  C   UNL     1       3.480  -2.715   1.593  1.00  0.00     0.155 A 
ATOM      9  N   UNL     1       3.171  -2.633   2.907  1.00  0.00    -0.217 NA
ATOM     10  C   UNL     1       3.013  -1.711   0.728  1.00  0.00     0.150 A 
ATOM     11  C   UNL     1       2.405  -1.599   3.319  1.00  0.00     0.226 A 
ATOM     12  C   UNL     1       2.239  -0.712   1.295  1.00  0.00     0.165 A 
ATOM     13  N   UNL     1       3.191  -1.491  -0.623  1.00  0.00    -0.231 NA
ATOM     14  N   UNL     1       1.898  -0.586   2.589  1.00  0.00    -0.217 NA
ATOM     15  C   UNL     1       2.515  -0.389  -0.873  1.00  0.00     0.202 A 
BRANCH   8  16
ATOM     16  N   UNL     1       4.268  -3.779   1.169  1.00  0.00    -0.382 N 
ATOM     17  H   UNL     1       4.736  -3.600   0.287  1.00  0.00     0.158 HD
ATOM     18  H   UNL     1       4.815  -4.170   1.924  1.00  0.00     0.158 HD
ENDBRANCH   8  16
ENDBRANCH   1   7
BRANCH   6  19
ATOM     19  N   UNL     1      -1.130   0.355  -0.125  1.00  0.00    -0.308 NA
ATOM     20  H   UNL     1      -1.692   0.769   0.618  1.00  0.00     0.123 HD
BRANCH  19  21
ATOM     21  C   UNL     1      -2.010  -0.172  -1.165  1.00  0.00     0.117 C 
BRANCH  21  22
ATOM     22  C   UNL     1      -3.017  -1.130  -0.575  1.00  0.00    -0.034 A 
ATOM     23  C   UNL     1      -2.592  -2.341  -0.007  1.00  0.00     0.005 A 
ATOM     24  C   UNL     1      -4.386  -0.828  -0.577  1.00  0.00     0.005 A 
ATOM     25  C   UNL     1      -3.515  -3.232   0.541  1.00  0.00     0.000 A 
ATOM     26  C   UNL     1      -5.309  -1.720  -0.028  1.00  0.00     0.000 A 
ATOM     27  C   UNL     1      -4.873  -2.921   0.530  1.00  0.00     0.000 A 
ENDBRANCH  21  22
ENDBRANCH  19  21
ENDBRANCH   6  19
BRANCH   4  28
ATOM     28  O   UNL     1       0.159   3.664  -2.841  1.00  0.00    -0.393 OA
ATOM     29  H   UNL     1      -0.695   4.091  -3.030  1.00  0.00     0.210 HD
ENDBRANCH   4  28
TORSDOF 6
