MODEL        8USER    Run = 8USERUSER    Estimated Free Energy of Binding    =  -9.93 kcal/mol  [=(1)+(2)+(3)-(4)]USERUSER    (1) Final Intermolecular Energy     = -11.72 kcal/molUSER        vdW + Hbond + desolv Energy     = -11.44 kcal/molUSER        Electrostatic Energy            =  -0.28 kcal/molUSER        Moving Ligand-Fixed Receptor    = -11.72 kcal/molUSER        Moving Ligand-Moving Receptor   =  +0.00 kcal/molUSER    (2) Final Total Internal Energy     =  -2.09 kcal/molUSER    (3) Torsional Free Energy           =  +1.79 kcal/molUSER    (4) Unbound System's Energy         =  -2.09 kcal/molUSERUSERREMARK SMILES C[C@@H]1CN(CC2=C(c3ccccc3)c3ccccc3C2=O)CCN1CCOREMARK SMILES IDX 1 1 2 2 3 3 4 4 22 5 23 6 24 7 25 8 26 9 27 10 5 12 6 13REMARK SMILES IDX 7 14 20 15 14 16 19 17 15 18 18 19 16 20 17 21 21 22 8 23REMARK SMILES IDX 9 24 13 25 10 26 12 27 11 28REMARK H PARENT 27 11USER                              x       y       z     vdW  Elec       q    TypeUSER                           _______ _______ _______ _____ _____    ______ ____ROOTATOM      1  C   UNL     1      34.521  45.850  14.649 -0.37 -0.02    +0.026 C  ATOM      2  C   UNL     1      34.090  45.583  16.098 -0.25 -0.06    +0.067 C  ATOM      3  C   UNL     1      35.305  45.606  17.088 -0.33 -0.07    +0.103 C  ATOM      4  N   UNL     1      36.100  44.371  17.251 -0.11 +0.10    -0.296 NA ATOM      5  C   UNL     1      35.192  43.218  17.360 -0.36 -0.03    +0.100 C  ATOM      6  C   UNL     1      34.093  43.151  16.280 -0.35 -0.05    +0.100 C  ATOM      7  N   UNL     1      33.261  44.366  16.279 -0.13 +0.16    -0.296 NA ENDROOTBRANCH   7   8ATOM      8  C   UNL     1      32.126  44.225  15.353 -0.33 -0.06    +0.113 C  BRANCH   8   9ATOM      9  C   UNL     1      30.859  44.968  15.795 -0.31 -0.07    +0.171 C  BRANCH   9  10ATOM     10  O   UNL     1      31.175  46.332  16.068 -0.53 +0.15    -0.395 OA ATOM     11  H   UNL     1      32.144  46.393  16.102 -0.32 -0.26    +0.210 HD ENDBRANCH   9  10ENDBRANCH   8   9ENDBRANCH   7   8BRANCH   4  12ATOM     12  C   UNL     1      37.132  44.172  16.226 -0.32 -0.04    +0.125 C  BRANCH  12  13ATOM     13  C   UNL     1      38.140  45.274  16.193 -0.36 -0.01    +0.023 C  ATOM     14  C   UNL     1      38.365  46.238  15.270 -0.46 +0.00    -0.002 C  ATOM     15  C   UNL     1      39.019  45.535  17.360 -0.32 -0.04    +0.191 C  ATOM     16  C   UNL     1      39.423  47.121  15.770 -0.47 +0.00    -0.006 A  ATOM     17  C   UNL     1      39.820  46.703  17.030 -0.46 -0.01    +0.030 A  ATOM     18  C   UNL     1      40.030  48.223  15.192 -0.55 -0.00    +0.009 A  ATOM     19  C   UNL     1      40.801  47.338  17.770 -0.51 -0.00    +0.013 A  ATOM     20  C   UNL     1      41.030  48.889  15.912 -0.62 -0.00    +0.001 A  ATOM     21  C   UNL     1      41.412  48.450  17.193 -0.45 -0.00    +0.001 A  ATOM     22  O   UNL     1      39.061  44.918  18.405 -0.26 +0.03    -0.289 OA BRANCH  14  23ATOM     23  C   UNL     1      37.618  46.356  14.013 -0.43 +0.01    -0.017 A  ATOM     24  C   UNL     1      37.142  47.606  13.596 -0.56 -0.00    +0.009 A  ATOM     25  C   UNL     1      37.377  45.234  13.211 -0.43 -0.00    +0.009 A  ATOM     26  C   UNL     1      36.433  47.729  12.399 -0.68 -0.00    +0.001 A  ATOM     27  C   UNL     1      36.668  45.358  12.015 -0.58 -0.00    +0.001 A  ATOM     28  C   UNL     1      36.197  46.605  11.610 -0.60 -0.00    +0.000 A  ENDBRANCH  14  23ENDBRANCH  12  13ENDBRANCH   4  12TORSDOF 6TERENDMDL