REMARK SMILES C[C@@H]1CN(CC2=C(c3ccccc3)c3ccccc3C2=O)CCN1CCO
REMARK SMILES IDX 1 1 2 2 3 3 4 4 22 5 23 6 24 7 25 8 26 9 27 10 5 12 6 13
REMARK SMILES IDX 7 14 20 15 14 16 19 17 15 18 18 19 16 20 17 21 21 22 8 23
REMARK SMILES IDX 9 24 13 25 10 26 12 27 11 28
REMARK H PARENT 27 11
ROOT
ATOM      1  C   UNL     1       2.923   1.307   1.028  1.00  0.00     0.026 C 
ATOM      2  C   UNL     1       2.862   0.727  -0.392  1.00  0.00     0.067 C 
ATOM      3  C   UNL     1       1.392   0.639  -0.930  1.00  0.00     0.103 C 
ATOM      4  N   UNL     1       0.584  -0.544  -0.569  1.00  0.00    -0.296 NA
ATOM      5  C   UNL     1       1.405  -1.757  -0.713  1.00  0.00     0.100 C 
ATOM      6  C   UNL     1       2.793  -1.686  -0.046  1.00  0.00     0.100 C 
ATOM      7  N   UNL     1       3.585  -0.557  -0.564  1.00  0.00    -0.296 NA
ENDROOT
BRANCH   7   8
ATOM      8  C   UNL     1       4.957  -0.591  -0.036  1.00  0.00     0.113 C 
BRANCH   8   9
ATOM      9  C   UNL     1       5.915   0.399  -0.711  1.00  0.00     0.171 C 
BRANCH   9  10
ATOM     10  O   UNL     1       7.231   0.222  -0.189  1.00  0.00    -0.395 OA
ATOM     11  H   UNL     1       7.806   0.845  -0.664  1.00  0.00     0.210 HD
ENDBRANCH   9  10
ENDBRANCH   8   9
ENDBRANCH   7   8
BRANCH   4  12
ATOM     12  C   UNL     1      -0.062  -0.462   0.747  1.00  0.00     0.125 C 
BRANCH  12  13
ATOM     13  C   UNL     1      -1.275   0.410   0.746  1.00  0.00     0.023 C 
ATOM     14  C   UNL     1      -2.561   0.134   0.427  1.00  0.00    -0.002 C 
ATOM     15  C   UNL     1      -1.216   1.796   1.274  1.00  0.00     0.191 C 
ATOM     16  C   UNL     1      -3.369   1.330   0.681  1.00  0.00    -0.006 A 
ATOM     17  C   UNL     1      -2.564   2.335   1.193  1.00  0.00     0.030 A 
ATOM     18  C   UNL     1      -4.720   1.568   0.486  1.00  0.00     0.009 A 
ATOM     19  C   UNL     1      -3.036   3.587   1.540  1.00  0.00     0.013 A 
ATOM     20  C   UNL     1      -5.232   2.827   0.824  1.00  0.00     0.001 A 
ATOM     21  C   UNL     1      -4.396   3.830   1.349  1.00  0.00     0.001 A 
ATOM     22  O   UNL     1      -0.245   2.377   1.713  1.00  0.00    -0.289 OA
BRANCH  14  23
ATOM     23  C   UNL     1      -3.021  -1.175  -0.051  1.00  0.00    -0.017 A 
ATOM     24  C   UNL     1      -3.908  -1.932   0.726  1.00  0.00     0.009 A 
ATOM     25  C   UNL     1      -2.594  -1.681  -1.284  1.00  0.00     0.009 A 
ATOM     26  C   UNL     1      -4.355  -3.177   0.278  1.00  0.00     0.001 A 
ATOM     27  C   UNL     1      -3.041  -2.926  -1.731  1.00  0.00     0.001 A 
ATOM     28  C   UNL     1      -3.921  -3.673  -0.950  1.00  0.00     0.000 A 
ENDBRANCH  14  23
ENDBRANCH  12  13
ENDBRANCH   4  12
TORSDOF 6
