MODEL        10USER    Run = 10USERUSER    Estimated Free Energy of Binding    =  -9.71 kcal/mol  [=(1)+(2)+(3)-(4)]USERUSER    (1) Final Intermolecular Energy     = -12.99 kcal/molUSER        vdW + Hbond + desolv Energy     = -12.78 kcal/molUSER        Electrostatic Energy            =  -0.21 kcal/molUSER        Moving Ligand-Fixed Receptor    = -12.99 kcal/molUSER        Moving Ligand-Moving Receptor   =  +0.00 kcal/molUSER    (2) Final Total Internal Energy     =  -1.69 kcal/molUSER    (3) Torsional Free Energy           =  +3.28 kcal/molUSER    (4) Unbound System's Energy         =  -1.69 kcal/molUSERUSERREMARK SMILES COc1ccc(C#CC2CC2)cc1C=C1C(N)=NC(NC(=O)/C=C/CC(C)C)=C1CREMARK SMILES IDX 15 1 16 2 17 3 18 4 19 5 29 6 30 7 14 10 13 11 3 12 4 13REMARK SMILES IDX 5 14 12 15 6 16 2 17 1 18 7 19 8 20 9 21 10 22 11 23 20 24REMARK SMILES IDX 21 25 22 27 23 28 24 29 25 30 26 31 27 32 28 33REMARK H PARENT 17 8 17 9 20 26USER                              x       y       z     vdW  Elec       q    TypeUSER                           _______ _______ _______ _____ _____    ______ ____ROOTATOM      1  C   UNL     1      41.488  46.009  19.790 -0.46 +0.00    +0.024 C  ATOM      2  C   UNL     1      42.679  46.910  19.876 -0.42 +0.03    +0.133 C  ATOM      3  N   UNL     1      43.478  47.351  18.866 -0.26 -0.09    -0.383 N  ATOM      4  N   UNL     1      42.888  47.288  21.116 -0.27 -0.04    -0.213 NA ATOM      5  C   UNL     1      41.889  46.699  21.866 -0.23 +0.02    +0.138 C  ATOM      6  C   UNL     1      41.050  45.910  21.171 -0.35 +0.00    +0.003 C  ATOM      7  C   UNL     1      39.949  45.010  21.608 -0.32 +0.00    +0.049 C  ATOM      8  H   UNL     1      43.021  47.464  17.969 -0.43 -0.01    +0.158 HD ATOM      9  H   UNL     1      44.026  48.160  19.134 -0.50 +0.01    +0.158 HD ENDROOTBRANCH   1  10ATOM     10  C   UNL     1      40.940  45.438  18.708 -0.51 +0.00    +0.024 C  BRANCH  10  11ATOM     11  C   UNL     1      40.109  46.104  17.695 -0.46 -0.00    +0.018 A  ATOM     12  C   UNL     1      38.736  45.811  17.573 -0.32 -0.03    +0.126 A  ATOM     13  C   UNL     1      37.982  46.464  16.592 -0.35 -0.02    +0.048 A  ATOM     14  C   UNL     1      38.586  47.394  15.738 -0.44 -0.01    +0.021 A  ATOM     15  C   UNL     1      40.708  47.032  16.830 -0.46 -0.00    +0.029 A  ATOM     16  C   UNL     1      39.946  47.678  15.856 -0.51 -0.01    +0.025 A  BRANCH  12  17ATOM     17  O   UNL     1      38.233  44.892  18.459 -0.11 +0.07    -0.496 OA ATOM     18  C   UNL     1      36.823  44.719  18.498 -0.22 -0.06    +0.278 C  ENDBRANCH  12  17BRANCH  16  19ATOM     19  C   UNL     1      40.558  48.630  14.982 -0.61 +0.02    -0.067 C  BRANCH  19  20ATOM     20  C   UNL     1      41.071  49.432  14.250 -0.57 +0.02    -0.094 C  BRANCH  20  21ATOM     21  C   UNL     1      41.685  50.385  13.372 -0.45 -0.02    +0.065 C  ATOM     22  C   UNL     1      43.015  50.045  12.752 -0.70 -0.01    +0.018 C  ATOM     23  C   UNL     1      42.936  51.086  13.830 -0.57 -0.01    +0.018 C  ENDBRANCH  20  21ENDBRANCH  19  20ENDBRANCH  16  19ENDBRANCH  10  11ENDBRANCH   1  10BRANCH   5  24ATOM     24  N   UNL     1      41.937  47.016  23.189 -0.09 -0.04    -0.307 N  ATOM     25  C   UNL     1      42.165  48.221  23.805 -0.27 +0.04    +0.249 C  ATOM     26  H   UNL     1      41.937  46.181  23.760 +0.07 +0.02    +0.171 HD ATOM     27  O   UNL     1      42.415  49.292  23.269 -0.94 -0.10    -0.270 OA BRANCH  25  28ATOM     28  C   UNL     1      42.129  48.095  25.292 -0.24 +0.01    +0.067 C  BRANCH  28  29ATOM     29  C   UNL     1      41.014  47.687  25.919 -0.21 -0.00    -0.021 C  BRANCH  29  30ATOM     30  C   UNL     1      39.728  48.464  25.932 -0.29 +0.00    +0.030 C  BRANCH  30  31ATOM     31  C   UNL     1      38.900  48.300  24.643 -0.43 -0.00    -0.014 C  ATOM     32  C   UNL     1      37.532  48.983  24.736 -0.47 +0.00    +0.007 C  ATOM     33  C   UNL     1      38.713  46.813  24.331 -0.37 +0.00    +0.007 C  ENDBRANCH  30  31ENDBRANCH  29  30ENDBRANCH  28  29ENDBRANCH  25  28ENDBRANCH   5  24TORSDOF 11TERENDMDL