MODEL        7USER    Run = 7USERUSER    Estimated Free Energy of Binding    =  -9.33 kcal/mol  [=(1)+(2)+(3)-(4)]USERUSER    (1) Final Intermolecular Energy     = -12.31 kcal/molUSER        vdW + Hbond + desolv Energy     = -12.29 kcal/molUSER        Electrostatic Energy            =  -0.02 kcal/molUSER        Moving Ligand-Fixed Receptor    = -12.31 kcal/molUSER        Moving Ligand-Moving Receptor   =  +0.00 kcal/molUSER    (2) Final Total Internal Energy     =  -1.91 kcal/molUSER    (3) Torsional Free Energy           =  +2.98 kcal/molUSER    (4) Unbound System's Energy         =  -1.91 kcal/molUSERUSERREMARK SMILES CNC1=NC(NC(=O)CCC(C)C)=C(C)C1=Cc1cc(C#CC2CC2)ccc1OCREMARK SMILES IDX 1 1 2 2 3 3 4 4 5 5 14 6 15 7 16 8 17 10 18 11 19 12 28 13REMARK SMILES IDX 20 14 27 15 26 16 29 17 30 18 21 19 22 20 23 21 24 22 25 23REMARK SMILES IDX 6 24 7 25 8 27 9 28 10 29 11 30 12 31 13 32REMARK H PARENT 2 9 6 26USER                              x       y       z     vdW  Elec       q    TypeUSER                           _______ _______ _______ _____ _____    ______ ____ROOTATOM      1  C   UNL     1      42.851  45.713  22.288 -0.20 +0.03    +0.141 C  ATOM      2  N   UNL     1      42.164  45.291  21.091 -0.11 -0.08    -0.373 N  ATOM      3  C   UNL     1      40.838  44.947  21.103 -0.29 +0.01    +0.135 C  ATOM      4  N   UNL     1      40.153  44.747  22.209 -0.14 -0.01    -0.213 NA ATOM      5  C   UNL     1      38.866  44.438  21.819 -0.29 +0.01    +0.138 C  ATOM      6  C   UNL     1      38.653  44.469  20.492 -0.41 -0.00    +0.003 C  ATOM      7  C   UNL     1      37.407  44.346  19.689 -0.39 -0.00    +0.049 C  ATOM      8  C   UNL     1      39.950  44.753  19.905 -0.43 +0.00    +0.024 C  ATOM      9  H   UNL     1      42.503  45.717  20.236 +0.09 +0.05    +0.161 HD ENDROOTBRANCH   8  10ATOM     10  C   UNL     1      40.254  44.807  18.599 -0.47 -0.00    +0.024 C  BRANCH  10  11ATOM     11  C   UNL     1      40.285  46.009  17.756 -0.46 -0.00    +0.018 A  ATOM     12  C   UNL     1      39.345  46.130  16.721 -0.40 -0.01    +0.029 A  ATOM     13  C   UNL     1      41.229  47.032  17.975 -0.43 -0.01    +0.126 A  ATOM     14  C   UNL     1      39.346  47.258  15.900 -0.46 -0.01    +0.025 A  ATOM     15  C   UNL     1      41.218  48.159  17.147 -0.46 -0.00    +0.048 A  ATOM     16  C   UNL     1      40.281  48.270  16.115 -0.55 -0.01    +0.021 A  BRANCH  13  17ATOM     17  O   UNL     1      42.109  46.830  19.007 -0.23 -0.04    -0.496 OA ATOM     18  C   UNL     1      43.246  47.682  19.079 -0.26 +0.03    +0.278 C  ENDBRANCH  13  17BRANCH  14  19ATOM     19  C   UNL     1      38.390  47.374  14.843 -0.49 +0.03    -0.067 C  BRANCH  19  20ATOM     20  C   UNL     1      37.585  47.476  13.958 -0.51 +0.04    -0.094 C  BRANCH  20  21ATOM     21  C   UNL     1      36.616  47.602  12.908 -0.67 -0.03    +0.065 C  ATOM     22  C   UNL     1      35.840  46.379  12.491 -0.67 -0.01    +0.018 C  ATOM     23  C   UNL     1      36.894  46.942  11.582 -0.70 -0.01    +0.018 C  ENDBRANCH  20  21ENDBRANCH  19  20ENDBRANCH  14  19ENDBRANCH  10  11ENDBRANCH   8  10BRANCH   5  24ATOM     24  N   UNL     1      38.024  44.175  22.854 -0.16 -0.02    -0.310 N  ATOM     25  C   UNL     1      37.449  42.984  23.244 -0.29 +0.02    +0.225 C  ATOM     26  H   UNL     1      38.004  44.939  23.518 +0.08 +0.02    +0.171 HD ATOM     27  O   UNL     1      37.646  41.884  22.741 -0.32 -0.03    -0.275 OA BRANCH  25  28ATOM     28  C   UNL     1      36.557  43.171  24.463 -0.30 +0.01    +0.101 C  BRANCH  28  29ATOM     29  C   UNL     1      36.868  42.206  25.609 -0.46 -0.00    +0.013 C  BRANCH  29  30ATOM     30  C   UNL     1      35.684  41.920  26.555 -0.59 +0.00    -0.017 C  ATOM     31  C   UNL     1      36.128  40.955  27.659 -0.68 -0.00    +0.007 C  ATOM     32  C   UNL     1      35.116  43.193  27.184 -0.62 -0.00    +0.007 C  ENDBRANCH  29  30ENDBRANCH  28  29ENDBRANCH  25  28ENDBRANCH   5  24TORSDOF 10TERENDMDL