REMARK SMILES CNC1=NC(NC(=O)CCC(C)C)=C(C)C1=Cc1cc(C#CC2CC2)ccc1OC
REMARK SMILES IDX 1 1 2 2 3 3 4 4 5 5 14 6 15 7 16 8 17 10 18 11 19 12 28 13
REMARK SMILES IDX 20 14 27 15 26 16 29 17 30 18 21 19 22 20 23 21 24 22 25 23
REMARK SMILES IDX 6 24 7 25 8 27 9 28 10 29 11 30 12 31 13 32
REMARK H PARENT 2 9 6 26
ROOT
ATOM      1  C   UNL     1       1.595  -2.048   2.394  1.00  0.00     0.141 C 
ATOM      2  N   UNL     1       1.586  -0.981   1.423  1.00  0.00    -0.373 N 
ATOM      3  C   UNL     1       0.430  -0.570   0.812  1.00  0.00     0.135 C 
ATOM      4  N   UNL     1      -0.699  -1.244   0.874  1.00  0.00    -0.213 NA
ATOM      5  C   UNL     1      -1.627  -0.515   0.159  1.00  0.00     0.138 C 
ATOM      6  C   UNL     1      -1.171   0.647  -0.341  1.00  0.00     0.003 C 
ATOM      7  C   UNL     1      -1.868   1.767  -1.028  1.00  0.00     0.049 C 
ATOM      8  C   UNL     1       0.239   0.682   0.001  1.00  0.00     0.024 C 
ATOM      9  H   UNL     1       2.284  -0.263   1.577  1.00  0.00     0.161 HD
ENDROOT
BRANCH   8  10
ATOM     10  C   UNL     1       1.136   1.615  -0.352  1.00  0.00     0.024 C 
BRANCH  10  11
ATOM     11  C   UNL     1       2.570   1.616  -0.034  1.00  0.00     0.018 A 
ATOM     12  C   UNL     1       3.421   0.767  -0.758  1.00  0.00     0.029 A 
ATOM     13  C   UNL     1       3.095   2.453   0.970  1.00  0.00     0.126 A 
ATOM     14  C   UNL     1       4.788   0.742  -0.482  1.00  0.00     0.025 A 
ATOM     15  C   UNL     1       4.468   2.420   1.236  1.00  0.00     0.048 A 
ATOM     16  C   UNL     1       5.309   1.568   0.513  1.00  0.00     0.021 A 
BRANCH  13  17
ATOM     17  O   UNL     1       2.192   3.248   1.627  1.00  0.00    -0.496 OA
ATOM     18  C   UNL     1       2.684   4.084   2.667  1.00  0.00     0.278 C 
ENDBRANCH  13  17
BRANCH  14  19
ATOM     19  C   UNL     1       5.651  -0.129  -1.218  1.00  0.00    -0.067 C 
BRANCH  19  20
ATOM     20  C   UNL     1       6.371  -0.863  -1.839  1.00  0.00    -0.094 C 
BRANCH  20  21
ATOM     21  C   UNL     1       7.223  -1.740  -2.587  1.00  0.00     0.065 C 
ATOM     22  C   UNL     1       6.969  -3.224  -2.521  1.00  0.00     0.018 C 
ATOM     23  C   UNL     1       8.173  -2.640  -1.840  1.00  0.00     0.018 C 
ENDBRANCH  20  21
ENDBRANCH  19  20
ENDBRANCH  14  19
ENDBRANCH  10  11
ENDBRANCH   8  10
BRANCH   5  24
ATOM     24  N   UNL     1      -2.857  -1.092   0.102  1.00  0.00    -0.310 N 
ATOM     25  C   UNL     1      -3.894  -0.875  -0.780  1.00  0.00     0.225 C 
ATOM     26  H   UNL     1      -2.901  -1.926   0.674  1.00  0.00     0.171 HD
ATOM     27  O   UNL     1      -3.875  -0.131  -1.754  1.00  0.00    -0.275 OA
BRANCH  25  28
ATOM     28  C   UNL     1      -5.097  -1.747  -0.448  1.00  0.00     0.101 C 
BRANCH  28  29
ATOM     29  C   UNL     1      -6.370  -1.356  -1.202  1.00  0.00     0.013 C 
BRANCH  29  30
ATOM     30  C   UNL     1      -6.974   0.003  -0.794  1.00  0.00    -0.017 C 
ATOM     31  C   UNL     1      -8.162   0.332  -1.703  1.00  0.00     0.007 C 
ATOM     32  C   UNL     1      -7.423   0.028   0.667  1.00  0.00     0.007 C 
ENDBRANCH  29  30
ENDBRANCH  28  29
ENDBRANCH  25  28
ENDBRANCH   5  24
TORSDOF 10
