MODEL        2USER    Run = 2USERUSER    Estimated Free Energy of Binding    =  -9.54 kcal/mol  [=(1)+(2)+(3)-(4)]USERUSER    (1) Final Intermolecular Energy     = -12.23 kcal/molUSER        vdW + Hbond + desolv Energy     = -12.11 kcal/molUSER        Electrostatic Energy            =  -0.12 kcal/molUSER        Moving Ligand-Fixed Receptor    = -12.23 kcal/molUSER        Moving Ligand-Moving Receptor   =  +0.00 kcal/molUSER    (2) Final Total Internal Energy     =  -2.05 kcal/molUSER    (3) Torsional Free Energy           =  +2.68 kcal/molUSER    (4) Unbound System's Energy         =  -2.05 kcal/molUSERUSERREMARK SMILES COc1ccc(C(=O)NC2CC2)cc1C=C1C(N)=NC(NC(=O)CCC(C)C)=C1CREMARK SMILES IDX 16 1 17 2 18 3 19 4 20 5 29 6 30 7 15 10 14 11 3 12 4 13REMARK SMILES IDX 5 14 13 15 6 16 2 17 1 18 7 19 9 20 8 21 10 23 11 24 12 25REMARK SMILES IDX 21 26 22 27 23 29 24 30 25 31 26 32 27 33 28 34REMARK H PARENT 18 8 18 9 9 22 21 28USER                              x       y       z     vdW  Elec       q    TypeUSER                           _______ _______ _______ _____ _____    ______ ____ROOTATOM      1  C   UNL     1      41.052  46.135  19.768 -0.44 +0.00    +0.024 C  ATOM      2  C   UNL     1      42.201  47.057  19.513 -0.42 +0.01    +0.133 C  ATOM      3  N   UNL     1      43.267  47.321  20.317 -0.21 -0.10    -0.383 N  ATOM      4  N   UNL     1      42.086  47.621  18.337 -0.45 +0.00    -0.213 NA ATOM      5  C   UNL     1      40.937  47.120  17.772 -0.48 -0.01    +0.138 C  ATOM      6  C   UNL     1      40.276  46.240  18.548 -0.52 -0.00    +0.003 C  ATOM      7  C   UNL     1      39.023  45.482  18.303 -0.44 -0.01    +0.049 C  ATOM      8  H   UNL     1      44.003  47.789  19.796 -0.45 +0.04    +0.158 HD ATOM      9  H   UNL     1      43.616  46.527  20.843 +0.06 +0.09    +0.158 HD ENDROOTBRANCH   1  10ATOM     10  C   UNL     1      40.783  45.385  20.847 -0.38 +0.00    +0.024 C  BRANCH  10  11ATOM     11  C   UNL     1      40.805  45.826  22.250 -0.24 +0.00    +0.018 A  ATOM     12  C   UNL     1      42.008  45.830  22.984 -0.13 +0.02    +0.126 A  ATOM     13  C   UNL     1      41.996  46.259  24.315 -0.10 +0.00    +0.048 A  ATOM     14  C   UNL     1      40.799  46.662  24.916 -0.14 +0.00    +0.018 A  ATOM     15  C   UNL     1      39.602  46.219  22.864 -0.28 +0.00    +0.025 A  ATOM     16  C   UNL     1      39.596  46.631  24.200 -0.24 +0.00    +0.040 A  BRANCH  12  17ATOM     17  O   UNL     1      43.130  45.412  22.313 -0.03 -0.14    -0.496 OA ATOM     18  C   UNL     1      43.529  44.056  22.476 -0.17 +0.06    +0.278 C  ENDBRANCH  12  17BRANCH  16  19ATOM     19  C   UNL     1      38.353  47.074  24.893 -0.24 +0.03    +0.251 C  ATOM     20  N   UNL     1      38.354  48.361  25.393 -0.16 -0.03    -0.349 N  ATOM     21  O   UNL     1      37.393  46.313  24.960 -0.80 -0.06    -0.269 OA ATOM     22  H   UNL     1      39.129  48.979  25.188 +0.08 +0.02    +0.164 HD BRANCH  20  23ATOM     23  C   UNL     1      37.217  48.918  26.057 -0.41 +0.00    +0.082 C  ATOM     24  C   UNL     1      36.505  50.106  25.473 -0.48 -0.00    +0.027 C  ATOM     25  C   UNL     1      35.839  48.763  25.473 -0.49 -0.00    +0.027 C  ENDBRANCH  20  23ENDBRANCH  16  19ENDBRANCH  10  11ENDBRANCH   1  10BRANCH   5  26ATOM     26  N   UNL     1      40.523  47.504  16.527 -0.28 +0.05    -0.310 N  ATOM     27  C   UNL     1      40.790  48.712  15.897 -0.48 -0.04    +0.225 C  ATOM     28  H   UNL     1      39.992  46.828  15.999 +0.13 -0.03    +0.171 HD ATOM     29  O   UNL     1      41.502  49.619  16.310 -1.08 -0.01    -0.275 OA BRANCH  27  30ATOM     30  C   UNL     1      40.099  48.782  14.540 -0.50 -0.03    +0.101 C  BRANCH  30  31ATOM     31  C   UNL     1      38.599  48.483  14.587 -0.58 -0.01    +0.013 C  BRANCH  31  32ATOM     32  C   UNL     1      38.111  47.411  13.592 -0.56 +0.00    -0.017 C  ATOM     33  C   UNL     1      36.740  47.742  13.000 -0.70 -0.00    +0.007 C  ATOM     34  C   UNL     1      38.055  46.050  14.291 -0.48 -0.00    +0.007 C  ENDBRANCH  31  32ENDBRANCH  30  31ENDBRANCH  27  30ENDBRANCH   5  26TORSDOF 9TERENDMDL