REMARK SMILES COc1ccc(C#CC2CC2)cc1C=C1C(N)=NC(NC(=O)/C=C/CC(C)C)=C1C
REMARK SMILES IDX 15 1 16 2 17 3 18 4 19 5 29 6 30 7 14 10 13 11 3 12 4 13
REMARK SMILES IDX 5 14 12 15 6 16 2 17 1 18 7 19 8 20 9 21 10 22 11 23 20 24
REMARK SMILES IDX 21 25 22 27 23 28 24 29 25 30 26 31 27 32 28 33
REMARK H PARENT 17 8 17 9 20 26
ROOT
ATOM      1  C   UNL     1      -0.801  -0.587  -0.465  1.00  0.00     0.024 C 
ATOM      2  C   UNL     1      -0.854  -0.564   1.030  1.00  0.00     0.133 C 
ATOM      3  N   UNL     1      -1.945  -0.680   1.837  1.00  0.00    -0.383 N 
ATOM      4  N   UNL     1       0.350  -0.433   1.537  1.00  0.00    -0.213 NA
ATOM      5  C   UNL     1       1.212  -0.382   0.459  1.00  0.00     0.138 C 
ATOM      6  C   UNL     1       0.615  -0.433  -0.746  1.00  0.00     0.003 C 
ATOM      7  C   UNL     1       1.155  -0.277  -2.123  1.00  0.00     0.049 C 
ATOM      8  H   UNL     1      -2.696  -1.253   1.472  1.00  0.00     0.158 HD
ATOM      9  H   UNL     1      -1.694  -0.919   2.789  1.00  0.00     0.158 HD
ENDROOT
BRANCH   1  10
ATOM     10  C   UNL     1      -1.805  -0.729  -1.342  1.00  0.00     0.024 C 
BRANCH  10  11
ATOM     11  C   UNL     1      -3.232  -0.872  -1.020  1.00  0.00     0.018 A 
ATOM     12  C   UNL     1      -3.883  -2.116  -1.140  1.00  0.00     0.126 A 
ATOM     13  C   UNL     1      -5.244  -2.208  -0.828  1.00  0.00     0.048 A 
ATOM     14  C   UNL     1      -5.951  -1.077  -0.407  1.00  0.00     0.021 A 
ATOM     15  C   UNL     1      -3.950   0.259  -0.604  1.00  0.00     0.029 A 
ATOM     16  C   UNL     1      -5.307   0.155  -0.295  1.00  0.00     0.025 A 
BRANCH  12  17
ATOM     17  O   UNL     1      -3.106  -3.168  -1.553  1.00  0.00    -0.496 OA
ATOM     18  C   UNL     1      -3.742  -4.426  -1.735  1.00  0.00     0.278 C 
ENDBRANCH  12  17
BRANCH  16  19
ATOM     19  C   UNL     1      -6.034   1.308   0.138  1.00  0.00    -0.067 C 
BRANCH  19  20
ATOM     20  C   UNL     1      -6.646   2.274   0.503  1.00  0.00    -0.094 C 
BRANCH  20  21
ATOM     21  C   UNL     1      -7.372   3.430   0.942  1.00  0.00     0.065 C 
ATOM     22  C   UNL     1      -8.735   3.239   1.553  1.00  0.00     0.018 C 
ATOM     23  C   UNL     1      -8.607   3.838   0.183  1.00  0.00     0.018 C 
ENDBRANCH  20  21
ENDBRANCH  19  20
ENDBRANCH  16  19
ENDBRANCH  10  11
ENDBRANCH   1  10
BRANCH   5  24
ATOM     24  N   UNL     1       2.523  -0.278   0.810  1.00  0.00    -0.307 N 
ATOM     25  C   UNL     1       3.659  -0.500   0.072  1.00  0.00     0.249 C 
ATOM     26  H   UNL     1       2.620  -0.150   1.808  1.00  0.00     0.171 HD
ATOM     27  O   UNL     1       3.727  -0.885  -1.087  1.00  0.00    -0.270 OA
BRANCH  25  28
ATOM     28  C   UNL     1       4.894  -0.263   0.878  1.00  0.00     0.067 C 
BRANCH  28  29
ATOM     29  C   UNL     1       6.110  -0.465   0.345  1.00  0.00    -0.021 C 
BRANCH  29  30
ATOM     30  C   UNL     1       7.397  -0.261   1.094  1.00  0.00     0.030 C 
BRANCH  30  31
ATOM     31  C   UNL     1       8.205   0.956   0.605  1.00  0.00    -0.014 C 
ATOM     32  C   UNL     1       8.688   0.795  -0.839  1.00  0.00     0.007 C 
ATOM     33  C   UNL     1       9.405   1.188   1.527  1.00  0.00     0.007 C 
ENDBRANCH  30  31
ENDBRANCH  29  30
ENDBRANCH  28  29
ENDBRANCH  25  28
ENDBRANCH   5  24
TORSDOF 11
