REMARK SMILES COc1ccc(C(=O)NC2CC2)cc1C=C1C(N)=NC(NC(=O)CCC(C)C)=C1C
REMARK SMILES IDX 16 1 17 2 18 3 19 4 20 5 29 6 30 7 15 10 14 11 3 12 4 13
REMARK SMILES IDX 5 14 13 15 6 16 2 17 1 18 7 19 9 20 8 21 10 23 11 24 12 25
REMARK SMILES IDX 21 26 22 27 23 29 24 30 25 31 26 32 27 33 28 34
REMARK H PARENT 18 8 18 9 9 22 21 28
ROOT
ATOM      1  C   UNL     1       0.344   1.368   0.722  1.00  0.00     0.024 C 
ATOM      2  C   UNL     1      -0.027  -0.033   1.091  1.00  0.00     0.133 C 
ATOM      3  N   UNL     1       0.743  -0.980   1.693  1.00  0.00    -0.383 N 
ATOM      4  N   UNL     1      -1.273  -0.278   0.772  1.00  0.00    -0.213 NA
ATOM      5  C   UNL     1      -1.774   0.880   0.226  1.00  0.00     0.138 C 
ATOM      6  C   UNL     1      -0.887   1.892   0.165  1.00  0.00     0.003 C 
ATOM      7  C   UNL     1      -1.036   3.282  -0.337  1.00  0.00     0.049 C 
ATOM      8  H   UNL     1       0.169  -1.744   2.038  1.00  0.00     0.158 HD
ATOM      9  H   UNL     1       1.381  -0.631   2.399  1.00  0.00     0.158 HD
ENDROOT
BRANCH   1  10
ATOM     10  C   UNL     1       1.516   2.005   0.862  1.00  0.00     0.024 C 
BRANCH  10  11
ATOM     11  C   UNL     1       2.761   1.442   1.406  1.00  0.00     0.018 A 
ATOM     12  C   UNL     1       3.309   1.937   2.607  1.00  0.00     0.126 A 
ATOM     13  C   UNL     1       4.492   1.378   3.100  1.00  0.00     0.048 A 
ATOM     14  C   UNL     1       5.134   0.352   2.399  1.00  0.00     0.018 A 
ATOM     15  C   UNL     1       3.419   0.420   0.699  1.00  0.00     0.025 A 
ATOM     16  C   UNL     1       4.610  -0.122   1.190  1.00  0.00     0.040 A 
BRANCH  12  17
ATOM     17  O   UNL     1       2.613   2.948   3.221  1.00  0.00    -0.496 OA
ATOM     18  C   UNL     1       3.159   3.491   4.418  1.00  0.00     0.278 C 
ENDBRANCH  12  17
BRANCH  16  19
ATOM     19  C   UNL     1       5.337  -1.218   0.490  1.00  0.00     0.251 C 
ATOM     20  N   UNL     1       5.189  -1.276  -0.882  1.00  0.00    -0.349 N 
ATOM     21  O   UNL     1       6.046  -1.984   1.136  1.00  0.00    -0.269 OA
ATOM     22  H   UNL     1       4.697  -0.535  -1.365  1.00  0.00     0.164 HD
BRANCH  20  23
ATOM     23  C   UNL     1       5.853  -2.262  -1.676  1.00  0.00     0.082 C 
ATOM     24  C   UNL     1       5.074  -3.389  -2.294  1.00  0.00     0.027 C 
ATOM     25  C   UNL     1       5.646  -2.311  -3.165  1.00  0.00     0.027 C 
ENDBRANCH  20  23
ENDBRANCH  16  19
ENDBRANCH  10  11
ENDBRANCH   1  10
BRANCH   5  26
ATOM     26  N   UNL     1      -3.065   0.967  -0.213  1.00  0.00    -0.310 N 
ATOM     27  C   UNL     1      -4.051  -0.003  -0.095  1.00  0.00     0.225 C 
ATOM     28  H   UNL     1      -3.339   1.838  -0.641  1.00  0.00     0.171 HD
ATOM     29  O   UNL     1      -3.964  -1.079   0.484  1.00  0.00    -0.275 OA
BRANCH  27  30
ATOM     30  C   UNL     1      -5.343   0.450  -0.765  1.00  0.00     0.101 C 
BRANCH  30  31
ATOM     31  C   UNL     1      -6.443  -0.614  -0.784  1.00  0.00     0.013 C 
BRANCH  31  32
ATOM     32  C   UNL     1      -6.170  -1.826  -1.697  1.00  0.00    -0.017 C 
ATOM     33  C   UNL     1      -6.054  -1.435  -3.171  1.00  0.00     0.007 C 
ATOM     34  C   UNL     1      -7.285  -2.860  -1.524  1.00  0.00     0.007 C 
ENDBRANCH  31  32
ENDBRANCH  30  31
ENDBRANCH  27  30
ENDBRANCH   5  26
TORSDOF 9
