REMARK SMILES COc1ccc(O)c(C(=O)c2ccc(C(=O)N[C@@H]3CCNC[C@H]3NC(=O)c3cccnc3)cc2)c1F
REMARK SMILES IDX 11 1 12 2 13 3 14 4 33 5 34 6 9 7 10 8 8 9 3 10 4 11 35 12
REMARK SMILES IDX 5 13 6 14 36 15 2 16 1 17 7 18 15 20 17 21 16 22 18 24 19 25
REMARK SMILES IDX 23 26 20 27 22 28 21 29 24 31 25 32 26 34 27 35 28 36 32 37
REMARK SMILES IDX 29 38 31 39 30 40
REMARK H PARENT 7 19 17 23 21 30 24 33
ROOT
ATOM      1  C   UNL     1      -3.365   1.219   0.328  1.00  0.00     0.023 A 
ATOM      2  C   UNL     1      -3.013   0.079  -0.405  1.00  0.00     0.013 A 
ATOM      3  C   UNL     1      -1.704  -0.414  -0.345  1.00  0.00     0.014 A 
ATOM      4  C   UNL     1      -0.740   0.220   0.453  1.00  0.00     0.039 A 
ATOM      5  C   UNL     1      -1.086   1.372   1.166  1.00  0.00     0.014 A 
ATOM      6  C   UNL     1      -2.392   1.868   1.101  1.00  0.00     0.013 A 
ENDROOT
BRANCH   1   7
ATOM      7  C   UNL     1      -4.733   1.809   0.274  1.00  0.00     0.199 C 
ATOM      8  O   UNL     1      -4.927   2.971   0.622  1.00  0.00    -0.288 OA
BRANCH   7   9
ATOM      9  C   UNL     1      -5.878   1.026  -0.210  1.00  0.00     0.104 A 
ATOM     10  C   UNL     1      -7.641   0.731  -1.854  1.00  0.00     0.155 A 
ATOM     11  C   UNL     1      -8.119  -0.365  -1.129  1.00  0.00     0.053 A 
ATOM     12  C   UNL     1      -6.523   1.428  -1.378  1.00  0.00     0.179 A 
ATOM     13  C   UNL     1      -7.484  -0.764   0.055  1.00  0.00     0.051 A 
ATOM     14  C   UNL     1      -6.363  -0.072   0.509  1.00  0.00     0.130 A 
ATOM     15  F   UNL     1      -6.088   2.503  -2.055  1.00  0.00    -0.202 F 
BRANCH  10  16
ATOM     16  O   UNL     1      -8.168   1.190  -3.030  1.00  0.00    -0.494 OA
ATOM     17  C   UNL     1      -9.390   0.613  -3.478  1.00  0.00     0.278 C 
ENDBRANCH  10  16
BRANCH  14  18
ATOM     18  O   UNL     1      -5.743  -0.464   1.665  1.00  0.00    -0.507 OA
ATOM     19  H   UNL     1      -6.310  -1.103   2.134  1.00  0.00     0.293 HD
ENDBRANCH  14  18
ENDBRANCH   7   9
ENDBRANCH   1   7
BRANCH   4  20
ATOM     20  C   UNL     1       0.634  -0.355   0.495  1.00  0.00     0.251 C 
ATOM     21  N   UNL     1       1.322  -0.205   1.681  1.00  0.00    -0.347 N 
ATOM     22  O   UNL     1       1.080  -0.962  -0.468  1.00  0.00    -0.269 OA
ATOM     23  H   UNL     1       0.892   0.290   2.449  1.00  0.00     0.164 HD
BRANCH  21  24
ATOM     24  C   UNL     1       2.701  -0.676   1.832  1.00  0.00     0.107 C 
ATOM     25  C   UNL     1       2.973  -1.004   3.305  1.00  0.00     0.042 C 
ATOM     26  C   UNL     1       3.738   0.332   1.244  1.00  0.00     0.118 C 
ATOM     27  C   UNL     1       4.454  -1.273   3.533  1.00  0.00     0.083 C 
ATOM     28  C   UNL     1       4.651   0.880   2.363  1.00  0.00     0.108 C 
ATOM     29  N   UNL     1       5.327  -0.176   3.134  1.00  0.00    -0.315 NA
ATOM     30  H   UNL     1       5.775   0.240   3.950  1.00  0.00     0.122 HD
BRANCH  26  31
ATOM     31  N   UNL     1       4.538  -0.271   0.172  1.00  0.00    -0.346 N 
ATOM     32  C   UNL     1       5.279   0.500  -0.696  1.00  0.00     0.253 C 
ATOM     33  H   UNL     1       4.530  -1.276   0.074  1.00  0.00     0.164 HD
ATOM     34  O   UNL     1       5.245   1.726  -0.705  1.00  0.00    -0.269 OA
BRANCH  32  35
ATOM     35  C   UNL     1       6.139  -0.222  -1.663  1.00  0.00     0.058 A 
ATOM     36  C   UNL     1       6.676  -1.481  -1.411  1.00  0.00     0.017 A 
ATOM     37  C   UNL     1       6.480   0.400  -2.858  1.00  0.00     0.124 A 
ATOM     38  C   UNL     1       7.504  -2.076  -2.366  1.00  0.00     0.021 A 
ATOM     39  N   UNL     1       7.283  -0.156  -3.803  1.00  0.00    -0.264 NA
ATOM     40  C   UNL     1       7.775  -1.382  -3.533  1.00  0.00     0.111 A 
ENDBRANCH  32  35
ENDBRANCH  26  31
ENDBRANCH  21  24
ENDBRANCH   4  20
TORSDOF 8
