MODEL        6USER    Run = 6USERUSER    Estimated Free Energy of Binding    =  -6.73 kcal/mol  [=(1)+(2)+(3)-(4)]USERUSER    (1) Final Intermolecular Energy     = -10.31 kcal/molUSER        vdW + Hbond + desolv Energy     = -10.02 kcal/molUSER        Electrostatic Energy            =  -0.29 kcal/molUSER        Moving Ligand-Fixed Receptor    = -10.31 kcal/molUSER        Moving Ligand-Moving Receptor   =  +0.00 kcal/molUSER    (2) Final Total Internal Energy     =  -3.87 kcal/molUSER    (3) Torsional Free Energy           =  +3.58 kcal/molUSER    (4) Unbound System's Energy         =  -3.87 kcal/molUSERUSERREMARK SMILES CCNC(=O)c1c(O)cccc1-c1cncc(C=Cc2ccccc2CNCCOC)n1REMARK SMILES IDX 20 1 21 2 22 3 23 4 24 5 25 6 19 7 18 8 17 9 13 10 14 11REMARK SMILES IDX 32 12 15 13 16 14 12 15 6 16 7 17 9 18 11 19 10 20 4 21 3 22REMARK SMILES IDX 5 24 2 25 1 26 8 27 26 29 27 30 28 32 29 33 30 34 31 35REMARK H PARENT 3 23 8 28 27 31USER                              x       y       z     vdW  Elec       q    TypeUSER                           _______ _______ _______ _____ _____    ______ ____ROOTATOM      1  C   UNL     1      15.456 -14.081 -11.574 -0.34 +0.01    -0.021 A  ATOM      2  C   UNL     1      16.823 -14.078 -11.247 -0.46 -0.00    +0.008 A  ATOM      3  C   UNL     1      17.238 -13.950  -9.922 -0.38 -0.00    +0.001 A  ATOM      4  C   UNL     1      16.291 -13.832  -8.908 -0.37 -0.00    +0.000 A  ATOM      5  C   UNL     1      14.933 -13.837  -9.222 -0.36 -0.00    +0.005 A  ATOM      6  C   UNL     1      14.491 -13.942 -10.556 -0.31 +0.01    -0.027 A  ENDROOTBRANCH   1   7ATOM      7  C   UNL     1      15.104 -14.256 -12.986 -0.35 -0.00    +0.011 C  BRANCH   7   8ATOM      8  C   UNL     1      14.797 -15.463 -13.484 -0.41 -0.01    +0.030 C  BRANCH   8   9ATOM      9  C   UNL     1      13.443 -16.032 -13.467 -0.20 -0.02    +0.082 A  ATOM     10  C   UNL     1      11.215 -15.891 -14.081 -0.17 -0.01    +0.090 A  ATOM     11  C   UNL     1      10.981 -17.100 -13.425 -0.08 +0.00    +0.140 A  ATOM     12  N   UNL     1      12.468 -15.357 -14.124 -0.09 +0.07    -0.245 NA ATOM     13  N   UNL     1      11.951 -17.803 -12.788 -0.25 +0.02    -0.260 NA ATOM     14  C   UNL     1      13.177 -17.232 -12.815 -0.24 -0.03    +0.139 A  BRANCH  10  15ATOM     15  C   UNL     1      10.191 -15.170 -14.860 -0.20 -0.00    +0.018 A  ATOM     16  C   UNL     1      10.361 -14.712 -16.189 -0.20 -0.03    +0.090 A  ATOM     17  C   UNL     1       9.328 -13.977 -16.811 -0.17 -0.08    +0.129 A  ATOM     18  C   UNL     1       8.134 -13.697 -16.145 -0.21 -0.02    +0.047 A  ATOM     19  C   UNL     1       8.960 -14.886 -14.219 -0.28 -0.00    +0.011 A  ATOM     20  C   UNL     1       7.949 -14.160 -14.848 -0.34 -0.00    +0.005 A  BRANCH  16  21ATOM     21  C   UNL     1      11.604 -15.055 -16.949 -0.29 -0.03    +0.255 C  ATOM     22  N   UNL     1      12.176 -16.275 -16.659 -0.12 -0.03    -0.352 N  ATOM     23  H   UNL     1      11.885 -16.718 -15.792 +0.10 -0.00    +0.163 HD ATOM     24  O   UNL     1      12.052 -14.292 -17.798 -0.50 +0.03    -0.269 OA BRANCH  22  25ATOM     25  C   UNL     1      13.423 -16.698 -17.258 -0.29 +0.03    +0.112 C  ATOM     26  C   UNL     1      13.873 -18.052 -16.739 -0.45 +0.01    +0.027 C  ENDBRANCH  22  25ENDBRANCH  16  21BRANCH  17  27ATOM     27  O   UNL     1       9.473 -13.514 -18.095 -0.09 +0.48    -0.507 OA ATOM     28  H   UNL     1      10.308 -13.016 -18.161 -0.19 -0.56    +0.293 HD ENDBRANCH  17  27ENDBRANCH  10  15ENDBRANCH   8   9ENDBRANCH   7   8ENDBRANCH   1   7BRANCH   6  29ATOM     29  C   UNL     1      13.003 -13.966 -10.847 -0.29 -0.08    +0.117 C  BRANCH  29  30ATOM     30  N   UNL     1      12.423 -12.658 -11.193 -0.16 +0.22    -0.310 NA ATOM     31  H   UNL     1      11.744 -12.407 -10.473 -0.43 -0.16    +0.123 HD BRANCH  30  32ATOM     32  C   UNL     1      11.758 -12.639 -12.508 -0.35 -0.05    +0.109 C  BRANCH  32  33ATOM     33  C   UNL     1      10.366 -11.984 -12.536 -0.35 -0.07    +0.175 C  BRANCH  33  34ATOM     34  O   UNL     1      10.124 -11.200 -11.368 -0.66 +0.06    -0.383 OA ATOM     35  C   UNL     1      10.144  -9.806 -11.614 -0.52 -0.04    +0.194 C  ENDBRANCH  33  34ENDBRANCH  32  33ENDBRANCH  30  32ENDBRANCH  29  30ENDBRANCH   6  29TORSDOF 12TERENDMDL