MODEL        3USER    Run = 3USERUSER    Estimated Free Energy of Binding    =  -8.85 kcal/mol  [=(1)+(2)+(3)-(4)]USERUSER    (1) Final Intermolecular Energy     = -10.94 kcal/molUSER        vdW + Hbond + desolv Energy     = -10.64 kcal/molUSER        Electrostatic Energy            =  -0.30 kcal/molUSER        Moving Ligand-Fixed Receptor    = -10.94 kcal/molUSER        Moving Ligand-Moving Receptor   =  +0.00 kcal/molUSER    (2) Final Total Internal Energy     =  -1.83 kcal/molUSER    (3) Torsional Free Energy           =  +2.09 kcal/molUSER    (4) Unbound System's Energy         =  -1.83 kcal/molUSERUSERREMARK SMILES Cc1cc(C(=O)N[C@@H]2CNCC[C@H]2NC(=O)c2ccc(C(=O)c3c(O)ccc(C)c3F)cc2)ccn1REMARK SMILES IDX 17 1 18 2 19 3 20 4 32 5 33 6 15 7 14 8 16 10 13 11 8 12REMARK SMILES IDX 9 13 10 14 12 15 11 16 7 18 5 19 6 20 4 22 2 23 3 24 36 25REMARK SMILES IDX 35 26 34 27 1 28 21 29 22 30 23 31 24 32 30 33 26 34 28 35REMARK SMILES IDX 27 36 31 37 29 38 25 39REMARK H PARENT 14 9 10 17 7 21 25 40USER                              x       y       z     vdW  Elec       q    TypeUSER                           _______ _______ _______ _____ _____    ______ ____ROOTATOM      1  C   UNL     1       3.910  -3.810 -10.315 -0.25 -0.01    +0.039 A  ATOM      2  C   UNL     1       3.958  -5.055  -9.674 -0.36 -0.00    +0.014 A  ATOM      3  C   UNL     1       5.041  -5.916  -9.890 -0.33 -0.00    +0.013 A  ATOM      4  C   UNL     1       6.077  -5.540 -10.754 -0.33 -0.01    +0.023 A  ATOM      5  C   UNL     1       6.042  -4.293 -11.385 -0.32 -0.01    +0.013 A  ATOM      6  C   UNL     1       4.958  -3.434 -11.168 -0.24 -0.01    +0.014 A  ENDROOTBRANCH   1   7ATOM      7  C   UNL     1       2.811  -2.830 -10.064 -0.17 -0.06    +0.251 C  ATOM      8  N   UNL     1       3.032  -1.535 -10.480 -0.07 +0.20    -0.347 N  ATOM      9  H   UNL     1       4.010  -1.243 -10.491 -0.35 -0.26    +0.164 HD ATOM     10  O   UNL     1       1.787  -3.187  -9.488 -0.18 -0.04    -0.269 OA BRANCH   8  11ATOM     11  C   UNL     1       2.077  -0.458 -10.208 -0.17 -0.02    +0.107 C  ATOM     12  C   UNL     1       2.429   0.805 -11.050 -0.18 -0.04    +0.118 C  ATOM     13  C   UNL     1       1.170   1.620 -11.423 -0.11 -0.01    +0.108 C  ATOM     14  N   UNL     1       0.190   1.613 -10.336 -0.02 -0.06    -0.315 NA ATOM     15  C   UNL     1       0.629  -0.872 -10.480 -0.15 +0.02    +0.042 C  ATOM     16  C   UNL     1      -0.340   0.260 -10.117 -0.10 +0.05    +0.083 C  ATOM     17  H   UNL     1      -0.588   2.236 -10.569 +0.02 +0.02    +0.122 HD BRANCH  12  18ATOM     18  N   UNL     1       3.409   1.634 -10.340 -0.12 +0.20    -0.346 N  ATOM     19  C   UNL     1       3.102   2.230  -9.137 -0.18 -0.07    +0.251 C  ATOM     20  O   UNL     1       2.055   2.011  -8.536 -0.09 +0.02    -0.269 OA ATOM     21  H   UNL     1       4.240   1.888 -10.856 +0.01 -0.12    +0.164 HD BRANCH  19  22ATOM     22  C   UNL     1       4.112   3.159  -8.572 -0.30 -0.01    +0.043 A  ATOM     23  C   UNL     1       5.708   3.649  -6.855 -0.53 -0.00    +0.038 A  ATOM     24  C   UNL     1       4.757   2.790  -7.390 -0.45 -0.01    +0.037 A  ATOM     25  N   UNL     1       6.022   4.835  -7.429 -0.72 -0.04    -0.262 NA ATOM     26  C   UNL     1       5.367   5.177  -8.557 -0.50 +0.01    +0.112 A  ATOM     27  C   UNL     1       4.410   4.384  -9.165 -0.44 -0.00    +0.034 A  ATOM     28  C   UNL     1       6.427   3.286  -5.590 -0.69 -0.00    +0.067 C  ENDBRANCH  19  22ENDBRANCH  12  18ENDBRANCH   8  11ENDBRANCH   1   7BRANCH   4  29ATOM     29  C   UNL     1       7.248  -6.440 -10.877 -0.35 -0.06    +0.199 C  ATOM     30  O   UNL     1       8.219  -6.244 -10.137 -0.13 +0.11    -0.288 OA BRANCH  29  31ATOM     31  C   UNL     1       7.349  -7.507 -11.896 -0.30 -0.02    +0.100 A  ATOM     32  C   UNL     1       8.460  -8.363 -11.885 -0.35 -0.02    +0.129 A  ATOM     33  C   UNL     1       6.351  -7.717 -12.851 -0.20 -0.01    +0.141 A  ATOM     34  C   UNL     1       8.595  -9.366 -12.843 -0.39 -0.02    +0.047 A  ATOM     35  C   UNL     1       6.470  -8.723 -13.821 -0.26 -0.00    -0.014 A  ATOM     36  C   UNL     1       7.603  -9.546 -13.810 -0.27 -0.00    +0.010 A  ATOM     37  F   UNL     1       5.235  -6.971 -12.847 +0.00 -0.01    -0.206 F  ATOM     38  C   UNL     1       5.373  -8.938 -14.818 -0.18 +0.02    +0.047 C  BRANCH  32  39ATOM     39  O   UNL     1       9.459  -8.279 -10.948 -1.12 -0.16    -0.507 OA ATOM     40  H   UNL     1       9.214  -7.568 -10.312 +0.23 +0.12    +0.293 HD ENDBRANCH  32  39ENDBRANCH  29  31ENDBRANCH   4  29TORSDOF 7TERENDMDL