REMARK SMILES Cc1cc(C(=O)N[C@@H]2CNCC[C@H]2NC(=O)c2ccc(C(=O)c3c(O)ccc(C)c3F)cc2)ccn1
REMARK SMILES IDX 17 1 18 2 19 3 20 4 32 5 33 6 15 7 14 8 16 10 13 11 8 12
REMARK SMILES IDX 9 13 10 14 12 15 11 16 7 18 5 19 6 20 4 22 2 23 3 24 36 25
REMARK SMILES IDX 35 26 34 27 1 28 21 29 22 30 23 31 24 32 30 33 26 34 28 35
REMARK SMILES IDX 27 36 31 37 29 38 25 39
REMARK H PARENT 14 9 10 17 7 21 25 40
ROOT
ATOM      1  C   UNL     1       1.240  -1.541   0.179  1.00  0.00     0.039 A 
ATOM      2  C   UNL     1       1.407  -1.370  -1.202  1.00  0.00     0.014 A 
ATOM      3  C   UNL     1       2.578  -0.788  -1.702  1.00  0.00     0.013 A 
ATOM      4  C   UNL     1       3.584  -0.366  -0.825  1.00  0.00     0.023 A 
ATOM      5  C   UNL     1       3.430  -0.547   0.553  1.00  0.00     0.013 A 
ATOM      6  C   UNL     1       2.258  -1.129   1.051  1.00  0.00     0.014 A 
ENDROOT
BRANCH   1   7
ATOM      7  C   UNL     1       0.040  -2.218   0.756  1.00  0.00     0.251 C 
ATOM      8  N   UNL     1      -1.075  -2.289  -0.050  1.00  0.00    -0.347 N 
ATOM      9  H   UNL     1      -1.169  -1.534  -0.731  1.00  0.00     0.164 HD
ATOM     10  O   UNL     1       0.071  -2.652   1.904  1.00  0.00    -0.269 OA
BRANCH   8  11
ATOM     11  C   UNL     1      -2.346  -2.839   0.429  1.00  0.00     0.107 C 
ATOM     12  C   UNL     1      -3.482  -2.552  -0.598  1.00  0.00     0.118 C 
ATOM     13  C   UNL     1      -4.558  -3.662  -0.594  1.00  0.00     0.108 C 
ATOM     14  N   UNL     1      -4.791  -4.174   0.757  1.00  0.00    -0.315 NA
ATOM     15  C   UNL     1      -2.269  -4.343   0.706  1.00  0.00     0.042 C 
ATOM     16  C   UNL     1      -3.598  -4.862   1.269  1.00  0.00     0.083 C 
ATOM     17  H   UNL     1      -5.571  -4.836   0.746  1.00  0.00     0.122 HD
BRANCH  12  18
ATOM     18  N   UNL     1      -4.076  -1.235  -0.345  1.00  0.00    -0.346 N 
ATOM     19  C   UNL     1      -3.414  -0.075  -0.683  1.00  0.00     0.251 C 
ATOM     20  O   UNL     1      -2.362  -0.072  -1.315  1.00  0.00    -0.269 OA
ATOM     21  H   UNL     1      -4.898  -1.219   0.243  1.00  0.00     0.164 HD
BRANCH  19  22
ATOM     22  C   UNL     1      -4.039   1.202  -0.258  1.00  0.00     0.043 A 
ATOM     23  C   UNL     1      -4.371   3.543  -0.637  1.00  0.00     0.038 A 
ATOM     24  C   UNL     1      -3.787   2.343  -1.022  1.00  0.00     0.037 A 
ATOM     25  N   UNL     1      -5.162   3.649   0.457  1.00  0.00    -0.262 NA
ATOM     26  C   UNL     1      -5.369   2.536   1.190  1.00  0.00     0.112 A 
ATOM     27  C   UNL     1      -4.835   1.298   0.881  1.00  0.00     0.034 A 
ATOM     28  C   UNL     1      -4.131   4.790  -1.435  1.00  0.00     0.067 C 
ENDBRANCH  19  22
ENDBRANCH  12  18
ENDBRANCH   8  11
ENDBRANCH   1   7
BRANCH   4  29
ATOM     29  C   UNL     1       4.845   0.155  -1.403  1.00  0.00     0.199 C 
ATOM     30  O   UNL     1       5.303  -0.399  -2.408  1.00  0.00    -0.288 OA
BRANCH  29  31
ATOM     31  C   UNL     1       5.628   1.251  -0.790  1.00  0.00     0.100 A 
ATOM     32  C   UNL     1       7.021   1.271  -0.949  1.00  0.00     0.129 A 
ATOM     33  C   UNL     1       5.019   2.293  -0.086  1.00  0.00     0.141 A 
ATOM     34  C   UNL     1       7.789   2.278  -0.368  1.00  0.00     0.047 A 
ATOM     35  C   UNL     1       5.777   3.315   0.503  1.00  0.00    -0.014 A 
ATOM     36  C   UNL     1       7.170   3.298   0.357  1.00  0.00     0.010 A 
ATOM     37  F   UNL     1       3.682   2.354   0.022  1.00  0.00    -0.206 F 
ATOM     38  C   UNL     1       5.094   4.432   1.232  1.00  0.00     0.047 C 
BRANCH  32  39
ATOM     39  O   UNL     1       7.704   0.329  -1.677  1.00  0.00    -0.507 OA
ATOM     40  H   UNL     1       7.044  -0.179  -2.203  1.00  0.00     0.293 HD
ENDBRANCH  32  39
ENDBRANCH  29  31
ENDBRANCH   4  29
TORSDOF 7
