MODEL        3USER    Run = 3USERUSER    Estimated Free Energy of Binding    =  -8.59 kcal/mol  [=(1)+(2)+(3)-(4)]USERUSER    (1) Final Intermolecular Energy     = -11.27 kcal/molUSER        vdW + Hbond + desolv Energy     = -10.67 kcal/molUSER        Electrostatic Energy            =  -0.60 kcal/molUSER        Moving Ligand-Fixed Receptor    = -11.27 kcal/molUSER        Moving Ligand-Moving Receptor   =  +0.00 kcal/molUSER    (2) Final Total Internal Energy     =  -2.15 kcal/molUSER    (3) Torsional Free Energy           =  +2.68 kcal/molUSER    (4) Unbound System's Energy         =  -2.15 kcal/molUSERUSERREMARK SMILES COc1cc(C(=O)N[C@@H]2CNCC[C@H]2NC(=O)c2ccc(C(=O)c3c(O)ccc(OC)c3F)cc2)ccn1REMARK SMILES IDX 15 1 16 2 17 3 14 5 9 6 10 7 11 8 13 9 12 10 8 12 6 13 7 14REMARK SMILES IDX 5 16 3 17 4 18 38 19 37 20 36 21 2 22 1 23 18 24 19 25 35 26REMARK SMILES IDX 20 27 34 28 21 29 22 30 23 31 24 32 25 33 32 34 27 35 29 36REMARK SMILES IDX 28 37 33 38 26 39 30 41 31 42REMARK H PARENT 15 4 11 11 8 15 26 40USER                              x       y       z     vdW  Elec       q    TypeUSER                           _______ _______ _______ _____ _____    ______ ____ROOTATOM      1  N   UNL     1      10.391 -10.550 -12.976 -0.23 +0.26    -0.347 N  ATOM      2  C   UNL     1       9.964  -9.695 -11.979 -0.48 -0.07    +0.251 C  ATOM      3  O   UNL     1      10.500  -9.611 -10.881 -0.77 +0.01    -0.269 OA ATOM      4  H   UNL     1       9.760 -10.730 -13.745 -0.34 -0.24    +0.164 HD ENDROOTBRANCH   1   5ATOM      5  C   UNL     1      11.507 -11.481 -12.762 -0.42 -0.06    +0.107 C  ATOM      6  C   UNL     1      11.437 -12.148 -11.364 -0.40 -0.07    +0.118 C  ATOM      7  C   UNL     1      10.342 -13.236 -11.333 -0.35 -0.02    +0.108 C  ATOM      8  N   UNL     1      10.551 -14.238 -12.389 -0.68 +0.00    -0.315 NA ATOM      9  C   UNL     1      11.570 -12.546 -13.872 -0.34 -0.03    +0.042 C  ATOM     10  C   UNL     1      10.489 -13.611 -13.712 -0.26 -0.03    +0.083 C  ATOM     11  H   UNL     1       9.820 -14.947 -12.322 +0.11 +0.06    +0.122 HD BRANCH   6  12ATOM     12  N   UNL     1      12.728 -12.736 -10.990 -0.14 +0.26    -0.346 N  ATOM     13  C   UNL     1      13.592 -12.053 -10.157 -0.06 -0.18    +0.251 C  ATOM     14  O   UNL     1      13.416 -10.888  -9.819 -0.13 +0.16    -0.269 OA ATOM     15  H   UNL     1      12.722 -13.746 -10.917 +0.09 -0.12    +0.164 HD BRANCH  13  16ATOM     16  C   UNL     1      14.756 -12.814  -9.629 -0.34 -0.02    +0.046 A  ATOM     17  C   UNL     1      16.438 -13.273  -8.013 -0.24 -0.06    +0.213 A  ATOM     18  C   UNL     1      15.356 -12.507  -8.410 -0.35 -0.04    +0.082 A  ATOM     19  N   UNL     1      16.937 -14.301  -8.731 -0.22 +0.04    -0.222 NA ATOM     20  C   UNL     1      16.323 -14.589  -9.898 -0.28 -0.03    +0.116 A  ATOM     21  C   UNL     1      15.240 -13.882 -10.385 -0.31 -0.01    +0.034 A  BRANCH  17  22ATOM     22  O   UNL     1      17.013 -12.933  -6.804 -0.11 +0.08    -0.481 OA ATOM     23  C   UNL     1      16.303 -11.905  -6.120 -0.32 -0.06    +0.280 C  ENDBRANCH  17  22ENDBRANCH  13  16ENDBRANCH   6  12ENDBRANCH   1   5BRANCH   2  24ATOM     24  C   UNL     1       8.763  -8.872 -12.287 -0.45 -0.01    +0.039 A  ATOM     25  C   UNL     1       8.163  -9.012 -13.546 -0.30 -0.01    +0.014 A  ATOM     26  C   UNL     1       8.211  -7.989 -11.351 -0.46 -0.00    +0.014 A  ATOM     27  C   UNL     1       7.030  -8.263 -13.878 -0.28 -0.00    +0.013 A  ATOM     28  C   UNL     1       7.075  -7.242 -11.681 -0.41 -0.00    +0.013 A  ATOM     29  C   UNL     1       6.474  -7.389 -12.938 -0.25 -0.00    +0.023 A  BRANCH  29  30ATOM     30  C   UNL     1       5.290  -6.553 -13.252 -0.10 +0.00    +0.199 C  ATOM     31  O   UNL     1       5.468  -5.434 -13.740 -0.11 +0.04    -0.288 OA BRANCH  30  32ATOM     32  C   UNL     1       3.897  -7.012 -13.063 -0.07 +0.02    +0.104 A  ATOM     33  C   UNL     1       2.850  -6.089 -13.165 -0.06 +0.02    +0.130 A  ATOM     34  C   UNL     1       3.592  -8.336 -12.744 -0.14 +0.09    +0.179 A  ATOM     35  C   UNL     1       1.527  -6.496 -13.019 -0.11 +0.01    +0.051 A  ATOM     36  C   UNL     1       2.265  -8.760 -12.587 -0.21 +0.14    +0.155 A  ATOM     37  C   UNL     1       1.231  -7.832 -12.736 -0.19 +0.03    +0.053 A  ATOM     38  F   UNL     1       4.579  -9.229 -12.559 -0.07 -0.10    -0.202 F  BRANCH  33  39ATOM     39  O   UNL     1       3.053  -4.757 -13.408 +0.03 +0.02    -0.507 OA ATOM     40  H   UNL     1       4.007  -4.629 -13.614 +0.09 -0.03    +0.293 HD ENDBRANCH  33  39BRANCH  36  41ATOM     41  O   UNL     1       2.100 -10.088 -12.296 -0.59 -0.85    -0.494 OA ATOM     42  C   UNL     1       2.580 -10.543 -11.037 -0.45 +0.21    +0.278 C  ENDBRANCH  36  41ENDBRANCH  30  32ENDBRANCH  29  30ENDBRANCH   2  24TORSDOF 9TERENDMDL