REMARK SMILES COc1cc(C(=O)N[C@@H]2CNCC[C@H]2NC(=O)c2ccc(C(=O)c3c(O)ccc(OC)c3F)cc2)ccn1
REMARK SMILES IDX 15 1 16 2 17 3 14 5 9 6 10 7 11 8 13 9 12 10 8 12 6 13 7 14
REMARK SMILES IDX 5 16 3 17 4 18 38 19 37 20 36 21 2 22 1 23 18 24 19 25 35 26
REMARK SMILES IDX 20 27 34 28 21 29 22 30 23 31 24 32 25 33 32 34 27 35 29 36
REMARK SMILES IDX 28 37 33 38 26 39 30 41 31 42
REMARK H PARENT 15 4 11 11 8 15 26 40
ROOT
ATOM      1  N   UNL     1       0.534   0.042  -0.493  1.00  0.00    -0.347 N 
ATOM      2  C   UNL     1      -0.538   0.390   0.305  1.00  0.00     0.251 C 
ATOM      3  O   UNL     1      -0.549   1.372   1.037  1.00  0.00    -0.269 OA
ATOM      4  H   UNL     1       0.555  -0.895  -0.872  1.00  0.00     0.164 HD
ENDROOT
BRANCH   1   5
ATOM      5  C   UNL     1       1.786   0.811  -0.474  1.00  0.00     0.107 C 
ATOM      6  C   UNL     1       2.962   0.006  -1.084  1.00  0.00     0.118 C 
ATOM      7  C   UNL     1       2.852  -0.039  -2.623  1.00  0.00     0.108 C 
ATOM      8  N   UNL     1       2.781   1.314  -3.196  1.00  0.00    -0.315 NA
ATOM      9  C   UNL     1       1.623   2.165  -1.187  1.00  0.00     0.042 C 
ATOM     10  C   UNL     1       1.593   2.018  -2.706  1.00  0.00     0.083 C 
ATOM     11  H   UNL     1       2.729   1.241  -4.213  1.00  0.00     0.122 HD
BRANCH   6  12
ATOM     12  N   UNL     1       4.256   0.581  -0.698  1.00  0.00    -0.346 N 
ATOM     13  C   UNL     1       5.377  -0.220  -0.608  1.00  0.00     0.251 C 
ATOM     14  O   UNL     1       5.335  -1.443  -0.682  1.00  0.00    -0.269 OA
ATOM     15  H   UNL     1       4.397   1.536  -1.005  1.00  0.00     0.164 HD
BRANCH  13  16
ATOM     16  C   UNL     1       6.685   0.472  -0.458  1.00  0.00     0.046 A 
ATOM     17  C   UNL     1       8.053   2.327   0.124  1.00  0.00     0.213 A 
ATOM     18  C   UNL     1       6.789   1.773   0.029  1.00  0.00     0.082 A 
ATOM     19  N   UNL     1       9.187   1.680  -0.218  1.00  0.00    -0.222 NA
ATOM     20  C   UNL     1       9.058   0.414  -0.667  1.00  0.00     0.116 A 
ATOM     21  C   UNL     1       7.842  -0.228  -0.803  1.00  0.00     0.034 A 
BRANCH  17  22
ATOM     22  O   UNL     1       8.115   3.622   0.602  1.00  0.00    -0.481 OA
ATOM     23  C   UNL     1       9.444   4.131   0.659  1.00  0.00     0.280 C 
ENDBRANCH  17  22
ENDBRANCH  13  16
ENDBRANCH   6  12
ENDBRANCH   1   5
BRANCH   2  24
ATOM     24  C   UNL     1      -1.711  -0.525   0.268  1.00  0.00     0.039 A 
ATOM     25  C   UNL     1      -2.511  -0.631   1.414  1.00  0.00     0.014 A 
ATOM     26  C   UNL     1      -2.044  -1.256  -0.879  1.00  0.00     0.014 A 
ATOM     27  C   UNL     1      -3.626  -1.475   1.424  1.00  0.00     0.013 A 
ATOM     28  C   UNL     1      -3.161  -2.098  -0.871  1.00  0.00     0.013 A 
ATOM     29  C   UNL     1      -3.962  -2.197   0.274  1.00  0.00     0.023 A 
BRANCH  29  30
ATOM     30  C   UNL     1      -5.118  -3.125   0.244  1.00  0.00     0.199 C 
ATOM     31  O   UNL     1      -5.005  -4.192  -0.364  1.00  0.00    -0.288 OA
BRANCH  30  32
ATOM     32  C   UNL     1      -6.389  -2.865   0.954  1.00  0.00     0.104 A 
ATOM     33  C   UNL     1      -7.135  -3.943   1.444  1.00  0.00     0.130 A 
ATOM     34  C   UNL     1      -6.893  -1.574   1.118  1.00  0.00     0.179 A 
ATOM     35  C   UNL     1      -8.322  -3.728   2.140  1.00  0.00     0.051 A 
ATOM     36  C   UNL     1      -8.090  -1.342   1.811  1.00  0.00     0.155 A 
ATOM     37  C   UNL     1      -8.798  -2.428   2.330  1.00  0.00     0.053 A 
ATOM     38  F   UNL     1      -6.242  -0.524   0.589  1.00  0.00    -0.202 F 
BRANCH  33  39
ATOM     39  O   UNL     1      -6.758  -5.248   1.274  1.00  0.00    -0.507 OA
ATOM     40  H   UNL     1      -6.042  -5.270   0.598  1.00  0.00     0.293 HD
ENDBRANCH  33  39
BRANCH  36  41
ATOM     41  O   UNL     1      -8.463  -0.029   1.920  1.00  0.00    -0.494 OA
ATOM     42  C   UNL     1      -9.697   0.246   2.572  1.00  0.00     0.278 C 
ENDBRANCH  36  41
ENDBRANCH  30  32
ENDBRANCH  29  30
ENDBRANCH   2  24
TORSDOF 9
