REMARK SMILES CCNC(=O)c1c(O)cccc1-c1cncc(C=Cc2ccccc2CNCCOC)n1
REMARK SMILES IDX 20 1 21 2 22 3 23 4 24 5 25 6 19 7 18 8 17 9 13 10 14 11
REMARK SMILES IDX 32 12 15 13 16 14 12 15 6 16 7 17 9 18 11 19 10 20 4 21 3 22
REMARK SMILES IDX 5 24 2 25 1 26 8 27 26 29 27 30 28 32 29 33 30 34 31 35
REMARK H PARENT 3 23 8 28 27 31
ROOT
ATOM      1  C   UNL     1      -2.845  -2.711  -0.138  1.00  0.00    -0.021 A 
ATOM      2  C   UNL     1      -3.079  -3.945   0.492  1.00  0.00     0.008 A 
ATOM      3  C   UNL     1      -4.357  -4.502   0.517  1.00  0.00     0.001 A 
ATOM      4  C   UNL     1      -5.415  -3.835  -0.095  1.00  0.00     0.000 A 
ATOM      5  C   UNL     1      -5.193  -2.612  -0.726  1.00  0.00     0.005 A 
ATOM      6  C   UNL     1      -3.914  -2.019  -0.743  1.00  0.00    -0.027 A 
ENDROOT
BRANCH   1   7
ATOM      7  C   UNL     1      -1.467  -2.213  -0.150  1.00  0.00     0.011 C 
BRANCH   7   8
ATOM      8  C   UNL     1      -0.648  -2.452  -1.186  1.00  0.00     0.030 C 
BRANCH   8   9
ATOM      9  C   UNL     1       0.743  -1.986  -1.250  1.00  0.00     0.082 A 
ATOM     10  C   UNL     1       2.522  -0.883  -0.260  1.00  0.00     0.090 A 
ATOM     11  C   UNL     1       3.291  -1.153  -1.393  1.00  0.00     0.140 A 
ATOM     12  N   UNL     1       1.236  -1.324  -0.174  1.00  0.00    -0.245 NA
ATOM     13  N   UNL     1       2.823  -1.839  -2.466  1.00  0.00    -0.260 NA
ATOM     14  C   UNL     1       1.532  -2.233  -2.369  1.00  0.00     0.139 A 
BRANCH  10  15
ATOM     15  C   UNL     1       3.050  -0.226   0.951  1.00  0.00     0.018 A 
ATOM     16  C   UNL     1       3.766   0.995   0.960  1.00  0.00     0.090 A 
ATOM     17  C   UNL     1       4.277   1.495   2.178  1.00  0.00     0.129 A 
ATOM     18  C   UNL     1       4.083   0.813   3.380  1.00  0.00     0.047 A 
ATOM     19  C   UNL     1       2.854  -0.883   2.191  1.00  0.00     0.011 A 
ATOM     20  C   UNL     1       3.363  -0.375   3.385  1.00  0.00     0.005 A 
BRANCH  16  21
ATOM     21  C   UNL     1       3.931   1.779  -0.304  1.00  0.00     0.255 C 
ATOM     22  N   UNL     1       5.147   2.405  -0.476  1.00  0.00    -0.352 N 
ATOM     23  H   UNL     1       5.722   2.515   0.354  1.00  0.00     0.163 HD
ATOM     24  O   UNL     1       3.033   1.822  -1.139  1.00  0.00    -0.269 OA
BRANCH  22  25
ATOM     25  C   UNL     1       5.413   3.262  -1.611  1.00  0.00     0.112 C 
ATOM     26  C   UNL     1       5.755   2.465  -2.857  1.00  0.00     0.027 C 
ENDBRANCH  22  25
ENDBRANCH  16  21
BRANCH  17  27
ATOM     27  O   UNL     1       4.983   2.671   2.211  1.00  0.00    -0.507 OA
ATOM     28  H   UNL     1       5.045   2.979   3.133  1.00  0.00     0.293 HD
ENDBRANCH  17  27
ENDBRANCH  10  15
ENDBRANCH   8   9
ENDBRANCH   7   8
ENDBRANCH   1   7
BRANCH   6  29
ATOM     29  C   UNL     1      -3.716  -0.698  -1.461  1.00  0.00     0.117 C 
BRANCH  29  30
ATOM     30  N   UNL     1      -4.777   0.295  -1.225  1.00  0.00    -0.310 NA
ATOM     31  H   UNL     1      -4.633   1.077  -1.865  1.00  0.00     0.123 HD
BRANCH  30  32
ATOM     32  C   UNL     1      -4.809   0.804   0.157  1.00  0.00     0.109 C 
BRANCH  32  33
ATOM     33  C   UNL     1      -3.634   1.714   0.554  1.00  0.00     0.175 C 
BRANCH  33  34
ATOM     34  O   UNL     1      -3.789   2.238   1.873  1.00  0.00    -0.383 OA
ATOM     35  C   UNL     1      -4.675   3.341   1.938  1.00  0.00     0.194 C 
ENDBRANCH  33  34
ENDBRANCH  32  33
ENDBRANCH  30  32
ENDBRANCH  29  30
ENDBRANCH   6  29
TORSDOF 12
