REMARK SMILES Cc1[nH]c2ccc(O)cc2c1C=CCC[C@H](c1ccc(-c2nnn[nH]2)cc1)[C@H](C)O
REMARK SMILES IDX 14 1 13 2 12 3 11 4 2 5 3 6 4 7 10 8 5 9 9 10 6 11 7 12 1 13
REMARK SMILES IDX 8 15 15 17 16 18 17 19 18 20 27 21 19 22 26 23 20 24 21 25
REMARK SMILES IDX 22 26 25 27 23 28 24 29 28 31 29 32 30 33
REMARK H PARENT 3 14 8 16 25 30 30 34
ROOT
ATOM      1  C   UNL     1       0.099  -1.208  -0.382  1.00  0.00     0.028 C 
ENDROOT
BRANCH   1   2
ATOM      2  C   UNL     1      -1.379  -1.018  -0.182  1.00  0.00    -0.026 C 
BRANCH   2   3
ATOM      3  C   UNL     1      -1.954   0.173   0.056  1.00  0.00     0.006 C 
BRANCH   3   4
ATOM      4  C   UNL     1      -3.350   0.424   0.238  1.00  0.00     0.003 A 
ATOM      5  C   UNL     1      -4.284  -0.415   0.823  1.00  0.00     0.020 A 
ATOM      6  N   UNL     1      -5.495   0.237   0.781  1.00  0.00    -0.358 N 
ATOM      7  C   UNL     1      -5.363   1.485   0.222  1.00  0.00     0.046 A 
ATOM      8  C   UNL     1      -4.021   1.636  -0.127  1.00  0.00     0.011 A 
ATOM      9  C   UNL     1      -6.324   2.481   0.002  1.00  0.00     0.030 A 
ATOM     10  C   UNL     1      -3.619   2.847  -0.732  1.00  0.00     0.057 A 
ATOM     11  C   UNL     1      -5.901   3.673  -0.595  1.00  0.00     0.048 A 
ATOM     12  C   UNL     1      -4.568   3.845  -0.953  1.00  0.00     0.116 A 
ATOM     13  C   UNL     1      -4.177  -1.764   1.440  1.00  0.00     0.065 C 
ATOM     14  H   UNL     1      -6.366  -0.138   1.131  1.00  0.00     0.166 HD
BRANCH  12  15
ATOM     15  O   UNL     1      -4.138   5.001  -1.538  1.00  0.00    -0.508 OA
ATOM     16  H   UNL     1      -4.899   5.593  -1.648  1.00  0.00     0.293 HD
ENDBRANCH  12  15
ENDBRANCH   3   4
ENDBRANCH   2   3
ENDBRANCH   1   2
BRANCH   1  17
ATOM     17  C   UNL     1       0.687  -2.084   0.732  1.00  0.00     0.015 C 
BRANCH  17  18
ATOM     18  C   UNL     1       2.202  -2.401   0.623  1.00  0.00     0.048 C 
BRANCH  18  19
ATOM     19  C   UNL     1       3.054  -1.162   0.364  1.00  0.00    -0.042 A 
ATOM     20  C   UNL     1       3.764  -0.947  -0.821  1.00  0.00     0.005 A 
ATOM     21  C   UNL     1       3.132  -0.175   1.363  1.00  0.00     0.005 A 
ATOM     22  C   UNL     1       4.523   0.217  -1.001  1.00  0.00     0.012 A 
ATOM     23  C   UNL     1       3.890   0.989   1.182  1.00  0.00     0.012 A 
ATOM     24  C   UNL     1       4.596   1.202  -0.007  1.00  0.00     0.021 A 
BRANCH  24  25
ATOM     25  C   UNL     1       5.399   2.399  -0.244  1.00  0.00     0.179 A 
ATOM     26  N   UNL     1       6.191   2.644  -1.274  1.00  0.00    -0.109 NA
ATOM     27  N   UNL     1       5.458   3.500   0.569  1.00  0.00    -0.239 N 
ATOM     28  N   UNL     1       6.732   3.890  -1.070  1.00  0.00    -0.024 NA
ATOM     29  N   UNL     1       6.287   4.419   0.060  1.00  0.00    -0.048 NA
ATOM     30  H   UNL     1       4.985   3.690   1.440  1.00  0.00     0.194 HD
ENDBRANCH  24  25
ENDBRANCH  18  19
BRANCH  18  31
ATOM     31  C   UNL     1       2.533  -3.670  -0.218  1.00  0.00     0.118 C 
ATOM     32  C   UNL     1       1.837  -3.798  -1.566  1.00  0.00     0.039 C 
BRANCH  31  33
ATOM     33  O   UNL     1       2.164  -4.838   0.533  1.00  0.00    -0.393 OA
ATOM     34  H   UNL     1       2.759  -4.892   1.301  1.00  0.00     0.210 HD
ENDBRANCH  31  33
ENDBRANCH  18  31
ENDBRANCH  17  18
ENDBRANCH   1  17
TORSDOF 10
