REMARK SMILES Cc1[nH]c2ccccc2c1C=C[C@H](C[C@H](c1ccc(-c2nnn[nH]2)cc1)[C@@H](C)O)N1CCOCC1
REMARK SMILES IDX 13 1 12 2 11 3 10 4 2 5 3 6 4 7 9 8 5 9 8 10 6 11 7 12 1 13
REMARK SMILES IDX 14 15 15 16 16 17 17 18 26 19 18 20 25 21 19 22 20 23 21 24
REMARK SMILES IDX 24 25 22 26 23 27 27 29 28 30 29 31 30 33 31 34 35 35 32 36
REMARK SMILES IDX 34 37 33 38
REMARK H PARENT 3 14 24 28 29 32
ROOT
ATOM      1  C   UNL     1      -0.259  -0.399  -1.958  1.00  0.00     0.080 C 
ENDROOT
BRANCH   1   2
ATOM      2  C   UNL     1      -1.411  -0.458  -0.968  1.00  0.00    -0.007 C 
BRANCH   2   3
ATOM      3  C   UNL     1      -1.962   0.611  -0.365  1.00  0.00     0.008 C 
BRANCH   3   4
ATOM      4  C   UNL     1      -3.042   0.576   0.567  1.00  0.00     0.002 A 
ATOM      5  C   UNL     1      -4.047   1.527   0.595  1.00  0.00     0.020 A 
ATOM      6  N   UNL     1      -4.904   1.182   1.610  1.00  0.00    -0.358 N 
ATOM      7  C   UNL     1      -4.470   0.044   2.250  1.00  0.00     0.046 A 
ATOM      8  C   UNL     1      -3.292  -0.360   1.620  1.00  0.00     0.007 A 
ATOM      9  C   UNL     1      -5.029  -0.644   3.334  1.00  0.00     0.027 A 
ATOM     10  C   UNL     1      -2.630  -1.503   2.122  1.00  0.00     0.011 A 
ATOM     11  C   UNL     1      -4.358  -1.778   3.800  1.00  0.00     0.002 A 
ATOM     12  C   UNL     1      -3.174  -2.202   3.206  1.00  0.00     0.001 A 
ATOM     13  C   UNL     1      -4.293   2.721  -0.254  1.00  0.00     0.065 C 
ATOM     14  H   UNL     1      -5.738   1.692   1.865  1.00  0.00     0.166 HD
ENDBRANCH   3   4
ENDBRANCH   2   3
ENDBRANCH   1   2
BRANCH   1  15
ATOM     15  C   UNL     1       1.040  -0.017  -1.185  1.00  0.00     0.034 C 
BRANCH  15  16
ATOM     16  C   UNL     1       1.383  -0.861   0.080  1.00  0.00     0.049 C 
BRANCH  16  17
ATOM     17  C   UNL     1       2.418  -0.107   0.913  1.00  0.00    -0.042 A 
ATOM     18  C   UNL     1       3.727   0.103   0.456  1.00  0.00     0.005 A 
ATOM     19  C   UNL     1       2.059   0.404   2.167  1.00  0.00     0.005 A 
ATOM     20  C   UNL     1       4.660   0.792   1.242  1.00  0.00     0.012 A 
ATOM     21  C   UNL     1       2.992   1.091   2.949  1.00  0.00     0.012 A 
ATOM     22  C   UNL     1       4.305   1.292   2.502  1.00  0.00     0.021 A 
BRANCH  22  23
ATOM     23  C   UNL     1       5.246   2.014   3.356  1.00  0.00     0.179 A 
ATOM     24  N   UNL     1       4.996   2.592   4.518  1.00  0.00    -0.109 NA
ATOM     25  N   UNL     1       6.576   2.212   3.098  1.00  0.00    -0.239 N 
ATOM     26  N   UNL     1       6.177   3.146   4.947  1.00  0.00    -0.024 NA
ATOM     27  N   UNL     1       7.150   2.917   4.080  1.00  0.00    -0.048 NA
ATOM     28  H   UNL     1       7.137   1.910   2.315  1.00  0.00     0.194 HD
ENDBRANCH  22  23
ENDBRANCH  16  17
BRANCH  16  29
ATOM     29  C   UNL     1       1.841  -2.306  -0.259  1.00  0.00     0.118 C 
ATOM     30  C   UNL     1       2.241  -3.124   0.970  1.00  0.00     0.039 C 
BRANCH  29  31
ATOM     31  O   UNL     1       0.793  -3.019  -0.920  1.00  0.00    -0.393 OA
ATOM     32  H   UNL     1       0.136  -3.278  -0.247  1.00  0.00     0.210 HD
ENDBRANCH  29  31
ENDBRANCH  16  29
ENDBRANCH  15  16
ENDBRANCH   1  15
BRANCH   1  33
ATOM     33  N   UNL     1      -0.551   0.539  -3.081  1.00  0.00    -0.292 NA
ATOM     34  C   UNL     1      -1.865   0.233  -3.717  1.00  0.00     0.113 C 
ATOM     35  C   UNL     1       0.496   0.579  -4.130  1.00  0.00     0.113 C 
ATOM     36  C   UNL     1      -1.965   0.753  -5.159  1.00  0.00     0.175 C 
ATOM     37  C   UNL     1       0.177  -0.279  -5.366  1.00  0.00     0.175 C 
ATOM     38  O   UNL     1      -1.023   0.125  -6.037  1.00  0.00    -0.379 OA
ENDBRANCH   1  33
TORSDOF 10
