MODEL        3USER    Run = 3USERUSER    Estimated Free Energy of Binding    = -10.29 kcal/mol  [=(1)+(2)+(3)-(4)]USERUSER    (1) Final Intermolecular Energy     = -12.97 kcal/molUSER        vdW + Hbond + desolv Energy     = -12.78 kcal/molUSER        Electrostatic Energy            =  -0.19 kcal/molUSER        Moving Ligand-Fixed Receptor    = -12.97 kcal/molUSER        Moving Ligand-Moving Receptor   =  +0.00 kcal/molUSER    (2) Final Total Internal Energy     =  -2.34 kcal/molUSER    (3) Torsional Free Energy           =  +2.68 kcal/molUSER    (4) Unbound System's Energy         =  -2.34 kcal/molUSERUSERREMARK SMILES Cc1[nH]c2ccccc2c1C=CCC[C@H](c1ccc(F)cc1-c1nnn[nH]1)[C@H](C)OREMARK SMILES IDX 13 1 12 2 11 3 10 4 2 5 3 6 4 7 9 8 5 9 8 10 6 11 7 12 1 13REMARK SMILES IDX 14 15 15 16 16 17 17 18 22 19 18 20 21 21 19 22 20 23 23 24REMARK SMILES IDX 24 25 27 26 25 27 26 28 28 30 29 31 30 32REMARK H PARENT 3 14 27 29 30 33USER                              x       y       z     vdW  Elec       q    TypeUSER                           _______ _______ _______ _____ _____    ______ ____ROOTATOM      1  C   UNL     1      35.995  43.275  15.326 -0.34 -0.01    +0.028 C  ENDROOTBRANCH   1   2ATOM      2  C   UNL     1      36.912  44.394  14.907 -0.38 +0.01    -0.026 C  BRANCH   2   3ATOM      3  C   UNL     1      36.552  45.661  14.634 -0.45 -0.00    +0.006 C  BRANCH   3   4ATOM      4  C   UNL     1      37.423  46.787  14.606 -0.43 -0.00    +0.002 A  ATOM      5  C   UNL     1      37.312  47.844  13.727 -0.54 -0.01    +0.020 A  ATOM      6  N   UNL     1      38.326  48.722  14.030 -0.17 +0.17    -0.358 N  ATOM      7  C   UNL     1      39.079  48.255  15.083 -0.50 -0.02    +0.046 A  ATOM      8  C   UNL     1      38.526  47.036  15.471 -0.44 -0.00    +0.007 A  ATOM      9  C   UNL     1      40.189  48.824  15.720 -0.57 -0.01    +0.027 A  ATOM     10  C   UNL     1      39.106  46.353  16.560 -0.42 -0.00    +0.011 A  ATOM     11  C   UNL     1      40.751  48.121  16.789 -0.54 -0.00    +0.002 A  ATOM     12  C   UNL     1      40.219  46.904  17.206 -0.50 -0.00    +0.001 A  ATOM     13  C   UNL     1      36.355  48.110  12.622 -0.62 -0.03    +0.065 C  ATOM     14  H   UNL     1      38.501  49.594  13.552 -0.34 -0.11    +0.166 HD ENDBRANCH   3   4ENDBRANCH   2   3ENDBRANCH   1   2BRANCH   1  15ATOM     15  C   UNL     1      35.835  43.150  16.849 -0.44 -0.01    +0.015 C  BRANCH  15  16ATOM     16  C   UNL     1      36.066  44.469  17.630 -0.34 -0.02    +0.049 C  BRANCH  16  17ATOM     17  C   UNL     1      36.540  44.222  19.072 -0.34 +0.00    -0.031 A  ATOM     18  C   UNL     1      37.820  44.698  19.444 -0.35 -0.00    +0.008 A  ATOM     19  C   UNL     1      35.765  43.520  20.034 -0.41 -0.00    +0.027 A  ATOM     20  C   UNL     1      38.315  44.517  20.735 -0.34 +0.00    +0.039 A  ATOM     21  C   UNL     1      36.285  43.367  21.336 -0.33 +0.00    +0.051 A  ATOM     22  C   UNL     1      37.539  43.858  21.671 -0.31 +0.01    +0.123 A  ATOM     23  F   UNL     1      38.008  43.684  22.913 -0.06 -0.01    -0.207 F  BRANCH  19  24ATOM     24  C   UNL     1      34.441  42.928  19.801 -0.28 -0.00    +0.179 A  ATOM     25  N   UNL     1      33.285  43.398  20.240 -0.87 -0.02    -0.109 NA ATOM     26  N   UNL     1      34.164  41.745  19.165 -0.20 +0.01    -0.239 N  ATOM     27  N   UNL     1      32.316  42.511  19.845 -0.63 -0.00    -0.024 NA ATOM     28  N   UNL     1      32.847  41.494  19.188 -0.47 -0.00    -0.048 NA ATOM     29  H   UNL     1      34.790  41.089  18.707 +0.03 -0.02    +0.194 HD ENDBRANCH  19  24ENDBRANCH  16  17BRANCH  16  30ATOM     30  C   UNL     1      34.875  45.478  17.677 -0.36 -0.07    +0.118 C  ATOM     31  C   UNL     1      33.663  45.191  16.801 -0.36 -0.03    +0.039 C  BRANCH  30  32ATOM     32  O   UNL     1      35.404  46.780  17.357 -0.20 +0.40    -0.393 OA ATOM     33  H   UNL     1      34.648  47.368  17.176 -0.27 -0.44    +0.210 HD ENDBRANCH  30  32ENDBRANCH  16  30ENDBRANCH  15  16ENDBRANCH   1  15TORSDOF 9TERENDMDL