MODEL        9USER    Run = 9USERUSER    Estimated Free Energy of Binding    = -11.76 kcal/mol  [=(1)+(2)+(3)-(4)]USERUSER    (1) Final Intermolecular Energy     = -14.75 kcal/molUSER        vdW + Hbond + desolv Energy     = -14.51 kcal/molUSER        Electrostatic Energy            =  -0.24 kcal/molUSER        Moving Ligand-Fixed Receptor    = -14.75 kcal/molUSER        Moving Ligand-Moving Receptor   =  +0.00 kcal/molUSER    (2) Final Total Internal Energy     =  -2.62 kcal/molUSER    (3) Torsional Free Energy           =  +2.98 kcal/molUSER    (4) Unbound System's Energy         =  -2.62 kcal/molUSERUSERREMARK SMILES Cc1[nH]c2ccccc2c1C=C[C@H](C[C@H](c1ccc(-c2nnn[nH]2)cc1)[C@@H](C)O)N1CCOCC1REMARK SMILES IDX 13 1 12 2 11 3 10 4 2 5 3 6 4 7 9 8 5 9 8 10 6 11 7 12 1 13REMARK SMILES IDX 14 15 15 16 16 17 17 18 26 19 18 20 25 21 19 22 20 23 21 24REMARK SMILES IDX 24 25 22 26 23 27 27 29 28 30 29 31 30 33 31 34 35 35 32 36REMARK SMILES IDX 34 37 33 38REMARK H PARENT 3 14 24 28 29 32USER                              x       y       z     vdW  Elec       q    TypeUSER                           _______ _______ _______ _____ _____    ______ ____ROOTATOM      1  C   UNL     1      35.605  44.679  17.466 -0.32 -0.03    +0.080 C  ENDROOTBRANCH   1   2ATOM      2  C   UNL     1      36.366  44.731  18.781 -0.40 +0.00    -0.007 C  BRANCH   2   3ATOM      3  C   UNL     1      37.518  44.083  19.029 -0.37 -0.00    +0.008 C  BRANCH   3   4ATOM      4  C   UNL     1      38.678  44.650  19.637 -0.37 -0.00    +0.002 A  ATOM      5  C   UNL     1      39.002  44.461  20.969 -0.33 +0.00    +0.020 A  ATOM      6  N   UNL     1      40.167  45.147  21.204 -0.12 -0.02    -0.358 N  ATOM      7  C   UNL     1      40.595  45.788  20.065 -0.35 +0.00    +0.046 A  ATOM      8  C   UNL     1      39.672  45.500  19.058 -0.43 -0.00    +0.007 A  ATOM      9  C   UNL     1      41.719  46.598  19.860 -0.38 +0.00    +0.027 A  ATOM     10  C   UNL     1      39.879  46.077  17.785 -0.45 -0.00    +0.011 A  ATOM     11  C   UNL     1      41.903  47.144  18.586 -0.53 +0.00    +0.002 A  ATOM     12  C   UNL     1      40.997  46.891  17.562 -0.51 -0.00    +0.001 A  ATOM     13  C   UNL     1      38.332  43.681  22.041 -0.34 +0.00    +0.065 C  ATOM     14  H   UNL     1      40.648  45.187  22.092 +0.09 +0.01    +0.166 HD ENDBRANCH   3   4ENDBRANCH   2   3ENDBRANCH   1   2BRANCH   1  15ATOM     15  C   UNL     1      35.726  46.068  16.768 -0.40 -0.03    +0.034 C  BRANCH  15  16ATOM     16  C   UNL     1      36.173  46.071  15.274 -0.40 -0.03    +0.049 C  BRANCH  16  17ATOM     17  C   UNL     1      37.423  46.938  15.133 -0.39 +0.02    -0.042 A  ATOM     18  C   UNL     1      38.637  46.418  14.661 -0.43 -0.00    +0.005 A  ATOM     19  C   UNL     1      37.366  48.297  15.470 -0.43 -0.00    +0.005 A  ATOM     20  C   UNL     1      39.771  47.232  14.547 -0.43 -0.00    +0.012 A  ATOM     21  C   UNL     1      38.499  49.107  15.355 -0.29 -0.01    +0.012 A  ATOM     22  C   UNL     1      39.717  48.588  14.896 -0.53 -0.01    +0.021 A  BRANCH  22  23ATOM     23  C   UNL     1      40.876  49.474  14.796 -0.44 -0.05    +0.179 A  ATOM     24  N   UNL     1      41.577  49.996  15.787 -1.04 +0.01    -0.109 NA ATOM     25  N   UNL     1      41.451  49.915  13.634 -0.43 +0.06    -0.239 N  ATOM     26  N   UNL     1      42.564  50.760  15.214 -0.62 +0.00    -0.024 NA ATOM     27  N   UNL     1      42.491  50.716  13.894 -0.66 +0.01    -0.048 NA ATOM     28  H   UNL     1      41.205  49.723  12.674 +0.17 -0.04    +0.194 HD ENDBRANCH  22  23ENDBRANCH  16  17BRANCH  16  29ATOM     29  C   UNL     1      35.043  46.507  14.302 -0.32 -0.11    +0.118 C  ATOM     30  C   UNL     1      35.393  46.302  12.827 -0.50 -0.02    +0.039 C  BRANCH  29  31ATOM     31  O   UNL     1      33.849  45.764  14.561 -0.17 +0.36    -0.393 OA ATOM     32  H   UNL     1      33.236  46.344  15.052 -0.26 -0.33    +0.210 HD ENDBRANCH  29  31ENDBRANCH  16  29ENDBRANCH  15  16ENDBRANCH   1  15BRANCH   1  33ATOM     33  N   UNL     1      34.186  44.266  17.671 -0.09 +0.11    -0.292 NA ATOM     34  C   UNL     1      33.632  44.835  18.933 -0.40 -0.04    +0.113 C  ATOM     35  C   UNL     1      33.971  42.799  17.666 -0.35 -0.04    +0.113 C  ATOM     36  C   UNL     1      32.437  44.034  19.474 -0.34 -0.01    +0.175 C  ATOM     37  C   UNL     1      33.879  42.175  19.069 -0.34 -0.01    +0.175 C  ATOM     38  O   UNL     1      32.795  42.697  19.846 -0.61 -0.05    -0.379 OA ENDBRANCH   1  33TORSDOF 10TERENDMDL