REMARK SMILES Cc1[nH]c2ccccc2c1C=CCC[C@H](c1ccc(F)cc1-c1nnn[nH]1)[C@H](C)O
REMARK SMILES IDX 13 1 12 2 11 3 10 4 2 5 3 6 4 7 9 8 5 9 8 10 6 11 7 12 1 13
REMARK SMILES IDX 14 15 15 16 16 17 17 18 22 19 18 20 21 21 19 22 20 23 23 24
REMARK SMILES IDX 24 25 27 26 25 27 26 28 28 30 29 31 30 32
REMARK H PARENT 3 14 27 29 30 33
ROOT
ATOM      1  C   UNL     1       0.349  -1.782  -0.497  1.00  0.00     0.028 C 
ENDROOT
BRANCH   1   2
ATOM      2  C   UNL     1       0.818  -1.046  -1.724  1.00  0.00    -0.026 C 
BRANCH   2   3
ATOM      3  C   UNL     1       2.029  -0.490  -1.907  1.00  0.00     0.006 C 
BRANCH   3   4
ATOM      4  C   UNL     1       3.083  -0.457  -0.950  1.00  0.00     0.002 A 
ATOM      5  C   UNL     1       4.121  -1.364  -0.893  1.00  0.00     0.020 A 
ATOM      6  N   UNL     1       4.927  -0.982   0.154  1.00  0.00    -0.358 N 
ATOM      7  C   UNL     1       4.433   0.148   0.764  1.00  0.00     0.046 A 
ATOM      8  C   UNL     1       3.271   0.506   0.082  1.00  0.00     0.007 A 
ATOM      9  C   UNL     1       4.932   0.878   1.850  1.00  0.00     0.027 A 
ATOM     10  C   UNL     1       2.576   1.659   0.500  1.00  0.00     0.011 A 
ATOM     11  C   UNL     1       4.218   2.010   2.251  1.00  0.00     0.002 A 
ATOM     12  C   UNL     1       3.057   2.398   1.587  1.00  0.00     0.001 A 
ATOM     13  C   UNL     1       4.429  -2.561  -1.717  1.00  0.00     0.065 C 
ATOM     14  H   UNL     1       5.769  -1.458   0.441  1.00  0.00     0.166 HD
ENDBRANCH   3   4
ENDBRANCH   2   3
ENDBRANCH   1   2
BRANCH   1  15
ATOM     15  C   UNL     1      -0.481  -0.913   0.460  1.00  0.00     0.015 C 
BRANCH  15  16
ATOM     16  C   UNL     1      -1.865  -0.488  -0.093  1.00  0.00     0.049 C 
BRANCH  16  17
ATOM     17  C   UNL     1      -2.377   0.815   0.542  1.00  0.00    -0.031 A 
ATOM     18  C   UNL     1      -2.253   0.969   1.943  1.00  0.00     0.008 A 
ATOM     19  C   UNL     1      -2.989   1.855  -0.209  1.00  0.00     0.027 A 
ATOM     20  C   UNL     1      -2.689   2.125   2.589  1.00  0.00     0.039 A 
ATOM     21  C   UNL     1      -3.405   3.020   0.469  1.00  0.00     0.051 A 
ATOM     22  C   UNL     1      -3.256   3.143   1.844  1.00  0.00     0.123 A 
ATOM     23  F   UNL     1      -3.674   4.257   2.458  1.00  0.00    -0.207 F 
BRANCH  19  24
ATOM     24  C   UNL     1      -3.231   1.838  -1.657  1.00  0.00     0.179 A 
ATOM     25  N   UNL     1      -3.243   2.888  -2.462  1.00  0.00    -0.109 NA
ATOM     26  N   UNL     1      -3.571   0.754  -2.427  1.00  0.00    -0.239 N 
ATOM     27  N   UNL     1      -3.564   2.429  -3.714  1.00  0.00    -0.024 NA
ATOM     28  N   UNL     1      -3.769   1.123  -3.700  1.00  0.00    -0.048 NA
ATOM     29  H   UNL     1      -3.676  -0.222  -2.167  1.00  0.00     0.194 HD
ENDBRANCH  19  24
ENDBRANCH  16  17
BRANCH  16  30
ATOM     30  C   UNL     1      -3.010  -1.547  -0.018  1.00  0.00     0.118 C 
ATOM     31  C   UNL     1      -2.713  -2.869   0.678  1.00  0.00     0.039 C 
BRANCH  30  32
ATOM     32  O   UNL     1      -3.449  -1.800  -1.367  1.00  0.00    -0.393 OA
ATOM     33  H   UNL     1      -3.993  -2.609  -1.352  1.00  0.00     0.210 HD
ENDBRANCH  30  32
ENDBRANCH  16  30
ENDBRANCH  15  16
ENDBRANCH   1  15
TORSDOF 9
