MODEL        1USER    Run = 1USERUSER    Estimated Free Energy of Binding    = -10.69 kcal/mol  [=(1)+(2)+(3)-(4)]USERUSER    (1) Final Intermolecular Energy     = -13.67 kcal/molUSER        vdW + Hbond + desolv Energy     = -13.61 kcal/molUSER        Electrostatic Energy            =  -0.06 kcal/molUSER        Moving Ligand-Fixed Receptor    = -13.67 kcal/molUSER        Moving Ligand-Moving Receptor   =  +0.00 kcal/molUSER    (2) Final Total Internal Energy     =  -4.01 kcal/molUSER    (3) Torsional Free Energy           =  +2.98 kcal/molUSER    (4) Unbound System's Energy         =  -4.01 kcal/molUSERUSERREMARK SMILES Cc1[nH]c2ccc(O)cc2c1C=CCC[C@H](c1ccc(-c2nnn[nH]2)cc1)[C@H](C)OREMARK SMILES IDX 14 1 13 2 12 3 11 4 2 5 3 6 4 7 10 8 5 9 9 10 6 11 7 12 1 13REMARK SMILES IDX 8 15 15 17 16 18 17 19 18 20 27 21 19 22 26 23 20 24 21 25REMARK SMILES IDX 22 26 25 27 23 28 24 29 28 31 29 32 30 33REMARK H PARENT 3 14 8 16 25 30 30 34USER                              x       y       z     vdW  Elec       q    TypeUSER                           _______ _______ _______ _____ _____    ______ ____ROOTATOM      1  C   UNL     1      36.457  43.994  19.952 -0.45 -0.00    +0.028 C  ENDROOTBRANCH   1   2ATOM      2  C   UNL     1      37.708  44.393  19.219 -0.40 +0.00    -0.026 C  BRANCH   2   3ATOM      3  C   UNL     1      37.815  45.506  18.474 -0.36 -0.00    +0.006 C  BRANCH   3   4ATOM      4  C   UNL     1      39.023  46.075  17.961 -0.41 -0.00    +0.003 A  ATOM      5  C   UNL     1      40.319  45.788  18.355 -0.46 -0.00    +0.020 A  ATOM      6  N   UNL     1      41.156  46.568  17.592 -0.23 +0.03    -0.358 N  ATOM      7  C   UNL     1      40.442  47.321  16.691 -0.48 -0.01    +0.046 A  ATOM      8  C   UNL     1      39.093  47.029  16.895 -0.43 -0.00    +0.011 A  ATOM      9  C   UNL     1      40.886  48.229  15.721 -0.51 -0.00    +0.030 A  ATOM     10  C   UNL     1      38.137  47.684  16.087 -0.36 -0.03    +0.057 A  ATOM     11  C   UNL     1      39.921  48.863  14.931 -0.51 -0.02    +0.048 A  ATOM     12  C   UNL     1      38.570  48.588  15.118 -0.42 -0.07    +0.116 A  ATOM     13  C   UNL     1      40.879  44.847  19.362 -0.43 +0.00    +0.065 C  ATOM     14  H   UNL     1      42.164  46.578  17.664 -0.36 -0.03    +0.166 HD BRANCH  12  15ATOM     15  O   UNL     1      37.615  49.198  14.357 -0.15 +0.37    -0.508 OA ATOM     16  H   UNL     1      37.282  48.558  13.708 +0.21 -0.14    +0.293 HD ENDBRANCH  12  15ENDBRANCH   3   4ENDBRANCH   2   3ENDBRANCH   1   2BRANCH   1  17ATOM     17  C   UNL     1      35.884  42.692  19.376 -0.43 -0.00    +0.015 C  BRANCH  17  18ATOM     18  C   UNL     1      34.747  42.850  18.332 -0.40 -0.01    +0.048 C  BRANCH  18  19ATOM     19  C   UNL     1      35.123  43.769  17.174 -0.30 +0.02    -0.042 A  ATOM     20  C   UNL     1      34.821  45.134  17.143 -0.33 -0.00    +0.005 A  ATOM     21  C   UNL     1      35.814  43.226  16.076 -0.45 -0.00    +0.005 A  ATOM     22  C   UNL     1      35.201  45.928  16.052 -0.32 -0.01    +0.012 A  ATOM     23  C   UNL     1      36.194  44.020  14.987 -0.31 -0.00    +0.012 A  ATOM     24  C   UNL     1      35.894  45.386  14.962 -0.36 -0.01    +0.021 A  BRANCH  24  25ATOM     25  C   UNL     1      36.270  46.256  13.850 -0.33 -0.10    +0.179 A  ATOM     26  N   UNL     1      37.482  46.460  13.365 -0.41 +0.04    -0.109 NA ATOM     27  N   UNL     1      35.411  47.011  13.096 -0.39 +0.16    -0.239 N  ATOM     28  N   UNL     1      37.349  47.348  12.325 -1.21 +0.01    -0.024 NA ATOM     29  N   UNL     1      36.080  47.691  12.157 -0.78 +0.03    -0.048 NA ATOM     30  H   UNL     1      34.408  47.109  13.156 -0.22 -0.18    +0.194 HD ENDBRANCH  24  25ENDBRANCH  18  19BRANCH  18  31ATOM     31  C   UNL     1      33.330  43.041  18.951 -0.36 -0.01    +0.118 C  ATOM     32  C   UNL     1      32.349  43.897  18.162 -0.36 -0.01    +0.039 C  BRANCH  31  33ATOM     33  O   UNL     1      33.463  43.671  20.236 -0.75 -0.02    -0.393 OA ATOM     34  H   UNL     1      33.332  44.626  20.108 -0.16 -0.05    +0.210 HD ENDBRANCH  31  33ENDBRANCH  18  31ENDBRANCH  17  18ENDBRANCH   1  17TORSDOF 10TERENDMDL