REMARK SMILES Cn1nc(-c2ccc(-n3ccnn3)c(CN3CCOCC3)c2)c2cc(-c3ccc4[nH]nc(F)c4c3)ncc21
REMARK SMILES IDX 1 1 2 2 3 3 4 4 23 5 24 6 25 7 36 8 37 9 38 10 5 11 6 12
REMARK SMILES IDX 22 13 7 14 14 15 8 16 15 17 16 18 17 19 21 20 18 21 20 22
REMARK SMILES IDX 19 23 9 24 10 25 13 26 11 27 12 28 26 29 27 30 35 31 28 32
REMARK SMILES IDX 34 33 29 34 32 35 30 36 31 37 33 38
REMARK H PARENT 30 39
ROOT
ATOM      1  C   UNL     1       1.770   0.965  -5.260  1.00  0.00     0.174 C 
ATOM      2  N   UNL     1       1.657   0.861  -3.824  1.00  0.00    -0.266 N 
ATOM      3  N   UNL     1       0.482   1.149  -3.238  1.00  0.00    -0.172 NA
ATOM      4  C   UNL     1       0.707   0.967  -1.927  1.00  0.00     0.100 A 
ATOM      5  C   UNL     1       2.044   0.517  -1.695  1.00  0.00     0.032 A 
ATOM      6  C   UNL     1       2.810   0.136  -0.580  1.00  0.00     0.041 A 
ATOM      7  C   UNL     1       4.139  -0.234  -0.794  1.00  0.00     0.071 A 
ATOM      8  N   UNL     1       4.684  -0.255  -2.041  1.00  0.00    -0.254 NA
ATOM      9  C   UNL     1       3.952   0.086  -3.127  1.00  0.00     0.140 A 
ATOM     10  C   UNL     1       2.635   0.473  -2.951  1.00  0.00     0.087 A 
ENDROOT
BRANCH   4  11
ATOM     11  C   UNL     1      -0.344   1.228  -0.944  1.00  0.00     0.003 A 
ATOM     12  C   UNL     1      -0.073   1.925   0.230  1.00  0.00     0.013 A 
ATOM     13  C   UNL     1      -1.654   0.800  -1.177  1.00  0.00     0.017 A 
ATOM     14  C   UNL     1      -1.090   2.165   1.161  1.00  0.00     0.029 A 
ATOM     15  C   UNL     1      -2.712   1.036  -0.258  1.00  0.00    -0.007 A 
ATOM     16  C   UNL     1      -2.415   1.723   0.945  1.00  0.00     0.071 A 
BRANCH  15  17
ATOM     17  C   UNL     1      -4.072   0.532  -0.718  1.00  0.00     0.122 C 
BRANCH  17  18
ATOM     18  N   UNL     1      -4.155  -0.939  -0.769  1.00  0.00    -0.294 NA
ATOM     19  C   UNL     1      -4.205  -1.568   0.570  1.00  0.00     0.113 C 
ATOM     20  C   UNL     1      -5.333  -1.347  -1.570  1.00  0.00     0.113 C 
ATOM     21  C   UNL     1      -5.631  -1.902   1.036  1.00  0.00     0.175 C 
ATOM     22  C   UNL     1      -5.830  -2.749  -1.194  1.00  0.00     0.175 C 
ATOM     23  O   UNL     1      -6.308  -2.817   0.158  1.00  0.00    -0.379 OA
ENDBRANCH  17  18
ENDBRANCH  15  17
BRANCH  16  24
ATOM     24  N   UNL     1      -3.379   1.992   1.968  1.00  0.00    -0.220 N 
ATOM     25  C   UNL     1      -3.222   2.742   3.121  1.00  0.00     0.137 A 
ATOM     26  N   UNL     1      -4.636   1.490   1.963  1.00  0.00    -0.062 NA
ATOM     27  C   UNL     1      -4.430   2.667   3.768  1.00  0.00     0.157 A 
ATOM     28  N   UNL     1      -5.281   1.898   3.045  1.00  0.00    -0.139 NA
ENDBRANCH  16  24
ENDBRANCH   4  11
BRANCH   7  29
ATOM     29  C   UNL     1       5.055  -0.632   0.307  1.00  0.00     0.001 A 
ATOM     30  C   UNL     1       6.202  -1.409   0.037  1.00  0.00     0.012 A 
ATOM     31  C   UNL     1       4.830  -0.243   1.646  1.00  0.00     0.025 A 
ATOM     32  C   UNL     1       7.112  -1.808   1.029  1.00  0.00     0.029 A 
ATOM     33  C   UNL     1       5.725  -0.636   2.662  1.00  0.00     0.057 A 
ATOM     34  C   UNL     1       6.837  -1.400   2.333  1.00  0.00     0.068 A 
ATOM     35  C   UNL     1       5.833  -0.455   4.056  1.00  0.00     0.240 A 
ATOM     36  N   UNL     1       7.500  -1.604   3.516  1.00  0.00    -0.275 N 
ATOM     37  N   UNL     1       6.908  -1.040   4.585  1.00  0.00    -0.144 NA
ATOM     38  F   UNL     1       4.943   0.233   4.786  1.00  0.00    -0.182 F 
ATOM     39  H   UNL     1       8.363  -2.117   3.660  1.00  0.00     0.190 HD
ENDBRANCH   7  29
TORSDOF 5
