REMARK SMILES Cn1nc(-c2ccc(-n3ccnn3)c(COCCN3CCOCC3)c2)c2cc(-c3ccc4[nH]ncc4c3)ncc21
REMARK SMILES IDX 15 1 14 2 5 3 6 4 25 5 7 6 8 7 4 8 2 9 3 10 40 11 39 12
REMARK SMILES IDX 26 13 38 14 27 15 28 16 1 17 29 18 30 19 37 20 31 21 36 22
REMARK SMILES IDX 32 23 35 24 33 25 34 26 9 28 10 29 13 30 11 31 12 32 16 33
REMARK SMILES IDX 17 34 18 35 19 36 20 37 24 38 21 39 23 40 22 41
REMARK H PARENT 33 27
ROOT
ATOM      1  C   UNL     1      -2.582  -0.549   0.829  1.00  0.00     0.198 C 
ENDROOT
BRANCH   1   2
ATOM      2  C   UNL     1      -1.302   0.249   0.942  1.00  0.00     0.004 A 
ATOM      3  C   UNL     1       1.104   0.134   1.476  1.00  0.00     0.003 A 
ATOM      4  C   UNL     1       1.234   1.475   1.124  1.00  0.00     0.013 A 
ATOM      5  C   UNL     1      -0.161  -0.461   1.383  1.00  0.00     0.018 A 
ATOM      6  C   UNL     1       0.124   2.201   0.675  1.00  0.00     0.029 A 
ATOM      7  C   UNL     1      -1.153   1.609   0.582  1.00  0.00     0.072 A 
BRANCH   3   8
ATOM      8  C   UNL     1       2.247  -0.645   1.956  1.00  0.00     0.100 A 
ATOM      9  N   UNL     1       3.322  -2.035   3.153  1.00  0.00    -0.266 N 
ATOM     10  N   UNL     1       2.096  -1.522   2.962  1.00  0.00    -0.172 NA
ATOM     11  C   UNL     1       4.273  -1.532   2.309  1.00  0.00     0.087 A 
ATOM     12  C   UNL     1       5.629  -1.779   2.172  1.00  0.00     0.140 A 
ATOM     13  C   UNL     1       3.602  -0.626   1.497  1.00  0.00     0.032 A 
ATOM     14  N   UNL     1       6.320  -1.122   1.213  1.00  0.00    -0.254 NA
ATOM     15  C   UNL     1       4.330   0.034   0.492  1.00  0.00     0.041 A 
ATOM     16  C   UNL     1       5.696  -0.236   0.393  1.00  0.00     0.071 A 
ATOM     17  C   UNL     1       3.514  -3.021   4.190  1.00  0.00     0.174 C 
BRANCH  16  18
ATOM     18  C   UNL     1       6.566   0.417  -0.612  1.00  0.00     0.001 A 
ATOM     19  C   UNL     1       7.677  -0.269  -1.147  1.00  0.00     0.012 A 
ATOM     20  C   UNL     1       6.330   1.738  -1.054  1.00  0.00     0.022 A 
ATOM     21  C   UNL     1       8.538   0.299  -2.098  1.00  0.00     0.029 A 
ATOM     22  C   UNL     1       7.181   2.329  -2.008  1.00  0.00     0.020 A 
ATOM     23  C   UNL     1       8.255   1.603  -2.503  1.00  0.00     0.065 A 
ATOM     24  C   UNL     1       7.266   3.577  -2.664  1.00  0.00     0.143 A 
ATOM     25  N   UNL     1       8.880   2.440  -3.390  1.00  0.00    -0.278 N 
ATOM     26  N   UNL     1       8.298   3.647  -3.509  1.00  0.00    -0.183 NA
ATOM     27  H   UNL     1       9.708   2.248  -3.942  1.00  0.00     0.190 HD
ENDBRANCH  16  18
ENDBRANCH   3   8
BRANCH   7  28
ATOM     28  N   UNL     1      -2.243   2.422   0.141  1.00  0.00    -0.220 N 
ATOM     29  C   UNL     1      -2.198   3.688  -0.413  1.00  0.00     0.137 A 
ATOM     30  N   UNL     1      -3.542   2.068   0.283  1.00  0.00    -0.062 NA
ATOM     31  C   UNL     1      -3.509   4.042  -0.610  1.00  0.00     0.157 A 
ATOM     32  N   UNL     1      -4.316   3.041  -0.176  1.00  0.00    -0.139 NA
ENDBRANCH   7  28
ENDBRANCH   1   2
BRANCH   1  33
ATOM     33  O   UNL     1      -2.844  -0.778  -0.554  1.00  0.00    -0.375 OA
BRANCH  33  34
ATOM     34  C   UNL     1      -4.043  -1.527  -0.772  1.00  0.00     0.176 C 
BRANCH  34  35
ATOM     35  C   UNL     1      -5.294  -0.630  -0.739  1.00  0.00     0.113 C 
BRANCH  35  36
ATOM     36  N   UNL     1      -6.539  -1.341  -1.091  1.00  0.00    -0.296 NA
ATOM     37  C   UNL     1      -6.965  -2.271  -0.022  1.00  0.00     0.113 C 
ATOM     38  C   UNL     1      -7.627  -0.361  -1.316  1.00  0.00     0.113 C 
ATOM     39  C   UNL     1      -8.317  -2.927  -0.351  1.00  0.00     0.175 C 
ATOM     40  C   UNL     1      -8.960  -1.061  -1.621  1.00  0.00     0.175 C 
ATOM     41  O   UNL     1      -9.338  -1.943  -0.556  1.00  0.00    -0.379 OA
ENDBRANCH  35  36
ENDBRANCH  34  35
ENDBRANCH  33  34
ENDBRANCH   1  33
TORSDOF 8
