MODEL        8USER    Run = 8USERUSER    Estimated Free Energy of Binding    = -12.45 kcal/mol  [=(1)+(2)+(3)-(4)]USERUSER    (1) Final Intermolecular Energy     = -14.83 kcal/molUSER        vdW + Hbond + desolv Energy     = -14.78 kcal/molUSER        Electrostatic Energy            =  -0.05 kcal/molUSER        Moving Ligand-Fixed Receptor    = -14.83 kcal/molUSER        Moving Ligand-Moving Receptor   =  +0.00 kcal/molUSER    (2) Final Total Internal Energy     =  -2.16 kcal/molUSER    (3) Torsional Free Energy           =  +2.39 kcal/molUSER    (4) Unbound System's Energy         =  -2.16 kcal/molUSERUSERREMARK SMILES Cn1nc(-c2ccc(-n3ccnn3)c(COCCN3CCOCC3)c2)c2cc(-c3ccc4[nH]ncc4c3)ncc21REMARK SMILES IDX 15 1 14 2 5 3 6 4 25 5 7 6 8 7 4 8 2 9 3 10 40 11 39 12REMARK SMILES IDX 26 13 38 14 27 15 28 16 1 17 29 18 30 19 37 20 31 21 36 22REMARK SMILES IDX 32 23 35 24 33 25 34 26 9 28 10 29 13 30 11 31 12 32 16 33REMARK SMILES IDX 17 34 18 35 19 36 20 37 24 38 21 39 23 40 22 41REMARK H PARENT 33 27USER                              x       y       z     vdW  Elec       q    TypeUSER                           _______ _______ _______ _____ _____    ______ ____ROOTATOM      1  C   UNL     1      36.218  46.556  16.532 -0.28 -0.16    +0.198 C  ENDROOTBRANCH   1   2ATOM      2  C   UNL     1      37.694  46.640  16.213 -0.39 -0.00    +0.004 A  ATOM      3  C   UNL     1      39.970  46.557  17.164 -0.48 -0.00    +0.003 A  ATOM      4  C   UNL     1      40.497  46.650  15.879 -0.43 -0.00    +0.013 A  ATOM      5  C   UNL     1      38.577  46.555  17.315 -0.37 -0.01    +0.018 A  ATOM      6  C   UNL     1      39.648  46.726  14.768 -0.43 -0.01    +0.029 A  ATOM      7  C   UNL     1      38.245  46.728  14.913 -0.38 -0.03    +0.072 A  BRANCH   3   8ATOM      8  C   UNL     1      40.835  46.485  18.343 -0.43 -0.01    +0.100 A  ATOM      9  N   UNL     1      42.549  46.827  19.554 -0.33 -0.05    -0.266 N  ATOM     10  N   UNL     1      42.022  47.113  18.352 -0.43 +0.00    -0.172 NA ATOM     11  C   UNL     1      41.752  46.038  20.336 -0.33 +0.01    +0.087 A  ATOM     12  C   UNL     1      41.911  45.519  21.611 -0.21 +0.02    +0.140 A  ATOM     13  C   UNL     1      40.610  45.804  19.581 -0.40 +0.00    +0.032 A  ATOM     14  N   UNL     1      40.919  44.767  22.139 -0.11 -0.02    -0.254 NA ATOM     15  C   UNL     1      39.580  45.037  20.151 -0.35 +0.00    +0.041 A  ATOM     16  C   UNL     1      39.782  44.525  21.434 -0.26 +0.00    +0.071 A  ATOM     17  C   UNL     1      43.852  47.351  19.889 -0.04 +0.08    +0.174 C  BRANCH  16  18ATOM     18  C   UNL     1      38.776  43.685  22.124 -0.30 +0.00    +0.001 A  ATOM     19  C   UNL     1      37.915  42.850  21.382 -0.14 +0.00    +0.012 A  ATOM     20  C   UNL     1      38.632  43.702  23.529 -0.25 +0.00    +0.022 A  ATOM     21  C   UNL     1      36.941  42.036  21.980 -0.50 +0.00    +0.029 A  ATOM     22  C   UNL     1      37.661  42.893  24.152 -0.34 +0.00    +0.020 A  ATOM     23  C   UNL     1      36.846  42.087  23.370 -0.42 +0.00    +0.065 A  ATOM     24  C   UNL     1      37.233  42.650  25.476 -0.26 -0.01    +0.143 A  ATOM     25  N   UNL     1      36.021  41.441  24.254 -0.12 +0.03    -0.278 N  ATOM     26  N   UNL     1      36.236  41.764  25.542 -0.34 +0.03    -0.183 NA ATOM     27  H   UNL     1      35.290  40.773  24.040 -0.04 -0.05    +0.190 HD ENDBRANCH  16  18ENDBRANCH   3   8BRANCH   7  28ATOM     28  N   UNL     1      37.445  46.835  13.734 -0.30 +0.09    -0.220 N  ATOM     29  C   UNL     1      36.723  45.844  13.095 -0.42 -0.06    +0.137 A  ATOM     30  N   UNL     1      37.340  47.971  13.005 -1.05 +0.02    -0.062 NA ATOM     31  C   UNL     1      36.179  46.449  11.990 -0.53 -0.07    +0.157 A  ATOM     32  N   UNL     1      36.569  47.748  11.950 -1.04 +0.06    -0.139 NA ENDBRANCH   7  28ENDBRANCH   1   2BRANCH   1  33ATOM     33  O   UNL     1      35.924  45.220  16.935 -0.11 +0.19    -0.375 OA BRANCH  33  34ATOM     34  C   UNL     1      35.429  44.416  15.860 -0.28 -0.08    +0.176 C  BRANCH  34  35ATOM     35  C   UNL     1      35.548  42.912  16.167 -0.43 -0.04    +0.113 C  BRANCH  35  36ATOM     36  N   UNL     1      34.809  42.496  17.375 -0.22 +0.11    -0.296 NA ATOM     37  C   UNL     1      35.541  42.838  18.615 -0.34 -0.02    +0.113 C  ATOM     38  C   UNL     1      33.491  43.173  17.412 -0.31 -0.04    +0.113 C  ATOM     39  C   UNL     1      34.716  42.498  19.868 -0.36 +0.00    +0.175 C  ATOM     40  C   UNL     1      32.713  42.820  18.689 -0.30 -0.02    +0.175 C  ATOM     41  O   UNL     1      33.454  43.176  19.863 -0.74 -0.02    -0.379 OA ENDBRANCH  35  36ENDBRANCH  34  35ENDBRANCH  33  34ENDBRANCH   1  33TORSDOF 8TERENDMDL