MODEL        2USER    Run = 2USERUSER    Estimated Free Energy of Binding    = -13.14 kcal/mol  [=(1)+(2)+(3)-(4)]USERUSER    (1) Final Intermolecular Energy     = -15.22 kcal/molUSER        vdW + Hbond + desolv Energy     = -14.76 kcal/molUSER        Electrostatic Energy            =  -0.47 kcal/molUSER        Moving Ligand-Fixed Receptor    = -15.22 kcal/molUSER        Moving Ligand-Moving Receptor   =  +0.00 kcal/molUSER    (2) Final Total Internal Energy     =  -2.47 kcal/molUSER    (3) Torsional Free Energy           =  +2.09 kcal/molUSER    (4) Unbound System's Energy         =  -2.47 kcal/molUSERUSERREMARK SMILES C[C@@H]1CN(Cc2ccc(-c3nc4ncccc4nc3-c3ccc(N4CCN(C)CC4)cc3)cc2)CC[C@@H]1n1c(O)nc2ncccc21REMARK SMILES IDX 6 1 7 2 8 3 9 4 33 5 34 6 5 7 4 8 2 9 3 10 37 11 36 12 35 13REMARK SMILES IDX 1 14 38 15 39 16 47 17 41 18 46 19 42 20 45 21 43 22 44 23REMARK SMILES IDX 40 24 10 26 11 27 19 28 12 29 18 30 13 31 17 32 14 33 16 34REMARK SMILES IDX 15 35 20 36 21 37 32 38 22 39 31 40 23 41 24 42 25 43 30 44REMARK SMILES IDX 26 45 29 46 27 47 28 48REMARK H PARENT 40 25USER                              x       y       z     vdW  Elec       q    TypeUSER                           _______ _______ _______ _____ _____    ______ ____ROOTATOM      1  C   UNL     1      37.253  43.338  21.790 -0.38 -0.00    -0.034 A  ATOM      2  C   UNL     1      36.897  42.012  21.510 -0.51 +0.00    +0.006 A  ATOM      3  C   UNL     1      35.890  41.723  20.583 -0.38 -0.00    +0.011 A  ATOM      4  C   UNL     1      35.205  42.752  19.916 -0.44 -0.00    +0.002 A  ATOM      5  C   UNL     1      35.586  44.077  20.186 -0.38 -0.00    +0.011 A  ATOM      6  C   UNL     1      36.591  44.369  21.114 -0.30 +0.00    +0.006 A  ENDROOTBRANCH   1   7ATOM      7  C   UNL     1      38.323  43.640  22.818 -0.29 +0.01    +0.120 C  BRANCH   7   8ATOM      8  N   UNL     1      39.678  43.731  22.241 -0.10 -0.01    -0.299 NA ATOM      9  C   UNL     1      41.187  44.996  20.719 -0.39 +0.00    +0.023 C  ATOM     10  C   UNL     1      39.801  44.917  21.377 -0.31 +0.00    +0.090 C  ATOM     11  C   UNL     1      42.354  44.849  21.721 -0.26 +0.02    +0.098 C  ATOM     12  C   UNL     1      42.091  43.754  22.764 -0.28 +0.00    +0.041 C  ATOM     13  C   UNL     1      40.671  43.764  23.320 -0.21 +0.00    +0.087 C  ATOM     14  C   UNL     1      41.304  46.231  19.823 -0.46 +0.00    +0.011 C  BRANCH  11  15ATOM     15  N   UNL     1      42.899  46.071  22.304 -0.11 -0.07    -0.289 N  ATOM     16  C   UNL     1      44.186  46.535  22.275 -0.13 +0.15    +0.296 A  ATOM     17  C   UNL     1      42.164  47.031  22.976 -0.20 +0.01    +0.091 A  ATOM     18  N   UNL     1      44.344  47.691  22.859 -0.23 -0.05    -0.175 NA ATOM     19  C   UNL     1      40.819  47.166  23.335 -0.21 +0.00    +0.032 A  ATOM     20  C   UNL     1      43.096  48.016  23.300 -0.25 +0.04    +0.181 A  ATOM     21  C   UNL     1      40.493  48.337  24.018 -0.31 +0.00    +0.022 A  ATOM     22  N   UNL     1      42.786  49.152  23.961 -0.81 -0.08    -0.235 NA ATOM     23  C   UNL     1      41.487  49.269  24.298 -0.17 +0.03    +0.114 A  BRANCH  16  24ATOM     24  O   UNL     1      45.211  45.920  21.729 -0.34 -0.73    -0.480 OA ATOM     25  H   UNL     1      45.168  45.050  22.170 +0.09 +0.26    +0.296 HD ENDBRANCH  16  24ENDBRANCH  11  15ENDBRANCH   7   8ENDBRANCH   1   7BRANCH   4  26ATOM     26  C   UNL     1      34.131  42.468  18.947 -0.34 -0.01    +0.099 A  ATOM     27  N   UNL     1      33.202  41.581  19.409 -0.35 -0.02    -0.224 NA ATOM     28  C   UNL     1      34.020  43.046  17.672 -0.28 -0.03    +0.097 A  ATOM     29  C   UNL     1      32.155  41.294  18.636 -0.26 -0.01    +0.178 A  ATOM     30  N   UNL     1      32.949  42.769  16.881 -0.18 +0.10    -0.242 NA ATOM     31  N   UNL     1      31.241  40.433  19.100 -0.21 -0.01    -0.235 NA ATOM     32  C   UNL     1      32.035  41.904  17.367 -0.24 -0.04    +0.108 A  ATOM     33  C   UNL     1      30.175  40.145  18.326 -0.22 +0.00    +0.114 A  ATOM     34  C   UNL     1      30.925  41.583  16.601 -0.25 -0.01    +0.034 A  ATOM     35  C   UNL     1      29.972  40.689  17.075 -0.34 -0.00    +0.022 A  BRANCH  28  36ATOM     36  C   UNL     1      35.003  43.957  17.055 -0.32 -0.00    +0.003 A  ATOM     37  C   UNL     1      34.896  45.349  17.144 -0.33 -0.01    +0.012 A  ATOM     38  C   UNL     1      36.111  43.450  16.363 -0.40 -0.00    +0.012 A  ATOM     39  C   UNL     1      35.836  46.190  16.527 -0.35 -0.02    +0.026 A  ATOM     40  C   UNL     1      37.049  44.300  15.752 -0.33 -0.01    +0.026 A  ATOM     41  C   UNL     1      36.936  45.694  15.808 -0.34 -0.02    +0.037 A  BRANCH  41  42ATOM     42  N   UNL     1      37.826  46.565  15.184 -0.12 +0.16    -0.369 N  ATOM     43  C   UNL     1      39.086  46.104  14.568 -0.37 -0.03    +0.132 C  ATOM     44  C   UNL     1      37.861  47.961  15.688 -0.41 -0.09    +0.132 C  ATOM     45  C   UNL     1      40.295  46.634  15.369 -0.45 -0.01    +0.105 C  ATOM     46  C   UNL     1      39.082  48.747  15.149 -0.47 -0.05    +0.105 C  ATOM     47  N   UNL     1      40.402  48.113  15.363 -0.29 +0.06    -0.303 NA ATOM     48  C   UNL     1      41.043  48.588  16.585 -0.53 -0.01    +0.105 C  ENDBRANCH  41  42ENDBRANCH  28  36ENDBRANCH   4  26TORSDOF 7TERENDMDL