REMARK SMILES C[C@@H]1CN(Cc2ccc(-c3nc4ncccc4nc3-c3ccc(N4CCN(C)CC4)cc3)cc2)CC[C@@H]1n1c(O)nc2ncccc21
REMARK SMILES IDX 6 1 7 2 8 3 9 4 33 5 34 6 5 7 4 8 2 9 3 10 37 11 36 12 35 13
REMARK SMILES IDX 1 14 38 15 39 16 47 17 41 18 46 19 42 20 45 21 43 22 44 23
REMARK SMILES IDX 40 24 10 26 11 27 19 28 12 29 18 30 13 31 17 32 14 33 16 34
REMARK SMILES IDX 15 35 20 36 21 37 32 38 22 39 31 40 23 41 24 42 25 43 30 44
REMARK SMILES IDX 26 45 29 46 27 47 28 48
REMARK H PARENT 40 25
ROOT
ATOM      1  C   UNL     1      -1.070  -0.188   1.039  1.00  0.00    -0.034 A 
ATOM      2  C   UNL     1      -0.327  -0.183  -0.149  1.00  0.00     0.006 A 
ATOM      3  C   UNL     1       0.578  -1.212  -0.429  1.00  0.00     0.011 A 
ATOM      4  C   UNL     1       0.771  -2.271   0.473  1.00  0.00     0.002 A 
ATOM      5  C   UNL     1       0.003  -2.279   1.650  1.00  0.00     0.011 A 
ATOM      6  C   UNL     1      -0.901  -1.250   1.934  1.00  0.00     0.006 A 
ENDROOT
BRANCH   1   7
ATOM      7  C   UNL     1      -2.023   0.948   1.348  1.00  0.00     0.120 C 
BRANCH   7   8
ATOM      8  N   UNL     1      -3.131   1.059   0.379  1.00  0.00    -0.299 NA
ATOM      9  C   UNL     1      -5.242   0.043  -0.459  1.00  0.00     0.023 C 
ATOM     10  C   UNL     1      -4.112  -0.021   0.579  1.00  0.00     0.090 C 
ATOM     11  C   UNL     1      -5.892   1.440  -0.578  1.00  0.00     0.098 C 
ATOM     12  C   UNL     1      -4.852   2.569  -0.545  1.00  0.00     0.041 C 
ATOM     13  C   UNL     1      -3.768   2.374   0.509  1.00  0.00     0.087 C 
ATOM     14  C   UNL     1      -6.255  -1.084  -0.244  1.00  0.00     0.011 C 
BRANCH  11  15
ATOM     15  N   UNL     1      -7.057   1.715   0.257  1.00  0.00    -0.289 N 
ATOM     16  C   UNL     1      -7.143   1.758   1.622  1.00  0.00     0.296 A 
ATOM     17  C   UNL     1      -8.317   2.038  -0.214  1.00  0.00     0.091 A 
ATOM     18  N   UNL     1      -8.327   2.075   2.067  1.00  0.00    -0.175 NA
ATOM     19  C   UNL     1      -8.888   2.172  -1.483  1.00  0.00     0.032 A 
ATOM     20  C   UNL     1      -9.071   2.255   0.939  1.00  0.00     0.181 A 
ATOM     21  C   UNL     1     -10.233   2.536  -1.503  1.00  0.00     0.022 A 
ATOM     22  N   UNL     1     -10.375   2.608   0.926  1.00  0.00    -0.235 NA
ATOM     23  C   UNL     1     -10.909   2.735  -0.304  1.00  0.00     0.114 A 
BRANCH  16  24
ATOM     24  O   UNL     1      -6.161   1.510   2.460  1.00  0.00    -0.480 OA
ATOM     25  H   UNL     1      -6.614   1.610   3.319  1.00  0.00     0.296 HD
ENDBRANCH  16  24
ENDBRANCH  11  15
ENDBRANCH   7   8
ENDBRANCH   1   7
BRANCH   4  26
ATOM     26  C   UNL     1       1.730  -3.357   0.201  1.00  0.00     0.099 A 
ATOM     27  N   UNL     1       1.169  -4.600   0.241  1.00  0.00    -0.224 NA
ATOM     28  C   UNL     1       3.090  -3.177  -0.098  1.00  0.00     0.097 A 
ATOM     29  C   UNL     1       1.933  -5.654  -0.046  1.00  0.00     0.178 A 
ATOM     30  N   UNL     1       3.875  -4.245  -0.404  1.00  0.00    -0.242 NA
ATOM     31  N   UNL     1       1.374  -6.870  -0.017  1.00  0.00    -0.235 NA
ATOM     32  C   UNL     1       3.294  -5.461  -0.376  1.00  0.00     0.108 A 
ATOM     33  C   UNL     1       2.140  -7.939  -0.314  1.00  0.00     0.114 A 
ATOM     34  C   UNL     1       4.049  -6.585  -0.676  1.00  0.00     0.034 A 
ATOM     35  C   UNL     1       3.476  -7.851  -0.647  1.00  0.00     0.022 A 
BRANCH  28  36
ATOM     36  C   UNL     1       3.805  -1.886  -0.097  1.00  0.00     0.003 A 
ATOM     37  C   UNL     1       3.711  -0.977   0.962  1.00  0.00     0.012 A 
ATOM     38  C   UNL     1       4.635  -1.528  -1.167  1.00  0.00     0.012 A 
ATOM     39  C   UNL     1       4.386   0.254   0.924  1.00  0.00     0.026 A 
ATOM     40  C   UNL     1       5.310  -0.295  -1.195  1.00  0.00     0.026 A 
ATOM     41  C   UNL     1       5.200   0.636  -0.155  1.00  0.00     0.037 A 
BRANCH  41  42
ATOM     42  N   UNL     1       5.825   1.881  -0.166  1.00  0.00    -0.369 N 
ATOM     43  C   UNL     1       6.444   2.446  -1.381  1.00  0.00     0.132 C 
ATOM     44  C   UNL     1       6.442   2.331   1.107  1.00  0.00     0.132 C 
ATOM     45  C   UNL     1       7.978   2.511  -1.216  1.00  0.00     0.105 C 
ATOM     46  C   UNL     1       7.364   3.559   0.908  1.00  0.00     0.105 C 
ATOM     47  N   UNL     1       8.414   3.416  -0.125  1.00  0.00    -0.303 NA
ATOM     48  C   UNL     1       9.679   2.963   0.444  1.00  0.00     0.105 C 
ENDBRANCH  41  42
ENDBRANCH  28  36
ENDBRANCH   4  26
TORSDOF 7
