REMARK SMILES O=C(NC1CCN(C(=O)c2ccncc2)CC1)c1ccc(C(=O)c2cc(O)cc(F)c2O)cc1
REMARK SMILES IDX 18 1 19 2 20 3 21 4 33 5 34 6 2 7 3 8 1 9 4 11 5 12 17 13
REMARK SMILES IDX 6 14 16 15 7 16 8 17 9 18 10 19 11 20 15 21 12 22 14 23
REMARK SMILES IDX 13 24 22 25 23 26 24 27 25 28 31 29 26 30 29 31 28 32 30 33
REMARK SMILES IDX 32 34 27 36
REMARK H PARENT 3 10 32 35 27 37
ROOT
ATOM      1  C   UNL     1       1.472   0.723  -0.351  1.00  0.00     0.039 A 
ATOM      2  C   UNL     1       2.690   1.315  -0.712  1.00  0.00     0.014 A 
ATOM      3  C   UNL     1       3.842   0.536  -0.853  1.00  0.00     0.013 A 
ATOM      4  C   UNL     1       3.784  -0.840  -0.605  1.00  0.00     0.023 A 
ATOM      5  C   UNL     1       2.568  -1.435  -0.247  1.00  0.00     0.013 A 
ATOM      6  C   UNL     1       1.415  -0.656  -0.110  1.00  0.00     0.014 A 
ENDROOT
BRANCH   1   7
ATOM      7  C   UNL     1       0.276   1.596  -0.216  1.00  0.00     0.251 C 
ATOM      8  N   UNL     1      -0.943   1.014  -0.506  1.00  0.00    -0.349 N 
ATOM      9  O   UNL     1       0.409   2.769   0.110  1.00  0.00    -0.269 OA
ATOM     10  H   UNL     1      -0.953   0.099  -0.933  1.00  0.00     0.164 HD
BRANCH   8  11
ATOM     11  C   UNL     1      -2.188   1.780  -0.446  1.00  0.00     0.085 C 
ATOM     12  C   UNL     1      -2.639   2.021   1.006  1.00  0.00     0.046 C 
ATOM     13  C   UNL     1      -3.298   1.096  -1.260  1.00  0.00     0.046 C 
ATOM     14  C   UNL     1      -3.196   0.746   1.633  1.00  0.00     0.122 C 
ATOM     15  C   UNL     1      -3.858  -0.140  -0.554  1.00  0.00     0.122 C 
ATOM     16  N   UNL     1      -4.269   0.198   0.808  1.00  0.00    -0.338 N 
ATOM     17  C   UNL     1      -5.583   0.521   1.156  1.00  0.00     0.253 C 
ATOM     18  O   UNL     1      -5.878   1.261   2.090  1.00  0.00    -0.269 OA
BRANCH  17  19
ATOM     19  C   UNL     1      -6.694  -0.068   0.380  1.00  0.00     0.043 A 
ATOM     20  C   UNL     1      -6.776  -1.447   0.190  1.00  0.00     0.034 A 
ATOM     21  C   UNL     1      -7.700   0.769  -0.096  1.00  0.00     0.034 A 
ATOM     22  C   UNL     1      -7.856  -1.929  -0.523  1.00  0.00     0.112 A 
ATOM     23  C   UNL     1      -8.738   0.186  -0.796  1.00  0.00     0.112 A 
ATOM     24  N   UNL     1      -8.830  -1.143  -1.031  1.00  0.00    -0.265 NA
ENDBRANCH  17  19
ENDBRANCH   8  11
ENDBRANCH   1   7
BRANCH   4  25
ATOM     25  C   UNL     1       4.972  -1.711  -0.765  1.00  0.00     0.196 C 
ATOM     26  O   UNL     1       4.828  -2.819  -1.283  1.00  0.00    -0.288 OA
BRANCH  25  27
ATOM     27  C   UNL     1       6.336  -1.298  -0.349  1.00  0.00     0.071 A 
ATOM     28  C   UNL     1       6.532  -0.383   0.694  1.00  0.00     0.062 A 
ATOM     29  C   UNL     1       7.452  -1.863  -0.985  1.00  0.00     0.162 A 
ATOM     30  C   UNL     1       7.825  -0.011   1.057  1.00  0.00     0.119 A 
ATOM     31  C   UNL     1       8.736  -1.470  -0.607  1.00  0.00     0.169 A 
ATOM     32  C   UNL     1       8.933  -0.542   0.410  1.00  0.00     0.089 A 
ATOM     33  F   UNL     1       9.811  -1.992  -1.216  1.00  0.00    -0.203 F 
BRANCH  29  34
ATOM     34  O   UNL     1       7.337  -2.800  -1.979  1.00  0.00    -0.504 OA
ATOM     35  H   UNL     1       6.407  -3.121  -1.990  1.00  0.00     0.293 HD
ENDBRANCH  29  34
BRANCH  30  36
ATOM     36  O   UNL     1       7.957   0.890   2.071  1.00  0.00    -0.508 OA
ATOM     37  H   UNL     1       8.902   1.052   2.237  1.00  0.00     0.293 HD
ENDBRANCH  30  36
ENDBRANCH  25  27
ENDBRANCH   4  25
TORSDOF 7
