MODEL        10USER    Run = 10USERUSER    Estimated Free Energy of Binding    =  -9.30 kcal/mol  [=(1)+(2)+(3)-(4)]USERUSER    (1) Final Intermolecular Energy     = -11.68 kcal/molUSER        vdW + Hbond + desolv Energy     = -11.55 kcal/molUSER        Electrostatic Energy            =  -0.14 kcal/molUSER        Moving Ligand-Fixed Receptor    = -11.68 kcal/molUSER        Moving Ligand-Moving Receptor   =  +0.00 kcal/molUSER    (2) Final Total Internal Energy     =  -2.48 kcal/molUSER    (3) Torsional Free Energy           =  +2.39 kcal/molUSER    (4) Unbound System's Energy         =  -2.48 kcal/molUSERUSERREMARK SMILES O=C(N[C@H](Cc1ccc(F)cc1)C(=O)N1Cc2[nH]c(C(F)(F)F)nc2[C@@H](O)C1)c1ccncc1REMARK SMILES IDX 4 1 3 2 2 3 1 4 29 6 30 7 34 8 31 9 33 10 32 11 5 12 6 13REMARK SMILES IDX 7 14 12 15 8 16 11 17 9 18 10 19 13 20 14 21 15 22 16 23REMARK SMILES IDX 28 24 17 25 26 26 18 27 25 28 19 29 24 30 27 32 20 34 21 35REMARK SMILES IDX 22 36 23 37REMARK H PARENT 3 5 18 31 27 33USER                              x       y       z     vdW  Elec       q    TypeUSER                           _______ _______ _______ _____ _____    ______ ____ROOTATOM      1  C   UNL     1      35.861  45.544  16.398 -0.28 -0.11    +0.176 C  ENDROOTBRANCH   1   2ATOM      2  N   UNL     1      36.943  46.539  16.458 -0.16 +0.21    -0.340 N  ATOM      3  C   UNL     1      38.170  46.243  15.897 -0.27 -0.09    +0.252 C  ATOM      4  O   UNL     1      38.373  45.256  15.200 -0.23 +0.07    -0.269 OA ATOM      5  H   UNL     1      36.980  47.053  17.332 +0.10 -0.10    +0.164 HD BRANCH   3   6ATOM      6  C   UNL     1      39.283  47.176  16.215 -0.44 -0.01    +0.042 A  ATOM      7  C   UNL     1      39.531  48.320  15.456 -0.52 -0.01    +0.034 A  ATOM      8  C   UNL     1      40.115  46.872  17.293 -0.47 -0.01    +0.034 A  ATOM      9  C   UNL     1      40.594  49.125  15.826 -0.52 -0.03    +0.112 A  ATOM     10  C   UNL     1      41.149  47.742  17.582 -0.44 -0.01    +0.112 A  ATOM     11  N   UNL     1      41.403  48.864  16.874 -0.88 -0.00    -0.265 NA ENDBRANCH   3   6ENDBRANCH   1   2BRANCH   1  12ATOM     12  C   UNL     1      34.924  45.801  15.206 -0.36 -0.06    +0.070 C  BRANCH  12  13ATOM     13  C   UNL     1      35.671  46.140  13.935 -0.42 +0.03    -0.045 A  ATOM     14  C   UNL     1      35.799  47.479  13.529 -0.37 -0.00    +0.007 A  ATOM     15  C   UNL     1      36.233  45.129  13.142 -0.27 -0.00    +0.007 A  ATOM     16  C   UNL     1      36.476  47.798  12.354 -0.63 -0.02    +0.039 A  ATOM     17  C   UNL     1      36.911  45.451  11.965 -0.54 -0.01    +0.039 A  ATOM     18  C   UNL     1      37.026  46.781  11.582 -0.52 -0.04    +0.123 A  ATOM     19  F   UNL     1      37.676  47.089  10.452 -0.15 +0.05    -0.207 F  ENDBRANCH  12  13ENDBRANCH   1  12BRANCH   1  20ATOM     20  C   UNL     1      35.047  45.677  17.705 -0.27 -0.15    +0.245 C  ATOM     21  O   UNL     1      34.956  46.781  18.261 -0.50 +0.20    -0.272 OA BRANCH  20  22ATOM     22  N   UNL     1      34.354  44.571  18.186 -0.11 +0.12    -0.332 N  ATOM     23  C   UNL     1      32.925  44.501  17.841 -0.26 -0.06    +0.175 C  ATOM     24  C   UNL     1      34.824  43.722  19.322 -0.34 -0.02    +0.158 C  ATOM     25  C   UNL     1      32.476  43.097  17.967 -0.28 -0.01    +0.061 A  ATOM     26  C   UNL     1      34.512  42.210  19.145 -0.32 -0.02    +0.184 C  ATOM     27  N   UNL     1      31.312  42.553  17.510 -0.09 +0.08    -0.336 N  ATOM     28  C   UNL     1      33.156  42.062  18.556 -0.33 -0.01    +0.094 A  ATOM     29  C   UNL     1      31.334  41.206  17.820 -0.20 -0.04    +0.213 A  ATOM     30  N   UNL     1      32.460  40.889  18.451 -0.33 +0.02    -0.226 NA ATOM     31  H   UNL     1      30.566  43.026  17.014 +0.11 -0.05    +0.168 HD BRANCH  26  32ATOM     32  O   UNL     1      35.503  41.622  18.294 -0.41 +0.09    -0.385 OA ATOM     33  H   UNL     1      35.009  40.988  17.739 -0.41 -0.11    +0.211 HD ENDBRANCH  26  32BRANCH  29  34ATOM     34  C   UNL     1      30.190  40.322  17.438 -0.12 -0.02    +0.449 C  ATOM     35  F   UNL     1      29.924  40.361  16.108 -0.17 +0.02    -0.163 F  ATOM     36  F   UNL     1      30.400  39.024  17.773 -0.13 -0.03    -0.163 F  ATOM     37  F   UNL     1      29.045  40.704  18.072 -0.04 +0.00    -0.163 F  ENDBRANCH  29  34ENDBRANCH  20  22ENDBRANCH   1  20TORSDOF 8TERENDMDL