REMARK SMILES COc1cc(F)c(O)c(C(=O)c2ccc(C(=O)N[C@@H]3CCN(C(=O)c4ccncc4)C3)cc2)c1
REMARK SMILES IDX 12 1 13 2 14 3 15 4 32 5 33 6 10 7 11 8 9 9 3 10 4 11 34 12
REMARK SMILES IDX 5 13 7 14 6 15 2 16 1 17 8 18 16 20 18 21 17 22 19 24 20 25
REMARK SMILES IDX 31 26 21 27 22 28 23 29 24 30 25 31 26 32 30 33 27 34 29 35
REMARK SMILES IDX 28 36
REMARK H PARENT 8 19 18 23
ROOT
ATOM      1  C   UNL     1       3.433   1.281  -1.306  1.00  0.00     0.023 A 
ATOM      2  C   UNL     1       2.830   1.209  -2.566  1.00  0.00     0.013 A 
ATOM      3  C   UNL     1       1.565   0.632  -2.702  1.00  0.00     0.014 A 
ATOM      4  C   UNL     1       0.886   0.148  -1.576  1.00  0.00     0.039 A 
ATOM      5  C   UNL     1       1.489   0.230  -0.313  1.00  0.00     0.014 A 
ATOM      6  C   UNL     1       2.757   0.804  -0.176  1.00  0.00     0.013 A 
ENDROOT
BRANCH   1   7
ATOM      7  C   UNL     1       4.768   1.915  -1.199  1.00  0.00     0.196 C 
ATOM      8  O   UNL     1       4.993   2.939  -1.842  1.00  0.00    -0.288 OA
BRANCH   7   9
ATOM      9  C   UNL     1       5.840   1.376  -0.325  1.00  0.00     0.071 A 
ATOM     10  C   UNL     1       6.913  -0.485   0.826  1.00  0.00     0.122 A 
ATOM     11  C   UNL     1       7.873   0.385   1.335  1.00  0.00     0.089 A 
ATOM     12  C   UNL     1       5.902   0.011  -0.006  1.00  0.00     0.062 A 
ATOM     13  C   UNL     1       7.827   1.736   0.997  1.00  0.00     0.169 A 
ATOM     14  C   UNL     1       6.829   2.238   0.164  1.00  0.00     0.162 A 
ATOM     15  F   UNL     1       8.772   2.551   1.488  1.00  0.00    -0.203 F 
BRANCH  10  16
ATOM     16  O   UNL     1       6.843  -1.831   1.061  1.00  0.00    -0.497 OA
ATOM     17  C   UNL     1       7.878  -2.401   1.855  1.00  0.00     0.278 C 
ENDBRANCH  10  16
BRANCH  14  18
ATOM     18  O   UNL     1       6.861   3.574  -0.142  1.00  0.00    -0.504 OA
ATOM     19  H   UNL     1       6.236   3.732  -0.885  1.00  0.00     0.293 HD
ENDBRANCH  14  18
ENDBRANCH   7   9
ENDBRANCH   1   7
BRANCH   4  20
ATOM     20  C   UNL     1      -0.458  -0.463  -1.768  1.00  0.00     0.251 C 
ATOM     21  N   UNL     1      -1.332  -0.368  -0.704  1.00  0.00    -0.347 N 
ATOM     22  O   UNL     1      -0.750  -0.985  -2.838  1.00  0.00    -0.269 OA
ATOM     23  H   UNL     1      -1.128   0.305   0.023  1.00  0.00     0.164 HD
BRANCH  21  24
ATOM     24  C   UNL     1      -2.701  -0.829  -0.837  1.00  0.00     0.103 C 
ATOM     25  C   UNL     1      -3.593   0.162  -1.590  1.00  0.00     0.048 C 
ATOM     26  C   UNL     1      -3.437  -0.980   0.498  1.00  0.00     0.144 C 
ATOM     27  C   UNL     1      -4.996  -0.268  -1.182  1.00  0.00     0.122 C 
ATOM     28  N   UNL     1      -4.840  -0.783   0.173  1.00  0.00    -0.337 N 
BRANCH  28  29
ATOM     29  C   UNL     1      -5.802  -0.869   1.160  1.00  0.00     0.254 C 
ATOM     30  O   UNL     1      -5.530  -1.076   2.340  1.00  0.00    -0.269 OA
BRANCH  29  31
ATOM     31  C   UNL     1      -7.221  -0.684   0.789  1.00  0.00     0.043 A 
ATOM     32  C   UNL     1      -7.987   0.217   1.523  1.00  0.00     0.034 A 
ATOM     33  C   UNL     1      -7.804  -1.439  -0.226  1.00  0.00     0.034 A 
ATOM     34  C   UNL     1      -9.316   0.360   1.174  1.00  0.00     0.112 A 
ATOM     35  C   UNL     1      -9.142  -1.221  -0.495  1.00  0.00     0.112 A 
ATOM     36  N   UNL     1      -9.906  -0.330   0.174  1.00  0.00    -0.265 NA
ENDBRANCH  29  31
ENDBRANCH  28  29
ENDBRANCH  21  24
ENDBRANCH   4  20
TORSDOF 8
