REMARK SMILES CNc1nc(-c2ccc(F)cc2)nnc1-c1cccc(C(=O)NCCCN)c1
REMARK SMILES IDX 21 1 22 2 23 3 20 5 16 6 17 7 28 8 18 9 19 10 15 11 3 12
REMARK SMILES IDX 4 13 5 14 14 15 13 16 2 17 1 18 6 20 7 21 12 22 8 23 11 24
REMARK SMILES IDX 9 25 10 26 24 27 25 28 26 29 27 30
REMARK H PARENT 23 4 2 19 27 31 27 32
ROOT
ATOM      1  C   UNL     1       3.273   1.202  -0.020  1.00  0.00     0.251 C 
ATOM      2  O   UNL     1       3.141   1.057   1.189  1.00  0.00    -0.269 OA
ATOM      3  N   UNL     1       4.480   1.092  -0.681  1.00  0.00    -0.352 N 
ATOM      4  H   UNL     1       4.477   1.018  -1.690  1.00  0.00     0.163 HD
ENDROOT
BRANCH   1   5
ATOM      5  C   UNL     1       2.087   1.486  -0.869  1.00  0.00     0.040 A 
ATOM      6  C   UNL     1      -0.317   1.197  -1.236  1.00  0.00     0.007 A 
ATOM      7  C   UNL     1      -0.187   1.987  -2.395  1.00  0.00     0.010 A 
ATOM      8  C   UNL     1       0.847   0.953  -0.485  1.00  0.00     0.024 A 
ATOM      9  C   UNL     1       1.042   2.532  -2.776  1.00  0.00     0.002 A 
ATOM     10  C   UNL     1       2.180   2.287  -2.011  1.00  0.00     0.014 A 
BRANCH   6  11
ATOM     11  C   UNL     1      -1.630   0.635  -0.860  1.00  0.00     0.135 A 
ATOM     12  C   UNL     1      -2.174   0.610   0.435  1.00  0.00     0.156 A 
ATOM     13  N   UNL     1      -3.377   0.042   0.669  1.00  0.00    -0.207 NA
ATOM     14  C   UNL     1      -4.036  -0.465  -0.390  1.00  0.00     0.183 A 
ATOM     15  N   UNL     1      -2.346   0.130  -1.893  1.00  0.00    -0.144 NA
ATOM     16  N   UNL     1      -3.563  -0.426  -1.653  1.00  0.00    -0.129 NA
BRANCH  12  17
ATOM     17  N   UNL     1      -1.465   1.142   1.532  1.00  0.00    -0.371 N 
ATOM     18  C   UNL     1      -2.166   1.128   2.804  1.00  0.00     0.141 C 
ATOM     19  H   UNL     1      -1.108   2.067   1.302  1.00  0.00     0.161 HD
ENDBRANCH  12  17
BRANCH  14  20
ATOM     20  C   UNL     1      -5.354  -1.089  -0.158  1.00  0.00     0.021 A 
ATOM     21  C   UNL     1      -6.122  -1.611  -1.221  1.00  0.00     0.015 A 
ATOM     22  C   UNL     1      -5.901  -1.188   1.140  1.00  0.00     0.015 A 
ATOM     23  C   UNL     1      -7.371  -2.201  -0.999  1.00  0.00     0.040 A 
ATOM     24  C   UNL     1      -7.149  -1.777   1.364  1.00  0.00     0.040 A 
ATOM     25  C   UNL     1      -7.872  -2.278   0.292  1.00  0.00     0.123 A 
ATOM     26  F   UNL     1      -9.068  -2.842   0.505  1.00  0.00    -0.207 F 
ENDBRANCH  14  20
ENDBRANCH   6  11
ENDBRANCH   1   5
BRANCH   3  27
ATOM     27  C   UNL     1       5.688   0.703   0.020  1.00  0.00     0.117 C 
BRANCH  27  28
ATOM     28  C   UNL     1       5.820  -0.815   0.119  1.00  0.00     0.036 C 
BRANCH  28  29
ATOM     29  C   UNL     1       7.105  -1.203   0.846  1.00  0.00     0.079 C 
BRANCH  29  30
ATOM     30  N   UNL     1       7.243  -2.653   0.906  1.00  0.00    -0.330 NA
ATOM     31  H   UNL     1       7.297  -3.040  -0.035  1.00  0.00     0.118 HD
ATOM     32  H   UNL     1       8.119  -2.894   1.369  1.00  0.00     0.118 HD
ENDBRANCH  29  30
ENDBRANCH  28  29
ENDBRANCH  27  28
ENDBRANCH   3  27
TORSDOF 8
