MODEL        5USER    Run = 5USERUSER    Estimated Free Energy of Binding    = -10.47 kcal/mol  [=(1)+(2)+(3)-(4)]USERUSER    (1) Final Intermolecular Energy     = -12.56 kcal/molUSER        vdW + Hbond + desolv Energy     = -12.09 kcal/molUSER        Electrostatic Energy            =  -0.47 kcal/molUSER        Moving Ligand-Fixed Receptor    = -12.56 kcal/molUSER        Moving Ligand-Moving Receptor   =  +0.00 kcal/molUSER    (2) Final Total Internal Energy     =  -0.90 kcal/molUSER    (3) Torsional Free Energy           =  +2.09 kcal/molUSER    (4) Unbound System's Energy         =  -0.90 kcal/molUSERUSERREMARK SMILES O=C(NC1CCN(C(=O)c2ccncc2)CC1)c1ccc(C(=O)c2cc(O)cc(F)c2O)cc1REMARK SMILES IDX 18 1 19 2 20 3 21 4 33 5 34 6 2 7 3 8 1 9 4 11 5 12 17 13REMARK SMILES IDX 6 14 16 15 7 16 8 17 9 18 10 19 11 20 15 21 12 22 14 23REMARK SMILES IDX 13 24 22 25 23 26 24 27 25 28 31 29 26 30 29 31 28 32 30 33REMARK SMILES IDX 32 34 27 36REMARK H PARENT 3 10 32 35 27 37USER                              x       y       z     vdW  Elec       q    TypeUSER                           _______ _______ _______ _____ _____    ______ ____ROOTATOM      1  C   UNL     1      31.238  41.044  18.116 -0.30 -0.01    +0.039 A  ATOM      2  C   UNL     1      30.294  41.958  17.628 -0.23 -0.00    +0.014 A  ATOM      3  C   UNL     1      28.973  41.560  17.402 -0.21 -0.00    +0.013 A  ATOM      4  C   UNL     1      28.598  40.233  17.639 -0.25 +0.00    +0.023 A  ATOM      5  C   UNL     1      29.538  39.318  18.130 -0.33 +0.00    +0.013 A  ATOM      6  C   UNL     1      30.858  39.718  18.360 -0.37 +0.00    +0.014 A  ENDROOTBRANCH   1   7ATOM      7  C   UNL     1      32.629  41.519  18.341 -0.28 -0.04    +0.251 C  ATOM      8  N   UNL     1      33.300  41.994  17.231 -0.15 +0.15    -0.349 N  ATOM      9  O   UNL     1      33.125  41.449  19.458 -0.47 -0.03    -0.269 OA ATOM     10  H   UNL     1      32.887  41.858  16.320 -0.46 -0.12    +0.164 HD BRANCH   8  11ATOM     11  C   UNL     1      34.686  42.455  17.317 -0.42 -0.03    +0.085 C  ATOM     12  C   UNL     1      34.847  43.589  18.344 -0.36 -0.01    +0.046 C  ATOM     13  C   UNL     1      35.213  42.883  15.938 -0.39 -0.02    +0.046 C  ATOM     14  C   UNL     1      34.267  44.900  17.819 -0.33 -0.06    +0.122 C  ATOM     15  C   UNL     1      34.644  44.231  15.492 -0.10 -0.06    +0.122 C  ATOM     16  N   UNL     1      34.860  45.239  16.528 -0.10 +0.23    -0.338 N  ATOM     17  C   UNL     1      35.939  46.126  16.524 -0.24 -0.19    +0.253 C  ATOM     18  O   UNL     1      36.432  46.604  17.542 -0.19 +0.16    -0.269 OA BRANCH  17  19ATOM     19  C   UNL     1      36.521  46.539  15.230 -0.36 -0.03    +0.043 A  ATOM     20  C   UNL     1      35.702  46.794  14.131 -0.40 -0.03    +0.034 A  ATOM     21  C   UNL     1      37.896  46.743  15.145 -0.39 -0.02    +0.034 A  ATOM     22  C   UNL     1      36.313  47.201  12.962 -0.54 -0.06    +0.112 A  ATOM     23  C   UNL     1      38.407  47.153  13.930 -0.38 -0.03    +0.112 A  ATOM     24  N   UNL     1      37.646  47.373  12.833 -0.82 +0.06    -0.265 NA ENDBRANCH  17  19ENDBRANCH   8  11ENDBRANCH   1   7BRANCH   4  25ATOM     25  C   UNL     1      27.205  39.770  17.439 -0.17 +0.05    +0.196 C  ATOM     26  O   UNL     1      26.820  39.531  16.293 -0.40 -0.16    -0.288 OA BRANCH  25  27ATOM     27  C   UNL     1      26.256  39.558  18.561 -0.23 -0.00    +0.071 A  ATOM     28  C   UNL     1      26.574  39.957  19.866 -0.22 -0.01    +0.062 A  ATOM     29  C   UNL     1      25.002  38.983  18.305 -0.28 -0.04    +0.162 A  ATOM     30  C   UNL     1      25.664  39.739  20.899 -0.27 -0.04    +0.119 A  ATOM     31  C   UNL     1      24.111  38.771  19.357 -0.24 -0.12    +0.169 A  ATOM     32  C   UNL     1      24.434  39.142  20.658 -0.28 -0.05    +0.089 A  ATOM     33  F   UNL     1      22.914  38.210  19.129 -0.11 +0.20    -0.203 F  BRANCH  29  34ATOM     34  O   UNL     1      24.604  38.614  17.046 -0.50 +0.10    -0.504 OA ATOM     35  H   UNL     1      23.830  38.014  17.135 -0.31 -0.22    +0.293 HD ENDBRANCH  29  34BRANCH  30  36ATOM     36  O   UNL     1      26.029  40.138  22.150 -0.66 +0.03    -0.508 OA ATOM     37  H   UNL     1      25.673  39.512  22.804 -0.34 -0.09    +0.293 HD ENDBRANCH  30  36ENDBRANCH  25  27ENDBRANCH   4  25TORSDOF 7TERENDMDL