MODEL        9USER    Run = 9USERUSER    Estimated Free Energy of Binding    =  -9.04 kcal/mol  [=(1)+(2)+(3)-(4)]USERUSER    (1) Final Intermolecular Energy     = -11.42 kcal/molUSER        vdW + Hbond + desolv Energy     = -11.37 kcal/molUSER        Electrostatic Energy            =  -0.05 kcal/molUSER        Moving Ligand-Fixed Receptor    = -11.42 kcal/molUSER        Moving Ligand-Moving Receptor   =  +0.00 kcal/molUSER    (2) Final Total Internal Energy     =  -1.45 kcal/molUSER    (3) Torsional Free Energy           =  +2.39 kcal/molUSER    (4) Unbound System's Energy         =  -1.45 kcal/molUSERUSERREMARK SMILES NCCCNC(=O)c1cccc(-c2nnc(-c3ccc(Cl)cc3)nc2N)c1REMARK SMILES IDX 5 1 6 2 7 3 4 5 3 6 2 7 1 8 8 11 9 12 27 13 10 14 12 15REMARK SMILES IDX 11 16 13 17 14 18 25 19 15 20 24 21 16 22 26 23 17 26 18 27REMARK SMILES IDX 23 28 19 29 22 30 20 31 21 32REMARK H PARENT 5 4 1 9 1 10 26 24 26 25USER                              x       y       z     vdW  Elec       q    TypeUSER                           _______ _______ _______ _____ _____    ______ ____ROOTATOM      1  N   UNL     1      36.819  41.888  25.840 -0.17 +0.05    -0.352 N  ATOM      2  C   UNL     1      36.915  42.932  24.939 -0.27 +0.00    +0.251 C  ATOM      3  O   UNL     1      37.039  44.103  25.276 -0.25 -0.01    -0.269 OA ATOM      4  H   UNL     1      36.404  41.025  25.515 -0.22 -0.07    +0.163 HD ENDROOTBRANCH   1   5ATOM      5  C   UNL     1      36.775  42.157  27.264 -0.43 -0.03    +0.117 C  BRANCH   5   6ATOM      6  C   UNL     1      35.633  41.418  27.958 -0.57 -0.02    +0.036 C  BRANCH   6   7ATOM      7  C   UNL     1      34.467  41.143  27.010 -0.58 -0.03    +0.079 C  BRANCH   7   8ATOM      8  N   UNL     1      34.666  39.896  26.277 -0.10 +0.23    -0.330 NA ATOM      9  H   UNL     1      35.480  39.403  26.639 -0.47 -0.08    +0.118 HD ATOM     10  H   UNL     1      34.870  40.100  25.300 -0.45 -0.09    +0.118 HD ENDBRANCH   7   8ENDBRANCH   6   7ENDBRANCH   5   6ENDBRANCH   1   5BRANCH   2  11ATOM     11  C   UNL     1      36.810  42.574  23.496 -0.38 +0.00    +0.040 A  ATOM     12  C   UNL     1      36.251  41.365  23.069 -0.41 +0.00    +0.014 A  ATOM     13  C   UNL     1      37.319  43.475  22.548 -0.37 +0.00    +0.024 A  ATOM     14  C   UNL     1      36.180  41.071  21.707 -0.46 +0.00    +0.002 A  ATOM     15  C   UNL     1      37.245  43.198  21.173 -0.39 +0.00    +0.007 A  ATOM     16  C   UNL     1      36.671  41.980  20.768 -0.46 -0.00    +0.010 A  BRANCH  15  17ATOM     17  C   UNL     1      37.769  44.149  20.192 -0.27 -0.00    +0.135 A  ATOM     18  N   UNL     1      39.080  44.444  20.304 -0.27 +0.00    -0.144 NA ATOM     19  C   UNL     1      37.005  44.747  19.182 -0.22 -0.02    +0.154 A  ATOM     20  N   UNL     1      39.633  45.316  19.417 -0.33 +0.00    -0.129 NA ATOM     21  N   UNL     1      37.548  45.608  18.306 -0.22 +0.05    -0.207 NA ATOM     22  C   UNL     1      38.862  45.869  18.452 -0.27 -0.03    +0.183 A  BRANCH  19  23ATOM     23  N   UNL     1      35.623  44.517  19.039 -0.12 +0.08    -0.382 N  ATOM     24  H   UNL     1      35.362  44.635  18.063 +0.11 -0.05    +0.158 HD ATOM     25  H   UNL     1      35.098  45.201  19.577 +0.03 -0.04    +0.158 HD ENDBRANCH  19  23BRANCH  22  26ATOM     26  C   UNL     1      39.495  46.811  17.508 -0.42 -0.00    +0.021 A  ATOM     27  C   UNL     1      40.757  47.384  17.769 -0.50 -0.00    +0.013 A  ATOM     28  C   UNL     1      38.863  47.176  16.302 -0.43 -0.00    +0.013 A  ATOM     29  C   UNL     1      41.356  48.276  16.872 -0.44 -0.00    +0.021 A  ATOM     30  C   UNL     1      39.458  48.067  15.401 -0.52 -0.01    +0.021 A  ATOM     31  C   UNL     1      40.703  48.614  15.691 -0.57 -0.01    +0.041 A  ATOM     32  Cl  UNL     1      41.437  49.709  14.588 -0.96 +0.02    -0.084 Cl ENDBRANCH  22  26ENDBRANCH  15  17ENDBRANCH   2  11TORSDOF 8TERENDMDL