MODEL        2USER    Run = 2USERUSER    Estimated Free Energy of Binding    =  -9.44 kcal/mol  [=(1)+(2)+(3)-(4)]USERUSER    (1) Final Intermolecular Energy     = -11.83 kcal/molUSER        vdW + Hbond + desolv Energy     = -11.58 kcal/molUSER        Electrostatic Energy            =  -0.25 kcal/molUSER        Moving Ligand-Fixed Receptor    = -11.83 kcal/molUSER        Moving Ligand-Moving Receptor   =  +0.00 kcal/molUSER    (2) Final Total Internal Energy     =  -2.84 kcal/molUSER    (3) Torsional Free Energy           =  +2.39 kcal/molUSER    (4) Unbound System's Energy         =  -2.84 kcal/molUSERUSERREMARK SMILES CS(=O)(=O)c1nc2c([nH]1)CN(C(=O)[C@@H](Cc1ccc(F)cc1)NC(=O)c1ccncc1)C[C@@H]2OREMARK SMILES IDX 12 1 13 2 11 3 5 4 6 5 9 6 7 7 8 8 33 9 10 10 32 11 2 13REMARK SMILES IDX 1 14 3 15 4 16 34 17 14 19 15 20 16 21 17 22 22 23 18 24REMARK SMILES IDX 21 25 19 26 20 27 23 28 24 29 25 31 26 32 27 33 31 34 28 35REMARK SMILES IDX 30 36 29 37REMARK H PARENT 9 12 34 18 23 30USER                              x       y       z     vdW  Elec       q    TypeUSER                           _______ _______ _______ _____ _____    ______ ____ROOTATOM      1  C   UNL     1      33.064  42.970  16.970 -0.22 -0.10    +0.245 C  ATOM      2  O   UNL     1      31.865  42.721  16.780 -0.19 +0.11    -0.272 OA ENDROOTBRANCH   1   3ATOM      3  N   UNL     1      33.581  44.239  16.738 -0.09 +0.16    -0.332 N  ATOM      4  C   UNL     1      36.450  47.184  14.803 -0.22 -0.18    +0.225 A  ATOM      5  N   UNL     1      36.170  47.438  16.074 -0.16 +0.27    -0.220 NA ATOM      6  N   UNL     1      35.729  46.106  14.336 -0.18 +0.22    -0.331 N  ATOM      7  C   UNL     1      35.264  46.471  16.429 -0.09 -0.11    +0.095 A  ATOM      8  C   UNL     1      34.964  45.650  15.370 -0.30 -0.05    +0.061 A  ATOM      9  C   UNL     1      34.660  46.303  17.778 -0.37 -0.16    +0.184 C  ATOM     10  C   UNL     1      34.014  44.519  15.356 -0.06 -0.10    +0.175 C  ATOM     11  C   UNL     1      33.403  45.402  17.650 -0.32 -0.09    +0.158 C  ATOM     12  H   UNL     1      35.793  45.736  13.396 +0.12 -0.09    +0.169 HD BRANCH   4  13ATOM     13  S   UNL     1      37.596  48.052  13.776 -0.59 -0.09    +0.208 S  ATOM     14  C   UNL     1      39.160  47.819  14.577 -0.44 -0.05    +0.167 C  ATOM     15  O   UNL     1      37.187  49.439  13.865 -0.35 +0.14    -0.221 OA ATOM     16  O   UNL     1      37.571  47.334  12.516 -1.02 +0.04    -0.221 OA ENDBRANCH   4  13BRANCH   9  17ATOM     17  O   UNL     1      34.298  47.559  18.349 -0.96 +0.41    -0.385 OA ATOM     18  H   UNL     1      34.502  48.216  17.655 -0.31 -0.53    +0.211 HD ENDBRANCH   9  17ENDBRANCH   1   3BRANCH   1  19ATOM     19  C   UNL     1      33.985  41.860  17.523 -0.34 -0.07    +0.176 C  BRANCH  19  20ATOM     20  C   UNL     1      34.657  42.367  18.808 -0.42 -0.01    +0.070 C  BRANCH  20  21ATOM     21  C   UNL     1      35.864  43.239  18.547 -0.30 +0.01    -0.045 A  ATOM     22  C   UNL     1      36.480  43.933  19.601 -0.39 -0.00    +0.007 A  ATOM     23  C   UNL     1      36.386  43.365  17.249 -0.20 -0.00    +0.007 A  ATOM     24  C   UNL     1      37.596  44.735  19.360 -0.32 -0.00    +0.039 A  ATOM     25  C   UNL     1      37.504  44.167  17.013 -0.26 -0.01    +0.039 A  ATOM     26  C   UNL     1      38.098  44.844  18.070 -0.29 -0.02    +0.123 A  ATOM     27  F   UNL     1      39.170  45.615  17.840 -0.10 +0.03    -0.207 F  ENDBRANCH  20  21ENDBRANCH  19  20BRANCH  19  28ATOM     28  N   UNL     1      33.115  40.704  17.792 -0.20 +0.12    -0.340 N  ATOM     29  C   UNL     1      32.247  40.724  18.865 -0.25 +0.00    +0.252 C  ATOM     30  H   UNL     1      33.547  39.813  17.573 -0.34 -0.09    +0.164 HD ATOM     31  O   UNL     1      32.016  41.734  19.524 -0.30 -0.02    -0.269 OA BRANCH  29  32ATOM     32  C   UNL     1      31.609  39.431  19.237 -0.39 +0.01    +0.042 A  ATOM     33  C   UNL     1      31.886  38.777  20.440 -0.30 +0.01    +0.034 A  ATOM     34  C   UNL     1      30.718  38.850  18.331 -0.40 +0.01    +0.034 A  ATOM     35  C   UNL     1      31.233  37.582  20.692 -0.43 +0.02    +0.112 A  ATOM     36  C   UNL     1      30.120  37.653  18.676 -0.29 +0.05    +0.112 A  ATOM     37  N   UNL     1      30.352  37.010  19.840 -0.30 -0.09    -0.265 NA ENDBRANCH  29  32ENDBRANCH  19  28ENDBRANCH   1  19TORSDOF 8TERENDMDL