MODEL        4USER    Run = 4USERUSER    Estimated Free Energy of Binding    =  -8.63 kcal/mol  [=(1)+(2)+(3)-(4)]USERUSER    (1) Final Intermolecular Energy     = -11.02 kcal/molUSER        vdW + Hbond + desolv Energy     = -10.95 kcal/molUSER        Electrostatic Energy            =  -0.07 kcal/molUSER        Moving Ligand-Fixed Receptor    = -11.02 kcal/molUSER        Moving Ligand-Moving Receptor   =  +0.00 kcal/molUSER    (2) Final Total Internal Energy     =  -1.58 kcal/molUSER    (3) Torsional Free Energy           =  +2.39 kcal/molUSER    (4) Unbound System's Energy         =  -1.58 kcal/molUSERUSERREMARK SMILES CNc1nc(-c2ccc(F)cc2)nnc1-c1cccc(C(=O)NCCCN)c1REMARK SMILES IDX 21 1 22 2 23 3 20 5 16 6 17 7 28 8 18 9 19 10 15 11 3 12REMARK SMILES IDX 4 13 5 14 14 15 13 16 2 17 1 18 6 20 7 21 12 22 8 23 11 24REMARK SMILES IDX 9 25 10 26 24 27 25 28 26 29 27 30REMARK H PARENT 23 4 2 19 27 31 27 32USER                              x       y       z     vdW  Elec       q    TypeUSER                           _______ _______ _______ _____ _____    ______ ____ROOTATOM      1  C   UNL     1      36.969  43.714  24.545 -0.24 +0.02    +0.251 C  ATOM      2  O   UNL     1      37.027  44.903  24.833 -0.47 -0.03    -0.269 OA ATOM      3  N   UNL     1      36.903  42.699  25.478 -0.15 +0.02    -0.352 N  ATOM      4  H   UNL     1      36.650  41.769  25.168 +0.07 -0.02    +0.163 HD ENDROOTBRANCH   1   5ATOM      5  C   UNL     1      36.937  43.295  23.120 -0.34 +0.00    +0.040 A  ATOM      6  C   UNL     1      37.536  43.794  20.798 -0.37 -0.00    +0.007 A  ATOM      7  C   UNL     1      36.936  42.573  20.431 -0.34 -0.00    +0.010 A  ATOM      8  C   UNL     1      37.519  44.139  22.161 -0.36 +0.00    +0.024 A  ATOM      9  C   UNL     1      36.367  41.721  21.381 -0.56 +0.00    +0.002 A  ATOM     10  C   UNL     1      36.372  42.078  22.728 -0.42 +0.00    +0.014 A  BRANCH   6  11ATOM     11  C   UNL     1      38.128  44.673  19.769 -0.27 -0.01    +0.135 A  ATOM     12  C   UNL     1      39.385  45.295  19.844 -0.29 -0.00    +0.156 A  ATOM     13  N   UNL     1      39.816  46.105  18.852 -0.30 +0.02    -0.207 NA ATOM     14  C   UNL     1      39.007  46.261  17.788 -0.29 -0.04    +0.183 A  ATOM     15  N   UNL     1      37.363  44.847  18.665 -0.27 +0.02    -0.144 NA ATOM     16  N   UNL     1      37.810  45.650  17.664 -0.30 +0.04    -0.129 NA BRANCH  12  17ATOM     17  N   UNL     1      40.216  45.123  20.970 -0.12 -0.02    -0.371 N  ATOM     18  C   UNL     1      41.146  44.009  20.905 -0.29 +0.01    +0.141 C  ATOM     19  H   UNL     1      39.655  45.104  21.819 +0.09 +0.01    +0.161 HD ENDBRANCH  12  17BRANCH  14  20ATOM     20  C   UNL     1      39.458  47.140  16.691 -0.46 -0.01    +0.021 A  ATOM     21  C   UNL     1      40.624  47.927  16.807 -0.53 -0.00    +0.015 A  ATOM     22  C   UNL     1      38.739  47.230  15.479 -0.45 -0.01    +0.015 A  ATOM     23  C   UNL     1      41.049  48.760  15.767 -0.57 -0.01    +0.040 A  ATOM     24  C   UNL     1      39.162  48.063  14.439 -0.48 -0.01    +0.040 A  ATOM     25  C   UNL     1      40.314  48.820  14.592 -0.45 -0.04    +0.123 A  ATOM     26  F   UNL     1      40.720  49.618  13.596 -0.13 +0.07    -0.207 F  ENDBRANCH  14  20ENDBRANCH   6  11ENDBRANCH   1   5BRANCH   3  27ATOM     27  C   UNL     1      36.809  42.986  26.896 -0.36 -0.02    +0.117 C  BRANCH  27  28ATOM     28  C   UNL     1      36.661  41.710  27.722 -0.52 -0.01    +0.036 C  BRANCH  28  29ATOM     29  C   UNL     1      35.256  41.132  27.582 -0.64 -0.04    +0.079 C  BRANCH  29  30ATOM     30  N   UNL     1      34.972  40.802  26.191 -0.22 +0.16    -0.330 NA ATOM     31  H   UNL     1      35.374  39.896  25.956 -0.50 -0.10    +0.118 HD ATOM     32  H   UNL     1      33.964  40.715  26.059 -0.42 -0.08    +0.118 HD ENDBRANCH  29  30ENDBRANCH  28  29ENDBRANCH  27  28ENDBRANCH   3  27TORSDOF 8TERENDMDL