REMARK SMILES COc1cc(F)c(O)c(C(=O)c2ccc(C(=O)NC3CCN(C(=O)c4ccncc4)CC3)cc2)c1F
REMARK SMILES IDX 12 1 13 2 14 3 15 4 33 5 34 6 10 7 11 8 9 9 3 10 4 11 35 12
REMARK SMILES IDX 5 13 7 14 36 15 6 16 2 17 1 18 8 19 16 21 18 22 17 23 19 25
REMARK SMILES IDX 20 26 32 27 21 28 31 29 22 30 23 31 24 32 25 33 26 34 30 35
REMARK SMILES IDX 27 36 29 37 28 38
REMARK H PARENT 8 20 18 24
ROOT
ATOM      1  C   UNL     1      -3.576   0.410   1.110  1.00  0.00     0.023 A 
ATOM      2  C   UNL     1      -2.489   1.224   0.768  1.00  0.00     0.013 A 
ATOM      3  C   UNL     1      -1.252   0.654   0.455  1.00  0.00     0.014 A 
ATOM      4  C   UNL     1      -1.089  -0.737   0.506  1.00  0.00     0.039 A 
ATOM      5  C   UNL     1      -2.178  -1.548   0.855  1.00  0.00     0.014 A 
ATOM      6  C   UNL     1      -3.416  -0.978   1.169  1.00  0.00     0.013 A 
ENDROOT
BRANCH   1   7
ATOM      7  C   UNL     1      -4.860   1.061   1.461  1.00  0.00     0.199 C 
ATOM      8  O   UNL     1      -4.838   2.099   2.123  1.00  0.00    -0.288 OA
BRANCH   7   9
ATOM      9  C   UNL     1      -6.179   0.498   1.100  1.00  0.00     0.107 A 
ATOM     10  C   UNL     1      -7.623  -0.763  -0.413  1.00  0.00     0.158 A 
ATOM     11  C   UNL     1      -8.698  -0.567   0.452  1.00  0.00     0.092 A 
ATOM     12  C   UNL     1      -6.371  -0.220  -0.084  1.00  0.00     0.180 A 
ATOM     13  C   UNL     1      -8.517   0.177   1.617  1.00  0.00     0.169 A 
ATOM     14  C   UNL     1      -7.275   0.721   1.942  1.00  0.00     0.165 A 
ATOM     15  F   UNL     1      -5.354  -0.381  -0.945  1.00  0.00    -0.202 F 
ATOM     16  F   UNL     1      -9.571   0.368   2.424  1.00  0.00    -0.203 F 
BRANCH  10  17
ATOM     17  O   UNL     1      -7.670  -1.457  -1.592  1.00  0.00    -0.494 OA
ATOM     18  C   UNL     1      -8.925  -2.005  -1.980  1.00  0.00     0.278 C 
ENDBRANCH  10  17
BRANCH  14  19
ATOM     19  O   UNL     1      -7.183   1.463   3.091  1.00  0.00    -0.504 OA
ATOM     20  H   UNL     1      -6.334   1.960   3.073  1.00  0.00     0.293 HD
ENDBRANCH  14  19
ENDBRANCH   7   9
ENDBRANCH   1   7
BRANCH   4  21
ATOM     21  C   UNL     1       0.202  -1.402   0.174  1.00  0.00     0.251 C 
ATOM     22  N   UNL     1       1.354  -0.679   0.408  1.00  0.00    -0.349 N 
ATOM     23  O   UNL     1       0.203  -2.547  -0.264  1.00  0.00    -0.269 OA
ATOM     24  H   UNL     1       1.293   0.252   0.794  1.00  0.00     0.164 HD
BRANCH  22  25
ATOM     25  C   UNL     1       2.668  -1.198   0.038  1.00  0.00     0.085 C 
ATOM     26  C   UNL     1       2.935  -1.018  -1.466  1.00  0.00     0.046 C 
ATOM     27  C   UNL     1       3.756  -0.562   0.914  1.00  0.00     0.046 C 
ATOM     28  C   UNL     1       3.798   0.204  -1.744  1.00  0.00     0.122 C 
ATOM     29  C   UNL     1       5.116  -0.591   0.225  1.00  0.00     0.122 C 
ATOM     30  N   UNL     1       5.082   0.132  -1.050  1.00  0.00    -0.338 N 
ATOM     31  C   UNL     1       6.112   0.948  -1.518  1.00  0.00     0.253 C 
ATOM     32  O   UNL     1       5.955   1.794  -2.396  1.00  0.00    -0.269 OA
BRANCH  31  33
ATOM     33  C   UNL     1       7.467   0.800  -0.945  1.00  0.00     0.043 A 
ATOM     34  C   UNL     1       8.090  -0.445  -0.893  1.00  0.00     0.034 A 
ATOM     35  C   UNL     1       8.141   1.942  -0.519  1.00  0.00     0.034 A 
ATOM     36  C   UNL     1       9.367  -0.498  -0.368  1.00  0.00     0.112 A 
ATOM     37  C   UNL     1       9.415   1.780  -0.010  1.00  0.00     0.112 A 
ATOM     38  N   UNL     1      10.037   0.584   0.086  1.00  0.00    -0.265 NA
ENDBRANCH  31  33
ENDBRANCH  22  25
ENDBRANCH   4  21
TORSDOF 7
