MODEL        2USER    Run = 2USERUSER    Estimated Free Energy of Binding    =  -8.43 kcal/mol  [=(1)+(2)+(3)-(4)]USERUSER    (1) Final Intermolecular Energy     = -10.82 kcal/molUSER        vdW + Hbond + desolv Energy     = -10.62 kcal/molUSER        Electrostatic Energy            =  -0.20 kcal/molUSER        Moving Ligand-Fixed Receptor    = -10.82 kcal/molUSER        Moving Ligand-Moving Receptor   =  +0.00 kcal/molUSER    (2) Final Total Internal Energy     =  -2.79 kcal/molUSER    (3) Torsional Free Energy           =  +2.39 kcal/molUSER    (4) Unbound System's Energy         =  -2.79 kcal/molUSERUSERREMARK SMILES N#Cc1nc2c([nH]1)CN(C(=O)[C@@H](Cc1ccc(F)cc1)NC(=O)c1ccncc1)C[C@H]2OREMARK SMILES IDX 10 1 11 2 9 3 3 4 4 5 7 6 5 7 6 8 31 9 8 10 30 11 2 13 1 14REMARK SMILES IDX 32 15 12 17 13 18 14 19 15 20 20 21 16 22 19 23 17 24 18 25REMARK SMILES IDX 21 26 22 27 23 29 24 30 25 31 29 32 26 33 28 34 27 35REMARK H PARENT 7 12 32 16 21 28USER                              x       y       z     vdW  Elec       q    TypeUSER                           _______ _______ _______ _____ _____    ______ ____ROOTATOM      1  C   UNL     1      38.273  47.816  14.111 -0.38 -0.09    +0.245 C  ATOM      2  O   UNL     1      38.479  47.745  12.892 -0.57 +0.01    -0.272 OA ENDROOTBRANCH   1   3ATOM      3  N   UNL     1      37.000  47.636  14.641 -0.21 +0.23    -0.332 N  ATOM      4  C   UNL     1      35.693  43.882  16.729 -0.21 -0.08    +0.210 A  ATOM      5  N   UNL     1      35.247  44.016  15.490 -0.19 +0.10    -0.221 NA ATOM      6  N   UNL     1      36.352  45.017  17.147 -0.11 +0.13    -0.332 N  ATOM      7  C   UNL     1      35.622  45.276  15.109 -0.29 -0.06    +0.095 A  ATOM      8  C   UNL     1      36.309  45.913  16.117 -0.32 -0.04    +0.061 A  ATOM      9  C   UNL     1      35.411  45.874  13.759 -0.28 -0.11    +0.184 C  ATOM     10  C   UNL     1      36.896  47.275  16.063 -0.28 -0.15    +0.175 C  ATOM     11  C   UNL     1      35.774  47.387  13.826 -0.26 -0.12    +0.158 C  ATOM     12  H   UNL     1      36.798  45.139  18.047 +0.11 -0.05    +0.169 HD BRANCH   4  13ATOM     13  C   UNL     1      35.529  42.724  17.546 -0.31 -0.04    +0.139 C  ATOM     14  N   UNL     1      35.406  41.819  18.263 -0.47 +0.05    -0.189 NA ENDBRANCH   4  13BRANCH   9  15ATOM     15  O   UNL     1      36.243  45.241  12.788 -0.25 +0.15    -0.385 OA ATOM     16  H   UNL     1      37.002  45.841  12.661 +0.17 -0.07    +0.211 HD ENDBRANCH   9  15ENDBRANCH   1   3BRANCH   1  17ATOM     17  C   UNL     1      39.473  48.003  15.069 -0.46 -0.06    +0.176 C  BRANCH  17  18ATOM     18  C   UNL     1      39.984  46.612  15.491 -0.47 -0.01    +0.070 C  BRANCH  18  19ATOM     19  C   UNL     1      40.264  46.394  16.963 -0.44 +0.01    -0.045 A  ATOM     20  C   UNL     1      41.288  47.072  17.642 -0.44 -0.00    +0.007 A  ATOM     21  C   UNL     1      39.428  45.531  17.695 -0.41 -0.00    +0.007 A  ATOM     22  C   UNL     1      41.493  46.866  19.009 -0.44 +0.00    +0.039 A  ATOM     23  C   UNL     1      39.631  45.330  19.062 -0.40 -0.00    +0.039 A  ATOM     24  C   UNL     1      40.665  45.997  19.705 -0.31 +0.00    +0.123 A  ATOM     25  F   UNL     1      40.859  45.803  21.017 -0.07 -0.02    -0.207 F  ENDBRANCH  18  19ENDBRANCH  17  18BRANCH  17  26ATOM     26  N   UNL     1      40.503  48.733  14.316 -0.25 +0.08    -0.340 N  ATOM     27  C   UNL     1      41.392  49.581  14.935 -0.52 -0.04    +0.252 C  ATOM     28  H   UNL     1      40.270  48.903  13.343 +0.13 -0.03    +0.164 HD ATOM     29  O   UNL     1      41.476  49.710  16.151 -1.08 +0.01    -0.269 OA BRANCH  27  30ATOM     30  C   UNL     1      42.264  50.389  14.042 -0.64 -0.01    +0.042 A  ATOM     31  C   UNL     1      42.062  50.301  12.664 -0.41 -0.01    +0.034 A  ATOM     32  C   UNL     1      43.244  51.248  14.541 -0.03 -0.01    +0.034 A  ATOM     33  C   UNL     1      42.870  51.060  11.839 -0.43 -0.06    +0.112 A  ATOM     34  C   UNL     1      43.999  51.966  13.630 +0.16 -0.04    +0.112 A  ATOM     35  N   UNL     1      43.839  51.885  12.292 -0.26 +0.13    -0.265 NA ENDBRANCH  27  30ENDBRANCH  17  26ENDBRANCH   1  17TORSDOF 8TERENDMDL