REMARK SMILES NCCC[C@H](O)NC(=O)c1cccc(-c2nnc(-c3ccc(F)cc3)nc2N)c1
REMARK SMILES IDX 5 1 4 2 3 3 2 4 1 5 6 8 7 10 8 11 9 13 10 14 11 15 29 16
REMARK SMILES IDX 12 17 14 18 13 19 15 20 16 21 27 22 17 23 26 24 18 25 28 26
REMARK SMILES IDX 19 29 20 30 25 31 21 32 24 33 22 34 23 35
REMARK H PARENT 1 6 1 7 6 9 7 12 28 27 28 28
ROOT
ATOM      1  C   UNL     1      -4.613  -0.058   1.222  1.00  0.00     0.211 C 
ENDROOT
BRANCH   1   2
ATOM      2  C   UNL     1      -5.488  -0.366   0.004  1.00  0.00     0.056 C 
BRANCH   2   3
ATOM      3  C   UNL     1      -6.679  -1.263   0.359  1.00  0.00     0.020 C 
BRANCH   3   4
ATOM      4  C   UNL     1      -7.479  -1.719  -0.864  1.00  0.00     0.078 C 
BRANCH   4   5
ATOM      5  N   UNL     1      -8.127  -0.617  -1.563  1.00  0.00    -0.330 NA
ATOM      6  H   UNL     1      -7.426   0.007  -1.960  1.00  0.00     0.118 HD
ATOM      7  H   UNL     1      -8.670  -0.057  -0.907  1.00  0.00     0.118 HD
ENDBRANCH   4   5
ENDBRANCH   3   4
ENDBRANCH   2   3
ENDBRANCH   1   2
BRANCH   1   8
ATOM      8  O   UNL     1      -5.328   0.726   2.157  1.00  0.00    -0.374 OA
ATOM      9  H   UNL     1      -5.935   0.123   2.617  1.00  0.00     0.213 HD
ENDBRANCH   1   8
BRANCH   1  10
ATOM     10  N   UNL     1      -3.488   0.755   0.884  1.00  0.00    -0.327 N 
ATOM     11  C   UNL     1      -2.371   0.229   0.286  1.00  0.00     0.253 C 
ATOM     12  H   UNL     1      -3.463   1.654   1.342  1.00  0.00     0.166 HD
ATOM     13  O   UNL     1      -2.274  -0.945  -0.056  1.00  0.00    -0.269 OA
BRANCH  11  14
ATOM     14  C   UNL     1      -1.225   1.155   0.082  1.00  0.00     0.040 A 
ATOM     15  C   UNL     1      -1.400   2.533  -0.075  1.00  0.00     0.014 A 
ATOM     16  C   UNL     1       0.064   0.603   0.015  1.00  0.00     0.024 A 
ATOM     17  C   UNL     1      -0.290   3.354  -0.273  1.00  0.00     0.002 A 
ATOM     18  C   UNL     1       1.190   1.412  -0.205  1.00  0.00     0.007 A 
ATOM     19  C   UNL     1       0.991   2.798  -0.330  1.00  0.00     0.010 A 
BRANCH  18  20
ATOM     20  C   UNL     1       2.542   0.844  -0.282  1.00  0.00     0.135 A 
ATOM     21  N   UNL     1       3.430   1.346   0.604  1.00  0.00    -0.144 NA
ATOM     22  C   UNL     1       2.957  -0.125  -1.203  1.00  0.00     0.154 A 
ATOM     23  N   UNL     1       4.708   0.877   0.594  1.00  0.00    -0.129 NA
ATOM     24  N   UNL     1       4.217  -0.593  -1.211  1.00  0.00    -0.207 NA
ATOM     25  C   UNL     1       5.063  -0.073  -0.301  1.00  0.00     0.183 A 
BRANCH  22  26
ATOM     26  N   UNL     1       2.108  -0.665  -2.185  1.00  0.00    -0.382 N 
ATOM     27  H   UNL     1       1.711   0.083  -2.749  1.00  0.00     0.158 HD
ATOM     28  H   UNL     1       1.334  -1.162  -1.754  1.00  0.00     0.158 HD
ENDBRANCH  22  26
BRANCH  25  29
ATOM     29  C   UNL     1       6.455  -0.565  -0.282  1.00  0.00     0.021 A 
ATOM     30  C   UNL     1       6.897  -1.549  -1.193  1.00  0.00     0.015 A 
ATOM     31  C   UNL     1       7.400  -0.074   0.644  1.00  0.00     0.015 A 
ATOM     32  C   UNL     1       8.215  -2.018  -1.180  1.00  0.00     0.040 A 
ATOM     33  C   UNL     1       8.719  -0.542   0.659  1.00  0.00     0.040 A 
ATOM     34  C   UNL     1       9.113  -1.510  -0.253  1.00  0.00     0.123 A 
ATOM     35  F   UNL     1      10.375  -1.958  -0.239  1.00  0.00    -0.207 F 
ENDBRANCH  25  29
ENDBRANCH  18  20
ENDBRANCH  11  14
ENDBRANCH   1  10
TORSDOF 10
