MODEL        1USER    Run = 1USERUSER    Estimated Free Energy of Binding    =  -8.73 kcal/mol  [=(1)+(2)+(3)-(4)]USERUSER    (1) Final Intermolecular Energy     = -11.71 kcal/molUSER        vdW + Hbond + desolv Energy     = -11.51 kcal/molUSER        Electrostatic Energy            =  -0.21 kcal/molUSER        Moving Ligand-Fixed Receptor    = -11.71 kcal/molUSER        Moving Ligand-Moving Receptor   =  +0.00 kcal/molUSER    (2) Final Total Internal Energy     =  -2.44 kcal/molUSER    (3) Torsional Free Energy           =  +2.98 kcal/molUSER    (4) Unbound System's Energy         =  -2.44 kcal/molUSERUSERREMARK SMILES NCCC[C@H](O)NC(=O)c1cccc(-c2nnc(-c3ccc(F)cc3)nc2N)c1REMARK SMILES IDX 5 1 4 2 3 3 2 4 1 5 6 8 7 10 8 11 9 13 10 14 11 15 29 16REMARK SMILES IDX 12 17 14 18 13 19 15 20 16 21 27 22 17 23 26 24 18 25 28 26REMARK SMILES IDX 19 29 20 30 25 31 21 32 24 33 22 34 23 35REMARK H PARENT 1 6 1 7 6 9 7 12 28 27 28 28USER                              x       y       z     vdW  Elec       q    TypeUSER                           _______ _______ _______ _____ _____    ______ ____ROOTATOM      1  C   UNL     1      40.979  49.524  15.374 -0.55 -0.05    +0.211 C  ENDROOTBRANCH   1   2ATOM      2  C   UNL     1      41.807  49.081  14.165 -0.43 -0.00    +0.056 C  BRANCH   2   3ATOM      3  C   UNL     1      41.837  50.146  13.063 -0.54 -0.01    +0.020 C  BRANCH   3   4ATOM      4  C   UNL     1      43.030  51.099  13.173 -0.54 -0.03    +0.078 C  BRANCH   4   5ATOM      5  N   UNL     1      43.325  51.484  14.547 -0.10 +0.06    -0.330 NA ATOM      6  H   UNL     1      43.607  50.667  15.088 -0.38 -0.01    +0.118 HD ATOM      7  H   UNL     1      42.486  51.848  14.997 -0.14 -0.02    +0.118 HD ENDBRANCH   4   5ENDBRANCH   3   4ENDBRANCH   2   3ENDBRANCH   1   2BRANCH   1   8ATOM      8  O   UNL     1      41.781  50.259  16.278 -0.86 -0.00    -0.374 OA ATOM      9  H   UNL     1      41.738  51.187  15.994 -0.38 -0.08    +0.213 HD ENDBRANCH   1   8BRANCH   1  10ATOM     10  N   UNL     1      40.522  48.414  16.148 -0.30 +0.07    -0.327 N  ATOM     11  C   UNL     1      39.204  48.032  16.154 -0.33 -0.11    +0.253 C  ATOM     12  H   UNL     1      41.158  48.111  16.870 +0.06 -0.02    +0.166 HD ATOM     13  O   UNL     1      38.341  48.562  15.462 -0.36 +0.17    -0.269 OA BRANCH  11  14ATOM     14  C   UNL     1      38.833  46.930  17.082 -0.37 -0.01    +0.040 A  ATOM     15  C   UNL     1      39.696  46.479  18.085 -0.42 -0.00    +0.014 A  ATOM     16  C   UNL     1      37.584  46.314  16.906 -0.35 -0.01    +0.024 A  ATOM     17  C   UNL     1      39.301  45.435  18.921 -0.42 -0.00    +0.002 A  ATOM     18  C   UNL     1      37.179  45.248  17.725 -0.35 -0.00    +0.007 A  ATOM     19  C   UNL     1      38.052  44.832  18.746 -0.37 -0.00    +0.010 A  BRANCH  18  20ATOM     20  C   UNL     1      35.877  44.593  17.547 -0.22 -0.05    +0.135 A  ATOM     21  N   UNL     1      35.926  43.332  17.063 -0.27 +0.05    -0.144 NA ATOM     22  C   UNL     1      34.635  45.185  17.808 -0.26 -0.08    +0.154 A  ATOM     23  N   UNL     1      34.762  42.657  16.862 -0.35 +0.05    -0.129 NA ATOM     24  N   UNL     1      33.484  44.518  17.615 -0.18 +0.08    -0.207 NA ATOM     25  C   UNL     1      33.584  43.259  17.144 -0.20 -0.07    +0.183 A  BRANCH  22  26ATOM     26  N   UNL     1      34.496  46.505  18.270 -0.26 +0.29    -0.382 N  ATOM     27  H   UNL     1      34.015  46.509  19.167 -0.22 -0.09    +0.158 HD ATOM     28  H   UNL     1      33.934  47.052  17.623 -0.38 -0.26    +0.158 HD ENDBRANCH  22  26BRANCH  25  29ATOM     29  C   UNL     1      32.339  42.498  16.921 -0.29 -0.01    +0.021 A  ATOM     30  C   UNL     1      32.068  41.311  17.636 -0.35 -0.00    +0.015 A  ATOM     31  C   UNL     1      31.369  42.923  15.988 -0.33 -0.01    +0.015 A  ATOM     32  C   UNL     1      30.889  40.586  17.429 -0.33 -0.01    +0.040 A  ATOM     33  C   UNL     1      30.190  42.199  15.780 -0.31 -0.02    +0.040 A  ATOM     34  C   UNL     1      29.962  41.037  16.502 -0.30 -0.03    +0.123 A  ATOM     35  F   UNL     1      28.833  40.345  16.303 -0.10 -0.01    -0.207 F  ENDBRANCH  25  29ENDBRANCH  18  20ENDBRANCH  11  14ENDBRANCH   1  10TORSDOF 10TERENDMDL