REMARK SMILES NCCCNC(=O)c1cccc(-c2nnc(-c3ccc(Cl)cc3)nc2N)c1
REMARK SMILES IDX 5 1 6 2 7 3 4 5 3 6 2 7 1 8 8 11 9 12 27 13 10 14 12 15
REMARK SMILES IDX 11 16 13 17 14 18 25 19 15 20 24 21 16 22 26 23 17 26 18 27
REMARK SMILES IDX 23 28 19 29 22 30 20 31 21 32
REMARK H PARENT 5 4 1 9 1 10 26 24 26 25
ROOT
ATOM      1  N   UNL     1      -4.204   0.576  -0.187  1.00  0.00    -0.352 N 
ATOM      2  C   UNL     1      -2.978   0.603   0.450  1.00  0.00     0.251 C 
ATOM      3  O   UNL     1      -2.723   1.348   1.389  1.00  0.00    -0.269 OA
ATOM      4  H   UNL     1      -4.238   0.193  -1.123  1.00  0.00     0.163 HD
ENDROOT
BRANCH   1   5
ATOM      5  C   UNL     1      -5.241   1.518   0.188  1.00  0.00     0.117 C 
BRANCH   5   6
ATOM      6  C   UNL     1      -6.621   1.086  -0.302  1.00  0.00     0.036 C 
BRANCH   6   7
ATOM      7  C   UNL     1      -7.114  -0.174   0.409  1.00  0.00     0.079 C 
BRANCH   7   8
ATOM      8  N   UNL     1      -8.451  -0.546  -0.045  1.00  0.00    -0.330 NA
ATOM      9  H   UNL     1      -8.460  -0.652  -1.058  1.00  0.00     0.118 HD
ATOM     10  H   UNL     1      -9.107   0.205   0.167  1.00  0.00     0.118 HD
ENDBRANCH   7   8
ENDBRANCH   6   7
ENDBRANCH   5   6
ENDBRANCH   1   5
BRANCH   2  11
ATOM     11  C   UNL     1      -1.927  -0.302  -0.095  1.00  0.00     0.040 A 
ATOM     12  C   UNL     1      -2.244  -1.474  -0.790  1.00  0.00     0.014 A 
ATOM     13  C   UNL     1      -0.582   0.029   0.129  1.00  0.00     0.024 A 
ATOM     14  C   UNL     1      -1.225  -2.294  -1.276  1.00  0.00     0.002 A 
ATOM     15  C   UNL     1       0.455  -0.781  -0.364  1.00  0.00     0.007 A 
ATOM     16  C   UNL     1       0.112  -1.949  -1.067  1.00  0.00     0.010 A 
BRANCH  15  17
ATOM     17  C   UNL     1       1.855  -0.421  -0.134  1.00  0.00     0.135 A 
ATOM     18  N   UNL     1       2.292  -0.550   1.135  1.00  0.00    -0.144 NA
ATOM     19  C   UNL     1       2.729   0.034  -1.128  1.00  0.00     0.154 A 
ATOM     20  N   UNL     1       3.587  -0.240   1.416  1.00  0.00    -0.129 NA
ATOM     21  N   UNL     1       4.007   0.342  -0.854  1.00  0.00    -0.207 NA
ATOM     22  C   UNL     1       4.402   0.193   0.426  1.00  0.00     0.183 A 
BRANCH  19  23
ATOM     23  N   UNL     1       2.323   0.234  -2.462  1.00  0.00    -0.382 N 
ATOM     24  H   UNL     1       1.576   0.924  -2.485  1.00  0.00     0.158 HD
ATOM     25  H   UNL     1       1.950  -0.629  -2.846  1.00  0.00     0.158 HD
ENDBRANCH  19  23
BRANCH  22  26
ATOM     26  C   UNL     1       5.801   0.520   0.767  1.00  0.00     0.021 A 
ATOM     27  C   UNL     1       6.290   0.394   2.084  1.00  0.00     0.013 A 
ATOM     28  C   UNL     1       6.707   0.973  -0.213  1.00  0.00     0.013 A 
ATOM     29  C   UNL     1       7.617   0.704   2.405  1.00  0.00     0.021 A 
ATOM     30  C   UNL     1       8.035   1.284   0.103  1.00  0.00     0.021 A 
ATOM     31  C   UNL     1       8.484   1.148   1.412  1.00  0.00     0.041 A 
ATOM     32  Cl  UNL     1      10.114   1.529   1.804  1.00  0.00    -0.084 Cl
ENDBRANCH  22  26
ENDBRANCH  15  17
ENDBRANCH   2  11
TORSDOF 8
