MODEL        6USER    Run = 6USERUSER    Estimated Free Energy of Binding    =  -9.29 kcal/mol  [=(1)+(2)+(3)-(4)]USERUSER    (1) Final Intermolecular Energy     = -11.67 kcal/molUSER        vdW + Hbond + desolv Energy     = -11.49 kcal/molUSER        Electrostatic Energy            =  -0.19 kcal/molUSER        Moving Ligand-Fixed Receptor    = -11.67 kcal/molUSER        Moving Ligand-Moving Receptor   =  +0.00 kcal/molUSER    (2) Final Total Internal Energy     =  -1.43 kcal/molUSER    (3) Torsional Free Energy           =  +2.39 kcal/molUSER    (4) Unbound System's Energy         =  -1.43 kcal/molUSERUSERREMARK SMILES COc1cc(F)c(O)c(C(=O)c2ccc(C(=O)N[C@@H]3CCN(C(=O)c4ccncc4)C3)cc2)c1REMARK SMILES IDX 12 1 13 2 14 3 15 4 32 5 33 6 10 7 11 8 9 9 3 10 4 11 34 12REMARK SMILES IDX 5 13 7 14 6 15 2 16 1 17 8 18 16 20 18 21 17 22 19 24 20 25REMARK SMILES IDX 31 26 21 27 22 28 23 29 24 30 25 31 26 32 30 33 27 34 29 35REMARK SMILES IDX 28 36REMARK H PARENT 8 19 18 23USER                              x       y       z     vdW  Elec       q    TypeUSER                           _______ _______ _______ _____ _____    ______ ____ROOTATOM      1  C   UNL     1      41.785  49.448  14.873 -0.53 -0.00    +0.023 A  ATOM      2  C   UNL     1      42.138  48.894  13.638 +0.27 -0.00    +0.013 A  ATOM      3  C   UNL     1      42.868  49.650  12.718 -0.56 -0.00    +0.014 A  ATOM      4  C   UNL     1      43.272  50.953  13.038 -0.48 -0.02    +0.039 A  ATOM      5  C   UNL     1      42.925  51.502  14.280 -0.16 -0.00    +0.014 A  ATOM      6  C   UNL     1      42.190  50.748  15.201 -0.39 -0.00    +0.013 A  ENDROOTBRANCH   1   7ATOM      7  C   UNL     1      41.024  48.610  15.830 -0.49 -0.02    +0.196 C  ATOM      8  O   UNL     1      41.495  48.408  16.948 -0.81 +0.01    -0.288 OA BRANCH   7   9ATOM      9  C   UNL     1      39.701  48.023  15.500 -0.48 -0.02    +0.071 A  ATOM     10  C   UNL     1      37.832  47.716  13.967 -0.43 -0.05    +0.122 A  ATOM     11  C   UNL     1      37.197  46.907  14.905 -0.35 -0.05    +0.089 A  ATOM     12  C   UNL     1      39.084  48.268  14.264 -0.44 -0.02    +0.062 A  ATOM     13  C   UNL     1      37.822  46.643  16.122 -0.28 -0.08    +0.169 A  ATOM     14  C   UNL     1      39.071  47.182  16.425 -0.33 -0.06    +0.162 A  ATOM     15  F   UNL     1      37.197  45.849  17.004 -0.07 +0.08    -0.203 F  BRANCH  10  16ATOM     16  O   UNL     1      37.345  48.048  12.732 -0.79 +0.08    -0.497 OA ATOM     17  C   UNL     1      36.245  47.285  12.247 -0.50 -0.14    +0.278 C  ENDBRANCH  10  16BRANCH  14  18ATOM     18  O   UNL     1      39.633  46.860  17.633 -0.17 +0.10    -0.504 OA ATOM     19  H   UNL     1      40.432  47.420  17.757 +0.20 -0.04    +0.293 HD ENDBRANCH  14  18ENDBRANCH   7   9ENDBRANCH   1   7BRANCH   4  20ATOM     20  C   UNL     1      44.045  51.723  12.025 -0.29 -0.13    +0.251 C  ATOM     21  N   UNL     1      45.397  51.868  12.267 -0.16 +0.17    -0.347 N  ATOM     22  O   UNL     1      43.486  52.162  11.027 -0.42 +0.16    -0.269 OA ATOM     23  H   UNL     1      45.829  51.256  12.946 -0.48 -0.12    +0.164 HD BRANCH  21  24ATOM     24  C   UNL     1      46.253  52.501  11.282 -0.31 -0.03    +0.103 C  ATOM     25  C   UNL     1      45.846  52.175   9.842 -0.24 -0.01    +0.048 C  ATOM     26  C   UNL     1      47.707  52.023  11.325 -0.29 -0.03    +0.144 C  ATOM     27  C   UNL     1      47.107  52.503   9.052 -0.24 -0.02    +0.122 C  ATOM     28  N   UNL     1      48.200  52.206   9.970 -0.12 +0.06    -0.337 N  BRANCH  28  29ATOM     29  C   UNL     1      49.505  51.884   9.654 -0.15 -0.05    +0.254 C  ATOM     30  O   UNL     1      50.446  52.089  10.417 -0.07 +0.05    -0.269 OA BRANCH  29  31ATOM     31  C   UNL     1      49.785  51.246   8.350 -0.28 -0.01    +0.043 A  ATOM     32  C   UNL     1      50.414  50.004   8.340 -0.41 -0.01    +0.034 A  ATOM     33  C   UNL     1      49.491  51.895   7.153 -0.25 -0.00    +0.034 A  ATOM     34  C   UNL     1      50.685  49.435   7.111 -0.33 -0.04    +0.112 A  ATOM     35  C   UNL     1      49.806  51.239   5.978 -0.35 -0.01    +0.112 A  ATOM     36  N   UNL     1      50.384  50.019   5.932 -0.29 +0.09    -0.265 NA ENDBRANCH  29  31ENDBRANCH  28  29ENDBRANCH  21  24ENDBRANCH   4  20TORSDOF 8TERENDMDL