MODEL        9USER    Run = 9USERUSER    Estimated Free Energy of Binding    =  -9.97 kcal/mol  [=(1)+(2)+(3)-(4)]USERUSER    (1) Final Intermolecular Energy     = -12.06 kcal/molUSER        vdW + Hbond + desolv Energy     = -10.89 kcal/molUSER        Electrostatic Energy            =  -1.16 kcal/molUSER        Moving Ligand-Fixed Receptor    = -12.06 kcal/molUSER        Moving Ligand-Moving Receptor   =  +0.00 kcal/molUSER    (2) Final Total Internal Energy     =  -1.23 kcal/molUSER    (3) Torsional Free Energy           =  +2.09 kcal/molUSER    (4) Unbound System's Energy         =  -1.23 kcal/molUSERUSERREMARK SMILES COc1cc(F)c(O)c(C(=O)c2ccc(C(=O)NC3CCN(C(=O)c4ccncc4)CC3)cc2)c1FREMARK SMILES IDX 12 1 13 2 14 3 15 4 33 5 34 6 10 7 11 8 9 9 3 10 4 11 35 12REMARK SMILES IDX 5 13 7 14 36 15 6 16 2 17 1 18 8 19 16 21 18 22 17 23 19 25REMARK SMILES IDX 20 26 32 27 21 28 31 29 22 30 23 31 24 32 25 33 26 34 30 35REMARK SMILES IDX 27 36 29 37 28 38REMARK H PARENT 8 20 18 24USER                              x       y       z     vdW  Elec       q    TypeUSER                           _______ _______ _______ _____ _____    ______ ____ROOTATOM      1  C   UNL     1      37.345  29.559  24.365 -0.31 +0.00    +0.023 A  ATOM      2  C   UNL     1      36.840  28.485  23.621 -0.25 -0.00    +0.013 A  ATOM      3  C   UNL     1      35.581  28.572  23.021 -0.34 -0.00    +0.014 A  ATOM      4  C   UNL     1      34.808  29.730  23.182 -0.35 -0.00    +0.039 A  ATOM      5  C   UNL     1      35.314  30.800  23.932 -0.15 +0.00    +0.014 A  ATOM      6  C   UNL     1      36.574  30.713  24.534 -0.45 +0.00    +0.013 A  ENDROOTBRANCH   1   7ATOM      7  C   UNL     1      38.673  29.409  25.005 -0.26 +0.06    +0.199 C  ATOM      8  O   UNL     1      39.032  30.249  25.832 -0.17 -0.13    -0.288 OA BRANCH   7   9ATOM      9  C   UNL     1      39.619  28.325  24.665 -0.20 +0.05    +0.107 A  ATOM     10  C   UNL     1      40.992  27.117  23.046 -0.12 +0.12    +0.158 A  ATOM     11  C   UNL     1      41.426  26.260  24.056 -0.07 +0.05    +0.092 A  ATOM     12  C   UNL     1      40.083  28.140  23.359 -0.16 +0.09    +0.180 A  ATOM     13  C   UNL     1      40.939  26.422  25.352 -0.08 +0.14    +0.169 A  ATOM     14  C   UNL     1      40.033  27.435  25.663 -0.15 +0.14    +0.165 A  ATOM     15  F   UNL     1      39.642  28.932  22.370 -0.08 -0.08    -0.202 F  ATOM     16  F   UNL     1      41.357  25.574  26.303 -0.02 -0.26    -0.203 F  BRANCH  10  17ATOM     17  O   UNL     1      41.379  27.056  21.735 -0.52 -0.73    -0.494 OA ATOM     18  C   UNL     1      40.445  26.527  20.800 -0.05 +0.15    +0.278 C  ENDBRANCH  10  17BRANCH  14  19ATOM     19  O   UNL     1      39.579  27.513  26.954 -0.53 -0.89    -0.504 OA ATOM     20  H   UNL     1      39.272  28.433  27.121 +0.16 +0.28    +0.293 HD ENDBRANCH  14  19ENDBRANCH   7   9ENDBRANCH   1   7BRANCH   4  21ATOM     21  C   UNL     1      33.464  29.885  22.559 -0.41 -0.01    +0.251 C  ATOM     22  N   UNL     1      32.374  29.826  23.404 -0.29 -0.04    -0.349 N  ATOM     23  O   UNL     1      33.370  30.076  21.351 -0.78 +0.03    -0.269 OA ATOM     24  H   UNL     1      32.514  29.691  24.395 +0.15 +0.06    +0.164 HD BRANCH  22  25ATOM     25  C   UNL     1      31.008  29.878  22.890 -0.60 +0.00    +0.085 C  ATOM     26  C   UNL     1      30.008  30.238  24.002 -0.63 +0.01    +0.046 C  ATOM     27  C   UNL     1      30.928  30.829  21.689 -0.59 -0.01    +0.046 C  ATOM     28  C   UNL     1      29.635  31.713  23.970 -0.38 +0.07    +0.122 C  ATOM     29  C   UNL     1      29.514  31.369  21.497 -0.18 -0.04    +0.122 C  ATOM     30  N   UNL     1      29.058  32.099  22.684 -0.19 -0.02    -0.338 N  ATOM     31  C   UNL     1      28.311  33.276  22.643 -0.32 +0.03    +0.253 C  ATOM     32  O   UNL     1      28.216  34.048  23.595 -0.31 -0.16    -0.269 OA BRANCH  31  33ATOM     33  C   UNL     1      27.585  33.628  21.403 -0.38 -0.02    +0.043 A  ATOM     34  C   UNL     1      27.521  34.947  20.961 -0.32 -0.02    +0.034 A  ATOM     35  C   UNL     1      27.023  32.604  20.644 -0.27 -0.04    +0.034 A  ATOM     36  C   UNL     1      26.848  35.192  19.780 -0.22 -0.09    +0.112 A  ATOM     37  C   UNL     1      26.372  32.956  19.478 -0.42 -0.13    +0.112 A  ATOM     38  N   UNL     1      26.262  34.228  19.036 -0.65 +0.23    -0.265 NA ENDBRANCH  31  33ENDBRANCH  22  25ENDBRANCH   4  21TORSDOF 7TERENDMDL