REMARK SMILES COc1ccc(O)c(C(=O)c2ccc(C(=O)N[C@@H]3CCCN(S(C)(=O)=O)C[C@H]3NC(=O)c3cnc(OC)c(F)c3)cc2)c1F
REMARK SMILES IDX 15 1 16 2 17 3 14 5 11 6 12 7 42 8 13 9 41 10 9 11 10 12
REMARK SMILES IDX 8 13 3 14 4 15 43 16 5 17 6 18 44 19 2 20 1 21 7 22 18 24
REMARK SMILES IDX 19 25 28 27 27 28 22 29 21 30 20 31 23 33 24 34 25 35 26 36
REMARK SMILES IDX 29 37 30 38 31 40 32 41 33 42 40 43 34 44 38 45 35 46 39 47
REMARK SMILES IDX 36 48 37 49
REMARK H PARENT 17 4 7 23 29 39
REMARK Flexibility Score:   88.900
ROOT
ATOM      1  C   UNL     1       0.610   1.552   1.601  1.00  0.00     0.251 C 
ATOM      2  O   UNL     1      -0.164   2.471   1.834  1.00  0.00    -0.269 OA
ATOM      3  N   UNL     1       0.242   0.220   1.590  1.00  0.00    -0.347 N 
ATOM      4  H   UNL     1       0.890  -0.433   1.173  1.00  0.00     0.164 HD
ENDROOT
BRANCH   1   5
ATOM      5  C   UNL     1       2.026   1.838   1.249  1.00  0.00     0.039 A 
ATOM      6  C   UNL     1       4.656   2.411   0.485  1.00  0.00     0.023 A 
ATOM      7  C   UNL     1       4.377   1.247   1.211  1.00  0.00     0.013 A 
ATOM      8  C   UNL     1       3.629   3.314   0.189  1.00  0.00     0.013 A 
ATOM      9  C   UNL     1       3.062   0.958   1.588  1.00  0.00     0.014 A 
ATOM     10  C   UNL     1       2.316   3.027   0.569  1.00  0.00     0.014 A 
BRANCH   6  11
ATOM     11  C   UNL     1       6.036   2.751   0.071  1.00  0.00     0.199 C 
ATOM     12  O   UNL     1       6.426   3.912   0.205  1.00  0.00    -0.288 OA
BRANCH  11  13
ATOM     13  C   UNL     1       6.990   1.751  -0.459  1.00  0.00     0.104 A 
ATOM     14  C   UNL     1       7.484  -0.318  -1.657  1.00  0.00     0.155 A 
ATOM     15  C   UNL     1       8.847  -0.122  -1.428  1.00  0.00     0.053 A 
ATOM     16  C   UNL     1       6.567   0.628  -1.173  1.00  0.00     0.179 A 
ATOM     17  C   UNL     1       9.285   1.013  -0.741  1.00  0.00     0.051 A 
ATOM     18  C   UNL     1       8.364   1.947  -0.272  1.00  0.00     0.130 A 
ATOM     19  F   UNL     1       5.261   0.444  -1.430  1.00  0.00    -0.202 F 
BRANCH  14  20
ATOM     20  O   UNL     1       6.936  -1.380  -2.325  1.00  0.00    -0.494 OA
ATOM     21  C   UNL     1       7.834  -2.327  -2.892  1.00  0.00     0.278 C 
ENDBRANCH  14  20
BRANCH  18  22
ATOM     22  O   UNL     1       8.881   3.041   0.369  1.00  0.00    -0.507 OA
ATOM     23  H   UNL     1       8.165   3.712   0.451  1.00  0.00     0.293 HD
ENDBRANCH  18  22
ENDBRANCH  11  13
ENDBRANCH   6  11
ENDBRANCH   1   5
BRANCH   3  24
ATOM     24  C   UNL     1      -1.164  -0.182   1.748  1.00  0.00     0.106 C 
BRANCH  24  25
ATOM     25  C   UNL     1      -1.246  -1.573   2.407  1.00  0.00     0.028 CG0
ATOM     26  G   UNL     1      -0.654  -2.724   1.589  1.00  0.00     0.000 G0
ENDBRANCH  24  25
BRANCH  24  27
ATOM     27  C   UNL     1      -1.971   0.002   0.430  1.00  0.00     0.120 C 
BRANCH  27  28
ATOM     28  C   UNL     1      -1.774  -1.137  -0.593  1.00  0.00     0.129 C 
BRANCH  28  29
ATOM     29  N   UNL     1      -2.461  -2.372  -0.113  1.00  0.00    -0.200 NA
BRANCH  29  30
ATOM     30  C   UNL     1      -1.624  -3.358   0.597  1.00  0.00     0.102 C 
BRANCH  30  31
ATOM     31  C   UNL     1      -0.654  -2.724   1.589  1.00  0.00     0.019 CG0
ATOM     32  G   UNL     1      -1.246  -1.573   2.407  1.00  0.00     0.000 G0
ENDBRANCH  30  31
ENDBRANCH  29  30
BRANCH  29  33
ATOM     33  S   UNL     1      -3.729  -2.992  -1.058  1.00  0.00     0.211 S 
ATOM     34  C   UNL     1      -2.877  -3.601  -2.502  1.00  0.00     0.176 C 
ATOM     35  O   UNL     1      -4.569  -1.883  -1.456  1.00  0.00    -0.213 OA
ATOM     36  O   UNL     1      -4.286  -4.124  -0.350  1.00  0.00    -0.213 OA
ENDBRANCH  29  33
ENDBRANCH  28  29
ENDBRANCH  27  28
BRANCH  27  37
ATOM     37  N   UNL     1      -3.405   0.190   0.695  1.00  0.00    -0.346 N 
ATOM     38  C   UNL     1      -4.164   0.979  -0.152  1.00  0.00     0.253 C 
ATOM     39  H   UNL     1      -3.860  -0.593   1.146  1.00  0.00     0.164 HD
ATOM     40  O   UNL     1      -3.661   1.678  -1.027  1.00  0.00    -0.269 OA
BRANCH  38  41
ATOM     41  C   UNL     1      -5.641   0.962   0.015  1.00  0.00     0.061 A 
ATOM     42  C   UNL     1      -6.400   1.803  -0.802  1.00  0.00     0.129 A 
ATOM     43  C   UNL     1      -6.326   0.170   0.938  1.00  0.00     0.060 A 
ATOM     44  N   UNL     1      -7.755   1.907  -0.757  1.00  0.00    -0.219 NA
ATOM     45  C   UNL     1      -7.714   0.248   0.994  1.00  0.00     0.185 A 
ATOM     46  C   UNL     1      -8.386   1.120   0.144  1.00  0.00     0.250 A 
ATOM     47  F   UNL     1      -8.377  -0.514   1.876  1.00  0.00    -0.201 F 
BRANCH  46  48
ATOM     48  O   UNL     1      -9.763   1.160   0.242  1.00  0.00    -0.479 OA
ATOM     49  C   UNL     1     -10.360   2.116  -0.629  1.00  0.00     0.280 C 
ENDBRANCH  46  48
ENDBRANCH  38  41
ENDBRANCH  27  37
ENDBRANCH  24  27
ENDBRANCH   3  24
TORSDOF 10
