REMARK SMILES COc1ncc(F)cc1C(=O)N[C@@H]1CCCN(C)C[C@H]1NC(=O)c1cnc(N2CCN(Cc3cccnc3)CC2)c(F)c1
REMARK SMILES IDX 20 1 13 2 12 3 10 4 11 5 9 7 3 8 4 9 5 10 8 11 6 12 7 13
REMARK SMILES IDX 2 14 1 15 14 16 19 18 17 19 18 20 16 21 15 22 21 24 22 25
REMARK SMILES IDX 23 27 24 28 25 29 43 30 26 31 41 32 27 33 42 34 28 35 29 36
REMARK SMILES IDX 40 37 30 38 39 39 31 40 32 41 33 42 34 43 38 44 35 45 37 46
REMARK SMILES IDX 36 47
REMARK H PARENT 12 6 21 26
REMARK Flexibility Score:  190.900
ROOT
ATOM      1  C   UNL     1      -3.132  -0.477  -0.223  1.00  0.00     0.118 C 
ENDROOT
BRANCH   1   2
ATOM      2  C   UNL     1      -4.122   0.095   0.822  1.00  0.00     0.106 C 
BRANCH   2   3
ATOM      3  N   UNL     1      -5.370  -0.677   0.837  1.00  0.00    -0.347 N 
ATOM      4  C   UNL     1      -6.206  -0.732   1.927  1.00  0.00     0.257 C 
ATOM      5  O   UNL     1      -5.938  -0.197   2.998  1.00  0.00    -0.269 OA
ATOM      6  H   UNL     1      -5.713  -1.056  -0.038  1.00  0.00     0.164 HD
BRANCH   4   7
ATOM      7  C   UNL     1      -7.488  -1.480   1.783  1.00  0.00     0.104 A 
ATOM      8  C   UNL     1      -8.003  -1.972   0.577  1.00  0.00     0.226 A 
ATOM      9  N   UNL     1      -9.182  -2.640   0.480  1.00  0.00    -0.218 NA
ATOM     10  C   UNL     1      -9.871  -2.834   1.630  1.00  0.00     0.154 A 
ATOM     11  C   UNL     1      -8.239  -1.701   2.947  1.00  0.00     0.060 A 
ATOM     12  C   UNL     1      -9.439  -2.388   2.865  1.00  0.00     0.142 A 
ATOM     13  F   UNL     1     -10.165  -2.618   3.965  1.00  0.00    -0.205 F 
BRANCH   8  14
ATOM     14  O   UNL     1      -7.282  -1.771  -0.585  1.00  0.00    -0.480 OA
ATOM     15  C   UNL     1      -7.911  -2.301  -1.751  1.00  0.00     0.280 C 
ENDBRANCH   8  14
ENDBRANCH   4   7
ENDBRANCH   2   3
BRANCH   2  16
ATOM     16  C   UNL     1      -4.405   1.604   0.682  1.00  0.00     0.028 CG0
ATOM     17  G   UNL     1      -5.137   1.983  -0.605  1.00  0.00     0.000 G0
ENDBRANCH   2  16
ENDBRANCH   1   2
BRANCH   1  18
ATOM     18  C   UNL     1      -3.456  -0.125  -1.697  1.00  0.00     0.111 C 
BRANCH  18  19
ATOM     19  N   UNL     1      -3.110   1.277  -1.997  1.00  0.00    -0.304 NA
ATOM     20  C   UNL     1      -2.573   1.404  -3.355  1.00  0.00     0.105 C 
BRANCH  19  21
ATOM     21  C   UNL     1      -4.224   2.214  -1.811  1.00  0.00     0.084 C 
BRANCH  21  22
ATOM     22  C   UNL     1      -5.137   1.983  -0.605  1.00  0.00     0.018 CG0
ATOM     23  G   UNL     1      -4.405   1.604   0.682  1.00  0.00     0.000 G0
ENDBRANCH  21  22
ENDBRANCH  19  21
ENDBRANCH  18  19
ENDBRANCH   1  18
BRANCH   1  24
ATOM     24  N   UNL     1      -1.756  -0.043   0.063  1.00  0.00    -0.346 N 
ATOM     25  C   UNL     1      -0.814  -0.876   0.624  1.00  0.00     0.253 C 
ATOM     26  H   UNL     1      -1.543   0.883  -0.283  1.00  0.00     0.164 HD
ATOM     27  O   UNL     1      -1.078  -2.018   0.994  1.00  0.00    -0.269 OA
BRANCH  25  28
ATOM     28  C   UNL     1       0.582  -0.378   0.740  1.00  0.00     0.061 A 
ATOM     29  C   UNL     1       1.018   0.841   0.254  1.00  0.00     0.127 A 
ATOM     30  C   UNL     1       1.542  -1.192   1.331  1.00  0.00     0.058 A 
ATOM     31  N   UNL     1       2.307   1.272   0.318  1.00  0.00    -0.236 NA
ATOM     32  C   UNL     1       2.869  -0.770   1.398  1.00  0.00     0.166 A 
ATOM     33  C   UNL     1       3.255   0.474   0.879  1.00  0.00     0.164 A 
ATOM     34  F   UNL     1       3.751  -1.627   1.936  1.00  0.00    -0.203 F 
BRANCH  33  35
ATOM     35  N   UNL     1       4.550   0.978   0.904  1.00  0.00    -0.352 N 
ATOM     36  C   UNL     1       4.892   1.835  -0.254  1.00  0.00     0.133 C 
ATOM     37  C   UNL     1       5.681   0.257   1.496  1.00  0.00     0.133 C 
ATOM     38  C   UNL     1       6.372   1.665  -0.693  1.00  0.00     0.106 C 
ATOM     39  C   UNL     1       6.480  -0.519   0.419  1.00  0.00     0.106 C 
ATOM     40  N   UNL     1       6.719   0.244  -0.820  1.00  0.00    -0.296 NA
BRANCH  40  41
ATOM     41  C   UNL     1       7.951  -0.064  -1.538  1.00  0.00     0.121 C 
BRANCH  41  42
ATOM     42  C   UNL     1       9.248   0.270  -0.843  1.00  0.00    -0.016 A 
ATOM     43  C   UNL     1      10.010  -0.717  -0.211  1.00  0.00     0.008 A 
ATOM     44  C   UNL     1       9.757   1.564  -0.832  1.00  0.00     0.116 A 
ATOM     45  C   UNL     1      11.213  -0.378   0.403  1.00  0.00     0.020 A 
ATOM     46  N   UNL     1      10.922   1.923  -0.244  1.00  0.00    -0.264 NA
ATOM     47  C   UNL     1      11.624   0.942   0.359  1.00  0.00     0.111 A 
ENDBRANCH  41  42
ENDBRANCH  40  41
ENDBRANCH  33  35
ENDBRANCH  25  28
ENDBRANCH   1  24
TORSDOF 8
