REMARK SMILES CN1CCN(c2cnncc2-c2nc3cc(F)ccc3nc2-c2ccc(CN3CCC(n4c(O)nc5cc(F)ccc54)CC3)nc2)CC1
REMARK SMILES IDX 23 1 24 2 25 3 26 4 45 5 46 6 22 7 12 8 13 9 14 10 21 11
REMARK SMILES IDX 15 12 20 13 16 14 19 15 18 16 17 17 11 18 6 19 7 20 8 21
REMARK SMILES IDX 10 22 9 23 5 24 2 25 3 26 48 27 4 28 47 29 1 30 27 31 28 32
REMARK SMILES IDX 29 33 44 34 30 35 43 36 31 37 32 38 33 39 42 40 35 41 41 42
REMARK SMILES IDX 36 43 40 44 37 45 38 46 39 47 34 48
REMARK H PARENT 34 49
ROOT
ATOM      1  C   UNL     1      -1.497   1.632  -0.548  1.00  0.00     0.021 A 
ATOM      2  C   UNL     1      -0.208   1.805  -1.060  1.00  0.00     0.014 A 
ATOM      3  C   UNL     1       0.902   1.474  -0.286  1.00  0.00     0.026 A 
ATOM      4  C   UNL     1       0.708   0.960   0.997  1.00  0.00     0.054 A 
ATOM      5  N   UNL     1      -0.530   0.802   1.528  1.00  0.00    -0.259 NA
ATOM      6  C   UNL     1      -1.589   1.149   0.753  1.00  0.00     0.121 A 
ENDROOT
BRANCH   1   7
ATOM      7  C   UNL     1      -2.677   1.964  -1.342  1.00  0.00     0.099 A 
ATOM      8  C   UNL     1      -3.377   1.045  -2.133  1.00  0.00     0.101 A 
ATOM      9  N   UNL     1      -4.380   1.448  -2.963  1.00  0.00    -0.244 NA
ATOM     10  C   UNL     1      -4.698   2.755  -2.960  1.00  0.00     0.092 A 
ATOM     11  N   UNL     1      -2.994   3.288  -1.346  1.00  0.00    -0.244 NA
ATOM     12  C   UNL     1      -5.721   3.208  -3.778  1.00  0.00     0.069 A 
ATOM     13  C   UNL     1      -4.004   3.679  -2.142  1.00  0.00     0.090 A 
ATOM     14  C   UNL     1      -6.064   4.552  -3.798  1.00  0.00     0.125 A 
ATOM     15  C   UNL     1      -4.366   5.020  -2.175  1.00  0.00     0.033 A 
ATOM     16  C   UNL     1      -5.396   5.467  -3.001  1.00  0.00     0.041 A 
ATOM     17  F   UNL     1      -7.054   4.971  -4.595  1.00  0.00    -0.207 F 
BRANCH   8  18
ATOM     18  C   UNL     1      -3.075  -0.387  -2.196  1.00  0.00     0.048 A 
ATOM     19  C   UNL     1      -3.396  -1.302  -1.176  1.00  0.00     0.068 A 
ATOM     20  C   UNL     1      -2.934  -2.604  -1.379  1.00  0.00     0.162 A 
ATOM     21  N   UNL     1      -2.257  -3.025  -2.476  1.00  0.00    -0.157 NA
ATOM     22  C   UNL     1      -2.401  -0.872  -3.315  1.00  0.00     0.148 A 
ATOM     23  N   UNL     1      -1.999  -2.151  -3.464  1.00  0.00    -0.158 NA
BRANCH  19  24
ATOM     24  N   UNL     1      -4.131  -0.907  -0.032  1.00  0.00    -0.367 N 
ATOM     25  N   UNL     1      -6.118  -0.736   2.172  1.00  0.00    -0.303 NA
ATOM     26  C   UNL     1      -6.254   0.011   0.900  1.00  0.00     0.105 C 
ATOM     27  C   UNL     1      -4.694  -1.066   2.396  1.00  0.00     0.105 C 
ATOM     28  C   UNL     1      -5.567  -0.641  -0.327  1.00  0.00     0.132 C 
ATOM     29  C   UNL     1      -3.970  -1.729   1.197  1.00  0.00     0.132 C 
ATOM     30  C   UNL     1      -6.960  -1.932   2.184  1.00  0.00     0.105 C 
ENDBRANCH  19  24
ENDBRANCH   8  18
ENDBRANCH   1   7
BRANCH   4  31
ATOM     31  C   UNL     1       1.906   0.594   1.863  1.00  0.00     0.140 C 
BRANCH  31  32
ATOM     32  N   UNL     1       2.371  -0.806   1.775  1.00  0.00    -0.297 NA
ATOM     33  C   UNL     1       2.806  -1.240   0.446  1.00  0.00     0.087 C 
ATOM     34  C   UNL     1       3.359  -1.099   2.826  1.00  0.00     0.087 C 
ATOM     35  C   UNL     1       4.167  -0.673   0.045  1.00  0.00     0.041 C 
ATOM     36  C   UNL     1       4.673  -1.705   2.324  1.00  0.00     0.041 C 
ATOM     37  C   UNL     1       5.218  -0.879   1.151  1.00  0.00     0.095 C 
BRANCH  37  38
ATOM     38  N   UNL     1       6.479  -1.401   0.643  1.00  0.00    -0.291 N 
ATOM     39  C   UNL     1       6.667  -2.612   0.035  1.00  0.00     0.295 A 
ATOM     40  C   UNL     1       7.707  -0.772   0.670  1.00  0.00     0.072 A 
ATOM     41  N   UNL     1       7.901  -2.821  -0.332  1.00  0.00    -0.195 NA
ATOM     42  C   UNL     1       8.146   0.470   1.149  1.00  0.00     0.032 A 
ATOM     43  C   UNL     1       8.569  -1.685   0.054  1.00  0.00     0.095 A 
ATOM     44  C   UNL     1       9.502   0.769   0.985  1.00  0.00     0.041 A 
ATOM     45  C   UNL     1       9.924  -1.368  -0.097  1.00  0.00     0.070 A 
ATOM     46  C   UNL     1      10.365  -0.136   0.376  1.00  0.00     0.125 A 
ATOM     47  F   UNL     1      11.658   0.188   0.241  1.00  0.00    -0.207 F 
BRANCH  39  48
ATOM     48  O   UNL     1       5.715  -3.494  -0.186  1.00  0.00    -0.480 OA
ATOM     49  H   UNL     1       6.207  -4.202  -0.642  1.00  0.00     0.296 HD
ENDBRANCH  39  48
ENDBRANCH  37  38
ENDBRANCH  31  32
ENDBRANCH   4  31
TORSDOF 7
