MODEL        5USER    Run = 5USERUSER    Estimated Free Energy of Binding    =  -7.18 kcal/mol  [=(1)+(2)+(3)-(4)]USERUSER    (1) Final Intermolecular Energy     = -11.36 kcal/molUSER        vdW + Hbond + desolv Energy     = -12.05 kcal/molUSER        Electrostatic Energy            =  +0.03 kcal/molUSER        Moving Ligand-Fixed Receptor    = -12.02 kcal/molUSER        Moving Ligand-Moving Receptor   =  +0.65 kcal/molUSER    (2) Final Total Internal Energy     =  -2.93 kcal/molUSER    (3) Torsional Free Energy           =  +4.18 kcal/molUSER    (4) Unbound System's Energy         =  -2.93 kcal/molUSERUSERREMARK SMILES COc1ncc(F)cc1C(=O)N[C@@H]1CCCN(C)C[C@H]1NC(=O)c1cnc(N2CCN(Cc3cccnc3)CC2)c(F)c1REMARK SMILES IDX 20 1 13 2 12 3 10 4 11 5 9 7 3 8 4 9 5 10 8 11 6 12 7 13REMARK SMILES IDX 2 14 1 15 14 16 19 18 17 19 18 20 16 21 15 22 21 24 22 25REMARK SMILES IDX 23 27 24 28 25 29 43 30 26 31 41 32 27 33 42 34 28 35 29 36REMARK SMILES IDX 40 37 30 38 39 39 31 40 32 41 33 42 34 43 38 44 35 45 37 46REMARK SMILES IDX 36 47REMARK H PARENT 12 6 21 26REMARK Flexibility Score:  190.900USER                              x       y       z     vdW  Elec       q    TypeUSER                           _______ _______ _______ _____ _____    ______ ____ROOTATOM      1  C   UNL     1      36.578  47.050  16.138 -0.32 -0.10    +0.118 C  ENDROOTBRANCH   1   2ATOM      2  C   UNL     1      37.903  46.379  16.577 -0.37 -0.04    +0.106 C  BRANCH   2   3ATOM      3  N   UNL     1      37.760  45.752  17.896 -0.16 +0.09    -0.347 N  ATOM      4  C   UNL     1      37.318  44.462  18.070 -0.23 -0.05    +0.257 C  ATOM      5  O   UNL     1      36.942  43.757  17.139 -0.21 +0.07    -0.269 OA ATOM      6  H   UNL     1      38.150  46.228  18.701 +0.08 -0.03    +0.164 HD BRANCH   4   7ATOM      7  C   UNL     1      37.302  43.913  19.457 -0.26 -0.01    +0.104 A  ATOM      8  C   UNL     1      38.128  44.343  20.503 -0.22 -0.00    +0.226 A  ATOM      9  N   UNL     1      38.095  43.813  21.753 -0.21 -0.01    -0.218 NA ATOM     10  C   UNL     1      37.198  42.822  21.973 -0.33 +0.01    +0.154 A  ATOM     11  C   UNL     1      36.392  42.882  19.731 -0.32 -0.00    +0.060 A  ATOM     12  C   UNL     1      36.341  42.337  21.003 -0.39 +0.00    +0.142 A  ATOM     13  F   UNL     1      35.473  41.359  21.287 -0.16 -0.00    -0.205 F  BRANCH   8  14ATOM     14  O   UNL     1      39.032  45.361  20.261 -0.13 +0.00    -0.480 OA ATOM     15  C   UNL     1      40.301  44.904  19.794 -0.28 +0.01    +0.280 C  ENDBRANCH   8  14ENDBRANCH   4   7ENDBRANCH   2   3BRANCH   2  16ATOM     16  C   UNL     1      39.138  47.302  16.533 -0.50 -0.01    +0.028 CG0ATOM     17  G   UNL     1      39.342  48.004  15.190 +0.00 +0.00    +0.000 G0 ENDBRANCH   2  16ENDBRANCH   1   2BRANCH   1  18ATOM     18  C   UNL     1      36.623  47.753  14.757 -0.38 -0.09    +0.111 C  BRANCH  18  19ATOM     19  N   UNL     1      37.445  46.990  13.799 -0.25 +0.13    -0.304 NA ATOM     20  C   UNL     1      37.062  47.300  12.419 -0.62 -0.03    +0.105 C  BRANCH  19  21ATOM     21  C   UNL     1      38.889  47.185  13.972 -0.39 -0.02    +0.084 C  BRANCH  21  22ATOM     22  C   UNL     1      39.343  48.000  15.185 -0.59 -0.01    +0.018 CG0ATOM     23  G   UNL     1      39.143  47.301  16.530 +0.00 +0.00    +0.000 G0 ENDBRANCH  21  22ENDBRANCH  19  21ENDBRANCH  18  19ENDBRANCH   1  18BRANCH   1  24ATOM     24  N   UNL     1      35.475  46.078  16.125 -0.13 +0.31    -0.346 N  ATOM     25  C   UNL     1      34.552  45.985  17.143 -0.21 -0.24    +0.253 C  ATOM     26  H   UNL     1      35.400  45.561  15.259 +0.12 -0.11    +0.164 HD ATOM     27  O   UNL     1      34.630  46.657  18.169 -0.56 +0.22    -0.269 OA BRANCH  25  28ATOM     28  C   UNL     1      33.399  45.064  16.962 -0.29 -0.04    +0.061 A  ATOM     29  C   UNL     1      32.512  45.125  15.903 -0.26 -0.08    +0.127 A  ATOM     30  C   UNL     1      33.148  44.099  17.931 -0.28 -0.02    +0.058 A  ATOM     31  N   UNL     1      31.429  44.312  15.767 -0.23 +0.11    -0.236 NA ATOM     32  C   UNL     1      32.038  43.263  17.811 -0.19 -0.04    +0.166 A  ATOM     33  C   UNL     1      31.166  43.377  16.719 -0.19 -0.05    +0.164 A  ATOM     34  F   UNL     1      31.828  42.389  18.808 -0.06 +0.02    -0.203 F  BRANCH  33  35ATOM     35  N   UNL     1      30.041  42.588  16.516 -0.09 +0.12    -0.352 N  ATOM     36  C   UNL     1      29.018  42.700  17.580 -0.17 -0.02    +0.133 C  ATOM     37  C   UNL     1      30.081  41.292  15.831 -0.35 -0.05    +0.133 C  ATOM     38  C   UNL     1      28.299  41.350  17.849 -0.15 -0.01    +0.106 C  ATOM     39  C   UNL     1      30.170  40.123  16.844 -0.31 -0.00    +0.106 C  ATOM     40  N   UNL     1      29.273  40.263  18.006 -0.11 -0.01    -0.296 NA BRANCH  40  41ATOM     41  C   UNL     1      28.775  39.021  18.587 -0.27 +0.03    +0.121 C  BRANCH  41  42ATOM     42  C   UNL     1      29.623  38.381  19.659 -0.34 -0.00    -0.016 A  ATOM     43  C   UNL     1      30.897  38.867  19.966 -0.41 +0.00    +0.008 A  ATOM     44  C   UNL     1      29.160  37.306  20.410 -0.26 +0.01    +0.116 A  ATOM     45  C   UNL     1      31.645  38.265  20.975 -0.47 +0.00    +0.020 A  ATOM     46  N   UNL     1      29.863  36.702  21.396 -0.20 -0.00    -0.264 NA ATOM     47  C   UNL     1      31.090  37.197  21.656 -0.41 +0.01    +0.111 A  ENDBRANCH  41  42ENDBRANCH  40  41ENDBRANCH  33  35ENDBRANCH  25  28ENDBRANCH   1  24TORSDOF 8TERENDMDL