MODEL        4USER    Run = 4USERUSER    Estimated Free Energy of Binding    = -11.30 kcal/mol  [=(1)+(2)+(3)-(4)]USERUSER    (1) Final Intermolecular Energy     = -13.38 kcal/molUSER        vdW + Hbond + desolv Energy     = -13.19 kcal/molUSER        Electrostatic Energy            =  -0.19 kcal/molUSER        Moving Ligand-Fixed Receptor    = -13.38 kcal/molUSER        Moving Ligand-Moving Receptor   =  +0.00 kcal/molUSER    (2) Final Total Internal Energy     =  -2.81 kcal/molUSER    (3) Torsional Free Energy           =  +2.09 kcal/molUSER    (4) Unbound System's Energy         =  -2.81 kcal/molUSERUSERREMARK SMILES CN1CCN(c2cnncc2-c2nc3cc(F)ccc3nc2-c2ccc(CN3CCC(n4c(O)nc5cc(F)ccc54)CC3)nc2)CC1REMARK SMILES IDX 23 1 24 2 25 3 26 4 45 5 46 6 22 7 12 8 13 9 14 10 21 11REMARK SMILES IDX 15 12 20 13 16 14 19 15 18 16 17 17 11 18 6 19 7 20 8 21REMARK SMILES IDX 10 22 9 23 5 24 2 25 3 26 48 27 4 28 47 29 1 30 27 31 28 32REMARK SMILES IDX 29 33 44 34 30 35 43 36 31 37 32 38 33 39 42 40 35 41 41 42REMARK SMILES IDX 36 43 40 44 37 45 38 46 39 47 34 48REMARK H PARENT 34 49USER                              x       y       z     vdW  Elec       q    TypeUSER                           _______ _______ _______ _____ _____    ______ ____ROOTATOM      1  C   UNL     1      36.932  43.888  20.225 -0.39 -0.00    +0.021 A  ATOM      2  C   UNL     1      36.673  42.536  19.985 -0.26 -0.00    +0.014 A  ATOM      3  C   UNL     1      35.372  42.108  19.727 -0.38 -0.00    +0.026 A  ATOM      4  C   UNL     1      34.340  43.047  19.701 -0.37 -0.00    +0.054 A  ATOM      5  N   UNL     1      34.559  44.362  19.952 -0.21 +0.04    -0.259 NA ATOM      6  C   UNL     1      35.835  44.742  20.216 +0.05 -0.01    +0.121 A  ENDROOTBRANCH   1   7ATOM      7  C   UNL     1      38.288  44.362  20.491 -0.30 -0.00    +0.099 A  ATOM      8  C   UNL     1      38.876  44.393  21.761 -0.26 +0.00    +0.101 A  ATOM      9  N   UNL     1      40.088  44.982  21.964 -0.14 -0.01    -0.244 NA ATOM     10  C   UNL     1      40.714  45.494  20.890 -0.29 +0.01    +0.092 A  ATOM     11  N   UNL     1      38.919  44.889  19.406 -0.24 +0.01    -0.244 NA ATOM     12  C   UNL     1      41.955  46.091  21.046 -0.30 +0.01    +0.069 A  ATOM     13  C   UNL     1      40.128  45.442  19.602 -0.36 -0.00    +0.090 A  ATOM     14  C   UNL     1      42.619  46.633  19.955 -0.33 +0.03    +0.125 A  ATOM     15  C   UNL     1      40.811  45.988  18.522 -0.46 -0.00    +0.033 A  ATOM     16  C   UNL     1      42.059  46.586  18.689 -0.48 +0.00    +0.041 A  ATOM     17  F   UNL     1      43.816  47.205  20.126 -0.15 -0.11    -0.207 F  BRANCH   8  18ATOM     18  C   UNL     1      38.245  43.868  22.975 -0.29 +0.00    +0.048 A  ATOM     19  C   UNL     1      38.151  44.584  24.183 -0.24 +0.01    +0.068 A  ATOM     20  C   UNL     1      37.605  43.873  25.254 -0.20 +0.00    +0.162 A  ATOM     21  N   UNL     1      37.146  42.599  25.186 -0.28 +0.00    -0.157 NA ATOM     22  C   UNL     1      37.736  42.571  22.947 -0.30 +0.01    +0.148 A  ATOM     23  N   UNL     1      37.198  41.943  24.013 -0.33 -0.01    -0.158 NA BRANCH  19  24ATOM     24  N   UNL     1      38.589  45.927  24.283 -0.11 -0.04    -0.367 N  ATOM     25  N   UNL     1      39.523  48.562  25.291 -0.15 -0.04    -0.303 NA ATOM     26  C   UNL     1      38.098  48.258  25.020 -0.40 +0.01    +0.105 C  ATOM     27  C   UNL     1      40.377  47.658  24.491 -0.26 +0.01    +0.105 C  ATOM     28  C   UNL     1      37.706  46.763  25.144 -0.23 +0.02    +0.132 C  ATOM     29  C   UNL     1      40.026  46.152  24.593 -0.15 +0.01    +0.132 C  ATOM     30  C   UNL     1      39.828  48.475  26.718 -0.24 +0.01    +0.105 C  ENDBRANCH  19  24ENDBRANCH   8  18ENDBRANCH   1   7BRANCH   4  31ATOM     31  C   UNL     1      32.910  42.604  19.424 -0.33 +0.00    +0.140 C  BRANCH  31  32ATOM     32  N   UNL     1      32.424  42.794  18.041 -0.12 +0.06    -0.297 NA ATOM     33  C   UNL     1      32.080  44.171  17.682 -0.28 -0.02    +0.087 C  ATOM     34  C   UNL     1      33.332  42.159  17.072 -0.30 -0.04    +0.087 C  ATOM     35  C   UNL     1      33.304  45.060  17.465 -0.37 -0.02    +0.041 C  ATOM     36  C   UNL     1      33.812  43.075  15.943 -0.27 -0.02    +0.041 C  ATOM     37  C   UNL     1      34.327  44.399  16.523 -0.31 -0.05    +0.095 C  BRANCH  37  38ATOM     38  N   UNL     1      34.814  45.305  15.492 -0.15 +0.21    -0.291 N  ATOM     39  C   UNL     1      34.053  45.942  14.550 +0.05 -0.29    +0.295 A  ATOM     40  C   UNL     1      36.120  45.696  15.282 -0.32 -0.04    +0.072 A  ATOM     41  N   UNL     1      34.748  46.706  13.754 -0.31 +0.17    -0.195 NA ATOM     42  C   UNL     1      37.333  45.393  15.917 -0.33 -0.01    +0.032 A  ATOM     43  C   UNL     1      36.042  46.568  14.192 -0.38 -0.06    +0.095 A  ATOM     44  C   UNL     1      38.483  46.007  15.411 -0.36 -0.01    +0.041 A  ATOM     45  C   UNL     1      37.206  47.170  13.699 -0.47 -0.03    +0.070 A  ATOM     46  C   UNL     1      38.413  46.873  14.325 -0.36 -0.04    +0.125 A  ATOM     47  F   UNL     1      39.539  47.438  13.870 -0.06 +0.03    -0.207 F  BRANCH  39  48ATOM     48  O   UNL     1      32.746  45.828  14.442 -0.14 +0.43    -0.480 OA ATOM     49  H   UNL     1      32.442  46.644  14.880 -0.33 -0.44    +0.296 HD ENDBRANCH  39  48ENDBRANCH  37  38ENDBRANCH  31  32ENDBRANCH   4  31TORSDOF 7TERENDMDL