MODEL        5USER    Run = 5USERUSER    Estimated Free Energy of Binding    =  -7.07 kcal/mol  [=(1)+(2)+(3)-(4)]USERUSER    (1) Final Intermolecular Energy     = -11.85 kcal/molUSER        vdW + Hbond + desolv Energy     = -11.71 kcal/molUSER        Electrostatic Energy            =  -0.28 kcal/molUSER        Moving Ligand-Fixed Receptor    = -12.00 kcal/molUSER        Moving Ligand-Moving Receptor   =  +0.15 kcal/molUSER    (2) Final Total Internal Energy     =  -2.54 kcal/molUSER    (3) Torsional Free Energy           =  +4.77 kcal/molUSER    (4) Unbound System's Energy         =  -2.54 kcal/molUSERUSERREMARK SMILES COc1ccc(O)c(C(=O)c2ccc(C(=O)N[C@@H]3CCCN(S(C)(=O)=O)C[C@H]3NC(=O)c3cnc(OC)c(F)c3)cc2)c1FREMARK SMILES IDX 15 1 16 2 17 3 14 5 11 6 12 7 42 8 13 9 41 10 9 11 10 12REMARK SMILES IDX 8 13 3 14 4 15 43 16 5 17 6 18 44 19 2 20 1 21 7 22 18 24REMARK SMILES IDX 19 25 28 27 27 28 22 29 21 30 20 31 23 33 24 34 25 35 26 36REMARK SMILES IDX 29 37 30 38 31 40 32 41 33 42 40 43 34 44 38 45 35 46 39 47REMARK SMILES IDX 36 48 37 49REMARK H PARENT 17 4 7 23 29 39REMARK Flexibility Score:   88.900USER                              x       y       z     vdW  Elec       q    TypeUSER                           _______ _______ _______ _____ _____    ______ ____ROOTATOM      1  C   UNL     1      36.332  27.730  15.188 -0.34 -0.06    +0.251 C  ATOM      2  O   UNL     1      36.053  28.781  14.625 -0.69 +0.02    -0.269 OA ATOM      3  N   UNL     1      37.621  27.347  15.506 -0.14 +0.08    -0.347 N  ATOM      4  H   UNL     1      37.726  26.583  16.158 +0.09 -0.05    +0.164 HD ENDROOTBRANCH   1   5ATOM      5  C   UNL     1      35.252  26.806  15.624 -0.41 -0.02    +0.039 A  ATOM      6  C   UNL     1      33.286  24.979  16.414 -0.33 -0.02    +0.023 A  ATOM      7  C   UNL     1      32.921  26.148  15.736 -0.24 -0.01    +0.013 A  ATOM      8  C   UNL     1      34.626  24.751  16.744 -0.28 -0.01    +0.013 A  ATOM      9  C   UNL     1      33.905  27.059  15.336 -0.48 -0.01    +0.014 A  ATOM     10  C   UNL     1      35.608  25.662  16.348 -0.28 -0.01    +0.014 A  BRANCH   6  11ATOM     11  C   UNL     1      32.272  23.994  16.854 -0.29 -0.23    +0.199 C  ATOM     12  O   UNL     1      31.583  24.254  17.842 -0.26 +0.45    -0.288 OA BRANCH  11  13ATOM     13  C   UNL     1      32.014  22.725  16.138 -0.17 -0.10    +0.104 A  ATOM     14  C   UNL     1      32.725  20.530  15.340 -0.11 -0.16    +0.155 A  ATOM     15  C   UNL     1      31.472  20.341  14.752 -0.14 -0.06    +0.053 A  ATOM     16  C   UNL     1      32.981  21.722  16.034 -0.10 -0.16    +0.179 A  ATOM     17  C   UNL     1      30.487  21.324  14.874 -0.18 -0.05    +0.051 A  ATOM     18  C   UNL     1      30.753  22.500  15.572 -0.19 -0.12    +0.130 A  ATOM     19  F   UNL     1      34.178  21.876  16.624 -0.01 +0.17    -0.202 F  BRANCH  14  20ATOM     20  O   UNL     1      33.763  19.638  15.299 -0.04 +0.51    -0.494 OA ATOM     21  C   UNL     1      34.940  20.040  14.609 -0.05 -0.35    +0.278 C  ENDBRANCH  14  20BRANCH  18  22ATOM     22  O   UNL     1      29.724  23.398  15.664 -0.61 +0.53    -0.507 OA ATOM     23  H   UNL     1      29.906  23.993  16.427 +0.19 -0.24    +0.293 HD ENDBRANCH  18  22ENDBRANCH  11  13ENDBRANCH   6  11ENDBRANCH   1   5BRANCH   3  24ATOM     24  C   UNL     1      38.760  28.251  15.287 -0.38 -0.01    +0.106 C  BRANCH  24  25ATOM     25  C   UNL     1      39.289  28.099  13.848 -0.50 -0.01    +0.028 CG0ATOM     26  G   UNL     1      40.643  28.757  13.571 +0.00 +0.00    +0.000 G0 ENDBRANCH  24  25BRANCH  24  27ATOM     27  C   UNL     1      39.818  28.136  16.423 -0.23 +0.00    +0.120 C  BRANCH  27  28ATOM     28  C   UNL     1      40.913  29.223  16.376 -0.24 +0.03    +0.129 C  BRANCH  28  29ATOM     29  N   UNL     1      42.094  28.717  15.616 -0.20 +0.02    -0.200 NA BRANCH  29  30ATOM     30  C   UNL     1      41.820  28.114  14.297 -0.18 -0.07    +0.102 C  BRANCH  30  31ATOM     31  C   UNL     1      40.643  28.758  13.571 -0.63 -0.01    +0.019 CG0ATOM     32  G   UNL     1      39.290  28.096  13.848 +0.00 +0.00    +0.000 G0 ENDBRANCH  30  31ENDBRANCH  29  30BRANCH  29  33ATOM     33  S   UNL     1      43.382  28.053  16.502 -0.28 +0.05    +0.211 S  ATOM     34  C   UNL     1      44.802  28.875  15.802 -0.25 -0.02    +0.176 C  ATOM     35  O   UNL     1      43.463  26.645  16.179 -0.21 +0.01    -0.213 OA ATOM     36  O   UNL     1      43.237  28.489  17.874 -0.49 -0.27    -0.213 OA ENDBRANCH  29  33ENDBRANCH  28  29ENDBRANCH  27  28BRANCH  27  37ATOM     37  N   UNL     1      39.187  28.124  17.751 -0.05 -0.04    -0.346 N  ATOM     38  C   UNL     1      38.780  29.313  18.331 -0.22 +0.07    +0.253 C  ATOM     39  H   UNL     1      38.656  27.289  17.962 +0.07 -0.01    +0.164 HD ATOM     40  O   UNL     1      39.077  30.409  17.864 -0.84 -0.15    -0.269 OA BRANCH  38  41ATOM     41  C   UNL     1      37.948  29.241  19.561 -0.27 +0.00    +0.061 A  ATOM     42  C   UNL     1      36.918  28.298  19.599 -0.20 -0.03    +0.129 A  ATOM     43  C   UNL     1      38.117  30.056  20.682 -0.33 +0.01    +0.060 A  ATOM     44  N   UNL     1      36.069  28.123  20.646 -0.24 +0.09    -0.219 NA ATOM     45  C   UNL     1      37.269  29.887  21.772 -0.24 -0.00    +0.185 A  ATOM     46  C   UNL     1      36.266  28.925  21.717 -0.18 -0.05    +0.250 A  ATOM     47  F   UNL     1      37.431  30.664  22.853 -0.10 -0.02    -0.201 F  BRANCH  46  48ATOM     48  O   UNL     1      35.451  28.800  22.825 -0.09 +0.06    -0.479 OA ATOM     49  C   UNL     1      34.210  29.485  22.689 -0.34 -0.02    +0.280 C  ENDBRANCH  46  48ENDBRANCH  38  41ENDBRANCH  27  37ENDBRANCH  24  27ENDBRANCH   3  24TORSDOF 10TERENDMDL