MODEL        1USER    Run = 1USERUSER    Estimated Free Energy of Binding    =  -8.49 kcal/mol  [=(1)+(2)+(3)-(4)]USERUSER    (1) Final Intermolecular Energy     = -10.28 kcal/molUSER        vdW + Hbond + desolv Energy     = -10.07 kcal/molUSER        Electrostatic Energy            =  -0.21 kcal/molUSER        Moving Ligand-Fixed Receptor    = -10.28 kcal/molUSER        Moving Ligand-Moving Receptor   =  +0.00 kcal/molUSER    (2) Final Total Internal Energy     =  -0.87 kcal/molUSER    (3) Torsional Free Energy           =  +1.79 kcal/molUSER    (4) Unbound System's Energy         =  -0.87 kcal/molUSERUSERREMARK SMILES COc1ccc(N)c(C(=O)c2ccc(C(=O)NC3CCNCC3)cc2)c1FREMARK SMILES IDX 11 1 12 2 13 3 14 4 24 5 25 6 9 7 10 8 8 9 3 10 4 11 26 12REMARK SMILES IDX 5 13 6 14 27 15 2 16 1 17 7 18 15 21 17 22 16 23 18 25 19 26REMARK SMILES IDX 23 27 20 28 22 29 21 30REMARK H PARENT 7 19 7 20 17 24 21 31USER                              x       y       z     vdW  Elec       q    TypeUSER                           _______ _______ _______ _____ _____    ______ ____ROOTATOM      1  C   UNL     1      39.840  45.256  19.859 -0.38 -0.00    +0.023 A  ATOM      2  C   UNL     1      38.627  44.585  20.053 -0.35 -0.00    +0.013 A  ATOM      3  C   UNL     1      38.071  44.507  21.334 -0.36 +0.00    +0.014 A  ATOM      4  C   UNL     1      38.719  45.096  22.428 -0.31 +0.00    +0.039 A  ATOM      5  C   UNL     1      39.951  45.737  22.238 -0.28 +0.00    +0.014 A  ATOM      6  C   UNL     1      40.508  45.814  20.957 -0.29 +0.00    +0.013 A  ENDROOTBRANCH   1   7ATOM      7  C   UNL     1      40.481  45.349  18.522 -0.38 -0.00    +0.198 C  ATOM      8  O   UNL     1      41.332  44.519  18.200 -0.23 -0.02    -0.288 OA BRANCH   7   9ATOM      9  C   UNL     1      40.106  46.397  17.548 -0.42 -0.01    +0.085 A  ATOM     10  C   UNL     1      40.617  48.511  16.452 -0.42 -0.03    +0.155 A  ATOM     11  C   UNL     1      39.421  48.414  15.742 -0.49 -0.02    +0.052 A  ATOM     12  C   UNL     1      40.950  47.496  17.354 -0.37 -0.02    +0.178 A  ATOM     13  C   UNL     1      38.585  47.303  15.918 -0.42 -0.01    +0.030 A  ATOM     14  C   UNL     1      38.939  46.256  16.776 -0.39 -0.01    +0.046 A  ATOM     15  F   UNL     1      42.104  47.583  18.038 -0.20 +0.01    -0.202 F  BRANCH  10  16ATOM     16  O   UNL     1      41.516  49.539  16.358 -0.86 -0.02    -0.494 OA ATOM     17  C   UNL     1      41.450  50.361  15.200 -0.48 -0.07    +0.278 C  ENDBRANCH  10  16BRANCH  14  18ATOM     18  N   UNL     1      38.010  45.223  17.006 -0.10 +0.11    -0.398 N  ATOM     19  H   UNL     1      37.287  45.515  17.674 +0.10 -0.05    +0.156 HD ATOM     20  H   UNL     1      38.429  44.343  17.285 +0.10 -0.03    +0.156 HD ENDBRANCH  14  18ENDBRANCH   7   9ENDBRANCH   1   7BRANCH   4  21ATOM     21  C   UNL     1      38.083  44.984  23.768 -0.21 +0.03    +0.251 C  ATOM     22  N   UNL     1      38.017  43.718  24.313 -0.09 -0.02    -0.349 N  ATOM     23  O   UNL     1      37.671  45.988  24.336 -0.60 -0.06    -0.269 OA ATOM     24  H   UNL     1      38.418  42.935  23.815 +0.09 +0.01    +0.164 HD BRANCH  22  25ATOM     25  C   UNL     1      37.367  43.468  25.597 -0.31 -0.00    +0.084 C  ATOM     26  C   UNL     1      38.364  42.919  26.628 -0.29 -0.00    +0.040 C  ATOM     27  C   UNL     1      36.162  42.535  25.408 -0.39 -0.00    +0.040 C  ATOM     28  C   UNL     1      38.246  41.405  26.765 -0.39 -0.01    +0.083 C  ATOM     29  C   UNL     1      35.822  41.813  26.705 -0.55 -0.02    +0.083 C  ATOM     30  N   UNL     1      36.918  40.987  27.215 -0.28 +0.09    -0.317 NA ATOM     31  H   UNL     1      36.767  40.009  26.966 -0.49 -0.05    +0.122 HD ENDBRANCH  22  25ENDBRANCH   4  21TORSDOF 6TERENDMDL