MODEL        6USER    Run = 6USERUSER    Estimated Free Energy of Binding    = -10.36 kcal/mol  [=(1)+(2)+(3)-(4)]USERUSER    (1) Final Intermolecular Energy     = -12.14 kcal/molUSER        vdW + Hbond + desolv Energy     = -11.74 kcal/molUSER        Electrostatic Energy            =  -0.40 kcal/molUSER        Moving Ligand-Fixed Receptor    = -12.14 kcal/molUSER        Moving Ligand-Moving Receptor   =  +0.00 kcal/molUSER    (2) Final Total Internal Energy     =  -0.80 kcal/molUSER    (3) Torsional Free Energy           =  +1.79 kcal/molUSER    (4) Unbound System's Energy         =  -0.80 kcal/molUSERUSERREMARK SMILES Cn1cncc1C=Nc1ccc(C#N)c(-c2ccc(C(=O)N3CCNCC3)c(F)c2)n1REMARK SMILES IDX 9 1 10 2 11 3 12 4 15 5 31 6 8 7 7 8 6 9 2 10 3 11 4 12 5 13REMARK SMILES IDX 1 14 16 15 17 16 30 17 18 18 28 19 19 20 29 21 20 22 22 23REMARK SMILES IDX 23 24 27 25 24 26 26 27 25 28 21 29 13 31 14 32REMARK H PARENT 25 30USER                              x       y       z     vdW  Elec       q    TypeUSER                           _______ _______ _______ _____ _____    ______ ____ROOTATOM      1  C   UNL     1      38.101  45.241  17.157 -0.27 -0.04    +0.152 A  ATOM      2  C   UNL     1      37.959  45.986  15.996 -0.34 -0.02    +0.050 A  ATOM      3  C   UNL     1      38.831  47.045  15.769 -0.43 -0.01    +0.025 A  ATOM      4  C   UNL     1      39.847  47.307  16.692 -0.44 -0.02    +0.078 A  ATOM      5  C   UNL     1      39.947  46.488  17.822 -0.41 -0.01    +0.091 A  ATOM      6  N   UNL     1      39.066  45.482  18.069 -0.26 +0.03    -0.227 NA ENDROOTBRANCH   1   7ATOM      7  N   UNL     1      37.315  44.121  17.412 -0.18 +0.06    -0.235 NA BRANCH   7   8ATOM      8  C   UNL     1      36.823  43.899  18.590 -0.25 -0.02    +0.141 C  BRANCH   8   9ATOM      9  C   UNL     1      35.438  43.875  18.972 -0.31 -0.02    +0.079 A  ATOM     10  N   UNL     1      34.471  44.818  18.719 -0.17 +0.11    -0.333 N  ATOM     11  C   UNL     1      33.302  44.378  19.275 -0.29 -0.04    +0.199 A  ATOM     12  N   UNL     1      33.465  43.233  19.897 -0.78 -0.02    -0.245 NA ATOM     13  C   UNL     1      34.790  42.926  19.739 -0.33 -0.01    +0.140 A  ATOM     14  C   UNL     1      34.630  46.098  18.075 -0.42 -0.10    +0.151 C  ENDBRANCH   8   9ENDBRANCH   7   8ENDBRANCH   1   7BRANCH   5  15ATOM     15  C   UNL     1      41.002  46.625  18.843 -0.47 -0.00    +0.005 A  ATOM     16  C   UNL     1      40.777  46.214  20.169 -0.25 +0.00    +0.011 A  ATOM     17  C   UNL     1      42.271  47.136  18.517 -0.45 +0.00    +0.050 A  ATOM     18  C   UNL     1      41.767  46.348  21.148 -0.30 +0.00    +0.017 A  ATOM     19  C   UNL     1      43.260  47.267  19.493 -0.34 +0.04    +0.136 A  ATOM     20  C   UNL     1      43.005  46.902  20.811 -0.35 +0.02    +0.075 A  ATOM     21  F   UNL     1      44.458  47.743  19.128 -0.15 -0.10    -0.206 F  BRANCH  20  22ATOM     22  C   UNL     1      44.039  47.016  21.857 -0.24 +0.12    +0.256 C  ATOM     23  N   UNL     1      43.824  47.858  22.940 -0.17 -0.08    -0.336 N  ATOM     24  C   UNL     1      42.551  48.512  23.270 -0.36 +0.03    +0.135 C  ATOM     25  C   UNL     1      44.893  48.000  23.931 -0.20 +0.03    +0.135 C  ATOM     26  C   UNL     1      42.386  48.732  24.786 -0.34 +0.02    +0.102 C  ATOM     27  C   UNL     1      44.764  49.307  24.729 -0.23 +0.02    +0.102 C  ATOM     28  N   UNL     1      43.479  49.477  25.431 -0.22 -0.04    -0.313 NA ATOM     29  O   UNL     1      45.044  46.321  21.730 -0.64 -0.36    -0.269 OA ATOM     30  H   UNL     1      43.253  50.470  25.456 -0.58 +0.01    +0.122 HD ENDBRANCH  20  22ENDBRANCH   5  15BRANCH   4  31ATOM     31  C   UNL     1      40.738  48.404  16.468 -0.55 -0.02    +0.101 C  ATOM     32  N   UNL     1      41.461  49.293  16.287 -1.04 -0.00    -0.192 NA ENDBRANCH   4  31TORSDOF 6TERENDMDL