REMARK SMILES COc1ccc(N)c(C(=O)c2ccc(C(=O)NC3CCNCC3)cc2)c1F
REMARK SMILES IDX 11 1 12 2 13 3 14 4 24 5 25 6 9 7 10 8 8 9 3 10 4 11 26 12
REMARK SMILES IDX 5 13 6 14 27 15 2 16 1 17 7 18 15 21 17 22 16 23 18 25 19 26
REMARK SMILES IDX 23 27 20 28 22 29 21 30
REMARK H PARENT 7 19 7 20 17 24 21 31
ROOT
ATOM      1  C   UNL     1       1.598   0.769  -0.909  1.00  0.00     0.023 A 
ATOM      2  C   UNL     1       1.201   1.279   0.333  1.00  0.00     0.013 A 
ATOM      3  C   UNL     1      -0.131   1.157   0.743  1.00  0.00     0.014 A 
ATOM      4  C   UNL     1      -1.073   0.527  -0.081  1.00  0.00     0.039 A 
ATOM      5  C   UNL     1      -0.682   0.049  -1.338  1.00  0.00     0.014 A 
ATOM      6  C   UNL     1       0.649   0.172  -1.749  1.00  0.00     0.013 A 
ENDROOT
BRANCH   1   7
ATOM      7  C   UNL     1       2.996   0.892  -1.398  1.00  0.00     0.198 C 
ATOM      8  O   UNL     1       3.209   0.972  -2.608  1.00  0.00    -0.288 OA
BRANCH   7   9
ATOM      9  C   UNL     1       4.145   0.950  -0.468  1.00  0.00     0.085 A 
ATOM     10  C   UNL     1       5.315   0.047   1.467  1.00  0.00     0.155 A 
ATOM     11  C   UNL     1       6.282   1.042   1.327  1.00  0.00     0.052 A 
ATOM     12  C   UNL     1       4.249   0.011   0.563  1.00  0.00     0.178 A 
ATOM     13  C   UNL     1       6.192   1.970   0.281  1.00  0.00     0.030 A 
ATOM     14  C   UNL     1       5.159   1.905  -0.661  1.00  0.00     0.046 A 
ATOM     15  F   UNL     1       3.317  -0.949   0.692  1.00  0.00    -0.202 F 
BRANCH  10  16
ATOM     16  O   UNL     1       5.301  -0.917   2.439  1.00  0.00    -0.494 OA
ATOM     17  C   UNL     1       6.387  -0.935   3.356  1.00  0.00     0.278 C 
ENDBRANCH  10  16
BRANCH  14  18
ATOM     18  N   UNL     1       5.049   2.931  -1.619  1.00  0.00    -0.398 N 
ATOM     19  H   UNL     1       4.482   2.632  -2.421  1.00  0.00     0.156 HD
ATOM     20  H   UNL     1       5.939   3.310  -1.924  1.00  0.00     0.156 HD
ENDBRANCH  14  18
ENDBRANCH   7   9
ENDBRANCH   1   7
BRANCH   4  21
ATOM     21  C   UNL     1      -2.476   0.424   0.405  1.00  0.00     0.251 C 
ATOM     22  N   UNL     1      -3.202  -0.662  -0.039  1.00  0.00    -0.349 N 
ATOM     23  O   UNL     1      -2.920   1.267   1.175  1.00  0.00    -0.269 OA
ATOM     24  H   UNL     1      -2.764  -1.349  -0.637  1.00  0.00     0.164 HD
BRANCH  22  25
ATOM     25  C   UNL     1      -4.606  -0.846   0.322  1.00  0.00     0.084 C 
ATOM     26  C   UNL     1      -5.023  -2.318   0.201  1.00  0.00     0.040 C 
ATOM     27  C   UNL     1      -5.495   0.076  -0.524  1.00  0.00     0.040 C 
ATOM     28  C   UNL     1      -5.773  -2.579  -1.101  1.00  0.00     0.083 C 
ATOM     29  C   UNL     1      -6.918  -0.461  -0.604  1.00  0.00     0.083 C 
ATOM     30  N   UNL     1      -7.003  -1.794  -1.203  1.00  0.00    -0.317 NA
ATOM     31  H   UNL     1      -7.281  -1.723  -2.182  1.00  0.00     0.122 HD
ENDBRANCH  22  25
ENDBRANCH   4  21
TORSDOF 6
