MODEL        6USER    Run = 6USERUSER    Estimated Free Energy of Binding    =  -9.55 kcal/mol  [=(1)+(2)+(3)-(4)]USERUSER    (1) Final Intermolecular Energy     = -11.34 kcal/molUSER        vdW + Hbond + desolv Energy     = -11.19 kcal/molUSER        Electrostatic Energy            =  -0.14 kcal/molUSER        Moving Ligand-Fixed Receptor    = -11.34 kcal/molUSER        Moving Ligand-Moving Receptor   =  +0.00 kcal/molUSER    (2) Final Total Internal Energy     =  -1.33 kcal/molUSER    (3) Torsional Free Energy           =  +1.79 kcal/molUSER    (4) Unbound System's Energy         =  -1.33 kcal/molUSERUSERREMARK SMILES Cn1cncc1C=Nc1ccc(C(N)=O)c(-c2ccc(C(=O)N3CCNCC3)c(F)c2)n1REMARK SMILES IDX 9 1 10 2 11 3 12 4 16 5 32 6 8 7 7 8 6 9 2 10 3 11 4 12 5 13REMARK SMILES IDX 1 14 17 15 18 16 31 17 19 18 29 19 20 20 30 21 21 22 23 23REMARK SMILES IDX 24 24 28 25 25 26 27 27 26 28 22 29 13 31 14 32 15 33REMARK H PARENT 26 30 14 34 14 35USER                              x       y       z     vdW  Elec       q    TypeUSER                           _______ _______ _______ _____ _____    ______ ____ROOTATOM      1  C   UNL     1      40.561  47.344  17.054 -0.40 -0.02    +0.152 A  ATOM      2  C   UNL     1      40.992  48.156  16.019 -0.48 -0.01    +0.050 A  ATOM      3  C   UNL     1      40.137  48.392  14.948 -0.55 -0.01    +0.020 A  ATOM      4  C   UNL     1      38.869  47.805  14.940 -0.46 -0.03    +0.066 A  ATOM      5  C   UNL     1      38.517  46.958  15.996 -0.36 -0.03    +0.086 A  ATOM      6  N   UNL     1      39.348  46.750  17.059 -0.29 +0.06    -0.228 NA ENDROOTBRANCH   1   7ATOM      7  N   UNL     1      41.422  47.127  18.133 -0.37 +0.01    -0.235 NA BRANCH   7   8ATOM      8  C   UNL     1      41.507  45.943  18.639 -0.44 +0.01    +0.141 C  BRANCH   8   9ATOM      9  C   UNL     1      40.498  45.476  19.549 -0.38 +0.00    +0.079 A  ATOM     10  N   UNL     1      40.495  45.608  20.919 -0.15 -0.02    -0.333 N  ATOM     11  C   UNL     1      39.349  45.034  21.398 -0.22 +0.01    +0.199 A  ATOM     12  N   UNL     1      38.621  44.530  20.430 -0.21 +0.00    -0.245 NA ATOM     13  C   UNL     1      39.323  44.797  19.283 -0.30 -0.01    +0.140 A  ATOM     14  C   UNL     1      41.506  46.238  21.729 -0.24 +0.02    +0.151 C  ENDBRANCH   8   9ENDBRANCH   7   8ENDBRANCH   1   7BRANCH   5  15ATOM     15  C   UNL     1      37.267  46.180  16.077 -0.37 -0.00    +0.004 A  ATOM     16  C   UNL     1      37.063  45.075  15.227 -0.36 -0.00    +0.011 A  ATOM     17  C   UNL     1      36.240  46.518  16.974 -0.25 -0.04    +0.050 A  ATOM     18  C   UNL     1      35.884  44.325  15.284 -0.33 -0.01    +0.017 A  ATOM     19  C   UNL     1      35.066  45.766  17.034 -0.26 -0.10    +0.136 A  ATOM     20  C   UNL     1      34.874  44.683  16.181 -0.27 -0.04    +0.075 A  ATOM     21  F   UNL     1      34.128  46.113  17.927 -0.14 +0.16    -0.206 F  BRANCH  20  22ATOM     22  C   UNL     1      33.670  43.836  16.266 -0.21 -0.12    +0.256 C  ATOM     23  N   UNL     1      32.424  44.356  15.917 -0.12 +0.17    -0.336 N  ATOM     24  C   UNL     1      32.250  45.465  14.970 -0.37 -0.10    +0.135 C  ATOM     25  C   UNL     1      31.281  43.444  16.011 -0.30 -0.06    +0.135 C  ATOM     26  C   UNL     1      30.879  46.148  15.114 -0.49 -0.05    +0.102 C  ATOM     27  C   UNL     1      29.939  44.185  16.115 -0.29 -0.04    +0.102 C  ATOM     28  N   UNL     1      29.752  45.201  15.061 -0.17 +0.20    -0.313 NA ATOM     29  O   UNL     1      33.836  42.675  16.636 -0.28 +0.12    -0.269 OA ATOM     30  H   UNL     1      29.765  44.729  14.156 -0.41 -0.18    +0.122 HD ENDBRANCH  20  22ENDBRANCH   5  15BRANCH   4  31ATOM     31  C   UNL     1      37.983  48.129  13.805 -0.38 -0.09    +0.250 C  ATOM     32  N   UNL     1      37.240  49.271  13.893 -0.12 +0.23    -0.366 N  ATOM     33  O   UNL     1      37.961  47.424  12.806 -0.87 +0.04    -0.269 OA ATOM     34  H   UNL     1      36.683  49.528  13.087 +0.09 -0.05    +0.159 HD ATOM     35  H   UNL     1      37.317  49.940  14.648 -0.43 -0.16    +0.159 HD ENDBRANCH   4  31TORSDOF 6TERENDMDL