REMARK SMILES CCOc1ccc(O)c(C(=O)c2ccc(C(=O)NC3CCNCC3)cc2)c1F
REMARK SMILES IDX 10 1 11 2 9 3 4 4 5 5 27 6 6 7 7 8 28 9 3 10 2 11 1 12 8 13
REMARK SMILES IDX 12 15 13 16 26 17 14 18 25 19 15 20 16 21 18 22 17 23 19 25
REMARK SMILES IDX 20 26 24 27 21 28 23 29 22 30
REMARK H PARENT 8 14 18 24 22 31
ROOT
ATOM      1  C   UNL     1      -2.280  -2.025   2.238  1.00  0.00     0.199 C 
ATOM      2  O   UNL     1      -2.503  -2.892   3.085  1.00  0.00    -0.288 OA
ENDROOT
BRANCH   1   3
ATOM      3  C   UNL     1      -3.388  -1.116   1.871  1.00  0.00     0.104 A 
ATOM      4  C   UNL     1      -4.542   0.320   0.269  1.00  0.00     0.155 A 
ATOM      5  C   UNL     1      -5.503   0.619   1.235  1.00  0.00     0.053 A 
ATOM      6  C   UNL     1      -3.491  -0.550   0.598  1.00  0.00     0.179 A 
ATOM      7  C   UNL     1      -5.429   0.034   2.502  1.00  0.00     0.051 A 
ATOM      8  C   UNL     1      -4.388  -0.838   2.810  1.00  0.00     0.130 A 
ATOM      9  F   UNL     1      -2.589  -0.854  -0.349  1.00  0.00    -0.202 F 
BRANCH   4  10
ATOM     10  O   UNL     1      -4.507   0.821  -1.004  1.00  0.00    -0.491 OA
BRANCH  10  11
ATOM     11  C   UNL     1      -5.638   1.533  -1.502  1.00  0.00     0.226 C 
ATOM     12  C   UNL     1      -5.486   3.022  -1.249  1.00  0.00     0.049 C 
ENDBRANCH  10  11
ENDBRANCH   4  10
BRANCH   8  13
ATOM     13  O   UNL     1      -4.409  -1.390   4.063  1.00  0.00    -0.507 OA
ATOM     14  H   UNL     1      -3.759  -2.131   4.078  1.00  0.00     0.293 HD
ENDBRANCH   8  13
ENDBRANCH   1   3
BRANCH   1  15
ATOM     15  C   UNL     1      -0.913  -1.907   1.677  1.00  0.00     0.023 A 
ATOM     16  C   UNL     1      -0.320  -0.661   1.442  1.00  0.00     0.013 A 
ATOM     17  C   UNL     1      -0.184  -3.080   1.450  1.00  0.00     0.013 A 
ATOM     18  C   UNL     1       0.982  -0.590   0.933  1.00  0.00     0.014 A 
ATOM     19  C   UNL     1       1.117  -3.009   0.945  1.00  0.00     0.014 A 
ATOM     20  C   UNL     1       1.697  -1.765   0.666  1.00  0.00     0.039 A 
BRANCH  20  21
ATOM     21  C   UNL     1       3.084  -1.738   0.127  1.00  0.00     0.251 C 
ATOM     22  N   UNL     1       3.388  -0.695  -0.723  1.00  0.00    -0.349 N 
ATOM     23  O   UNL     1       3.876  -2.622   0.427  1.00  0.00    -0.269 OA
ATOM     24  H   UNL     1       2.676  -0.018  -0.959  1.00  0.00     0.164 HD
BRANCH  22  25
ATOM     25  C   UNL     1       4.735  -0.504  -1.255  1.00  0.00     0.084 C 
ATOM     26  C   UNL     1       4.711   0.300  -2.559  1.00  0.00     0.040 C 
ATOM     27  C   UNL     1       5.652   0.171  -0.229  1.00  0.00     0.040 C 
ATOM     28  C   UNL     1       4.444   1.785  -2.317  1.00  0.00     0.083 C 
ATOM     29  C   UNL     1       5.325   1.654  -0.071  1.00  0.00     0.083 C 
ATOM     30  N   UNL     1       5.375   2.366  -1.350  1.00  0.00    -0.317 NA
ATOM     31  H   UNL     1       6.324   2.314  -1.722  1.00  0.00     0.122 HD
ENDBRANCH  22  25
ENDBRANCH  20  21
ENDBRANCH   1  15
TORSDOF 7
