MODEL        5USER    Run = 5USERUSER    Estimated Free Energy of Binding    =  -8.35 kcal/mol  [=(1)+(2)+(3)-(4)]USERUSER    (1) Final Intermolecular Energy     = -10.43 kcal/molUSER        vdW + Hbond + desolv Energy     =  -9.54 kcal/molUSER        Electrostatic Energy            =  -0.89 kcal/molUSER        Moving Ligand-Fixed Receptor    = -10.43 kcal/molUSER        Moving Ligand-Moving Receptor   =  +0.00 kcal/molUSER    (2) Final Total Internal Energy     =  -0.88 kcal/molUSER    (3) Torsional Free Energy           =  +2.09 kcal/molUSER    (4) Unbound System's Energy         =  -0.88 kcal/molUSERUSERREMARK SMILES CCOc1ccc(O)c(C(=O)c2ccc(C(=O)NC3CCNCC3)cc2)c1FREMARK SMILES IDX 10 1 11 2 9 3 4 4 5 5 27 6 6 7 7 8 28 9 3 10 2 11 1 12 8 13REMARK SMILES IDX 12 15 13 16 26 17 14 18 25 19 15 20 16 21 18 22 17 23 19 25REMARK SMILES IDX 20 26 24 27 21 28 23 29 22 30REMARK H PARENT 8 14 18 24 22 31USER                              x       y       z     vdW  Elec       q    TypeUSER                           _______ _______ _______ _____ _____    ______ ____ROOTATOM      1  C   UNL     1      25.819  51.267   8.599 -0.27 -0.16    +0.199 C  ATOM      2  O   UNL     1      26.833  50.582   8.752 -0.23 +0.22    -0.288 OA ENDROOTBRANCH   1   3ATOM      3  C   UNL     1      24.626  50.926   9.405 -0.23 -0.08    +0.104 A  ATOM      4  C   UNL     1      23.441  50.804  11.536 -0.22 -0.03    +0.155 A  ATOM      5  C   UNL     1      22.342  50.240  10.888 -0.19 -0.02    +0.053 A  ATOM      6  C   UNL     1      24.576  51.144  10.784 -0.26 -0.07    +0.179 A  ATOM      7  C   UNL     1      22.367  50.046   9.504 -0.12 -0.04    +0.051 A  ATOM      8  C   UNL     1      23.495  50.401   8.769 -0.11 -0.14    +0.130 A  ATOM      9  F   UNL     1      25.616  51.714  11.413 -0.15 +0.05    -0.202 F  BRANCH   4  10ATOM     10  O   UNL     1      23.537  51.049  12.879 -0.20 +0.02    -0.491 OA BRANCH  10  11ATOM     11  C   UNL     1      23.803  49.964  13.766 -0.33 -0.03    +0.226 C  ATOM     12  C   UNL     1      22.512  49.275  14.169 -0.46 -0.00    +0.049 C  ENDBRANCH  10  11ENDBRANCH   4  10BRANCH   8  13ATOM     13  O   UNL     1      23.424  50.206   7.415 -0.00 +0.73    -0.507 OA ATOM     14  H   UNL     1      23.803  49.318   7.217 -0.35 -0.80    +0.293 HD ENDBRANCH   8  13ENDBRANCH   1   3BRANCH   1  15ATOM     15  C   UNL     1      25.867  52.417   7.665 -0.35 -0.02    +0.023 A  ATOM     16  C   UNL     1      27.072  53.049   7.337 -0.46 -0.01    +0.013 A  ATOM     17  C   UNL     1      24.677  52.823   7.049 -0.20 -0.01    +0.013 A  ATOM     18  C   UNL     1      27.079  54.117   6.433 -0.47 -0.01    +0.014 A  ATOM     19  C   UNL     1      24.685  53.887   6.144 -0.27 -0.01    +0.014 A  ATOM     20  C   UNL     1      25.882  54.550   5.848 -0.34 -0.03    +0.039 A  BRANCH  20  21ATOM     21  C   UNL     1      25.842  55.680   4.879 -0.23 -0.06    +0.251 C  ATOM     22  N   UNL     1      26.461  55.465   3.666 -0.12 +0.24    -0.349 N  ATOM     23  O   UNL     1      25.300  56.733   5.188 -0.66 -0.28    -0.269 OA ATOM     24  H   UNL     1      26.923  54.584   3.488 -0.49 -0.30    +0.164 HD BRANCH  22  25ATOM     25  C   UNL     1      26.423  56.459   2.596 -0.38 -0.00    +0.084 C  ATOM     26  C   UNL     1      27.694  57.315   2.584 -0.51 +0.00    +0.040 C  ATOM     27  C   UNL     1      26.209  55.802   1.228 -0.31 -0.01    +0.040 C  ATOM     28  C   UNL     1      28.896  56.555   2.026 -0.60 -0.02    +0.083 C  ATOM     29  C   UNL     1      27.468  55.087   0.743 -0.43 -0.03    +0.083 C  ATOM     30  N   UNL     1      28.627  55.982   0.707 -0.28 +0.08    -0.317 NA ATOM     31  H   UNL     1      28.445  56.735   0.043 -0.32 -0.05    +0.122 HD ENDBRANCH  22  25ENDBRANCH  20  21ENDBRANCH   1  15TORSDOF 7TERENDMDL