REMARK SMILES Cn1cncc1C=Nc1ccc(C(N)=O)c(-c2ccc(C(=O)N3CCNCC3)c(F)c2)n1
REMARK SMILES IDX 9 1 10 2 11 3 12 4 16 5 32 6 8 7 7 8 6 9 2 10 3 11 4 12 5 13
REMARK SMILES IDX 1 14 17 15 18 16 31 17 19 18 29 19 20 20 30 21 21 22 23 23
REMARK SMILES IDX 24 24 28 25 25 26 27 27 26 28 22 29 13 31 14 32 15 33
REMARK H PARENT 26 30 14 34 14 35
ROOT
ATOM      1  C   UNL     1       3.697  -1.163   1.150  1.00  0.00     0.152 A 
ATOM      2  C   UNL     1       4.040  -2.342   1.790  1.00  0.00     0.050 A 
ATOM      3  C   UNL     1       3.105  -3.370   1.854  1.00  0.00     0.020 A 
ATOM      4  C   UNL     1       1.846  -3.189   1.276  1.00  0.00     0.066 A 
ATOM      5  C   UNL     1       1.551  -1.955   0.687  1.00  0.00     0.086 A 
ATOM      6  N   UNL     1       2.479  -0.958   0.601  1.00  0.00    -0.228 NA
ENDROOT
BRANCH   1   7
ATOM      7  N   UNL     1       4.649  -0.143   1.077  1.00  0.00    -0.235 NA
BRANCH   7   8
ATOM      8  C   UNL     1       4.393   0.904   0.368  1.00  0.00     0.141 C 
BRANCH   8   9
ATOM      9  C   UNL     1       5.362   1.961   0.271  1.00  0.00     0.079 A 
ATOM     10  N   UNL     1       5.271   3.099  -0.498  1.00  0.00    -0.333 N 
ATOM     11  C   UNL     1       6.401   3.841  -0.292  1.00  0.00     0.199 A 
ATOM     12  N   UNL     1       7.219   3.252   0.547  1.00  0.00    -0.245 NA
ATOM     13  C   UNL     1       6.587   2.088   0.900  1.00  0.00     0.140 A 
ATOM     14  C   UNL     1       4.186   3.467  -1.371  1.00  0.00     0.151 C 
ENDBRANCH   8   9
ENDBRANCH   7   8
ENDBRANCH   1   7
BRANCH   5  15
ATOM     15  C   UNL     1       0.237  -1.572   0.137  1.00  0.00     0.004 A 
ATOM     16  C   UNL     1       0.143  -1.015  -1.153  1.00  0.00     0.011 A 
ATOM     17  C   UNL     1      -0.949  -1.725   0.876  1.00  0.00     0.050 A 
ATOM     18  C   UNL     1      -1.092  -0.642  -1.693  1.00  0.00     0.017 A 
ATOM     19  C   UNL     1      -2.181  -1.357   0.334  1.00  0.00     0.136 A 
ATOM     20  C   UNL     1      -2.258  -0.799  -0.939  1.00  0.00     0.075 A 
ATOM     21  F   UNL     1      -3.286  -1.550   1.069  1.00  0.00    -0.206 F 
BRANCH  20  22
ATOM     22  C   UNL     1      -3.552  -0.459  -1.557  1.00  0.00     0.256 C 
ATOM     23  N   UNL     1      -4.452   0.368  -0.885  1.00  0.00    -0.336 N 
ATOM     24  C   UNL     1      -4.040   1.365   0.112  1.00  0.00     0.135 C 
ATOM     25  C   UNL     1      -5.707   0.673  -1.576  1.00  0.00     0.135 C 
ATOM     26  C   UNL     1      -5.201   1.794   1.026  1.00  0.00     0.102 C 
ATOM     27  C   UNL     1      -6.816   1.131  -0.615  1.00  0.00     0.102 C 
ATOM     28  N   UNL     1      -6.395   2.226   0.279  1.00  0.00    -0.313 NA
ATOM     29  O   UNL     1      -3.770  -0.924  -2.675  1.00  0.00    -0.269 OA
ATOM     30  H   UNL     1      -6.146   3.031  -0.296  1.00  0.00     0.122 HD
ENDBRANCH  20  22
ENDBRANCH   5  15
BRANCH   4  31
ATOM     31  C   UNL     1       0.910  -4.329   1.328  1.00  0.00     0.250 C 
ATOM     32  N   UNL     1       0.278  -4.677   0.169  1.00  0.00    -0.366 N 
ATOM     33  O   UNL     1       0.754  -4.965   2.361  1.00  0.00    -0.269 OA
ATOM     34  H   UNL     1      -0.313  -5.500   0.189  1.00  0.00     0.159 HD
ATOM     35  H   UNL     1       0.468  -4.253  -0.729  1.00  0.00     0.159 HD
ENDBRANCH   4  31
TORSDOF 6
