MODEL        1USER    Run = 1USERUSER    Estimated Free Energy of Binding    =  -9.32 kcal/mol  [=(1)+(2)+(3)-(4)]USERUSER    (1) Final Intermolecular Energy     = -11.11 kcal/molUSER        vdW + Hbond + desolv Energy     = -10.90 kcal/molUSER        Electrostatic Energy            =  -0.21 kcal/molUSER        Moving Ligand-Fixed Receptor    = -11.11 kcal/molUSER        Moving Ligand-Moving Receptor   =  +0.00 kcal/molUSER    (2) Final Total Internal Energy     =  -1.15 kcal/molUSER    (3) Torsional Free Energy           =  +1.79 kcal/molUSER    (4) Unbound System's Energy         =  -1.15 kcal/molUSERUSERREMARK SMILES COc1ccc(O)c(C(=O)c2ccc(C(=O)N[C@@H]3CCNC4(CC4)C3)cc2)c1FREMARK SMILES IDX 11 1 12 2 13 3 14 4 26 5 27 6 9 7 10 8 8 9 3 10 4 11 28 12REMARK SMILES IDX 5 13 6 14 29 15 2 16 1 17 7 18 15 20 17 21 16 22 18 24 19 25REMARK SMILES IDX 25 26 20 27 22 28 21 29 23 30 24 31REMARK H PARENT 7 19 17 23 21 32USER                              x       y       z     vdW  Elec       q    TypeUSER                           _______ _______ _______ _____ _____    ______ ____ROOTATOM      1  C   UNL     1      40.092  45.417  19.673 -0.40 +0.00    +0.023 A  ATOM      2  C   UNL     1      40.769  45.729  20.857 -0.32 +0.00    +0.013 A  ATOM      3  C   UNL     1      40.171  45.459  22.091 -0.27 +0.00    +0.014 A  ATOM      4  C   UNL     1      38.896  44.881  22.151 -0.30 +0.00    +0.039 A  ATOM      5  C   UNL     1      38.204  44.605  20.965 -0.35 +0.00    +0.014 A  ATOM      6  C   UNL     1      38.800  44.875  19.730 -0.37 -0.00    +0.013 A  ENDROOTBRANCH   1   7ATOM      7  C   UNL     1      40.671  45.715  18.342 -0.40 -0.01    +0.199 C  ATOM      8  O   UNL     1      41.758  45.220  18.042 -0.25 -0.02    -0.288 OA BRANCH   7   9ATOM      9  C   UNL     1      39.982  46.541  17.325 -0.41 -0.02    +0.104 A  ATOM     10  C   UNL     1      38.083  46.988  15.861 -0.30 -0.07    +0.155 A  ATOM     11  C   UNL     1      38.724  48.134  15.385 -0.47 -0.03    +0.053 A  ATOM     12  C   UNL     1      38.718  46.204  16.836 -0.29 -0.05    +0.179 A  ATOM     13  C   UNL     1      39.974  48.499  15.893 -0.52 -0.02    +0.051 A  ATOM     14  C   UNL     1      40.589  47.714  16.866 -0.43 -0.02    +0.130 A  ATOM     15  F   UNL     1      38.075  45.127  17.316 -0.08 +0.05    -0.202 F  BRANCH  10  16ATOM     16  O   UNL     1      36.854  46.540  15.456 -0.07 +0.31    -0.494 OA ATOM     17  C   UNL     1      35.801  46.573  16.411 -0.21 -0.27    +0.278 C  ENDBRANCH  10  16BRANCH  14  18ATOM     18  O   UNL     1      41.796  48.161  17.333 -0.51 +0.01    -0.507 OA ATOM     19  H   UNL     1      42.349  47.374  17.544 -0.34 -0.06    +0.293 HD ENDBRANCH  14  18ENDBRANCH   7   9ENDBRANCH   1   7BRANCH   4  20ATOM     20  C   UNL     1      38.305  44.618  23.493 -0.21 +0.02    +0.251 C  ATOM     21  N   UNL     1      38.538  43.372  24.034 -0.08 -0.02    -0.349 N  ATOM     22  O   UNL     1      37.672  45.498  24.065 -0.49 -0.05    -0.269 OA ATOM     23  H   UNL     1      39.121  42.708  23.544 +0.09 +0.01    +0.164 HD BRANCH  21  24ATOM     24  C   UNL     1      37.979  42.983  25.326 -0.28 -0.00    +0.085 C  ATOM     25  C   UNL     1      38.973  42.109  26.103 -0.27 -0.00    +0.040 C  ATOM     26  C   UNL     1      36.639  42.247  25.155 -0.44 -0.00    +0.047 C  ATOM     27  C   UNL     1      38.383  41.663  27.439 -0.41 -0.01    +0.083 C  ATOM     28  C   UNL     1      36.148  41.738  26.494 -0.56 -0.00    +0.020 C  ATOM     29  N   UNL     1      37.127  40.934  27.254 -0.27 +0.08    -0.311 NA ATOM     30  C   UNL     1      34.697  41.343  26.608 -0.56 -0.01    +0.024 C  ATOM     31  C   UNL     1      35.184  42.594  27.278 -0.63 -0.01    +0.024 C  ATOM     32  H   UNL     1      37.309  40.055  26.769 -0.48 -0.04    +0.123 HD ENDBRANCH  21  24ENDBRANCH   4  20TORSDOF 6TERENDMDL