REMARK SMILES COc1ccc(O)c(C(=O)c2ccc(C(=O)N[C@@H]3CCNC4(CC4)C3)cc2)c1F
REMARK SMILES IDX 11 1 12 2 13 3 14 4 26 5 27 6 9 7 10 8 8 9 3 10 4 11 28 12
REMARK SMILES IDX 5 13 6 14 29 15 2 16 1 17 7 18 15 20 17 21 16 22 18 24 19 25
REMARK SMILES IDX 25 26 20 27 22 28 21 29 23 30 24 31
REMARK H PARENT 7 19 17 23 21 32
ROOT
ATOM      1  C   UNL     1      -2.585   0.348  -0.868  1.00  0.00     0.023 A 
ATOM      2  C   UNL     1      -1.834  -0.775  -1.231  1.00  0.00     0.013 A 
ATOM      3  C   UNL     1      -0.443  -0.756  -1.093  1.00  0.00     0.014 A 
ATOM      4  C   UNL     1       0.205   0.383  -0.597  1.00  0.00     0.039 A 
ATOM      5  C   UNL     1      -0.545   1.520  -0.271  1.00  0.00     0.014 A 
ATOM      6  C   UNL     1      -1.936   1.502  -0.409  1.00  0.00     0.013 A 
ENDROOT
BRANCH   1   7
ATOM      7  C   UNL     1      -4.058   0.386  -1.028  1.00  0.00     0.199 C 
ATOM      8  O   UNL     1      -4.586   1.426  -1.426  1.00  0.00    -0.288 OA
BRANCH   7   9
ATOM      9  C   UNL     1      -4.930  -0.784  -0.784  1.00  0.00     0.104 A 
ATOM     10  C   UNL     1      -5.465  -2.841   0.412  1.00  0.00     0.155 A 
ATOM     11  C   UNL     1      -6.611  -2.995  -0.371  1.00  0.00     0.053 A 
ATOM     12  C   UNL     1      -4.637  -1.728   0.202  1.00  0.00     0.179 A 
ATOM     13  C   UNL     1      -6.932  -2.037  -1.337  1.00  0.00     0.051 A 
ATOM     14  C   UNL     1      -6.104  -0.934  -1.530  1.00  0.00     0.130 A 
ATOM     15  F   UNL     1      -3.560  -1.569   0.988  1.00  0.00    -0.202 F 
BRANCH  10  16
ATOM     16  O   UNL     1      -5.058  -3.698   1.399  1.00  0.00    -0.494 OA
ATOM     17  C   UNL     1      -5.880  -4.828   1.662  1.00  0.00     0.278 C 
ENDBRANCH  10  16
BRANCH  14  18
ATOM     18  O   UNL     1      -6.509  -0.027  -2.473  1.00  0.00    -0.507 OA
ATOM     19  H   UNL     1      -5.970   0.789  -2.358  1.00  0.00     0.293 HD
ENDBRANCH  14  18
ENDBRANCH   7   9
ENDBRANCH   1   7
BRANCH   4  20
ATOM     20  C   UNL     1       1.689   0.351  -0.474  1.00  0.00     0.251 C 
ATOM     21  N   UNL     1       2.241   1.131   0.520  1.00  0.00    -0.349 N 
ATOM     22  O   UNL     1       2.349  -0.364  -1.219  1.00  0.00    -0.269 OA
ATOM     23  H   UNL     1       1.642   1.651   1.146  1.00  0.00     0.164 HD
BRANCH  21  24
ATOM     24  C   UNL     1       3.686   1.212   0.714  1.00  0.00     0.085 C 
ATOM     25  C   UNL     1       4.013   1.685   2.137  1.00  0.00     0.040 C 
ATOM     26  C   UNL     1       4.336   2.143  -0.323  1.00  0.00     0.047 C 
ATOM     27  C   UNL     1       5.522   1.812   2.339  1.00  0.00     0.083 C 
ATOM     28  C   UNL     1       5.810   2.315  -0.018  1.00  0.00     0.020 C 
ATOM     29  N   UNL     1       6.117   2.729   1.366  1.00  0.00    -0.311 NA
ATOM     30  C   UNL     1       6.696   2.858  -1.112  1.00  0.00     0.024 C 
ATOM     31  C   UNL     1       6.798   1.414  -0.717  1.00  0.00     0.024 C 
ATOM     32  H   UNL     1       5.775   3.676   1.533  1.00  0.00     0.123 HD
ENDBRANCH  21  24
ENDBRANCH   4  20
TORSDOF 6
