MODEL        7USER    Run = 7USERUSER    Estimated Free Energy of Binding    =  -7.28 kcal/mol  [=(1)+(2)+(3)-(4)]USERUSER    (1) Final Intermolecular Energy     = -11.46 kcal/molUSER        vdW + Hbond + desolv Energy     = -11.82 kcal/molUSER        Electrostatic Energy            =  -0.08 kcal/molUSER        Moving Ligand-Fixed Receptor    = -11.90 kcal/molUSER        Moving Ligand-Moving Receptor   =  +0.44 kcal/molUSER    (2) Final Total Internal Energy     =  -2.28 kcal/molUSER    (3) Torsional Free Energy           =  +4.18 kcal/molUSER    (4) Unbound System's Energy         =  -2.28 kcal/molUSERUSERREMARK SMILES N#Cc1ccc(C(=O)c2ccc(C(=O)N[C@@H]3CCCNC[C@@H]3NC(=O)c3cncc(F)c3)cc2)c(O)c1REMARK SMILES IDX 13 1 14 2 15 3 12 5 9 6 10 7 34 8 11 9 33 10 7 11 8 12 6 13REMARK SMILES IDX 3 14 4 15 37 16 5 17 35 18 2 19 1 20 36 21 16 23 17 24 18 25REMARK SMILES IDX 22 27 21 28 20 29 19 31 23 33 24 34 25 36 26 37 27 38 32 39REMARK SMILES IDX 28 40 30 41 29 42 31 43REMARK H PARENT 15 4 36 22 20 30 23 35REMARK Flexibility Score:   88.900USER                              x       y       z     vdW  Elec       q    TypeUSER                           _______ _______ _______ _____ _____    ______ ____ROOTATOM      1  C   UNL     1      37.731  42.515  24.812 -0.23 +0.00    +0.251 C  ATOM      2  O   UNL     1      38.000  41.366  25.148 +0.08 -0.01    -0.269 OA ATOM      3  N   UNL     1      37.475  43.525  25.714 -0.09 +0.01    -0.347 N  ATOM      4  H   UNL     1      37.056  44.377  25.365 +0.09 +0.00    +0.164 HD ENDROOTBRANCH   1   5ATOM      5  C   UNL     1      37.654  42.869  23.367 -0.35 +0.00    +0.039 A  ATOM      6  C   UNL     1      37.532  43.637  20.674 -0.35 -0.00    +0.023 A  ATOM      7  C   UNL     1      36.880  42.473  21.100 -0.44 +0.00    +0.013 A  ATOM      8  C   UNL     1      38.212  44.436  21.599 -0.36 +0.00    +0.013 A  ATOM      9  C   UNL     1      36.942  42.089  22.445 -0.50 +0.00    +0.014 A  ATOM     10  C   UNL     1      38.276  44.051  22.940 -0.31 +0.00    +0.014 A  BRANCH   6  11ATOM     11  C   UNL     1      37.457  44.094  19.268 -0.26 -0.02    +0.196 C  ATOM     12  O   UNL     1      36.597  43.616  18.530 -0.18 +0.05    -0.288 OA BRANCH  11  13ATOM     13  C   UNL     1      38.399  45.096  18.703 -0.35 -0.01    +0.064 A  ATOM     14  C   UNL     1      40.130  47.015  17.600 -0.44 -0.01    +0.056 A  ATOM     15  C   UNL     1      40.577  46.163  18.619 -0.47 -0.00    +0.020 A  ATOM     16  C   UNL     1      38.813  46.920  17.146 -0.35 -0.02    +0.066 A  ATOM     17  C   UNL     1      39.714  45.210  19.173 -0.41 -0.00    +0.017 A  ATOM     18  C   UNL     1      37.953  45.975  17.706 -0.26 -0.04    +0.128 A  BRANCH  14  19ATOM     19  C   UNL     1      41.019  47.986  17.035 -0.52 -0.01    +0.099 C  ATOM     20  N   UNL     1      41.749  48.760  16.569 -0.81 -0.02    -0.192 NA ENDBRANCH  14  19BRANCH  18  21ATOM     21  O   UNL     1      36.670  45.966  17.227 -0.07 +0.25    -0.507 OA ATOM     22  H   UNL     1      36.270  45.093  17.446 +0.20 -0.11    +0.293 HD ENDBRANCH  18  21ENDBRANCH  11  13ENDBRANCH   6  11ENDBRANCH   1   5BRANCH   3  23ATOM     23  C   UNL     1      37.440  43.315  27.172 -0.32 -0.02    +0.106 C  BRANCH  23  24ATOM     24  C   UNL     1      36.901  41.920  27.508 -0.51 -0.01    +0.028 C  BRANCH  24  25ATOM     25  C   UNL     1      35.551  41.478  26.936 -0.67 -0.01    +0.017 CG0ATOM     26  G   UNL     1      34.283  42.119  27.486 +0.00 +0.00    +0.000 G0 ENDBRANCH  24  25ENDBRANCH  23  24BRANCH  23  27ATOM     27  C   UNL     1      36.747  44.449  27.983 -0.39 -0.03    +0.118 C  BRANCH  27  28ATOM     28  C   UNL     1      35.349  44.069  28.520 -0.41 -0.03    +0.108 C  BRANCH  28  29ATOM     29  N   UNL     1      34.384  43.565  27.541 -0.34 +0.05    -0.315 NA ATOM     30  H   UNL     1      34.655  43.921  26.623 -0.05 -0.02    +0.122 HD BRANCH  29  31ATOM     31  C   UNL     1      34.283  42.115  27.486 -0.22 -0.02    +0.081 CG0ATOM     32  G   UNL     1      35.554  41.477  26.939 +0.00 +0.00    +0.000 G0 ENDBRANCH  29  31ENDBRANCH  28  29ENDBRANCH  27  28BRANCH  27  33ATOM     33  N   UNL     1      36.660  45.671  27.167 -0.15 +0.08    -0.346 N  ATOM     34  C   UNL     1      37.768  46.347  26.716 -0.22 -0.02    +0.253 C  ATOM     35  H   UNL     1      35.716  46.011  26.980 -0.38 -0.11    +0.164 HD ATOM     36  O   UNL     1      38.914  45.956  26.918 -0.15 +0.01    -0.269 OA BRANCH  34  37ATOM     37  C   UNL     1      37.553  47.590  25.934 -0.33 +0.00    +0.061 A  ATOM     38  C   UNL     1      38.216  47.875  24.743 -0.32 +0.02    +0.125 A  ATOM     39  C   UNL     1      36.614  48.519  26.395 -0.40 -0.00    +0.056 A  ATOM     40  N   UNL     1      38.021  49.007  24.016 -0.24 -0.04    -0.261 NA ATOM     41  C   UNL     1      36.399  49.679  25.667 -0.37 -0.00    +0.142 A  ATOM     42  C   UNL     1      37.112  49.886  24.501 +0.15 +0.00    +0.150 A  ATOM     43  F   UNL     1      35.510  50.586  26.091 -0.10 -0.00    -0.205 F  ENDBRANCH  34  37ENDBRANCH  27  33ENDBRANCH  23  27ENDBRANCH   3  23TORSDOF 8TERENDMDL