REMARK SMILES O=C(N[C@H]1CNCCC[C@H]1NC(=O)c1ccc(C(=O)c2ccc(C(F)(F)F)cc2O)cc1)c1ccncc1
REMARK SMILES IDX 11 1 12 2 13 3 10 5 4 6 3 7 2 8 1 9 33 11 34 12 38 13 35 14
REMARK SMILES IDX 37 15 36 16 5 17 6 18 7 20 9 22 8 23 14 25 15 26 32 27 16 28
REMARK SMILES IDX 31 29 17 30 18 31 19 32 20 33 21 34 29 35 22 36 28 37 23 38
REMARK SMILES IDX 30 39 24 41 25 42 26 43 27 44
REMARK H PARENT 11 4 3 10 6 19 30 40
REMARK Flexibility Score:   88.900
ROOT
ATOM      1  N   UNL     1       1.293   0.088  -1.865  1.00  0.00    -0.347 N 
ATOM      2  C   UNL     1       0.335  -0.448  -2.694  1.00  0.00     0.251 C 
ATOM      3  O   UNL     1       0.557  -0.751  -3.862  1.00  0.00    -0.269 OA
ATOM      4  H   UNL     1       1.059   0.380  -0.917  1.00  0.00     0.164 HD
ENDROOT
BRANCH   1   5
ATOM      5  C   UNL     1       2.692   0.267  -2.276  1.00  0.00     0.106 C 
BRANCH   5   6
ATOM      6  C   UNL     1       3.354   1.387  -1.423  1.00  0.00     0.118 C 
BRANCH   6   7
ATOM      7  N   UNL     1       3.678   0.965  -0.047  1.00  0.00    -0.346 N 
ATOM      8  C   UNL     1       2.721   0.786   0.926  1.00  0.00     0.251 C 
ATOM      9  O   UNL     1       1.523   0.974   0.739  1.00  0.00    -0.269 OA
ATOM     10  H   UNL     1       4.656   0.899   0.201  1.00  0.00     0.164 HD
BRANCH   8  11
ATOM     11  C   UNL     1       3.204   0.357   2.261  1.00  0.00     0.042 A 
ATOM     12  C   UNL     1       2.486   0.764   3.386  1.00  0.00     0.034 A 
ATOM     13  C   UNL     1       4.324  -0.462   2.412  1.00  0.00     0.034 A 
ATOM     14  C   UNL     1       2.937   0.353   4.625  1.00  0.00     0.112 A 
ATOM     15  C   UNL     1       4.691  -0.821   3.696  1.00  0.00     0.112 A 
ATOM     16  N   UNL     1       4.027  -0.425   4.802  1.00  0.00    -0.265 NA
ENDBRANCH   8  11
ENDBRANCH   6   7
BRANCH   6  17
ATOM     17  C   UNL     1       4.574   2.038  -2.114  1.00  0.00     0.108 C 
BRANCH  17  18
ATOM     18  N   UNL     1       5.521   1.211  -2.854  1.00  0.00    -0.315 NA
ATOM     19  H   UNL     1       6.384   1.734  -3.005  1.00  0.00     0.122 HD
BRANCH  18  20
ATOM     20  C   UNL     1       5.809  -0.108  -2.324  1.00  0.00     0.081 CG0
ATOM     21  G   UNL     1       4.802  -1.139  -2.821  1.00  0.00     0.000 G0
ENDBRANCH  18  20
ENDBRANCH  17  18
ENDBRANCH   6  17
ENDBRANCH   5   6
BRANCH   5  22
ATOM     22  C   UNL     1       3.420  -1.086  -2.178  1.00  0.00     0.028 C 
BRANCH  22  23
ATOM     23  C   UNL     1       4.802  -1.139  -2.821  1.00  0.00     0.017 CG0
ATOM     24  G   UNL     1       5.809  -0.108  -2.324  1.00  0.00     0.000 G0
ENDBRANCH  22  23
ENDBRANCH   5  22
ENDBRANCH   1   5
BRANCH   2  25
ATOM     25  C   UNL     1      -1.032  -0.637  -2.123  1.00  0.00     0.039 A 
ATOM     26  C   UNL     1      -1.275  -0.709  -0.744  1.00  0.00     0.014 A 
ATOM     27  C   UNL     1      -2.104  -0.784  -3.015  1.00  0.00     0.014 A 
ATOM     28  C   UNL     1      -2.578  -0.890  -0.264  1.00  0.00     0.013 A 
ATOM     29  C   UNL     1      -3.406  -0.968  -2.539  1.00  0.00     0.013 A 
ATOM     30  C   UNL     1      -3.645  -0.998  -1.163  1.00  0.00     0.023 A 
BRANCH  30  31
ATOM     31  C   UNL     1      -5.031  -1.205  -0.686  1.00  0.00     0.196 C 
ATOM     32  O   UNL     1      -5.742  -2.038  -1.247  1.00  0.00    -0.288 OA
BRANCH  31  33
ATOM     33  C   UNL     1      -5.588  -0.456   0.470  1.00  0.00     0.064 A 
ATOM     34  C   UNL     1      -5.129   0.826   0.798  1.00  0.00     0.017 A 
ATOM     35  C   UNL     1      -6.613  -1.029   1.234  1.00  0.00     0.127 A 
ATOM     36  C   UNL     1      -5.664   1.503   1.899  1.00  0.00     0.014 A 
ATOM     37  C   UNL     1      -7.141  -0.359   2.337  1.00  0.00     0.060 A 
ATOM     38  C   UNL     1      -6.675   0.918   2.679  1.00  0.00     0.059 A 
BRANCH  35  39
ATOM     39  O   UNL     1      -7.150  -2.257   0.956  1.00  0.00    -0.507 OA
ATOM     40  H   UNL     1      -6.842  -2.522   0.058  1.00  0.00     0.293 HD
ENDBRANCH  35  39
BRANCH  38  41
ATOM     41  C   UNL     1      -7.228   1.638   3.885  1.00  0.00     0.416 C 
ATOM     42  F   UNL     1      -8.500   1.273   4.198  1.00  0.00    -0.166 F 
ATOM     43  F   UNL     1      -7.258   2.991   3.724  1.00  0.00    -0.166 F 
ATOM     44  F   UNL     1      -6.484   1.413   5.003  1.00  0.00    -0.166 F 
ENDBRANCH  38  41
ENDBRANCH  31  33
ENDBRANCH  30  31
ENDBRANCH   2  25
TORSDOF 8
