MODEL        8USER    Run = 8USERUSER    Estimated Free Energy of Binding    =  -7.09 kcal/mol  [=(1)+(2)+(3)-(4)]USERUSER    (1) Final Intermolecular Energy     = -11.27 kcal/molUSER        vdW + Hbond + desolv Energy     = -11.89 kcal/molUSER        Electrostatic Energy            =  -0.14 kcal/molUSER        Moving Ligand-Fixed Receptor    = -12.03 kcal/molUSER        Moving Ligand-Moving Receptor   =  +0.77 kcal/molUSER    (2) Final Total Internal Energy     =  -2.93 kcal/molUSER    (3) Torsional Free Energy           =  +4.18 kcal/molUSER    (4) Unbound System's Energy         =  -2.93 kcal/molUSERUSERREMARK SMILES O=C(N[C@H]1CNCCC[C@H]1NC(=O)c1ccc(C(=O)c2ccc(C(F)(F)F)cc2O)cc1)c1ccncc1REMARK SMILES IDX 11 1 12 2 13 3 10 5 4 6 3 7 2 8 1 9 33 11 34 12 38 13 35 14REMARK SMILES IDX 37 15 36 16 5 17 6 18 7 20 9 22 8 23 14 25 15 26 32 27 16 28REMARK SMILES IDX 31 29 17 30 18 31 19 32 20 33 21 34 29 35 22 36 28 37 23 38REMARK SMILES IDX 30 39 24 41 25 42 26 43 27 44REMARK H PARENT 11 4 3 10 6 19 30 40REMARK Flexibility Score:   88.900USER                              x       y       z     vdW  Elec       q    TypeUSER                           _______ _______ _______ _____ _____    ______ ____ROOTATOM      1  N   UNL     1      38.722  43.923  24.260 -0.05 -0.01    -0.347 N  ATOM      2  C   UNL     1      39.406  43.278  23.255 -0.17 +0.01    +0.251 C  ATOM      3  O   UNL     1      39.691  42.086  23.300 +0.14 -0.04    -0.269 OA ATOM      4  H   UNL     1      38.552  44.926  24.215 +0.08 +0.01    +0.164 HD ENDROOTBRANCH   1   5ATOM      5  C   UNL     1      38.195  43.224  25.439 -0.24 -0.00    +0.106 C  BRANCH   5   6ATOM      6  C   UNL     1      38.384  44.108  26.705 -0.21 -0.01    +0.118 C  BRANCH   6   7ATOM      7  N   UNL     1      37.696  45.411  26.621 -0.12 +0.03    -0.346 N  ATOM      8  C   UNL     1      38.241  46.505  25.990 -0.20 +0.00    +0.251 C  ATOM      9  O   UNL     1      39.346  46.498  25.456 -0.10 -0.01    -0.269 OA ATOM     10  H   UNL     1      36.831  45.514  27.134 +0.03 -0.03    +0.164 HD BRANCH   8  11ATOM     11  C   UNL     1      37.426  47.744  25.987 -0.36 +0.00    +0.042 A  ATOM     12  C   UNL     1      37.594  48.644  24.935 -0.40 +0.00    +0.034 A  ATOM     13  C   UNL     1      36.483  48.008  26.981 -0.33 -0.01    +0.034 A  ATOM     14  C   UNL     1      36.825  49.792  24.935 -0.25 -0.00    +0.112 A  ATOM     15  C   UNL     1      35.760  49.184  26.888 -0.29 -0.01    +0.112 A  ATOM     16  N   UNL     1      35.918  50.081  25.892 -0.29 +0.01    -0.265 NA ENDBRANCH   8  11ENDBRANCH   6   7BRANCH   6  17ATOM     17  C   UNL     1      38.036  43.372  28.020 -0.33 -0.02    +0.108 C  BRANCH  17  18ATOM     18  N   UNL     1      37.210  42.170  27.986 -0.15 +0.10    -0.315 NA ATOM     19  H   UNL     1      37.249  41.705  28.894 -0.47 -0.06    +0.122 HD BRANCH  18  20ATOM     20  C   UNL     1      35.836  42.318  27.546 -0.51 -0.03    +0.081 CG0ATOM     21  G   UNL     1      35.744  43.178  26.291 +0.00 +0.00    +0.000 G0 ENDBRANCH  18  20ENDBRANCH  17  18ENDBRANCH   6  17ENDBRANCH   5   6BRANCH   5  22ATOM     22  C   UNL     1      36.728  42.837  25.178 -0.43 -0.00    +0.028 C  BRANCH  22  23ATOM     23  C   UNL     1      35.746  43.183  26.293 -0.47 -0.00    +0.017 CG0ATOM     24  G   UNL     1      35.827  42.318  27.545 +0.00 +0.00    +0.000 G0 ENDBRANCH  22  23ENDBRANCH   5  22ENDBRANCH   1   5BRANCH   2  25ATOM     25  C   UNL     1      39.825  44.100  22.080 -0.24 +0.00    +0.039 A  ATOM     26  C   UNL     1      39.058  45.164  21.586 -0.33 +0.00    +0.014 A  ATOM     27  C   UNL     1      41.021  43.759  21.431 -0.29 +0.00    +0.014 A  ATOM     28  C   UNL     1      39.499  45.899  20.479 -0.17 +0.00    +0.013 A  ATOM     29  C   UNL     1      41.462  44.489  20.323 -0.33 +0.00    +0.013 A  ATOM     30  C   UNL     1      40.712  45.573  19.862 -0.40 +0.00    +0.023 A  BRANCH  30  31ATOM     31  C   UNL     1      41.197  46.323  18.681 -0.42 +0.00    +0.196 C  ATOM     32  O   UNL     1      42.379  46.661  18.626 -0.38 -0.02    -0.288 OA BRANCH  31  33ATOM     33  C   UNL     1      40.306  46.660  17.540 -0.45 -0.01    +0.064 A  ATOM     34  C   UNL     1      39.170  45.893  17.250 -0.41 -0.00    +0.017 A  ATOM     35  C   UNL     1      40.589  47.783  16.752 -0.44 -0.02    +0.127 A  ATOM     36  C   UNL     1      38.356  46.228  16.163 -0.38 -0.00    +0.014 A  ATOM     37  C   UNL     1      39.784  48.113  15.663 -0.50 -0.02    +0.060 A  ATOM     38  C   UNL     1      38.654  47.340  15.359 -0.42 -0.02    +0.059 A  BRANCH  35  39ATOM     39  O   UNL     1      41.652  48.611  16.993 -0.66 -0.03    -0.507 OA ATOM     40  H   UNL     1      42.452  48.046  17.105 -0.29 +0.00    +0.293 HD ENDBRANCH  35  39BRANCH  38  41ATOM     41  C   UNL     1      37.792  47.680  14.168 -0.25 -0.19    +0.416 C  ATOM     42  F   UNL     1      37.643  46.649  13.294 -0.15 +0.05    -0.166 F  ATOM     43  F   UNL     1      38.286  48.719  13.437 -0.09 +0.05    -0.166 F  ATOM     44  F   UNL     1      36.533  48.049  14.534 -0.15 +0.14    -0.166 F  ENDBRANCH  38  41ENDBRANCH  31  33ENDBRANCH  30  31ENDBRANCH   2  25TORSDOF 8TERENDMDL