MODEL        2USER    Run = 2USERUSER    Estimated Free Energy of Binding    = -13.37 kcal/mol  [=(1)+(2)+(3)-(4)]USERUSER    (1) Final Intermolecular Energy     = -15.46 kcal/molUSER        vdW + Hbond + desolv Energy     = -15.33 kcal/molUSER        Electrostatic Energy            =  -0.12 kcal/molUSER        Moving Ligand-Fixed Receptor    = -15.46 kcal/molUSER        Moving Ligand-Moving Receptor   =  +0.00 kcal/molUSER    (2) Final Total Internal Energy     =  -2.61 kcal/molUSER    (3) Torsional Free Energy           =  +2.09 kcal/molUSER    (4) Unbound System's Energy         =  -2.61 kcal/molUSERUSERREMARK SMILES CN1CCN(c2ccc(-c3nc4ccc(F)cc4nc3-c3ccc(CN4CCC(n5c(O)nc6ccccc65)CC4)cc3)cc2)CC1REMARK SMILES IDX 21 1 22 2 23 3 24 4 42 5 43 6 20 7 10 8 11 9 12 10 19 11REMARK SMILES IDX 13 12 18 13 14 14 17 15 15 16 16 17 9 18 6 19 7 20 45 21REMARK SMILES IDX 8 22 44 23 5 24 2 25 3 26 47 27 4 28 46 29 1 30 25 31 26 32REMARK SMILES IDX 27 33 41 34 28 35 40 36 29 37 30 38 31 39 39 40 33 41 38 42REMARK SMILES IDX 34 43 37 44 35 45 36 46 32 47REMARK H PARENT 32 48USER                              x       y       z     vdW  Elec       q    TypeUSER                           _______ _______ _______ _____ _____    ______ ____ROOTATOM      1  C   UNL     1      34.511  43.167  16.651 -0.39 -0.00    +0.002 A  ATOM      2  C   UNL     1      35.778  42.734  16.228 -0.44 -0.00    +0.011 A  ATOM      3  C   UNL     1      36.565  43.515  15.376 -0.32 -0.00    +0.006 A  ATOM      4  C   UNL     1      36.097  44.750  14.913 -0.33 +0.02    -0.034 A  ATOM      5  C   UNL     1      34.825  45.181  15.310 -0.33 -0.00    +0.006 A  ATOM      6  C   UNL     1      34.042  44.399  16.164 -0.31 -0.01    +0.011 A  ENDROOTBRANCH   1   7ATOM      7  C   UNL     1      33.703  42.334  17.560 -0.32 -0.03    +0.097 A  ATOM      8  C   UNL     1      33.962  42.145  18.928 -0.34 -0.01    +0.097 A  ATOM      9  N   UNL     1      33.117  41.411  19.707 -0.19 -0.04    -0.244 NA ATOM     10  C   UNL     1      32.050  40.851  19.113 -0.32 +0.00    +0.090 A  ATOM     11  N   UNL     1      32.627  41.749  16.960 -0.00 +0.13    -0.244 NA ATOM     12  C   UNL     1      31.170  40.087  19.871 -0.11 +0.00    +0.033 A  ATOM     13  C   UNL     1      31.806  41.015  17.730 -0.30 -0.02    +0.092 A  ATOM     14  C   UNL     1      30.057  39.481  19.289 -0.24 +0.00    +0.041 A  ATOM     15  C   UNL     1      30.698  40.411  17.157 -0.30 -0.01    +0.069 A  ATOM     16  C   UNL     1      29.833  39.650  17.933 -0.27 +0.02    +0.125 A  ATOM     17  F   UNL     1      28.768  39.074  17.362 -0.05 -0.11    -0.207 F  BRANCH   8  18ATOM     18  C   UNL     1      35.140  42.663  19.649 -0.44 -0.00    +0.003 A  ATOM     19  C   UNL     1      37.436  43.703  21.034 -0.36 +0.00    +0.037 A  ATOM     20  C   UNL     1      36.802  44.419  20.010 -0.32 -0.00    +0.026 A  ATOM     21  C   UNL     1      36.875  42.460  21.356 -0.45 +0.00    +0.026 A  ATOM     22  C   UNL     1      35.679  43.916  19.333 -0.38 -0.00    +0.012 A  ATOM     23  C   UNL     1      35.751  41.951  20.688 -0.44 +0.00    +0.012 A  BRANCH  19  24ATOM     24  N   UNL     1      38.545  44.196  21.699 -0.11 -0.01    -0.369 N  ATOM     25  N   UNL     1      40.986  45.273  23.077 -0.05 -0.02    -0.303 NA ATOM     26  C   UNL     1      39.677  45.961  23.027 -0.27 +0.01    +0.105 C  ATOM     27  C   UNL     1      40.930  43.966  22.391 -0.25 +0.01    +0.105 C  ATOM     28  C   UNL     1      38.836  45.638  21.768 -0.26 +0.01    +0.132 C  ATOM     29  C   UNL     1      39.535  43.300  22.319 -0.22 +0.01    +0.132 C  ATOM     30  C   UNL     1      41.444  45.145  24.457 -0.09 +0.01    +0.105 C  ENDBRANCH  19  24ENDBRANCH   8  18ENDBRANCH   1   7BRANCH   4  31ATOM     31  C   UNL     1      36.943  45.608  13.996 -0.41 -0.05    +0.120 C  BRANCH  31  32ATOM     32  N   UNL     1      36.750  47.051  14.210 -0.22 +0.18    -0.299 NA ATOM     33  C   UNL     1      36.504  47.372  15.622 -0.34 -0.08    +0.087 C  ATOM     34  C   UNL     1      37.832  47.882  13.664 -0.52 -0.03    +0.087 C  ATOM     35  C   UNL     1      37.746  47.253  16.506 -0.28 -0.02    +0.041 C  ATOM     36  C   UNL     1      39.140  47.795  14.451 -0.53 -0.01    +0.041 C  ATOM     37  C   UNL     1      38.897  48.091  15.936 -0.46 -0.05    +0.095 C  BRANCH  37  38ATOM     38  N   UNL     1      40.109  47.992  16.738 -0.29 +0.07    -0.291 N  ATOM     39  C   UNL     1      41.138  48.894  16.712 -0.14 -0.02    +0.295 A  ATOM     40  C   UNL     1      40.451  47.023  17.659 -0.45 -0.01    +0.072 A  ATOM     41  N   UNL     1      42.107  48.599  17.531 -0.45 -0.03    -0.195 NA ATOM     42  C   UNL     1      39.826  45.858  18.128 -0.43 -0.00    +0.029 A  ATOM     43  C   UNL     1      41.701  47.435  18.133 -0.43 -0.00    +0.092 A  ATOM     44  C   UNL     1      40.501  45.109  19.098 -0.44 +0.00    +0.002 A  ATOM     45  C   UNL     1      42.359  46.669  19.108 -0.48 +0.00    +0.031 A  ATOM     46  C   UNL     1      41.747  45.504  19.583 -0.36 +0.00    +0.002 A  BRANCH  39  47ATOM     47  O   UNL     1      41.175  49.968  15.950 -0.65 +0.09    -0.480 OA ATOM     48  H   UNL     1      41.388  50.657  16.606 -0.24 -0.08    +0.296 HD ENDBRANCH  39  47ENDBRANCH  37  38ENDBRANCH  31  32ENDBRANCH   4  31TORSDOF 7TERENDMDL