REMARK SMILES N#Cc1ccc(C(=O)c2ccc(C(=O)N[C@@H]3CCCNC[C@@H]3NC(=O)c3cncc(F)c3)cc2)c(O)c1
REMARK SMILES IDX 13 1 14 2 15 3 12 5 9 6 10 7 34 8 11 9 33 10 7 11 8 12 6 13
REMARK SMILES IDX 3 14 4 15 37 16 5 17 35 18 2 19 1 20 36 21 16 23 17 24 18 25
REMARK SMILES IDX 22 27 21 28 20 29 19 31 23 33 24 34 25 36 26 37 27 38 32 39
REMARK SMILES IDX 28 40 30 41 29 42 31 43
REMARK H PARENT 15 4 36 22 20 30 23 35
REMARK Flexibility Score:   88.900
ROOT
ATOM      1  C   UNL     1      -0.797   0.772  -0.068  1.00  0.00     0.251 C 
ATOM      2  O   UNL     1      -1.699   1.146  -0.810  1.00  0.00    -0.269 OA
ATOM      3  N   UNL     1      -1.006   0.374   1.235  1.00  0.00    -0.347 N 
ATOM      4  H   UNL     1      -0.200   0.288   1.840  1.00  0.00     0.164 HD
ENDROOT
BRANCH   1   5
ATOM      5  C   UNL     1       0.609   0.747  -0.560  1.00  0.00     0.039 A 
ATOM      6  C   UNL     1       3.221   0.745  -1.578  1.00  0.00     0.023 A 
ATOM      7  C   UNL     1       2.872  -0.133  -0.544  1.00  0.00     0.013 A 
ATOM      8  C   UNL     1       2.257   1.596  -2.128  1.00  0.00     0.013 A 
ATOM      9  C   UNL     1       1.568  -0.131  -0.035  1.00  0.00     0.014 A 
ATOM     10  C   UNL     1       0.957   1.599  -1.618  1.00  0.00     0.014 A 
BRANCH   6  11
ATOM     11  C   UNL     1       4.580   0.744  -2.166  1.00  0.00     0.196 C 
ATOM     12  O   UNL     1       4.702   0.803  -3.388  1.00  0.00    -0.288 OA
BRANCH  11  13
ATOM     13  C   UNL     1       5.808   0.651  -1.334  1.00  0.00     0.064 A 
ATOM     14  C   UNL     1       8.164   0.453   0.186  1.00  0.00     0.056 A 
ATOM     15  C   UNL     1       7.009   1.018   0.743  1.00  0.00     0.020 A 
ATOM     16  C   UNL     1       8.146   0.004  -1.136  1.00  0.00     0.066 A 
ATOM     17  C   UNL     1       5.836   1.122  -0.014  1.00  0.00     0.017 A 
ATOM     18  C   UNL     1       6.979   0.117  -1.891  1.00  0.00     0.128 A 
BRANCH  14  19
ATOM     19  C   UNL     1       9.360   0.346   0.968  1.00  0.00     0.099 C 
ATOM     20  N   UNL     1      10.320   0.263   1.616  1.00  0.00    -0.192 NA
ENDBRANCH  14  19
BRANCH  18  21
ATOM     21  O   UNL     1       7.053  -0.319  -3.187  1.00  0.00    -0.507 OA
ATOM     22  H   UNL     1       6.250  -0.001  -3.661  1.00  0.00     0.293 HD
ENDBRANCH  18  21
ENDBRANCH  11  13
ENDBRANCH   6  11
ENDBRANCH   1   5
BRANCH   3  23
ATOM     23  C   UNL     1      -2.326   0.414   1.888  1.00  0.00     0.106 C 
BRANCH  23  24
ATOM     24  C   UNL     1      -2.181   0.351   3.413  1.00  0.00     0.028 C 
BRANCH  24  25
ATOM     25  C   UNL     1      -1.861  -0.988   4.083  1.00  0.00     0.017 CG0
ATOM     26  G   UNL     1      -1.404  -2.148   3.207  1.00  0.00     0.000 G0
ENDBRANCH  24  25
ENDBRANCH  23  24
BRANCH  23  27
ATOM     27  C   UNL     1      -3.366  -0.602   1.331  1.00  0.00     0.118 C 
BRANCH  27  28
ATOM     28  C   UNL     1      -2.827  -2.045   1.210  1.00  0.00     0.108 C 
BRANCH  28  29
ATOM     29  N   UNL     1      -2.507  -2.734   2.462  1.00  0.00    -0.315 NA
ATOM     30  H   UNL     1      -2.284  -3.705   2.236  1.00  0.00     0.122 HD
BRANCH  29  31
ATOM     31  C   UNL     1      -1.404  -2.148   3.207  1.00  0.00     0.081 CG0
ATOM     32  G   UNL     1      -1.861  -0.988   4.083  1.00  0.00     0.000 G0
ENDBRANCH  29  31
ENDBRANCH  28  29
ENDBRANCH  27  28
BRANCH  27  33
ATOM     33  N   UNL     1      -3.874  -0.141   0.029  1.00  0.00    -0.346 N 
ATOM     34  C   UNL     1      -5.101  -0.513  -0.466  1.00  0.00     0.253 C 
ATOM     35  H   UNL     1      -3.241   0.453  -0.507  1.00  0.00     0.164 HD
ATOM     36  O   UNL     1      -5.886  -1.218   0.161  1.00  0.00    -0.269 OA
BRANCH  34  37
ATOM     37  C   UNL     1      -5.487  -0.014  -1.810  1.00  0.00     0.061 A 
ATOM     38  C   UNL     1      -4.570   0.440  -2.755  1.00  0.00     0.125 A 
ATOM     39  C   UNL     1      -6.839  -0.023  -2.167  1.00  0.00     0.056 A 
ATOM     40  N   UNL     1      -4.912   0.892  -3.991  1.00  0.00    -0.261 NA
ATOM     41  C   UNL     1      -7.209   0.433  -3.423  1.00  0.00     0.142 A 
ATOM     42  C   UNL     1      -6.231   0.878  -4.294  1.00  0.00     0.150 A 
ATOM     43  F   UNL     1      -8.498   0.440  -3.785  1.00  0.00    -0.205 F 
ENDBRANCH  34  37
ENDBRANCH  27  33
ENDBRANCH  23  27
ENDBRANCH   3  23
TORSDOF 8
