MODEL        4USER    Run = 4USERUSER    Estimated Free Energy of Binding    = -10.99 kcal/mol  [=(1)+(2)+(3)-(4)]USERUSER    (1) Final Intermolecular Energy     = -12.48 kcal/molUSER        vdW + Hbond + desolv Energy     = -12.19 kcal/molUSER        Electrostatic Energy            =  -0.29 kcal/molUSER        Moving Ligand-Fixed Receptor    = -12.48 kcal/molUSER        Moving Ligand-Moving Receptor   =  +0.00 kcal/molUSER    (2) Final Total Internal Energy     =  -0.62 kcal/molUSER    (3) Torsional Free Energy           =  +1.49 kcal/molUSER    (4) Unbound System's Energy         =  -0.62 kcal/molUSERUSERREMARK SMILES COc1nc(F)cc(-c2ccc(C(=O)N3CCC(n4c(O)nc5ccccc54)CC3)cc2)n1REMARK SMILES IDX 13 1 14 2 15 3 16 4 17 5 18 6 29 7 30 8 12 9 9 10 10 11REMARK SMILES IDX 32 12 11 13 31 14 8 15 3 16 4 17 33 18 5 19 7 20 6 21 2 22REMARK SMILES IDX 1 23 19 24 20 25 28 26 22 27 27 28 23 29 26 30 24 31 25 32REMARK SMILES IDX 21 33REMARK H PARENT 21 34USER                              x       y       z     vdW  Elec       q    TypeUSER                           _______ _______ _______ _____ _____    ______ ____ROOTATOM      1  C   UNL     1      41.550  44.352  21.372 -0.22 +0.03    +0.253 C  ATOM      2  O   UNL     1      42.607  43.727  21.413 -0.25 -0.05    -0.269 OA ATOM      3  N   UNL     1      40.590  44.322  22.396 -0.07 -0.02    -0.338 N  ATOM      4  C   UNL     1      40.917  43.480  23.545 -0.20 +0.00    +0.122 C  ATOM      5  C   UNL     1      39.682  43.093  24.352 -0.23 +0.00    +0.047 C  ATOM      6  C   UNL     1      38.879  44.342  24.727 -0.18 +0.00    +0.096 C  ATOM      7  C   UNL     1      38.506  45.134  23.469 -0.32 +0.00    +0.047 C  ATOM      8  C   UNL     1      39.758  45.496  22.681 -0.26 +0.01    +0.122 C  ENDROOTBRANCH   1   9ATOM      9  C   UNL     1      41.279  45.166  20.166 -0.35 +0.00    +0.040 A  ATOM     10  C   UNL     1      40.812  46.722  17.856 -0.51 -0.00    +0.001 A  ATOM     11  C   UNL     1      41.871  47.020  18.737 -0.54 +0.00    +0.011 A  ATOM     12  C   UNL     1      39.999  45.613  18.163 -0.44 -0.00    +0.011 A  ATOM     13  C   UNL     1      42.114  46.245  19.875 -0.40 +0.00    +0.014 A  ATOM     14  C   UNL     1      40.231  44.835  19.303 -0.41 +0.00    +0.014 A  BRANCH  10  15ATOM     15  C   UNL     1      40.576  47.558  16.662 -0.47 -0.01    +0.080 A  ATOM     16  C   UNL     1      41.231  49.393  15.442 -0.34 -0.05    +0.319 A  ATOM     17  N   UNL     1      40.295  49.225  14.506 -0.41 +0.06    -0.166 NA ATOM     18  N   UNL     1      41.413  48.606  16.509 -0.90 +0.00    -0.195 NA ATOM     19  C   UNL     1      39.495  48.169  14.692 -0.35 -0.07    +0.219 A  ATOM     20  C   UNL     1      39.581  47.297  15.748 -0.43 -0.02    +0.089 A  ATOM     21  F   UNL     1      38.545  47.951  13.771 -0.17 +0.05    -0.185 F  BRANCH  16  22ATOM     22  O   UNL     1      42.118  50.444  15.352 -0.59 +0.03    -0.467 OA ATOM     23  C   UNL     1      42.558  50.691  14.023 -0.45 -0.07    +0.282 C  ENDBRANCH  16  22ENDBRANCH  10  15ENDBRANCH   1   9BRANCH   6  24ATOM     24  N   UNL     1      37.721  44.050  25.560 -0.11 +0.00    -0.291 N  ATOM     25  C   UNL     1      36.688  44.896  25.857 -0.11 -0.02    +0.295 A  ATOM     26  C   UNL     1      37.474  42.869  26.231 -0.28 -0.01    +0.072 A  ATOM     27  N   UNL     1      35.796  44.367  26.648 -0.24 +0.04    -0.195 NA ATOM     28  C   UNL     1      38.161  41.651  26.328 -0.31 -0.00    +0.029 A  ATOM     29  C   UNL     1      36.268  43.101  26.895 -0.37 -0.02    +0.092 A  ATOM     30  C   UNL     1      37.590  40.655  27.129 -0.21 -0.00    +0.002 A  ATOM     31  C   UNL     1      35.712  42.090  27.693 -0.51 -0.01    +0.031 A  ATOM     32  C   UNL     1      36.386  40.867  27.802 -0.52 -0.00    +0.002 A  BRANCH  25  33ATOM     33  O   UNL     1      36.574  46.131  25.414 -0.63 -0.03    -0.480 OA ATOM     34  H   UNL     1      35.817  46.451  25.940 -0.40 -0.16    +0.296 HD ENDBRANCH  25  33ENDBRANCH   6  24TORSDOF 5TERENDMDL