MODEL        8USER    Run = 8USERUSER    Estimated Free Energy of Binding    = -10.49 kcal/mol  [=(1)+(2)+(3)-(4)]USERUSER    (1) Final Intermolecular Energy     = -11.68 kcal/molUSER        vdW + Hbond + desolv Energy     = -11.59 kcal/molUSER        Electrostatic Energy            =  -0.09 kcal/molUSER        Moving Ligand-Fixed Receptor    = -11.68 kcal/molUSER        Moving Ligand-Moving Receptor   =  +0.00 kcal/molUSER    (2) Final Total Internal Energy     =  -0.73 kcal/molUSER    (3) Torsional Free Energy           =  +1.19 kcal/molUSER    (4) Unbound System's Energy         =  -0.73 kcal/molUSERUSERREMARK SMILES Cn1cc(-c2ccc(C(=O)N3CCC(n4c(O)nc5ccccc54)CC3)cc2)c(=O)n(C)c1=OREMARK SMILES IDX 9 1 10 2 11 3 12 4 13 5 14 6 25 7 26 8 8 9 5 10 6 11 28 12REMARK SMILES IDX 7 13 27 14 4 15 2 16 3 17 33 18 31 19 29 20 1 21 34 22 32 23REMARK SMILES IDX 30 24 15 25 16 26 24 27 18 28 23 29 19 30 22 31 20 32 21 33REMARK SMILES IDX 17 34REMARK H PARENT 17 35USER                              x       y       z     vdW  Elec       q    TypeUSER                           _______ _______ _______ _____ _____    ______ ____ROOTATOM      1  C   UNL     1      40.814  43.908  21.947 -0.20 +0.01    +0.253 C  ATOM      2  O   UNL     1      41.736  43.102  22.057 -0.28 -0.01    -0.269 OA ATOM      3  N   UNL     1      39.918  44.207  22.977 -0.06 -0.01    -0.338 N  ATOM      4  C   UNL     1      38.575  44.737  22.716 -0.30 +0.01    +0.122 C  ATOM      5  C   UNL     1      37.655  44.636  23.928 -0.34 +0.01    +0.047 C  ATOM      6  C   UNL     1      38.367  45.200  25.161 -0.23 +0.00    +0.096 C  ATOM      7  C   UNL     1      39.742  44.556  25.408 -0.14 +0.00    +0.047 C  ATOM      8  C   UNL     1      40.158  43.611  24.285 -0.17 +0.00    +0.122 C  ENDROOTBRANCH   1   9ATOM      9  C   UNL     1      40.671  44.618  20.655 -0.33 +0.00    +0.040 A  ATOM     10  C   UNL     1      40.341  46.078  18.283 -0.47 +0.00    -0.011 A  ATOM     11  C   UNL     1      41.421  46.350  19.142 -0.47 +0.00    +0.010 A  ATOM     12  C   UNL     1      39.429  45.068  18.626 -0.42 -0.00    +0.010 A  ATOM     13  C   UNL     1      41.581  45.628  20.329 -0.36 +0.00    +0.014 A  ATOM     14  C   UNL     1      39.586  44.347  19.813 -0.30 -0.00    +0.014 A  BRANCH  10  15ATOM     15  C   UNL     1      40.137  46.870  17.058 -0.45 -0.01    +0.064 A  ATOM     16  N   UNL     1      39.081  47.112  14.936 -0.22 +0.09    -0.303 N  ATOM     17  C   UNL     1      39.287  46.439  16.119 -0.36 -0.03    +0.104 A  ATOM     18  C   UNL     1      39.723  48.309  14.631 -0.25 -0.10    +0.330 A  ATOM     19  N   UNL     1      40.567  48.804  15.624 -0.38 +0.06    -0.263 N  ATOM     20  C   UNL     1      40.903  48.119  16.784 -0.32 -0.04    +0.263 A  ATOM     21  C   UNL     1      38.178  46.519  13.958 -0.38 -0.05    +0.154 C  ATOM     22  O   UNL     1      39.565  48.886  13.554 -0.16 +0.08    -0.248 OA ATOM     23  C   UNL     1      41.267  50.043  15.342 -0.61 -0.04    +0.158 C  ATOM     24  O   UNL     1      41.783  48.489  17.563 -0.78 -0.01    -0.268 OA ENDBRANCH  10  15ENDBRANCH   1   9BRANCH   6  25ATOM     25  N   UNL     1      37.505  45.207  26.334 -0.15 +0.02    -0.291 N  ATOM     26  C   UNL     1      37.439  46.220  27.252 -0.17 -0.04    +0.295 A  ATOM     27  C   UNL     1      36.599  44.243  26.733 -0.34 -0.01    +0.072 A  ATOM     28  N   UNL     1      36.570  46.002  28.201 -0.27 +0.05    -0.195 NA ATOM     29  C   UNL     1      36.220  42.988  26.225 -0.41 -0.00    +0.029 A  ATOM     30  C   UNL     1      36.034  44.775  27.898 -0.37 -0.02    +0.092 A  ATOM     31  C   UNL     1      35.247  42.274  26.936 -0.56 -0.00    +0.002 A  ATOM     32  C   UNL     1      35.052  44.046  28.587 -0.49 -0.01    +0.031 A  ATOM     33  C   UNL     1      34.670  42.791  28.098 -0.51 -0.00    +0.002 A  BRANCH  26  34ATOM     34  O   UNL     1      38.160  47.325  27.206 -0.08 +0.05    -0.480 OA ATOM     35  H   UNL     1      38.444  47.403  28.136 -0.25 -0.09    +0.296 HD ENDBRANCH  26  34ENDBRANCH   6  25TORSDOF 4TERENDMDL