REMARK SMILES COc1nc(F)cc(-c2ccc(C(=O)N3CCC(n4c(O)nc5ccccc54)CC3)cc2)n1
REMARK SMILES IDX 13 1 14 2 15 3 16 4 17 5 18 6 29 7 30 8 12 9 9 10 10 11
REMARK SMILES IDX 32 12 11 13 31 14 8 15 3 16 4 17 33 18 5 19 7 20 6 21 2 22
REMARK SMILES IDX 1 23 19 24 20 25 28 26 22 27 27 28 23 29 26 30 24 31 25 32
REMARK SMILES IDX 21 33
REMARK H PARENT 21 34
ROOT
ATOM      1  C   UNL     1       0.468  -1.212   2.267  1.00  0.00     0.253 C 
ATOM      2  O   UNL     1       0.560  -1.638   3.416  1.00  0.00    -0.269 OA
ATOM      3  N   UNL     1      -0.756  -0.977   1.621  1.00  0.00    -0.338 N 
ATOM      4  C   UNL     1      -1.952  -1.279   2.405  1.00  0.00     0.122 C 
ATOM      5  C   UNL     1      -3.183  -1.487   1.529  1.00  0.00     0.047 C 
ATOM      6  C   UNL     1      -3.367  -0.300   0.578  1.00  0.00     0.096 C 
ATOM      7  C   UNL     1      -2.103  -0.092  -0.264  1.00  0.00     0.047 C 
ATOM      8  C   UNL     1      -0.892   0.103   0.639  1.00  0.00     0.122 C 
ENDROOT
BRANCH   1   9
ATOM      9  C   UNL     1       1.724  -0.951   1.529  1.00  0.00     0.040 A 
ATOM     10  C   UNL     1       4.146  -0.456   0.164  1.00  0.00     0.001 A 
ATOM     11  C   UNL     1       3.890   0.110   1.429  1.00  0.00     0.011 A 
ATOM     12  C   UNL     1       3.154  -1.287  -0.393  1.00  0.00     0.011 A 
ATOM     13  C   UNL     1       2.698  -0.142   2.114  1.00  0.00     0.014 A 
ATOM     14  C   UNL     1       1.955  -1.540   0.283  1.00  0.00     0.014 A 
BRANCH  10  15
ATOM     15  C   UNL     1       5.413  -0.172  -0.539  1.00  0.00     0.080 A 
ATOM     16  C   UNL     1       7.047   1.378  -1.003  1.00  0.00     0.319 A 
ATOM     17  N   UNL     1       7.755   0.544  -1.768  1.00  0.00    -0.166 NA
ATOM     18  N   UNL     1       5.902   1.076  -0.378  1.00  0.00    -0.195 NA
ATOM     19  C   UNL     1       7.239  -0.684  -1.891  1.00  0.00     0.219 A 
ATOM     20  C   UNL     1       6.072  -1.106  -1.305  1.00  0.00     0.089 A 
ATOM     21  F   UNL     1       7.921  -1.562  -2.640  1.00  0.00    -0.185 F 
BRANCH  16  22
ATOM     22  O   UNL     1       7.485   2.668  -0.798  1.00  0.00    -0.467 OA
ATOM     23  C   UNL     1       8.673   2.975  -1.515  1.00  0.00     0.282 C 
ENDBRANCH  16  22
ENDBRANCH  10  15
ENDBRANCH   1   9
BRANCH   6  24
ATOM     24  N   UNL     1      -4.566  -0.402  -0.241  1.00  0.00    -0.291 N 
ATOM     25  C   UNL     1      -4.865  -1.387  -1.141  1.00  0.00     0.295 A 
ATOM     26  C   UNL     1      -5.608   0.503  -0.280  1.00  0.00     0.072 A 
ATOM     27  N   UNL     1      -6.005  -1.206  -1.748  1.00  0.00    -0.195 NA
ATOM     28  C   UNL     1      -5.871   1.704   0.393  1.00  0.00     0.029 A 
ATOM     29  C   UNL     1      -6.486  -0.030  -1.227  1.00  0.00     0.092 A 
ATOM     30  C   UNL     1      -7.064   2.367   0.080  1.00  0.00     0.002 A 
ATOM     31  C   UNL     1      -7.676   0.650  -1.526  1.00  0.00     0.031 A 
ATOM     32  C   UNL     1      -7.954   1.852  -0.864  1.00  0.00     0.002 A 
BRANCH  25  33
ATOM     33  O   UNL     1      -4.101  -2.427  -1.402  1.00  0.00    -0.480 OA
ATOM     34  H   UNL     1      -4.638  -2.894  -2.069  1.00  0.00     0.296 HD
ENDBRANCH  25  33
ENDBRANCH   6  24
TORSDOF 5
