REMARK SMILES Nc1cc(-c2ccc(C(=O)N3CCC(n4c(O)nc5ccccc54)CC3)cc2)nc(N)n1
REMARK SMILES IDX 9 1 10 2 11 3 12 4 13 5 14 6 25 7 26 8 8 9 5 10 6 11 28 12
REMARK SMILES IDX 7 13 27 14 4 15 2 16 3 17 32 18 30 19 29 20 1 21 31 24 15 27
REMARK SMILES IDX 16 28 24 29 18 30 23 31 19 32 22 33 20 34 21 35 17 36
REMARK H PARENT 1 22 1 23 31 25 31 26 17 37
ROOT
ATOM      1  C   UNL     1      -0.361  -0.912   2.402  1.00  0.00     0.253 C 
ATOM      2  O   UNL     1      -0.469  -1.307   3.561  1.00  0.00    -0.269 OA
ATOM      3  N   UNL     1       0.868  -0.659   1.792  1.00  0.00    -0.338 N 
ATOM      4  C   UNL     1       1.078  -0.527   0.352  1.00  0.00     0.122 C 
ATOM      5  C   UNL     1       2.005   0.645   0.050  1.00  0.00     0.047 C 
ATOM      6  C   UNL     1       3.224   0.691   0.994  1.00  0.00     0.096 C 
ATOM      7  C   UNL     1       3.358  -0.565   1.865  1.00  0.00     0.047 C 
ATOM      8  C   UNL     1       2.059  -0.835   2.617  1.00  0.00     0.122 C 
ENDROOT
BRANCH   1   9
ATOM      9  C   UNL     1      -1.603  -0.679   1.639  1.00  0.00     0.040 A 
ATOM     10  C   UNL     1      -4.021  -0.246   0.245  1.00  0.00     0.000 A 
ATOM     11  C   UNL     1      -3.110   0.806   0.469  1.00  0.00     0.011 A 
ATOM     12  C   UNL     1      -3.682  -1.519   0.748  1.00  0.00     0.011 A 
ATOM     13  C   UNL     1      -1.915   0.598   1.168  1.00  0.00     0.014 A 
ATOM     14  C   UNL     1      -2.492  -1.736   1.449  1.00  0.00     0.014 A 
BRANCH  10  15
ATOM     15  C   UNL     1      -5.287  -0.042  -0.490  1.00  0.00     0.078 A 
ATOM     16  C   UNL     1      -7.169   1.181  -1.165  1.00  0.00     0.129 A 
ATOM     17  C   UNL     1      -6.011   1.132  -0.427  1.00  0.00     0.075 A 
ATOM     18  N   UNL     1      -7.586   0.169  -1.929  1.00  0.00    -0.196 NA
ATOM     19  C   UNL     1      -6.824  -0.925  -1.942  1.00  0.00     0.222 A 
ATOM     20  N   UNL     1      -5.706  -1.088  -1.234  1.00  0.00    -0.213 NA
BRANCH  16  21
ATOM     21  N   UNL     1      -7.951   2.337  -1.173  1.00  0.00    -0.384 N 
ATOM     22  H   UNL     1      -8.767   2.149  -1.752  1.00  0.00     0.158 HD
ATOM     23  H   UNL     1      -8.214   2.626  -0.237  1.00  0.00     0.158 HD
ENDBRANCH  16  21
BRANCH  19  24
ATOM     24  N   UNL     1      -7.247  -1.988  -2.712  1.00  0.00    -0.368 N 
ATOM     25  H   UNL     1      -6.870  -2.853  -2.351  1.00  0.00     0.159 HD
ATOM     26  H   UNL     1      -8.243  -1.934  -2.865  1.00  0.00     0.159 HD
ENDBRANCH  19  24
ENDBRANCH  10  15
ENDBRANCH   1   9
BRANCH   6  27
ATOM     27  N   UNL     1       4.463   1.013   0.298  1.00  0.00    -0.291 N 
ATOM     28  C   UNL     1       5.224   2.127   0.522  1.00  0.00     0.295 A 
ATOM     29  C   UNL     1       5.102   0.282  -0.682  1.00  0.00     0.072 A 
ATOM     30  N   UNL     1       6.295   2.181  -0.220  1.00  0.00    -0.195 NA
ATOM     31  C   UNL     1       4.818  -0.927  -1.332  1.00  0.00     0.029 A 
ATOM     32  C   UNL     1       6.239   1.039  -0.980  1.00  0.00     0.092 A 
ATOM     33  C   UNL     1       5.727  -1.364  -2.303  1.00  0.00     0.002 A 
ATOM     34  C   UNL     1       7.137   0.582  -1.957  1.00  0.00     0.031 A 
ATOM     35  C   UNL     1       6.869  -0.625  -2.613  1.00  0.00     0.002 A 
BRANCH  28  36
ATOM     36  O   UNL     1       4.934   3.071   1.394  1.00  0.00    -0.480 OA
ATOM     37  H   UNL     1       5.689   3.677   1.276  1.00  0.00     0.296 HD
ENDBRANCH  28  36
ENDBRANCH   6  27
TORSDOF 6
