MODEL        7USER    Run = 7USERUSER    Estimated Free Energy of Binding    = -10.64 kcal/mol  [=(1)+(2)+(3)-(4)]USERUSER    (1) Final Intermolecular Energy     = -12.43 kcal/molUSER        vdW + Hbond + desolv Energy     = -12.30 kcal/molUSER        Electrostatic Energy            =  -0.12 kcal/molUSER        Moving Ligand-Fixed Receptor    = -12.43 kcal/molUSER        Moving Ligand-Moving Receptor   =  +0.00 kcal/molUSER    (2) Final Total Internal Energy     =  -0.72 kcal/molUSER    (3) Torsional Free Energy           =  +1.79 kcal/molUSER    (4) Unbound System's Energy         =  -0.72 kcal/molUSERUSERREMARK SMILES Nc1cc(-c2ccc(C(=O)N3CCC(n4c(O)nc5ccccc54)CC3)cc2)nc(N)n1REMARK SMILES IDX 9 1 10 2 11 3 12 4 13 5 14 6 25 7 26 8 8 9 5 10 6 11 28 12REMARK SMILES IDX 7 13 27 14 4 15 2 16 3 17 32 18 30 19 29 20 1 21 31 24 15 27REMARK SMILES IDX 16 28 24 29 18 30 23 31 19 32 22 33 20 34 21 35 17 36REMARK H PARENT 1 22 1 23 31 25 31 26 17 37USER                              x       y       z     vdW  Elec       q    TypeUSER                           _______ _______ _______ _____ _____    ______ ____ROOTATOM      1  C   UNL     1      40.651  43.616  21.628 -0.15 +0.01    +0.253 C  ATOM      2  O   UNL     1      41.774  43.189  21.888 -0.28 -0.01    -0.269 OA ATOM      3  N   UNL     1      40.332  44.244  20.424 -0.12 -0.01    -0.338 N  ATOM      4  C   UNL     1      38.976  44.457  19.923 -0.32 -0.00    +0.122 C  ATOM      5  C   UNL     1      38.830  45.862  19.349 -0.26 -0.00    +0.047 C  ATOM      6  C   UNL     1      40.029  46.265  18.466 -0.44 -0.01    +0.096 C  ATOM      7  C   UNL     1      40.980  45.097  18.173 -0.45 +0.00    +0.047 C  ATOM      8  C   UNL     1      41.422  44.429  19.471 -0.18 +0.02    +0.122 C  ENDROOTBRANCH   1   9ATOM      9  C   UNL     1      39.606  43.468  22.660 -0.24 +0.00    +0.040 A  ATOM     10  C   UNL     1      37.639  43.117  24.656 -0.33 +0.00    +0.000 A  ATOM     11  C   UNL     1      38.605  44.138  24.756 -0.20 +0.00    +0.011 A  ATOM     12  C   UNL     1      37.696  42.275  23.526 -0.35 +0.00    +0.011 A  ATOM     13  C   UNL     1      39.587  44.310  23.774 -0.18 +0.00    +0.014 A  ATOM     14  C   UNL     1      38.675  42.437  22.542 -0.25 +0.00    +0.014 A  BRANCH  10  15ATOM     15  C   UNL     1      36.596  42.922  25.685 -0.34 -0.00    +0.078 A  ATOM     16  C   UNL     1      35.245  43.586  27.482 -0.45 -0.03    +0.129 A  ATOM     17  C   UNL     1      36.232  43.907  26.582 -0.36 -0.01    +0.075 A  ATOM     18  N   UNL     1      34.636  42.398  27.498 -0.43 +0.05    -0.196 NA ATOM     19  C   UNL     1      35.039  41.506  26.593 -0.36 -0.07    +0.222 A  ATOM     20  N   UNL     1      36.012  41.704  25.703 -0.31 +0.04    -0.213 NA BRANCH  16  21ATOM     21  N   UNL     1      34.805  44.530  28.411 -0.32 +0.10    -0.384 N  ATOM     22  H   UNL     1      35.309  44.361  29.279 -0.16 -0.05    +0.158 HD ATOM     23  H   UNL     1      34.934  45.480  28.080 -0.34 -0.06    +0.158 HD ENDBRANCH  16  21BRANCH  19  24ATOM     24  N   UNL     1      34.434  40.267  26.605 -0.27 +0.23    -0.368 N  ATOM     25  H   UNL     1      33.499  40.331  26.228 -0.43 -0.13    +0.159 HD ATOM     26  H   UNL     1      35.054  39.572  26.216 -0.48 -0.12    +0.159 HD ENDBRANCH  19  24ENDBRANCH  10  15ENDBRANCH   1   9BRANCH   6  27ATOM     27  N   UNL     1      39.625  46.963  17.253 -0.27 +0.07    -0.291 N  ATOM     28  C   UNL     1      40.337  47.959  16.644 -0.28 -0.06    +0.295 A  ATOM     29  C   UNL     1      38.491  46.760  16.493 -0.36 -0.03    +0.072 A  ATOM     30  N   UNL     1      39.770  48.416  15.563 -0.38 +0.07    -0.195 NA ATOM     31  C   UNL     1      37.391  45.898  16.602 -0.35 -0.01    +0.029 A  ATOM     32  C   UNL     1      38.615  47.682  15.449 -0.41 -0.04    +0.092 A  ATOM     33  C   UNL     1      36.405  45.986  15.611 -0.37 -0.00    +0.002 A  ATOM     34  C   UNL     1      37.615  47.753  14.467 -0.49 -0.02    +0.031 A  ATOM     35  C   UNL     1      36.512  46.896  14.560 -0.43 -0.00    +0.002 A  BRANCH  28  36ATOM     36  O   UNL     1      41.486  48.434  17.080 -0.64 +0.01    -0.480 OA ATOM     37  H   UNL     1      42.095  47.713  16.833 -0.32 -0.05    +0.296 HD ENDBRANCH  28  36ENDBRANCH   6  27TORSDOF 6TERENDMDL