REMARK SMILES Cn1cc(-c2ccc(C(=O)N3CCC(n4c(O)nc5ccccc54)CC3)cc2)c(=O)n(C)c1=O
REMARK SMILES IDX 9 1 10 2 11 3 12 4 13 5 14 6 25 7 26 8 8 9 5 10 6 11 28 12
REMARK SMILES IDX 7 13 27 14 4 15 2 16 3 17 33 18 31 19 29 20 1 21 34 22 32 23
REMARK SMILES IDX 30 24 15 25 16 26 24 27 18 28 23 29 19 30 22 31 20 32 21 33
REMARK SMILES IDX 17 34
REMARK H PARENT 17 35
ROOT
ATOM      1  C   UNL     1      -0.293   1.932   1.134  1.00  0.00     0.253 C 
ATOM      2  O   UNL     1      -0.342   2.981   1.774  1.00  0.00    -0.269 OA
ATOM      3  N   UNL     1      -1.417   1.293   0.604  1.00  0.00    -0.338 N 
ATOM      4  C   UNL     1      -1.435  -0.144   0.311  1.00  0.00     0.122 C 
ATOM      5  C   UNL     1      -2.844  -0.687   0.102  1.00  0.00     0.047 C 
ATOM      6  C   UNL     1      -3.595   0.206  -0.891  1.00  0.00     0.096 C 
ATOM      7  C   UNL     1      -3.588   1.691  -0.489  1.00  0.00     0.047 C 
ATOM      8  C   UNL     1      -2.705   1.966   0.724  1.00  0.00     0.122 C 
ENDROOT
BRANCH   1   9
ATOM      9  C   UNL     1       1.041   1.335   0.893  1.00  0.00     0.040 A 
ATOM     10  C   UNL     1       3.627   0.342   0.456  1.00  0.00    -0.011 A 
ATOM     11  C   UNL     1       3.176   0.603   1.762  1.00  0.00     0.010 A 
ATOM     12  C   UNL     1       2.769   0.585  -0.627  1.00  0.00     0.010 A 
ATOM     13  C   UNL     1       1.890   1.106   1.980  1.00  0.00     0.014 A 
ATOM     14  C   UNL     1       1.484   1.090  -0.412  1.00  0.00     0.014 A 
BRANCH  10  15
ATOM     15  C   UNL     1       4.999  -0.139   0.216  1.00  0.00     0.064 A 
ATOM     16  N   UNL     1       7.346   0.260   0.303  1.00  0.00    -0.303 N 
ATOM     17  C   UNL     1       6.042   0.634   0.537  1.00  0.00     0.104 A 
ATOM     18  C   UNL     1       7.685  -0.965  -0.264  1.00  0.00     0.330 A 
ATOM     19  N   UNL     1       6.613  -1.809  -0.549  1.00  0.00    -0.263 N 
ATOM     20  C   UNL     1       5.277  -1.446  -0.444  1.00  0.00     0.263 A 
ATOM     21  C   UNL     1       8.402   1.207   0.637  1.00  0.00     0.154 C 
ATOM     22  O   UNL     1       8.852  -1.279  -0.508  1.00  0.00    -0.248 OA
ATOM     23  C   UNL     1       6.921  -3.091  -1.155  1.00  0.00     0.158 C 
ATOM     24  O   UNL     1       4.348  -2.137  -0.866  1.00  0.00    -0.268 OA
ENDBRANCH  10  15
ENDBRANCH   1   9
BRANCH   6  25
ATOM     25  N   UNL     1      -4.922  -0.311  -1.195  1.00  0.00    -0.291 N 
ATOM     26  C   UNL     1      -5.296  -0.851  -2.395  1.00  0.00     0.295 A 
ATOM     27  C   UNL     1      -6.022  -0.381  -0.362  1.00  0.00     0.072 A 
ATOM     28  N   UNL     1      -6.533  -1.268  -2.412  1.00  0.00    -0.195 NA
ATOM     29  C   UNL     1      -6.270   0.015   0.964  1.00  0.00     0.029 A 
ATOM     30  C   UNL     1      -7.005  -0.985  -1.154  1.00  0.00     0.092 A 
ATOM     31  C   UNL     1      -7.555  -0.215   1.474  1.00  0.00     0.002 A 
ATOM     32  C   UNL     1      -8.282  -1.216  -0.618  1.00  0.00     0.031 A 
ATOM     33  C   UNL     1      -8.547  -0.820   0.699  1.00  0.00     0.002 A 
BRANCH  26  34
ATOM     34  O   UNL     1      -4.508  -0.964  -3.448  1.00  0.00    -0.480 OA
ATOM     35  H   UNL     1      -5.117  -1.363  -4.097  1.00  0.00     0.296 HD
ENDBRANCH  26  34
ENDBRANCH   6  25
TORSDOF 4
