MODEL        10USER    Run = 10USERUSER    Estimated Free Energy of Binding    =  -8.95 kcal/mol  [=(1)+(2)+(3)-(4)]USERUSER    (1) Final Intermolecular Energy     = -13.12 kcal/molUSER        vdW + Hbond + desolv Energy     = -13.33 kcal/molUSER        Electrostatic Energy            =  -0.48 kcal/molUSER        Moving Ligand-Fixed Receptor    = -13.81 kcal/molUSER        Moving Ligand-Moving Receptor   =  +0.69 kcal/molUSER    (2) Final Total Internal Energy     =  -2.08 kcal/molUSER    (3) Torsional Free Energy           =  +4.18 kcal/molUSER    (4) Unbound System's Energy         =  -2.08 kcal/molUSERUSERREMARK SMILES COc1ccc(O)c(C(=O)c2ccc(C(=O)N[C@@H]3CCCN(C)C[C@H]3NC(=O)c3ccnc(Cl)c3)cc2)c1FREMARK SMILES IDX 15 1 16 2 17 3 14 5 11 6 12 7 37 8 13 9 36 10 9 11 10 12REMARK SMILES IDX 8 13 3 14 4 15 38 16 5 17 6 18 39 19 2 20 1 21 7 22 18 24REMARK SMILES IDX 19 25 25 27 24 28 22 29 23 30 21 31 20 32 26 34 27 35 28 37REMARK SMILES IDX 29 38 30 39 35 40 31 41 33 42 32 43 34 44REMARK H PARENT 17 4 7 23 26 36REMARK Flexibility Score:   88.900USER                              x       y       z     vdW  Elec       q    TypeUSER                           _______ _______ _______ _____ _____    ______ ____ROOTATOM      1  C   UNL     1      31.250  43.762  16.335 -0.21 -0.10    +0.251 C  ATOM      2  O   UNL     1      31.436  44.968  16.455 -0.70 +0.08    -0.269 OA ATOM      3  N   UNL     1      32.257  42.857  16.058 -0.11 +0.18    -0.347 N  ATOM      4  H   UNL     1      32.081  41.905  16.385 -0.36 -0.10    +0.164 HD ENDROOTBRANCH   1   5ATOM      5  C   UNL     1      29.889  43.190  16.551 -0.25 -0.01    +0.039 A  ATOM      6  C   UNL     1      27.374  42.030  16.989 -0.19 -0.00    +0.023 A  ATOM      7  C   UNL     1      27.466  43.349  16.529 -0.24 -0.00    +0.013 A  ATOM      8  C   UNL     1      28.538  41.286  17.213 -0.23 -0.00    +0.013 A  ATOM      9  C   UNL     1      28.722  43.930  16.319 -0.27 -0.01    +0.014 A  ATOM     10  C   UNL     1      29.790  41.868  17.006 -0.27 -0.00    +0.014 A  BRANCH   6  11ATOM     11  C   UNL     1      26.066  41.366  17.185 -0.19 -0.02    +0.199 C  ATOM     12  O   UNL     1      25.226  41.438  16.285 -0.20 +0.02    -0.288 OA BRANCH  11  13ATOM     13  C   UNL     1      25.691  40.661  18.431 -0.20 -0.01    +0.104 A  ATOM     14  C   UNL     1      25.419  40.590  20.854 -0.29 -0.03    +0.155 A  ATOM     15  C   UNL     1      24.972  39.269  20.763 -0.30 -0.03    +0.053 A  ATOM     16  C   UNL     1      25.779  41.273  19.682 -0.20 -0.03    +0.179 A  ATOM     17  C   UNL     1      24.907  38.637  19.519 -0.26 -0.04    +0.051 A  ATOM     18  C   UNL     1      25.278  39.324  18.366 -0.27 -0.02    +0.130 A  ATOM     19  F   UNL     1      26.241  42.530  19.789 -0.09 +0.04    -0.202 F  BRANCH  14  20ATOM     20  O   UNL     1      25.540  41.308  22.014 -0.67 +0.01    -0.494 OA ATOM     21  C   UNL     1      24.551  42.296  22.275 -0.48 -0.06    +0.278 C  ENDBRANCH  14  20BRANCH  18  22ATOM     22  O   UNL     1      25.213  38.619  17.194 -0.70 -0.09    -0.507 OA ATOM     23  H   UNL     1      24.995  39.255  16.472 +0.13 -0.01    +0.293 HD ENDBRANCH  18  22ENDBRANCH  11  13ENDBRANCH   6  11ENDBRANCH   1   5BRANCH   3  24ATOM     24  C   UNL     1      33.669  43.262  16.098 -0.32 -0.05    +0.106 C  BRANCH  24  25ATOM     25  C   UNL     1      34.583  42.112  16.550 -0.35 -0.01    +0.028 CG0ATOM     26  G   UNL     1      34.132  41.406  17.843 +0.00 +0.00    +0.000 G0 ENDBRANCH  24  25BRANCH  24  27ATOM     27  C   UNL     1      33.833  44.528  16.997 -0.29 -0.06    +0.118 C  BRANCH  27  28ATOM     28  C   UNL     1      34.473  44.280  18.382 -0.33 -0.03    +0.111 C  BRANCH  28  29ATOM     29  N   UNL     1      33.674  43.472  19.318 -0.29 +0.03    -0.304 NA ATOM     30  C   UNL     1      32.552  44.273  19.820 -0.34 -0.01    +0.105 C  BRANCH  29  31ATOM     31  C   UNL     1      33.188  42.197  18.765 -0.40 -0.01    +0.084 C  BRANCH  31  32ATOM     32  C   UNL     1      34.134  41.412  17.844 -0.27 -0.01    +0.018 CG0ATOM     33  G   UNL     1      34.589  42.109  16.548 +0.00 +0.00    +0.000 G0 ENDBRANCH  31  32ENDBRANCH  29  31ENDBRANCH  28  29ENDBRANCH  27  28BRANCH  27  34ATOM     34  N   UNL     1      34.579  45.571  16.280 -0.10 +0.30    -0.346 N  ATOM     35  C   UNL     1      35.728  45.295  15.577 -0.23 -0.15    +0.251 C  ATOM     36  H   UNL     1      34.246  46.518  16.420 -0.18 -0.30    +0.164 HD ATOM     37  O   UNL     1      36.151  44.154  15.416 -0.26 +0.11    -0.269 OA BRANCH  35  38ATOM     38  C   UNL     1      36.461  46.449  14.995 -0.36 -0.03    +0.044 A  ATOM     39  C   UNL     1      35.984  46.991  13.799 -0.47 -0.02    +0.034 A  ATOM     40  C   UNL     1      37.610  46.974  15.580 -0.38 -0.03    +0.054 A  ATOM     41  C   UNL     1      36.666  48.061  13.248 -0.50 -0.05    +0.113 A  ATOM     42  C   UNL     1      38.212  48.042  14.943 -0.42 -0.07    +0.129 A  ATOM     43  N   UNL     1      37.768  48.604  13.801 -0.51 +0.11    -0.245 NA ATOM     44  Cl  UNL     1      39.631  48.759  15.587 -0.78 +0.03    -0.062 Cl ENDBRANCH  35  38ENDBRANCH  27  34ENDBRANCH  24  27ENDBRANCH   3  24TORSDOF 8TERENDMDL