MODEL        8USER    Run = 8USERUSER    Estimated Free Energy of Binding    =  -7.32 kcal/mol  [=(1)+(2)+(3)-(4)]USERUSER    (1) Final Intermolecular Energy     = -11.80 kcal/molUSER        vdW + Hbond + desolv Energy     = -11.90 kcal/molUSER        Electrostatic Energy            =  -0.16 kcal/molUSER        Moving Ligand-Fixed Receptor    = -12.06 kcal/molUSER        Moving Ligand-Moving Receptor   =  +0.26 kcal/molUSER    (2) Final Total Internal Energy     =  -3.33 kcal/molUSER    (3) Torsional Free Energy           =  +4.47 kcal/molUSER    (4) Unbound System's Energy         =  -3.33 kcal/molUSERUSERREMARK SMILES COc1ccc(O)c(C(=O)c2ccc(C(=O)O[C@@H]3CCCNC[C@H]3NC(=O)c3cnn(C)c3C)cc2)c1FREMARK SMILES IDX 17 1 15 2 16 3 14 4 11 5 12 6 36 7 13 8 35 9 9 10 10 11 8 12REMARK SMILES IDX 3 13 4 14 37 15 5 16 6 17 38 18 2 19 1 20 7 21 18 23 24 25REMARK SMILES IDX 23 26 22 27 21 29 20 30 19 31 25 33 26 34 27 36 28 37 29 38REMARK SMILES IDX 33 39 30 40 31 41 34 42 32 43REMARK H PARENT 7 22 22 28 25 35REMARK Flexibility Score:   99.900USER                              x       y       z     vdW  Elec       q    TypeUSER                           _______ _______ _______ _____ _____    ______ ____ROOTATOM      1  O   UNL     1      38.196  47.546  15.532 -0.14 +0.24    -0.457 OA ENDROOTBRANCH   1   2ATOM      2  C   UNL     1      39.443  48.064  15.412 -0.32 -0.12    +0.338 C  ATOM      3  O   UNL     1      39.870  48.709  14.470 -0.41 +0.08    -0.246 OA BRANCH   2   4ATOM      4  C   UNL     1      40.259  47.733  16.612 -0.48 -0.01    +0.060 A  ATOM      5  C   UNL     1      41.855  47.210  18.862 -0.48 +0.00    +0.023 A  ATOM      6  C   UNL     1      40.711  46.440  18.616 -0.47 -0.00    +0.013 A  ATOM      7  C   UNL     1      42.220  48.221  17.967 -0.12 +0.00    +0.013 A  ATOM      8  C   UNL     1      39.912  46.704  17.499 -0.47 -0.00    +0.016 A  ATOM      9  C   UNL     1      41.417  48.486  16.853 -0.45 -0.00    +0.016 A  BRANCH   5  10ATOM     10  C   UNL     1      42.687  46.874  20.044 -0.36 +0.05    +0.199 C  ATOM     11  O   UNL     1      43.911  46.995  19.962 -0.32 -0.20    -0.288 OA BRANCH  10  12ATOM     12  C   UNL     1      42.119  46.451  21.343 -0.26 +0.02    +0.104 A  ATOM     13  C   UNL     1      40.870  44.872  22.722 -0.13 +0.01    +0.155 A  ATOM     14  C   UNL     1      41.036  45.710  23.826 -0.13 +0.00    +0.053 A  ATOM     15  C   UNL     1      41.426  45.248  21.489 -0.20 +0.02    +0.179 A  ATOM     16  C   UNL     1      41.761  46.898  23.700 -0.18 +0.01    +0.051 A  ATOM     17  C   UNL     1      42.309  47.257  22.471 -0.21 +0.02    +0.130 A  ATOM     18  F   UNL     1      41.296  44.414  20.445 -0.09 -0.02    -0.202 F  BRANCH  13  19ATOM     19  O   UNL     1      40.196  43.680  22.725 -0.03 -0.02    -0.494 OA ATOM     20  C   UNL     1      40.974  42.490  22.765 -0.10 +0.00    +0.278 C  ENDBRANCH  13  19BRANCH  17  21ATOM     21  O   UNL     1      43.029  48.422  22.443 -0.43 -0.09    -0.507 OA ATOM     22  H   UNL     1      43.550  48.434  21.607 -0.42 -0.02    +0.293 HD ENDBRANCH  17  21ENDBRANCH  10  12ENDBRANCH   5  10ENDBRANCH   2   4ENDBRANCH   1   2BRANCH   1  23ATOM     23  C   UNL     1      37.701  46.790  14.398 -0.35 -0.08    +0.200 CG0ATOM     24  G   UNL     1      37.009  47.734  13.398 +0.00 +0.00    +0.000 G0 BRANCH  23  25ATOM     25  C   UNL     1      36.799  45.663  14.951 -0.34 -0.07    +0.137 C  BRANCH  25  26ATOM     26  C   UNL     1      36.774  44.394  14.070 -0.22 -0.04    +0.109 C  BRANCH  26  27ATOM     27  N   UNL     1      37.187  44.690  12.692 -0.25 +0.10    -0.315 NA ATOM     28  H   UNL     1      37.177  43.827  12.145 +0.07 -0.04    +0.122 HD BRANCH  27  29ATOM     29  C   UNL     1      36.347  45.669  12.008 -0.58 -0.03    +0.081 C  BRANCH  29  30ATOM     30  C   UNL     1      36.800  47.131  12.011 -0.74 -0.01    +0.019 C  BRANCH  30  31ATOM     31  C   UNL     1      37.008  47.734  13.400 -0.63 -0.02    +0.049 CG0ATOM     32  G   UNL     1      37.699  46.791  14.400 +0.00 +0.00    +0.000 G0 ENDBRANCH  30  31ENDBRANCH  29  30ENDBRANCH  27  29ENDBRANCH  26  27ENDBRANCH  25  26BRANCH  25  33ATOM     33  N   UNL     1      37.175  45.287  16.317 -0.11 +0.13    -0.344 N  ATOM     34  C   UNL     1      36.540  44.286  17.011 -0.22 -0.08    +0.255 C  ATOM     35  H   UNL     1      37.752  45.967  16.796 +0.11 -0.06    +0.164 HD ATOM     36  O   UNL     1      35.689  43.569  16.491 -0.25 +0.10    -0.269 OA BRANCH  34  37ATOM     37  C   UNL     1      36.937  44.149  18.406 -0.27 -0.02    +0.080 A  ATOM     38  C   UNL     1      38.020  44.731  19.104 -0.27 -0.02    +0.149 A  ATOM     39  C   UNL     1      36.301  43.373  19.370 -0.33 -0.01    +0.048 A  ATOM     40  N   UNL     1      38.068  44.373  20.387 -0.26 +0.00    -0.181 NA ATOM     41  N   UNL     1      37.021  43.540  20.526 -0.22 +0.01    -0.272 N  ATOM     42  C   UNL     1      35.094  42.511  19.260 -0.44 -0.01    +0.067 C  ATOM     43  C   UNL     1      36.774  42.934  21.814 -0.37 +0.01    +0.174 C  ENDBRANCH  34  37ENDBRANCH  25  33ENDBRANCH  23  25ENDBRANCH   1  23TORSDOF 9TERENDMDL