REMARK SMILES COc1ccc(O)c(C(=O)c2ccc(C(=O)N[C@@H]3CCCN(C)C[C@H]3NC(=O)c3ccnc(Cl)c3)cc2)c1F
REMARK SMILES IDX 15 1 16 2 17 3 14 5 11 6 12 7 37 8 13 9 36 10 9 11 10 12
REMARK SMILES IDX 8 13 3 14 4 15 38 16 5 17 6 18 39 19 2 20 1 21 7 22 18 24
REMARK SMILES IDX 19 25 25 27 24 28 22 29 23 30 21 31 20 32 26 34 27 35 28 37
REMARK SMILES IDX 29 38 30 39 35 40 31 41 33 42 32 43 34 44
REMARK H PARENT 17 4 7 23 26 36
REMARK Flexibility Score:   88.900
ROOT
ATOM      1  C   UNL     1      -0.200   0.720  -1.659  1.00  0.00     0.251 C 
ATOM      2  O   UNL     1      -0.441   1.032  -2.820  1.00  0.00    -0.269 OA
ATOM      3  N   UNL     1      -1.024   1.038  -0.596  1.00  0.00    -0.347 N 
ATOM      4  H   UNL     1      -0.957   0.404   0.203  1.00  0.00     0.164 HD
ENDROOT
BRANCH   1   5
ATOM      5  C   UNL     1       1.005  -0.099  -1.339  1.00  0.00     0.039 A 
ATOM      6  C   UNL     1       3.274  -1.667  -0.833  1.00  0.00     0.023 A 
ATOM      7  C   UNL     1       2.705  -0.907   0.196  1.00  0.00     0.013 A 
ATOM      8  C   UNL     1       2.699  -1.657  -2.109  1.00  0.00     0.013 A 
ATOM      9  C   UNL     1       1.578  -0.118  -0.060  1.00  0.00     0.014 A 
ATOM     10  C   UNL     1       1.577  -0.866  -2.363  1.00  0.00     0.014 A 
BRANCH   6  11
ATOM     11  C   UNL     1       4.441  -2.545  -0.594  1.00  0.00     0.199 C 
ATOM     12  O   UNL     1       4.442  -3.674  -1.088  1.00  0.00    -0.288 OA
BRANCH  11  13
ATOM     13  C   UNL     1       5.590  -2.156   0.254  1.00  0.00     0.104 A 
ATOM     14  C   UNL     1       7.096  -0.477   1.184  1.00  0.00     0.155 A 
ATOM     15  C   UNL     1       7.783  -1.479   1.874  1.00  0.00     0.053 A 
ATOM     16  C   UNL     1       6.005  -0.829   0.374  1.00  0.00     0.179 A 
ATOM     17  C   UNL     1       7.395  -2.814   1.739  1.00  0.00     0.051 A 
ATOM     18  C   UNL     1       6.317  -3.149   0.924  1.00  0.00     0.130 A 
ATOM     19  F   UNL     1       5.377   0.140  -0.312  1.00  0.00    -0.202 F 
BRANCH  14  20
ATOM     20  O   UNL     1       7.392   0.859   1.224  1.00  0.00    -0.494 OA
ATOM     21  C   UNL     1       8.560   1.246   1.938  1.00  0.00     0.278 C 
ENDBRANCH  14  20
BRANCH  18  22
ATOM     22  O   UNL     1       6.024  -4.483   0.825  1.00  0.00    -0.507 OA
ATOM     23  H   UNL     1       5.395  -4.598   0.075  1.00  0.00     0.293 HD
ENDBRANCH  18  22
ENDBRANCH  11  13
ENDBRANCH   6  11
ENDBRANCH   1   5
BRANCH   3  24
ATOM     24  C   UNL     1      -2.365   1.596  -0.819  1.00  0.00     0.106 C 
BRANCH  24  25
ATOM     25  C   UNL     1      -2.306   3.052  -1.307  1.00  0.00     0.028 CG0
ATOM     26  G   UNL     1      -3.614   3.572  -1.932  1.00  0.00     0.000 G0
ENDBRANCH  24  25
BRANCH  24  27
ATOM     27  C   UNL     1      -3.223   1.447   0.476  1.00  0.00     0.118 C 
BRANCH  27  28
ATOM     28  C   UNL     1      -4.349   2.492   0.650  1.00  0.00     0.111 C 
BRANCH  28  29
ATOM     29  N   UNL     1      -5.381   2.497  -0.400  1.00  0.00    -0.304 NA
ATOM     30  C   UNL     1      -6.396   3.509  -0.083  1.00  0.00     0.105 C 
BRANCH  29  31
ATOM     31  C   UNL     1      -4.865   2.697  -1.764  1.00  0.00     0.084 C 
BRANCH  31  32
ATOM     32  C   UNL     1      -3.614   3.572  -1.932  1.00  0.00     0.018 CG0
ATOM     33  G   UNL     1      -2.306   3.052  -1.307  1.00  0.00     0.000 G0
ENDBRANCH  31  32
ENDBRANCH  29  31
ENDBRANCH  28  29
ENDBRANCH  27  28
BRANCH  27  34
ATOM     34  N   UNL     1      -3.781   0.090   0.566  1.00  0.00    -0.346 N 
ATOM     35  C   UNL     1      -3.012  -0.994   0.919  1.00  0.00     0.251 C 
ATOM     36  H   UNL     1      -4.740  -0.007   0.255  1.00  0.00     0.164 HD
ATOM     37  O   UNL     1      -1.843  -0.890   1.280  1.00  0.00    -0.269 OA
BRANCH  35  38
ATOM     38  C   UNL     1      -3.656  -2.331   0.859  1.00  0.00     0.044 A 
ATOM     39  C   UNL     1      -3.149  -3.340   1.681  1.00  0.00     0.034 A 
ATOM     40  C   UNL     1      -4.712  -2.611  -0.005  1.00  0.00     0.054 A 
ATOM     41  C   UNL     1      -3.740  -4.589   1.625  1.00  0.00     0.113 A 
ATOM     42  C   UNL     1      -5.226  -3.893   0.020  1.00  0.00     0.129 A 
ATOM     43  N   UNL     1      -4.776  -4.885   0.815  1.00  0.00    -0.245 NA
ATOM     44  Cl  UNL     1      -6.528  -4.335  -1.005  1.00  0.00    -0.062 Cl
ENDBRANCH  35  38
ENDBRANCH  27  34
ENDBRANCH  24  27
ENDBRANCH   3  24
TORSDOF 8
