MODEL        3USER    Run = 3USERUSER    Estimated Free Energy of Binding    =  -6.99 kcal/mol  [=(1)+(2)+(3)-(4)]USERUSER    (1) Final Intermolecular Energy     = -11.46 kcal/molUSER        vdW + Hbond + desolv Energy     = -12.46 kcal/molUSER        Electrostatic Energy            =  -0.17 kcal/molUSER        Moving Ligand-Fixed Receptor    = -12.63 kcal/molUSER        Moving Ligand-Moving Receptor   =  +1.16 kcal/molUSER    (2) Final Total Internal Energy     =  -3.03 kcal/molUSER    (3) Torsional Free Energy           =  +4.47 kcal/molUSER    (4) Unbound System's Energy         =  -3.03 kcal/molUSERUSERREMARK SMILES COc1cc(F)c(O)c(C(=O)c2ccc(C(=O)O[C@@H]3CCCNC[C@@H]3NC(=O)c3ccncc3)cc2)c1REMARK SMILES IDX 18 1 16 2 17 3 15 4 12 5 13 6 36 7 14 8 35 9 10 10 11 11REMARK SMILES IDX 9 12 3 13 4 14 37 15 5 16 7 17 6 18 2 19 1 20 8 21 19 23REMARK SMILES IDX 25 25 24 26 23 27 22 29 21 30 20 31 26 33 27 34 28 36 29 37REMARK SMILES IDX 30 38 34 39 31 40 33 41 32 42REMARK H PARENT 8 22 23 28 26 35REMARK Flexibility Score:   99.900USER                              x       y       z     vdW  Elec       q    TypeUSER                           _______ _______ _______ _____ _____    ______ ____ROOTATOM      1  O   UNL     1      38.235  45.248  19.024 -0.14 +0.05    -0.457 OA ENDROOTBRANCH   1   2ATOM      2  C   UNL     1      37.459  44.499  19.854 -0.16 -0.02    +0.338 C  ATOM      3  O   UNL     1      37.670  44.271  21.045 -0.28 -0.00    -0.246 OA BRANCH   2   4ATOM      4  C   UNL     1      36.274  43.982  19.122 -0.33 -0.01    +0.060 A  ATOM      5  C   UNL     1      33.958  43.092  17.810 -0.33 -0.01    +0.023 A  ATOM      6  C   UNL     1      34.920  42.171  18.251 -0.41 -0.00    +0.013 A  ATOM      7  C   UNL     1      34.172  44.461  18.000 -0.32 -0.00    +0.013 A  ATOM      8  C   UNL     1      36.072  42.613  18.904 -0.09 -0.00    +0.016 A  ATOM      9  C   UNL     1      35.320  44.904  18.663 -0.36 -0.00    +0.016 A  BRANCH   5  10ATOM     10  C   UNL     1      32.760  42.569  17.112 -0.25 -0.08    +0.196 C  ATOM     11  O   UNL     1      32.437  43.071  16.035 -0.23 +0.15    -0.288 OA BRANCH  10  12ATOM     12  C   UNL     1      31.913  41.472  17.646 -0.30 -0.02    +0.071 A  ATOM     13  C   UNL     1      31.432  39.781  19.337 -0.31 +0.01    +0.122 A  ATOM     14  C   UNL     1      30.320  39.370  18.609 -0.30 +0.01    +0.089 A  ATOM     15  C   UNL     1      32.227  40.832  18.854 -0.34 -0.00    +0.062 A  ATOM     16  C   UNL     1      30.025  39.989  17.395 -0.25 +0.01    +0.169 A  ATOM     17  C   UNL     1      30.817  41.022  16.900 -0.21 -0.05    +0.162 A  ATOM     18  F   UNL     1      28.967  39.553  16.694 -0.09 -0.07    -0.203 F  BRANCH  13  19ATOM     19  O   UNL     1      31.853  39.248  20.525 -0.93 -0.17    -0.497 OA ATOM     20  C   UNL     1      31.904  37.823  20.610 -0.23 +0.07    +0.278 C  ENDBRANCH  13  19BRANCH  17  21ATOM     21  O   UNL     1      30.492  41.555  15.678 -0.16 +0.25    -0.504 OA ATOM     22  H   UNL     1      31.324  41.698  15.181 -0.33 -0.23    +0.293 HD ENDBRANCH  17  21ENDBRANCH  10  12ENDBRANCH   5  10ENDBRANCH   2   4ENDBRANCH   1   2BRANCH   1  23ATOM     23  C   UNL     1      39.526  44.699  18.647 -0.32 -0.01    +0.200 CG0ATOM     24  G   UNL     1      40.448  44.763  19.868 +0.00 +0.00    +0.000 G0 BRANCH  23  25ATOM     25  C   UNL     1      40.029  45.408  17.375 -0.20 -0.01    +0.137 C  BRANCH  25  26ATOM     26  C   UNL     1      40.857  46.691  17.660 -0.49 -0.01    +0.109 C  BRANCH  26  27ATOM     27  N   UNL     1      42.144  46.519  18.328 -0.24 -0.00    -0.315 NA ATOM     28  H   UNL     1      42.828  47.146  17.899 -0.50 -0.02    +0.122 HD BRANCH  27  29ATOM     29  C   UNL     1      42.125  46.732  19.766 -0.45 +0.01    +0.081 C  BRANCH  29  30ATOM     30  C   UNL     1      40.889  46.116  20.406 -0.32 +0.00    +0.019 C  BRANCH  30  31ATOM     31  C   UNL     1      40.454  44.753  19.869 -0.42 +0.00    +0.049 CG0ATOM     32  G   UNL     1      39.535  44.708  18.646 +0.00 +0.00    +0.000 G0 ENDBRANCH  30  31ENDBRANCH  29  30ENDBRANCH  27  29ENDBRANCH  26  27ENDBRANCH  25  26BRANCH  25  33ATOM     33  N   UNL     1      38.867  45.752  16.528 -0.14 +0.08    -0.344 N  ATOM     34  C   UNL     1      39.017  46.129  15.217 -0.28 -0.06    +0.251 C  ATOM     35  H   UNL     1      37.945  45.649  16.933 +0.11 -0.05    +0.164 HD ATOM     36  O   UNL     1      40.099  46.169  14.645 -0.32 +0.03    -0.269 OA BRANCH  34  37ATOM     37  C   UNL     1      37.779  46.472  14.469 -0.40 -0.02    +0.042 A  ATOM     38  C   UNL     1      37.782  47.313  13.358 -0.50 -0.01    +0.034 A  ATOM     39  C   UNL     1      36.587  45.878  14.882 -0.36 -0.02    +0.034 A  ATOM     40  C   UNL     1      36.573  47.532  12.717 -0.57 -0.05    +0.112 A  ATOM     41  C   UNL     1      35.432  46.167  14.176 -0.35 -0.08    +0.112 A  ATOM     42  N   UNL     1      35.397  46.987  13.102 -0.35 +0.18    -0.265 NA ENDBRANCH  34  37ENDBRANCH  25  33ENDBRANCH  23  25ENDBRANCH   1  23TORSDOF 9TERENDMDL