MODEL        7USER    Run = 7USERUSER    Estimated Free Energy of Binding    =  -9.55 kcal/mol  [=(1)+(2)+(3)-(4)]USERUSER    (1) Final Intermolecular Energy     = -11.34 kcal/molUSER        vdW + Hbond + desolv Energy     = -10.99 kcal/molUSER        Electrostatic Energy            =  -0.35 kcal/molUSER        Moving Ligand-Fixed Receptor    = -11.34 kcal/molUSER        Moving Ligand-Moving Receptor   =  +0.00 kcal/molUSER    (2) Final Total Internal Energy     =  -1.10 kcal/molUSER    (3) Torsional Free Energy           =  +1.79 kcal/molUSER    (4) Unbound System's Energy         =  -1.10 kcal/molUSERUSERREMARK SMILES Cc1c(-c2ccc(CO)cc2F)cccc1[C@@H](C(N)=O)c1ccccn1REMARK SMILES IDX 1 1 2 2 3 3 13 4 14 5 15 6 16 7 4 8 5 9 11 10 6 11 10 12REMARK SMILES IDX 7 13 12 14 8 15 9 16 17 18 18 19 19 20 20 21 21 24 22 25REMARK SMILES IDX 26 26 23 27 25 28 24 29REMARK H PARENT 9 17 19 22 19 23USER                              x       y       z     vdW  Elec       q    TypeUSER                           _______ _______ _______ _____ _____    ______ ____ROOTATOM      1  C   UNL     1      35.407  46.932  17.054 -0.08 -0.05    +0.045 C  ATOM      2  C   UNL     1      35.777  45.523  16.652 -0.32 +0.02    -0.039 A  ATOM      3  C   UNL     1      37.056  45.296  16.067 -0.34 +0.00    -0.012 A  ATOM      4  C   UNL     1      37.409  43.998  15.653 -0.08 -0.00    +0.009 A  ATOM      5  C   UNL     1      36.520  42.940  15.778 -0.37 -0.00    +0.001 A  ATOM      6  C   UNL     1      35.262  43.162  16.323 -0.43 -0.00    +0.005 A  ATOM      7  C   UNL     1      34.863  44.441  16.774 -0.29 +0.01    -0.026 A  ENDROOTBRANCH   3   8ATOM      8  C   UNL     1      38.043  46.371  15.864 -0.38 -0.01    +0.018 A  ATOM      9  C   UNL     1      39.160  46.483  16.708 -0.43 -0.00    +0.012 A  ATOM     10  C   UNL     1      37.915  47.297  14.820 -0.36 -0.06    +0.131 A  ATOM     11  C   UNL     1      40.104  47.497  16.517 -0.51 -0.00    +0.007 A  ATOM     12  C   UNL     1      38.853  48.310  14.622 -0.49 -0.02    +0.046 A  ATOM     13  C   UNL     1      39.955  48.425  15.477 -0.55 +0.01    -0.020 A  ATOM     14  F   UNL     1      36.872  47.226  13.979 -0.10 +0.11    -0.206 F  BRANCH  13  15ATOM     15  C   UNL     1      40.988  49.497  15.263 -0.57 -0.04    +0.191 C  BRANCH  15  16ATOM     16  O   UNL     1      41.668  49.784  16.477 -0.93 -0.04    -0.392 OA ATOM     17  H   UNL     1      41.554  50.731  16.666 -0.42 -0.05    +0.211 HD ENDBRANCH  15  16ENDBRANCH  13  15ENDBRANCH   3   8BRANCH   7  18ATOM     18  C   UNL     1      33.435  44.539  17.346 -0.27 -0.07    +0.157 C  BRANCH  18  19ATOM     19  C   UNL     1      33.364  45.080  18.780 -0.30 -0.08    +0.231 C  ATOM     20  N   UNL     1      33.354  46.448  18.901 -0.07 +0.23    -0.369 N  ATOM     21  O   UNL     1      33.367  44.400  19.803 -0.40 +0.05    -0.274 OA ATOM     22  H   UNL     1      33.231  46.819  19.834 -0.49 -0.10    +0.159 HD ATOM     23  H   UNL     1      33.106  47.042  18.119 -0.31 -0.19    +0.159 HD ENDBRANCH  18  19BRANCH  18  24ATOM     24  C   UNL     1      32.432  45.105  16.348 -0.29 -0.03    +0.057 A  ATOM     25  C   UNL     1      32.784  45.546  15.074 -0.29 -0.02    +0.025 A  ATOM     26  N   UNL     1      31.133  45.119  16.766 -0.66 +0.03    -0.260 NA ATOM     27  C   UNL     1      31.793  46.014  14.213 -0.50 -0.00    +0.004 A  ATOM     28  C   UNL     1      30.194  45.576  15.910 -0.28 -0.02    +0.111 A  ATOM     29  C   UNL     1      30.471  46.029  14.635 -0.49 -0.01    +0.020 A  ENDBRANCH  18  24ENDBRANCH   7  18TORSDOF 6TERENDMDL