REMARK SMILES Cc1c(C(=Cc2ccccn2)C(N)=O)cccc1-c1ccc(OCCN2CCNCC2)cc1
REMARK SMILES IDX 19 1 20 2 21 3 22 4 32 5 33 6 18 7 2 8 3 9 15 10 17 11 16 12
REMARK SMILES IDX 1 13 4 14 5 15 6 16 7 17 11 18 8 19 10 20 9 21 12 22 13 23
REMARK SMILES IDX 14 24 23 27 24 28 25 29 26 30 27 31 31 32 28 33 30 34 29 35
REMARK H PARENT 13 25 13 26 29 36
ROOT
ATOM      1  C   UNL     1      -0.006   0.372  -0.568  1.00  0.00    -0.018 A 
ATOM      2  C   UNL     1      -0.798   1.508  -0.365  1.00  0.00     0.012 A 
ATOM      3  C   UNL     1      -2.058   1.397   0.230  1.00  0.00     0.047 A 
ATOM      4  C   UNL     1      -2.556   0.153   0.625  1.00  0.00     0.119 A 
ATOM      5  C   UNL     1      -1.779  -0.984   0.418  1.00  0.00     0.047 A 
ATOM      6  C   UNL     1      -0.514  -0.874  -0.174  1.00  0.00     0.012 A 
ENDROOT
BRANCH   1   7
ATOM      7  C   UNL     1       1.324   0.484  -1.185  1.00  0.00    -0.015 A 
ATOM      8  C   UNL     1       2.519   0.497  -0.420  1.00  0.00    -0.035 A 
ATOM      9  C   UNL     1       3.765   0.577  -1.090  1.00  0.00    -0.009 A 
ATOM     10  C   UNL     1       3.807   0.667  -2.491  1.00  0.00     0.009 A 
ATOM     11  C   UNL     1       1.405   0.579  -2.586  1.00  0.00     0.009 A 
ATOM     12  C   UNL     1       2.633   0.672  -3.234  1.00  0.00     0.001 A 
ATOM     13  C   UNL     1       2.456   0.375   1.086  1.00  0.00     0.045 C 
BRANCH   9  14
ATOM     14  C   UNL     1       5.062   0.575  -0.371  1.00  0.00     0.049 C 
BRANCH  14  15
ATOM     15  C   UNL     1       5.555  -0.638  -0.046  1.00  0.00     0.042 C 
BRANCH  15  16
ATOM     16  C   UNL     1       6.784  -0.999   0.665  1.00  0.00     0.064 A 
ATOM     17  C   UNL     1       7.149  -0.436   1.883  1.00  0.00     0.028 A 
ATOM     18  N   UNL     1       7.470  -2.024   0.104  1.00  0.00    -0.257 NA
ATOM     19  C   UNL     1       8.300  -0.896   2.521  1.00  0.00     0.004 A 
ATOM     20  C   UNL     1       8.585  -2.446   0.741  1.00  0.00     0.111 A 
ATOM     21  C   UNL     1       9.037  -1.918   1.938  1.00  0.00     0.020 A 
ENDBRANCH  15  16
ENDBRANCH  14  15
BRANCH  14  22
ATOM     22  C   UNL     1       5.781   1.867  -0.102  1.00  0.00     0.249 C 
ATOM     23  N   UNL     1       5.032   2.998  -0.230  1.00  0.00    -0.366 N 
ATOM     24  O   UNL     1       6.960   1.955   0.210  1.00  0.00    -0.270 OA
ATOM     25  H   UNL     1       4.065   3.002  -0.520  1.00  0.00     0.159 HD
ATOM     26  H   UNL     1       5.499   3.881  -0.090  1.00  0.00     0.159 HD
ENDBRANCH  14  22
ENDBRANCH   9  14
ENDBRANCH   1   7
BRANCH   4  27
ATOM     27  O   UNL     1      -3.797   0.200   1.191  1.00  0.00    -0.492 OA
BRANCH  27  28
ATOM     28  C   UNL     1      -4.450  -1.018   1.549  1.00  0.00     0.245 C 
BRANCH  28  29
ATOM     29  C   UNL     1      -5.157  -1.698   0.358  1.00  0.00     0.126 C 
BRANCH  29  30
ATOM     30  N   UNL     1      -6.365  -1.077  -0.210  1.00  0.00    -0.297 NA
ATOM     31  C   UNL     1      -7.488  -0.968   0.734  1.00  0.00     0.100 C 
ATOM     32  C   UNL     1      -6.115   0.222  -0.857  1.00  0.00     0.100 C 
ATOM     33  C   UNL     1      -8.768  -0.395   0.067  1.00  0.00     0.096 C 
ATOM     34  C   UNL     1      -7.400   0.851  -1.459  1.00  0.00     0.096 C 
ATOM     35  N   UNL     1      -8.590  -0.016  -1.350  1.00  0.00    -0.314 NA
ATOM     36  H   UNL     1      -8.340  -0.882  -1.834  1.00  0.00     0.122 HD
ENDBRANCH  29  30
ENDBRANCH  28  29
ENDBRANCH  27  28
ENDBRANCH   4  27
TORSDOF 9
