MODEL        8USER    Run = 8USERUSER    Estimated Free Energy of Binding    = -11.68 kcal/mol  [=(1)+(2)+(3)-(4)]USERUSER    (1) Final Intermolecular Energy     = -14.36 kcal/molUSER        vdW + Hbond + desolv Energy     = -14.18 kcal/molUSER        Electrostatic Energy            =  -0.18 kcal/molUSER        Moving Ligand-Fixed Receptor    = -14.36 kcal/molUSER        Moving Ligand-Moving Receptor   =  +0.00 kcal/molUSER    (2) Final Total Internal Energy     =  -2.53 kcal/molUSER    (3) Torsional Free Energy           =  +2.68 kcal/molUSER    (4) Unbound System's Energy         =  -2.53 kcal/molUSERUSERREMARK SMILES Cc1c(C(=Cc2ccccn2)C(N)=O)cccc1-c1ccc(OCCN2CCNCC2)cc1REMARK SMILES IDX 19 1 20 2 21 3 22 4 32 5 33 6 18 7 2 8 3 9 15 10 17 11 16 12REMARK SMILES IDX 1 13 4 14 5 15 6 16 7 17 11 18 8 19 10 20 9 21 12 22 13 23REMARK SMILES IDX 14 24 23 27 24 28 25 29 26 30 27 31 31 32 28 33 30 34 29 35REMARK H PARENT 13 25 13 26 29 36USER                              x       y       z     vdW  Elec       q    TypeUSER                           _______ _______ _______ _____ _____    ______ ____ROOTATOM      1  C   UNL     1      36.631  44.645  18.839 -0.33 +0.00    -0.018 A  ATOM      2  C   UNL     1      35.506  45.467  18.696 -0.21 -0.00    +0.012 A  ATOM      3  C   UNL     1      34.240  45.006  19.067 -0.37 -0.02    +0.047 A  ATOM      4  C   UNL     1      34.068  43.717  19.578 -0.32 -0.01    +0.119 A  ATOM      5  C   UNL     1      35.180  42.890  19.715 -0.40 -0.00    +0.047 A  ATOM      6  C   UNL     1      36.451  43.351  19.348 -0.33 -0.00    +0.012 A  ENDROOTBRANCH   1   7ATOM      7  C   UNL     1      37.967  45.128  18.460 -0.37 +0.00    -0.015 A  ATOM      8  C   UNL     1      38.189  45.924  17.306 -0.36 +0.01    -0.035 A  ATOM      9  C   UNL     1      39.501  46.376  17.023 -0.45 +0.00    -0.009 A  ATOM     10  C   UNL     1      40.567  46.016  17.864 -0.48 -0.00    +0.009 A  ATOM     11  C   UNL     1      39.059  44.785  19.277 -0.38 -0.00    +0.009 A  ATOM     12  C   UNL     1      40.347  45.221  18.983 -0.45 -0.00    +0.001 A  ATOM     13  C   UNL     1      37.026  46.322  16.425 -0.40 -0.03    +0.045 C  BRANCH   9  14ATOM     14  C   UNL     1      39.819  47.229  15.852 -0.53 -0.01    +0.049 C  BRANCH  14  15ATOM     15  C   UNL     1      39.550  46.695  14.643 -0.49 -0.01    +0.042 C  BRANCH  15  16ATOM     16  C   UNL     1      38.343  46.785  13.818 -0.39 -0.02    +0.064 A  ATOM     17  C   UNL     1      37.658  45.669  13.352 -0.38 -0.01    +0.028 A  ATOM     18  N   UNL     1      37.872  48.046  13.657 -0.57 +0.09    -0.257 NA ATOM     19  C   UNL     1      36.476  45.852  12.635 -0.58 -0.00    +0.004 A  ATOM     20  C   UNL     1      36.728  48.195  12.953 -0.44 -0.04    +0.111 A  ATOM     21  C   UNL     1      36.002  47.141  12.426 -0.64 -0.01    +0.020 A  ENDBRANCH  15  16ENDBRANCH  14  15BRANCH  14  22ATOM     22  C   UNL     1      40.345  48.623  16.051 -0.44 -0.06    +0.249 C  ATOM     23  N   UNL     1      39.552  49.626  15.581 -0.10 +0.22    -0.366 N  ATOM     24  O   UNL     1      41.410  48.895  16.587 -1.01 -0.00    -0.270 OA ATOM     25  H   UNL     1      38.680  49.473  15.096 -0.30 -0.13    +0.159 HD ATOM     26  H   UNL     1      39.897  50.570  15.670 -0.35 -0.11    +0.159 HD ENDBRANCH  14  22ENDBRANCH   9  14ENDBRANCH   1   7BRANCH   4  27ATOM     27  O   UNL     1      32.778  43.408  19.897 -0.64 -0.03    -0.492 OA BRANCH  27  28ATOM     28  C   UNL     1      32.027  42.559  19.029 -0.22 -0.01    +0.245 C  BRANCH  28  29ATOM     29  C   UNL     1      31.138  43.340  18.039 -0.23 -0.02    +0.126 C  BRANCH  29  30ATOM     30  N   UNL     1      31.774  44.197  17.025 -0.21 +0.08    -0.297 NA ATOM     31  C   UNL     1      33.039  43.665  16.493 -0.31 -0.04    +0.100 C  ATOM     32  C   UNL     1      30.876  44.575  15.921 -0.33 -0.04    +0.100 C  ATOM     33  C   UNL     1      33.720  44.644  15.499 -0.23 -0.06    +0.096 C  ATOM     34  C   UNL     1      31.565  45.488  14.872 -0.46 -0.06    +0.096 C  ATOM     35  N   UNL     1      32.943  45.873  15.236 -0.06 +0.35    -0.314 NA ATOM     36  H   UNL     1      32.863  46.344  16.141 -0.40 -0.21    +0.122 HD ENDBRANCH  29  30ENDBRANCH  28  29ENDBRANCH  27  28ENDBRANCH   4  27TORSDOF 9TERENDMDL