REMARK SMILES Cc1c(-c2ccc(CO)cc2F)cccc1[C@@H](C(N)=O)c1ccccn1
REMARK SMILES IDX 1 1 2 2 3 3 13 4 14 5 15 6 16 7 4 8 5 9 11 10 6 11 10 12
REMARK SMILES IDX 7 13 12 14 8 15 9 16 17 18 18 19 19 20 20 21 21 24 22 25
REMARK SMILES IDX 26 26 23 27 25 28 24 29
REMARK H PARENT 9 17 19 22 19 23
ROOT
ATOM      1  C   UNL     1      -0.067   0.876  -0.896  1.00  0.00     0.045 C 
ATOM      2  C   UNL     1      -0.340   0.376   0.504  1.00  0.00    -0.039 A 
ATOM      3  C   UNL     1       0.722  -0.243   1.225  1.00  0.00    -0.012 A 
ATOM      4  C   UNL     1       0.482  -0.748   2.516  1.00  0.00     0.009 A 
ATOM      5  C   UNL     1      -0.780  -0.679   3.089  1.00  0.00     0.001 A 
ATOM      6  C   UNL     1      -1.825  -0.101   2.379  1.00  0.00     0.005 A 
ATOM      7  C   UNL     1      -1.635   0.440   1.087  1.00  0.00    -0.026 A 
ENDROOT
BRANCH   3   8
ATOM      8  C   UNL     1       2.081  -0.390   0.675  1.00  0.00     0.018 A 
ATOM      9  C   UNL     1       3.125   0.435   1.123  1.00  0.00     0.012 A 
ATOM     10  C   UNL     1       2.381  -1.361  -0.290  1.00  0.00     0.131 A 
ATOM     11  C   UNL     1       4.419   0.296   0.610  1.00  0.00     0.007 A 
ATOM     12  C   UNL     1       3.669  -1.506  -0.806  1.00  0.00     0.046 A 
ATOM     13  C   UNL     1       4.701  -0.670  -0.365  1.00  0.00    -0.020 A 
ATOM     14  F   UNL     1       1.421  -2.182  -0.743  1.00  0.00    -0.206 F 
BRANCH  13  15
ATOM     15  C   UNL     1       6.100  -0.829  -0.894  1.00  0.00     0.191 C 
BRANCH  15  16
ATOM     16  O   UNL     1       6.918  -1.501   0.053  1.00  0.00    -0.392 OA
ATOM     17  H   UNL     1       6.333  -1.963   0.678  1.00  0.00     0.211 HD
ENDBRANCH  15  16
ENDBRANCH  13  15
ENDBRANCH   3   8
BRANCH   7  18
ATOM     18  C   UNL     1      -2.887   1.040   0.416  1.00  0.00     0.157 C 
BRANCH  18  19
ATOM     19  C   UNL     1      -2.742   2.511   0.008  1.00  0.00     0.231 C 
ATOM     20  N   UNL     1      -2.209   3.344   0.961  1.00  0.00    -0.369 N 
ATOM     21  O   UNL     1      -3.104   2.998  -1.060  1.00  0.00    -0.274 OA
ATOM     22  H   UNL     1      -2.037   4.301   0.682  1.00  0.00     0.159 HD
ATOM     23  H   UNL     1      -1.678   2.977   1.742  1.00  0.00     0.159 HD
ENDBRANCH  18  19
BRANCH  18  24
ATOM     24  C   UNL     1      -3.521   0.103  -0.605  1.00  0.00     0.057 A 
ATOM     25  C   UNL     1      -3.252   0.163  -1.971  1.00  0.00     0.025 A 
ATOM     26  N   UNL     1      -4.355  -0.847  -0.090  1.00  0.00    -0.260 NA
ATOM     27  C   UNL     1      -3.850  -0.760  -2.828  1.00  0.00     0.004 A 
ATOM     28  C   UNL     1      -4.918  -1.729  -0.944  1.00  0.00     0.111 A 
ATOM     29  C   UNL     1      -4.698  -1.727  -2.308  1.00  0.00     0.020 A 
ENDBRANCH  18  24
ENDBRANCH   7  18
TORSDOF 6
