MODEL        5USER    Run = 5USERUSER    Estimated Free Energy of Binding    = -10.99 kcal/mol  [=(1)+(2)+(3)-(4)]USERUSER    (1) Final Intermolecular Energy     = -13.68 kcal/molUSER        vdW + Hbond + desolv Energy     = -13.39 kcal/molUSER        Electrostatic Energy            =  -0.29 kcal/molUSER        Moving Ligand-Fixed Receptor    = -13.68 kcal/molUSER        Moving Ligand-Moving Receptor   =  +0.00 kcal/molUSER    (2) Final Total Internal Energy     =  -2.37 kcal/molUSER    (3) Torsional Free Energy           =  +2.68 kcal/molUSER    (4) Unbound System's Energy         =  -2.37 kcal/molUSERUSERREMARK SMILES COc1ccc(O)c(C(=O)c2ccc(CN3CC[C@H](n4c(O)nc5ncccc54)C[C@H]3C)cc2)c1N1CCN(C)CC1REMARK SMILES IDX 11 1 12 2 13 3 14 4 33 5 34 6 9 7 10 8 8 9 3 10 4 11 35 12REMARK SMILES IDX 5 13 6 14 2 15 1 16 36 17 37 18 42 19 38 20 41 21 39 22REMARK SMILES IDX 40 23 7 24 15 26 16 27 17 28 31 29 18 30 30 31 19 32 32 33REMARK SMILES IDX 20 34 21 35 29 36 23 37 28 38 24 39 27 40 25 41 26 42 22 43REMARK H PARENT 7 25 22 44USER                              x       y       z     vdW  Elec       q    TypeUSER                           _______ _______ _______ _____ _____    ______ ____ROOTATOM      1  C   UNL     1      33.907  43.995  16.978 -0.29 -0.01    +0.023 A  ATOM      2  C   UNL     1      35.170  43.573  17.408 -0.32 -0.00    +0.012 A  ATOM      3  C   UNL     1      36.298  43.838  16.630 -0.36 -0.00    +0.006 A  ATOM      4  C   UNL     1      36.180  44.513  15.406 -0.35 +0.01    -0.034 A  ATOM      5  C   UNL     1      34.908  44.911  14.969 -0.14 -0.00    +0.006 A  ATOM      6  C   UNL     1      33.779  44.648  15.748 -0.31 -0.01    +0.012 A  ENDROOTBRANCH   1   7ATOM      7  C   UNL     1      32.679  43.729  17.771 -0.23 -0.05    +0.198 C  ATOM      8  O   UNL     1      32.604  44.121  18.935 -0.27 +0.04    -0.288 OA BRANCH   7   9ATOM      9  C   UNL     1      31.479  43.087  17.183 -0.24 -0.03    +0.091 A  ATOM     10  C   UNL     1      30.120  41.193  16.587 -0.27 -0.04    +0.143 A  ATOM     11  C   UNL     1      29.301  42.030  15.812 -0.27 -0.02    +0.052 A  ATOM     12  C   UNL     1      31.244  41.692  17.287 -0.25 -0.03    +0.095 A  ATOM     13  C   UNL     1      29.529  43.400  15.773 -0.24 -0.03    +0.051 A  ATOM     14  C   UNL     1      30.603  43.927  16.473 -0.21 -0.04    +0.129 A  BRANCH  10  15ATOM     15  O   UNL     1      29.833  39.848  16.638 -0.15 -0.04    -0.495 OA ATOM     16  C   UNL     1      28.879  39.540  17.656 -0.19 +0.07    +0.278 C  ENDBRANCH  10  15BRANCH  12  17ATOM     17  N   UNL     1      32.070  40.893  18.075 -0.16 +0.07    -0.365 N  ATOM     18  C   UNL     1      32.628  39.617  17.598 -0.31 -0.04    +0.132 C  ATOM     19  C   UNL     1      31.969  41.025  19.540 -0.18 +0.01    +0.132 C  ATOM     20  C   UNL     1      32.049  38.388  18.337 -0.48 +0.01    +0.105 C  ATOM     21  C   UNL     1      31.319  39.773  20.170 -0.29 +0.02    +0.105 C  ATOM     22  N   UNL     1      32.036  38.530  19.812 -0.51 -0.08    -0.303 NA ATOM     23  C   UNL     1      31.401  37.368  20.432 -0.51 +0.02    +0.105 C  ENDBRANCH  12  17BRANCH  14  24ATOM     24  O   UNL     1      30.756  45.287  16.424 -0.57 +0.07    -0.507 OA ATOM     25  H   UNL     1      31.682  45.492  16.684 +0.20 -0.07    +0.293 HD ENDBRANCH  14  24ENDBRANCH   7   9ENDBRANCH   1   7BRANCH   4  26ATOM     26  C   UNL     1      37.413  44.812  14.579 -0.27 -0.04    +0.120 C  BRANCH  26  27ATOM     27  N   UNL     1      37.704  46.255  14.470 -0.18 +0.11    -0.296 NA ATOM     28  C   UNL     1      39.127  46.540  14.224 -0.40 -0.02    +0.087 C  ATOM     29  C   UNL     1      37.165  47.007  15.620 -0.44 -0.04    +0.056 C  ATOM     30  C   UNL     1      40.022  46.315  15.441 -0.47 -0.01    +0.041 C  ATOM     31  C   UNL     1      38.005  46.837  16.896 -0.34 -0.02    +0.044 C  ATOM     32  C   UNL     1      39.499  47.097  16.650 -0.47 -0.03    +0.095 C  ATOM     33  C   UNL     1      36.976  48.487  15.254 -0.44 -0.02    +0.024 C  BRANCH  32  34ATOM     34  N   UNL     1      40.311  46.879  17.840 -0.29 +0.04    -0.289 N  ATOM     35  C   UNL     1      41.475  47.542  18.125 -0.26 -0.02    +0.296 A  ATOM     36  C   UNL     1      40.095  46.000  18.878 -0.38 -0.00    +0.091 A  ATOM     37  N   UNL     1      42.024  47.176  19.250 -0.39 -0.01    -0.175 NA ATOM     38  C   UNL     1      39.115  45.054  19.186 -0.38 -0.00    +0.032 A  ATOM     39  C   UNL     1      41.176  46.220  19.735 -0.28 +0.01    +0.181 A  ATOM     40  C   UNL     1      39.290  44.370  20.388 -0.31 +0.00    +0.022 A  ATOM     41  N   UNL     1      41.352  45.560  20.900 -0.20 -0.03    -0.235 NA ATOM     42  C   UNL     1      40.393  44.656  21.183 -0.25 +0.01    +0.114 A  BRANCH  35  43ATOM     43  O   UNL     1      42.021  48.462  17.357 -0.47 -0.05    -0.480 OA ATOM     44  H   UNL     1      42.872  48.043  17.129 -0.27 -0.00    +0.296 HD ENDBRANCH  35  43ENDBRANCH  32  34ENDBRANCH  26  27ENDBRANCH   4  26TORSDOF 9TERENDMDL