REMARK SMILES COc1ccc(O)c(C(=O)c2ccc(CN3CC[C@H](n4c(O)nc5ncccc54)C[C@H]3C)cc2)c1N1CCN(C)CC1
REMARK SMILES IDX 11 1 12 2 13 3 14 4 33 5 34 6 9 7 10 8 8 9 3 10 4 11 35 12
REMARK SMILES IDX 5 13 6 14 2 15 1 16 36 17 37 18 42 19 38 20 41 21 39 22
REMARK SMILES IDX 40 23 7 24 15 26 16 27 17 28 31 29 18 30 30 31 19 32 32 33
REMARK SMILES IDX 20 34 21 35 29 36 23 37 28 38 24 39 27 40 25 41 26 42 22 43
REMARK H PARENT 7 25 22 44
ROOT
ATOM      1  C   UNL     1      -1.380   2.681  -0.112  1.00  0.00     0.023 A 
ATOM      2  C   UNL     1      -1.098   2.211  -1.399  1.00  0.00     0.012 A 
ATOM      3  C   UNL     1       0.168   1.702  -1.695  1.00  0.00     0.006 A 
ATOM      4  C   UNL     1       1.173   1.670  -0.717  1.00  0.00    -0.034 A 
ATOM      5  C   UNL     1       0.891   2.167   0.564  1.00  0.00     0.006 A 
ATOM      6  C   UNL     1      -0.376   2.674   0.862  1.00  0.00     0.012 A 
ENDROOT
BRANCH   1   7
ATOM      7  C   UNL     1      -2.711   3.237   0.246  1.00  0.00     0.198 C 
ATOM      8  O   UNL     1      -2.799   4.104   1.116  1.00  0.00    -0.288 OA
BRANCH   7   9
ATOM      9  C   UNL     1      -3.949   2.860  -0.477  1.00  0.00     0.091 A 
ATOM     10  C   UNL     1      -5.450   1.288  -1.507  1.00  0.00     0.143 A 
ATOM     11  C   UNL     1      -6.181   2.353  -2.058  1.00  0.00     0.052 A 
ATOM     12  C   UNL     1      -4.302   1.506  -0.710  1.00  0.00     0.095 A 
ATOM     13  C   UNL     1      -5.838   3.668  -1.768  1.00  0.00     0.051 A 
ATOM     14  C   UNL     1      -4.737   3.918  -0.964  1.00  0.00     0.129 A 
BRANCH  10  15
ATOM     15  O   UNL     1      -5.851   0.000  -1.780  1.00  0.00    -0.495 OA
ATOM     16  C   UNL     1      -7.182  -0.256  -1.328  1.00  0.00     0.278 C 
ENDBRANCH  10  15
BRANCH  12  17
ATOM     17  N   UNL     1      -3.562   0.474  -0.137  1.00  0.00    -0.365 N 
ATOM     18  C   UNL     1      -3.180  -0.736  -0.883  1.00  0.00     0.132 C 
ATOM     19  C   UNL     1      -3.607   0.319   1.328  1.00  0.00     0.132 C 
ATOM     20  C   UNL     1      -3.889  -2.012  -0.372  1.00  0.00     0.105 C 
ATOM     21  C   UNL     1      -4.391  -0.949   1.732  1.00  0.00     0.105 C 
ATOM     22  N   UNL     1      -3.845  -2.170   1.101  1.00  0.00    -0.303 NA
ATOM     23  C   UNL     1      -4.603  -3.350   1.512  1.00  0.00     0.105 C 
ENDBRANCH  12  17
BRANCH  14  24
ATOM     24  O   UNL     1      -4.469   5.232  -0.686  1.00  0.00    -0.507 OA
ATOM     25  H   UNL     1      -3.852   5.254   0.079  1.00  0.00     0.293 HD
ENDBRANCH  14  24
ENDBRANCH   7   9
ENDBRANCH   1   7
BRANCH   4  26
ATOM     26  C   UNL     1       2.537   1.099  -1.044  1.00  0.00     0.120 C 
BRANCH  26  27
ATOM     27  N   UNL     1       2.505  -0.345  -1.347  1.00  0.00    -0.296 NA
ATOM     28  C   UNL     1       2.113  -1.169  -0.192  1.00  0.00     0.087 C 
ATOM     29  C   UNL     1       3.766  -0.799  -1.966  1.00  0.00     0.056 C 
ATOM     30  C   UNL     1       3.193  -1.282   0.882  1.00  0.00     0.041 C 
ATOM     31  C   UNL     1       4.915  -0.940  -0.954  1.00  0.00     0.044 C 
ATOM     32  C   UNL     1       4.512  -1.768   0.275  1.00  0.00     0.095 C 
ATOM     33  C   UNL     1       3.541  -2.096  -2.757  1.00  0.00     0.024 C 
BRANCH  32  34
ATOM     34  N   UNL     1       5.576  -1.856   1.267  1.00  0.00    -0.289 N 
ATOM     35  C   UNL     1       6.173  -3.020   1.673  1.00  0.00     0.296 A 
ATOM     36  C   UNL     1       6.174  -0.839   1.977  1.00  0.00     0.091 A 
ATOM     37  N   UNL     1       7.101  -2.846   2.572  1.00  0.00    -0.175 NA
ATOM     38  C   UNL     1       6.024   0.548   2.036  1.00  0.00     0.032 A 
ATOM     39  C   UNL     1       7.119  -1.494   2.770  1.00  0.00     0.181 A 
ATOM     40  C   UNL     1       6.875   1.212   2.918  1.00  0.00     0.022 A 
ATOM     41  N   UNL     1       7.946  -0.857   3.628  1.00  0.00    -0.235 NA
ATOM     42  C   UNL     1       7.791   0.482   3.666  1.00  0.00     0.114 A 
BRANCH  35  43
ATOM     43  O   UNL     1       5.860  -4.219   1.225  1.00  0.00    -0.480 OA
ATOM     44  H   UNL     1       6.468  -4.782   1.740  1.00  0.00     0.296 HD
ENDBRANCH  35  43
ENDBRANCH  32  34
ENDBRANCH  26  27
ENDBRANCH   4  26
TORSDOF 9
