REMARK SMILES COc1ccc(O)c(C(=O)c2ccc(Nc3nc4c(s3)CCC[C@@H]4C(=O)N3CCN(C)CC3)cc2F)c1
REMARK SMILES IDX 11 1 12 2 13 3 14 4 34 5 35 6 36 7 9 8 10 9 8 10 3 11 4 12
REMARK SMILES IDX 37 13 5 14 6 15 2 16 1 17 7 18 15 20 16 22 17 23 20 24 18 25
REMARK SMILES IDX 19 26 24 27 21 28 23 29 22 30 25 31 27 32 28 33 33 34 29 35
REMARK SMILES IDX 32 36 30 37 26 38 31 39
REMARK H PARENT 7 19 15 21
ROOT
ATOM      1  C   UNL     1      -4.751  -1.192   0.629  1.00  0.00     0.059 A 
ATOM      2  C   UNL     1      -3.814  -1.765  -0.233  1.00  0.00     0.017 A 
ATOM      3  C   UNL     1      -2.512  -1.251  -0.296  1.00  0.00     0.027 A 
ATOM      4  C   UNL     1      -2.117  -0.174   0.509  1.00  0.00     0.043 A 
ATOM      5  C   UNL     1      -3.063   0.370   1.390  1.00  0.00     0.066 A 
ATOM      6  C   UNL     1      -4.360  -0.139   1.451  1.00  0.00     0.136 A 
ATOM      7  F   UNL     1      -5.216   0.407   2.326  1.00  0.00    -0.206 F 
ENDROOT
BRANCH   1   8
ATOM      8  C   UNL     1      -6.111  -1.762   0.688  1.00  0.00     0.199 C 
ATOM      9  O   UNL     1      -6.231  -2.987   0.692  1.00  0.00    -0.288 OA
BRANCH   8  10
ATOM     10  C   UNL     1      -7.336  -0.921   0.746  1.00  0.00     0.068 A 
ATOM     11  C   UNL     1      -8.512   1.160   0.310  1.00  0.00     0.119 A 
ATOM     12  C   UNL     1      -9.665   0.616   0.880  1.00  0.00     0.050 A 
ATOM     13  C   UNL     1      -7.351   0.386   0.230  1.00  0.00     0.062 A 
ATOM     14  C   UNL     1      -9.670  -0.691   1.365  1.00  0.00     0.051 A 
ATOM     15  C   UNL     1      -8.514  -1.460   1.283  1.00  0.00     0.127 A 
BRANCH  11  16
ATOM     16  O   UNL     1      -8.652   2.441  -0.148  1.00  0.00    -0.497 OA
ATOM     17  C   UNL     1      -7.462   3.125  -0.525  1.00  0.00     0.278 C 
ENDBRANCH  11  16
BRANCH  15  18
ATOM     18  O   UNL     1      -8.609  -2.752   1.732  1.00  0.00    -0.507 OA
ATOM     19  H   UNL     1      -7.783  -3.220   1.472  1.00  0.00     0.293 HD
ENDBRANCH  15  18
ENDBRANCH   8  10
ENDBRANCH   1   8
BRANCH   4  20
ATOM     20  N   UNL     1      -0.840   0.417   0.469  1.00  0.00    -0.331 N 
ATOM     21  H   UNL     1      -0.463   0.592   1.395  1.00  0.00     0.169 HD
BRANCH  20  22
ATOM     22  C   UNL     1       0.120   0.344  -0.486  1.00  0.00     0.187 A 
ATOM     23  N   UNL     1       1.397   0.434  -0.168  1.00  0.00    -0.224 NA
ATOM     24  S   UNL     1      -0.178   0.286  -2.193  1.00  0.00    -0.102 S 
ATOM     25  C   UNL     1       2.187   0.309  -1.295  1.00  0.00     0.069 A 
ATOM     26  C   UNL     1       1.493   0.275  -2.484  1.00  0.00     0.031 A 
ATOM     27  C   UNL     1       3.689   0.345  -1.214  1.00  0.00     0.129 C 
ATOM     28  C   UNL     1       2.111   0.239  -3.837  1.00  0.00     0.049 C 
ATOM     29  C   UNL     1       4.340   0.138  -2.605  1.00  0.00     0.020 C 
ATOM     30  C   UNL     1       3.546   0.786  -3.753  1.00  0.00     0.007 C 
BRANCH  27  31
ATOM     31  C   UNL     1       4.223  -0.741  -0.273  1.00  0.00     0.231 C 
ATOM     32  N   UNL     1       5.362  -0.465   0.476  1.00  0.00    -0.340 N 
ATOM     33  C   UNL     1       6.089   0.803   0.514  1.00  0.00     0.135 C 
ATOM     34  C   UNL     1       5.788  -1.481   1.444  1.00  0.00     0.135 C 
ATOM     35  C   UNL     1       7.608   0.643   0.762  1.00  0.00     0.105 C 
ATOM     36  C   UNL     1       6.864  -0.985   2.424  1.00  0.00     0.105 C 
ATOM     37  N   UNL     1       8.011  -0.417   1.703  1.00  0.00    -0.303 NA
ATOM     38  O   UNL     1       3.698  -1.859  -0.227  1.00  0.00    -0.274 OA
ATOM     39  C   UNL     1       9.064   0.022   2.610  1.00  0.00     0.105 C 
ENDBRANCH  27  31
ENDBRANCH  20  22
ENDBRANCH   4  20
TORSDOF 7
