REMARK SMILES Cn1ccc(C(=O)Nc2cnc(-c3ccc(CN4CCC(n5c(O)nc6ccccc65)CC4)cc3)c(F)c2)n1
REMARK SMILES IDX 13 1 14 2 15 3 16 4 34 5 35 6 12 7 9 8 10 9 38 10 11 11
REMARK SMILES IDX 36 12 37 13 8 14 6 15 7 16 5 18 2 19 3 20 39 21 4 22 1 23
REMARK SMILES IDX 17 24 18 25 19 26 33 27 20 28 32 29 21 30 22 31 23 32 31 33
REMARK SMILES IDX 25 34 30 35 26 36 29 37 27 38 28 39 24 40
REMARK H PARENT 8 17 24 41
ROOT
ATOM      1  C   UNL     1       1.817  -1.473   0.654  1.00  0.00     0.003 A 
ATOM      2  C   UNL     1       1.041  -0.773   1.598  1.00  0.00     0.011 A 
ATOM      3  C   UNL     1      -0.308  -1.074   1.812  1.00  0.00     0.006 A 
ATOM      4  C   UNL     1      -0.934  -2.091   1.083  1.00  0.00    -0.034 A 
ATOM      5  C   UNL     1      -0.184  -2.791   0.132  1.00  0.00     0.006 A 
ATOM      6  C   UNL     1       1.166  -2.481  -0.080  1.00  0.00     0.011 A 
ENDROOT
BRANCH   1   7
ATOM      7  C   UNL     1       3.245  -1.137   0.456  1.00  0.00     0.106 A 
ATOM      8  C   UNL     1       5.899  -0.330   0.151  1.00  0.00     0.063 A 
ATOM      9  C   UNL     1       4.887   0.525   0.575  1.00  0.00     0.138 A 
ATOM     10  C   UNL     1       5.536  -1.647  -0.123  1.00  0.00     0.069 A 
ATOM     11  N   UNL     1       3.588   0.151   0.733  1.00  0.00    -0.251 NA
ATOM     12  C   UNL     1       4.210  -2.049   0.031  1.00  0.00     0.151 A 
ATOM     13  F   UNL     1       3.913  -3.334  -0.220  1.00  0.00    -0.205 F 
BRANCH   8  14
ATOM     14  N   UNL     1       7.257   0.021  -0.014  1.00  0.00    -0.319 N 
ATOM     15  C   UNL     1       7.826   1.274   0.185  1.00  0.00     0.276 C 
ATOM     16  O   UNL     1       7.186   2.269   0.511  1.00  0.00    -0.267 OA
ATOM     17  H   UNL     1       7.868  -0.713  -0.340  1.00  0.00     0.170 HD
BRANCH  15  18
ATOM     18  C   UNL     1       9.293   1.319  -0.043  1.00  0.00     0.150 A 
ATOM     19  N   UNL     1      11.236   2.167  -0.301  1.00  0.00    -0.275 N 
ATOM     20  C   UNL     1      11.447   0.826  -0.396  1.00  0.00     0.109 A 
ATOM     21  N   UNL     1       9.953   2.493  -0.091  1.00  0.00    -0.168 NA
ATOM     22  C   UNL     1      10.213   0.242  -0.230  1.00  0.00     0.056 A 
ATOM     23  C   UNL     1      12.225   3.213  -0.397  1.00  0.00     0.173 C 
ENDBRANCH  15  18
ENDBRANCH   8  14
ENDBRANCH   1   7
BRANCH   4  24
ATOM     24  C   UNL     1      -2.389  -2.428   1.327  1.00  0.00     0.120 C 
BRANCH  24  25
ATOM     25  N   UNL     1      -3.308  -1.312   1.031  1.00  0.00    -0.299 NA
ATOM     26  C   UNL     1      -3.362  -1.026  -0.412  1.00  0.00     0.087 C 
ATOM     27  C   UNL     1      -4.642  -1.603   1.574  1.00  0.00     0.087 C 
ATOM     28  C   UNL     1      -4.281   0.159  -0.711  1.00  0.00     0.041 C 
ATOM     29  C   UNL     1      -5.601  -0.435   1.349  1.00  0.00     0.041 C 
ATOM     30  C   UNL     1      -5.680  -0.091  -0.140  1.00  0.00     0.095 C 
BRANCH  30  31
ATOM     31  N   UNL     1      -6.614   0.989  -0.422  1.00  0.00    -0.291 N 
ATOM     32  C   UNL     1      -6.517   2.288  -0.005  1.00  0.00     0.295 A 
ATOM     33  C   UNL     1      -7.780   0.891  -1.155  1.00  0.00     0.072 A 
ATOM     34  N   UNL     1      -7.509   3.035  -0.404  1.00  0.00    -0.195 NA
ATOM     35  C   UNL     1      -8.416  -0.163  -1.826  1.00  0.00     0.029 A 
ATOM     36  C   UNL     1      -8.311   2.183  -1.122  1.00  0.00     0.092 A 
ATOM     37  C   UNL     1      -9.623   0.125  -2.475  1.00  0.00     0.002 A 
ATOM     38  C   UNL     1      -9.522   2.449  -1.780  1.00  0.00     0.031 A 
ATOM     39  C   UNL     1     -10.169   1.408  -2.455  1.00  0.00     0.002 A 
BRANCH  32  40
ATOM     40  O   UNL     1      -5.537   2.773   0.728  1.00  0.00    -0.480 OA
ATOM     41  H   UNL     1      -5.800   3.708   0.807  1.00  0.00     0.296 HD
ENDBRANCH  32  40
ENDBRANCH  30  31
ENDBRANCH  24  25
ENDBRANCH   4  24
TORSDOF 7
