REMARK SMILES CNC(=O)c1ccc(Nc2nc3c(s2)CCC[C@H]3C(=O)N2CCOCC2)cc1C(F)(F)F
REMARK SMILES IDX 9 1 8 3 5 4 6 5 28 6 7 7 27 8 3 9 2 10 1 11 4 13 29 14 30 15
REMARK SMILES IDX 31 16 32 17 10 18 11 19 14 20 12 21 13 22 18 23 15 24 17 25
REMARK SMILES IDX 16 26 19 27 21 28 22 29 26 30 23 31 25 32 24 33 20 34
REMARK H PARENT 9 2 2 12
ROOT
ATOM      1  N   UNL     1       1.806  -1.372   1.671  1.00  0.00    -0.332 N 
ATOM      2  H   UNL     1       2.502  -1.710   2.324  1.00  0.00     0.169 HD
ENDROOT
BRANCH   1   3
ATOM      3  C   UNL     1       2.282  -0.435   0.736  1.00  0.00     0.041 A 
ATOM      4  C   UNL     1       3.377   1.429  -1.104  1.00  0.00     0.052 A 
ATOM      5  C   UNL     1       2.007   1.138  -1.108  1.00  0.00     0.016 A 
ATOM      6  C   UNL     1       4.217   0.806  -0.170  1.00  0.00     0.070 A 
ATOM      7  C   UNL     1       1.475   0.215  -0.203  1.00  0.00     0.027 A 
ATOM      8  C   UNL     1       3.656  -0.135   0.724  1.00  0.00     0.040 A 
BRANCH   4   9
ATOM      9  C   UNL     1       3.840   2.435  -2.090  1.00  0.00     0.251 C 
ATOM     10  N   UNL     1       4.960   2.109  -2.815  1.00  0.00    -0.355 N 
ATOM     11  C   UNL     1       5.442   2.979  -3.860  1.00  0.00     0.143 C 
ATOM     12  H   UNL     1       5.344   1.171  -2.778  1.00  0.00     0.163 HD
ATOM     13  O   UNL     1       3.191   3.461  -2.248  1.00  0.00    -0.269 OA
ENDBRANCH   4   9
BRANCH   6  14
ATOM     14  C   UNL     1       5.683   1.129  -0.080  1.00  0.00     0.417 C 
ATOM     15  F   UNL     1       6.272   0.620   1.043  1.00  0.00    -0.166 F 
ATOM     16  F   UNL     1       6.388   0.602  -1.123  1.00  0.00    -0.166 F 
ATOM     17  F   UNL     1       5.955   2.461  -0.058  1.00  0.00    -0.166 F 
ENDBRANCH   6  14
ENDBRANCH   1   3
BRANCH   1  18
ATOM     18  C   UNL     1       0.527  -1.707   1.965  1.00  0.00     0.187 A 
ATOM     19  N   UNL     1      -0.564  -1.351   1.322  1.00  0.00    -0.224 NA
ATOM     20  S   UNL     1       0.230  -2.728   3.340  1.00  0.00    -0.102 S 
ATOM     21  C   UNL     1      -1.692  -1.826   1.959  1.00  0.00     0.069 A 
ATOM     22  C   UNL     1      -1.441  -2.626   3.054  1.00  0.00     0.031 A 
ATOM     23  C   UNL     1      -3.074  -1.559   1.428  1.00  0.00     0.129 C 
ATOM     24  C   UNL     1      -2.479  -3.295   3.887  1.00  0.00     0.049 C 
ATOM     25  C   UNL     1      -4.152  -2.030   2.442  1.00  0.00     0.020 C 
ATOM     26  C   UNL     1      -3.797  -3.378   3.095  1.00  0.00     0.007 C 
BRANCH  23  27
ATOM     27  C   UNL     1      -3.261  -0.065   1.128  1.00  0.00     0.231 C 
ATOM     28  N   UNL     1      -3.087   0.369  -0.175  1.00  0.00    -0.337 N 
ATOM     29  C   UNL     1      -3.307   1.778  -0.499  1.00  0.00     0.148 C 
ATOM     30  C   UNL     1      -2.635  -0.466  -1.294  1.00  0.00     0.148 C 
ATOM     31  C   UNL     1      -3.938   1.924  -1.889  1.00  0.00     0.181 C 
ATOM     32  C   UNL     1      -2.195   0.374  -2.495  1.00  0.00     0.181 C 
ATOM     33  O   UNL     1      -3.222   1.263  -2.948  1.00  0.00    -0.378 OA
ATOM     34  O   UNL     1      -3.575   0.726   2.023  1.00  0.00    -0.274 OA
ENDBRANCH  23  27
ENDBRANCH   1  18
TORSDOF 5
