REMARK SMILES CNC(=O)c1ccc(Nc2nc3c(s2)CCC[C@@H]3C(=O)N2CCN(C)CC2)cc1N
REMARK SMILES IDX 9 1 8 3 5 4 6 5 29 6 7 7 28 8 3 9 2 10 1 11 4 13 30 14 10 17
REMARK SMILES IDX 11 18 14 19 12 20 13 21 18 22 15 23 17 24 16 25 19 26 21 27
REMARK SMILES IDX 22 28 27 29 23 30 26 31 24 32 20 33 25 34
REMARK H PARENT 9 2 2 12 30 15 30 16
ROOT
ATOM      1  N   UNL     1       2.090  -0.896  -1.238  1.00  0.00    -0.331 N 
ATOM      2  H   UNL     1       1.666  -1.798  -1.429  1.00  0.00     0.169 HD
ENDROOT
BRANCH   1   3
ATOM      3  C   UNL     1       3.364  -1.041  -0.652  1.00  0.00     0.042 A 
ATOM      4  C   UNL     1       5.990  -1.377   0.355  1.00  0.00     0.062 A 
ATOM      5  C   UNL     1       5.094  -0.489   0.969  1.00  0.00     0.018 A 
ATOM      6  C   UNL     1       5.550  -2.163  -0.728  1.00  0.00     0.046 A 
ATOM      7  C   UNL     1       3.797  -0.326   0.468  1.00  0.00     0.027 A 
ATOM      8  C   UNL     1       4.262  -1.945  -1.243  1.00  0.00     0.052 A 
BRANCH   4   9
ATOM      9  C   UNL     1       7.387  -1.511   0.869  1.00  0.00     0.253 C 
ATOM     10  N   UNL     1       7.929  -0.396   1.480  1.00  0.00    -0.355 N 
ATOM     11  C   UNL     1       9.309  -0.391   1.898  1.00  0.00     0.143 C 
ATOM     12  H   UNL     1       7.476   0.498   1.349  1.00  0.00     0.163 HD
ATOM     13  O   UNL     1       8.016  -2.552   0.702  1.00  0.00    -0.269 OA
ENDBRANCH   4   9
BRANCH   6  14
ATOM     14  N   UNL     1       6.404  -3.028  -1.454  1.00  0.00    -0.398 N 
ATOM     15  H   UNL     1       6.787  -2.558  -2.271  1.00  0.00     0.156 HD
ATOM     16  H   UNL     1       7.193  -3.311  -0.854  1.00  0.00     0.156 HD
ENDBRANCH   6  14
ENDBRANCH   1   3
BRANCH   1  17
ATOM     17  C   UNL     1       1.183   0.096  -1.072  1.00  0.00     0.187 A 
ATOM     18  N   UNL     1      -0.112  -0.154  -1.079  1.00  0.00    -0.224 NA
ATOM     19  S   UNL     1       1.578   1.784  -0.995  1.00  0.00    -0.102 S 
ATOM     20  C   UNL     1      -0.828   1.014  -0.909  1.00  0.00     0.069 A 
ATOM     21  C   UNL     1      -0.072   2.165  -0.877  1.00  0.00     0.031 A 
ATOM     22  C   UNL     1      -2.325   1.013  -0.836  1.00  0.00     0.129 C 
ATOM     23  C   UNL     1      -0.606   3.554  -0.807  1.00  0.00     0.049 C 
ATOM     24  C   UNL     1      -2.885   2.423  -1.147  1.00  0.00     0.020 C 
ATOM     25  C   UNL     1      -2.099   3.543  -0.435  1.00  0.00     0.007 C 
BRANCH  22  26
ATOM     26  C   UNL     1      -2.814   0.570   0.551  1.00  0.00     0.231 C 
ATOM     27  N   UNL     1      -4.026  -0.111   0.625  1.00  0.00    -0.340 N 
ATOM     28  C   UNL     1      -4.777  -0.627  -0.524  1.00  0.00     0.135 C 
ATOM     29  C   UNL     1      -4.607  -0.395   1.942  1.00  0.00     0.135 C 
ATOM     30  C   UNL     1      -5.891  -1.614  -0.125  1.00  0.00     0.105 C 
ATOM     31  C   UNL     1      -6.139  -0.252   1.902  1.00  0.00     0.105 C 
ATOM     32  N   UNL     1      -6.805  -1.146   0.930  1.00  0.00    -0.303 NA
ATOM     33  O   UNL     1      -2.203   0.887   1.576  1.00  0.00    -0.274 OA
ATOM     34  C   UNL     1      -8.005  -0.519   0.382  1.00  0.00     0.105 C 
ENDBRANCH  22  26
ENDBRANCH   1  17
TORSDOF 5
