MODEL        2USER    Run = 2USERUSER    Estimated Free Energy of Binding    = -11.46 kcal/mol  [=(1)+(2)+(3)-(4)]USERUSER    (1) Final Intermolecular Energy     = -13.55 kcal/molUSER        vdW + Hbond + desolv Energy     = -13.34 kcal/molUSER        Electrostatic Energy            =  -0.21 kcal/molUSER        Moving Ligand-Fixed Receptor    = -13.55 kcal/molUSER        Moving Ligand-Moving Receptor   =  +0.00 kcal/molUSER    (2) Final Total Internal Energy     =  -1.62 kcal/molUSER    (3) Torsional Free Energy           =  +2.09 kcal/molUSER    (4) Unbound System's Energy         =  -1.62 kcal/molUSERUSERREMARK SMILES Cn1ccc(C(=O)Nc2cnc(-c3ccc(CN4CCC(n5c(O)nc6ccccc65)CC4)cc3)c(F)c2)n1REMARK SMILES IDX 13 1 14 2 15 3 16 4 34 5 35 6 12 7 9 8 10 9 38 10 11 11REMARK SMILES IDX 36 12 37 13 8 14 6 15 7 16 5 18 2 19 3 20 39 21 4 22 1 23REMARK SMILES IDX 17 24 18 25 19 26 33 27 20 28 32 29 21 30 22 31 23 32 31 33REMARK SMILES IDX 25 34 30 35 26 36 29 37 27 38 28 39 24 40REMARK H PARENT 8 17 24 41USER                              x       y       z     vdW  Elec       q    TypeUSER                           _______ _______ _______ _____ _____    ______ ____ROOTATOM      1  C   UNL     1      39.591  46.225  24.277 -0.22 +0.00    +0.003 A  ATOM      2  C   UNL     1      39.686  44.990  23.606 -0.20 +0.00    +0.011 A  ATOM      3  C   UNL     1      40.652  44.758  22.622 -0.21 +0.00    +0.006 A  ATOM      4  C   UNL     1      41.563  45.760  22.269 -0.22 -0.00    -0.034 A  ATOM      5  C   UNL     1      41.478  46.998  22.915 -0.23 +0.00    +0.006 A  ATOM      6  C   UNL     1      40.504  47.225  23.897 -0.26 +0.00    +0.011 A  ENDROOTBRANCH   1   7ATOM      7  C   UNL     1      38.562  46.437  25.320 -0.21 +0.01    +0.106 A  ATOM      8  C   UNL     1      36.546  46.970  27.174 -0.15 -0.02    +0.063 A  ATOM      9  C   UNL     1      36.700  47.684  25.990 -0.27 -0.01    +0.138 A  ATOM     10  C   UNL     1      37.457  45.944  27.413 -0.27 -0.01    +0.069 A  ATOM     11  N   UNL     1      37.674  47.439  25.072 -0.64 -0.03    -0.251 NA ATOM     12  C   UNL     1      38.463  45.678  26.485 -0.17 -0.00    +0.151 A  ATOM     13  F   UNL     1      39.302  44.663  26.746 -0.03 +0.00    -0.205 F  BRANCH   8  14ATOM     14  N   UNL     1      35.542  47.191  28.143 -0.07 +0.10    -0.319 N  ATOM     15  C   UNL     1      35.550  48.149  29.151 -0.26 -0.04    +0.276 C  ATOM     16  O   UNL     1      36.480  48.927  29.344 -0.15 +0.04    -0.267 OA ATOM     17  H   UNL     1      34.752  46.564  28.114 -0.49 -0.08    +0.170 HD BRANCH  15  18ATOM     18  C   UNL     1      34.330  48.151  29.998 -0.29 -0.01    +0.150 A  ATOM     19  N   UNL     1      32.380  47.598  30.670 -0.23 +0.03    -0.275 N  ATOM     20  C   UNL     1      32.783  48.538  31.567 -0.20 -0.01    +0.109 A  ATOM     21  N   UNL     1      33.287  47.346  29.715 -0.51 +0.01    -0.168 NA ATOM     22  C   UNL     1      34.043  48.917  31.169 -0.20 -0.00    +0.056 A  ATOM     23  C   UNL     1      31.127  46.883  30.661 -0.52 -0.00    +0.173 C  ENDBRANCH  15  18ENDBRANCH   8  14ENDBRANCH   1   7BRANCH   4  24ATOM     24  C   UNL     1      42.619  45.503  21.217 -0.20 +0.04    +0.120 C  BRANCH  24  25ATOM     25  N   UNL     1      42.220  45.941  19.865 -0.17 -0.07    -0.299 NA ATOM     26  C   UNL     1      40.799  45.660  19.605 -0.42 +0.00    +0.087 C  ATOM     27  C   UNL     1      42.530  47.366  19.687 -0.44 +0.01    +0.087 C  ATOM     28  C   UNL     1      40.400  46.074  18.188 -0.51 -0.00    +0.041 C  ATOM     29  C   UNL     1      42.197  47.836  18.272 -0.50 -0.00    +0.041 C  ATOM     30  C   UNL     1      40.728  47.551  17.949 -0.42 -0.01    +0.095 C  BRANCH  30  31ATOM     31  N   UNL     1      40.339  48.017  16.626 -0.32 +0.06    -0.291 N  ATOM     32  C   UNL     1      40.838  49.101  15.958 -0.35 -0.06    +0.295 A  ATOM     33  C   UNL     1      39.381  47.451  15.809 -0.44 -0.02    +0.072 A  ATOM     34  N   UNL     1      40.293  49.283  14.787 -0.39 +0.08    -0.195 NA ATOM     35  C   UNL     1      38.532  46.342  15.937 -0.38 -0.01    +0.029 A  ATOM     36  C   UNL     1      39.379  48.266  14.674 -0.46 -0.03    +0.092 A  ATOM     37  C   UNL     1      37.666  46.071  14.871 -0.39 -0.00    +0.002 A  ATOM     38  C   UNL     1      38.502  47.975  13.617 -0.35 -0.01    +0.031 A  ATOM     39  C   UNL     1      37.649  46.871  13.728 -0.49 -0.00    +0.002 A  BRANCH  32  40ATOM     40  O   UNL     1      41.774  49.905  16.419 -0.83 -0.06    -0.480 OA ATOM     41  H   UNL     1      41.296  50.753  16.458 -0.28 -0.09    +0.296 HD ENDBRANCH  32  40ENDBRANCH  30  31ENDBRANCH  24  25ENDBRANCH   4  24TORSDOF 7TERENDMDL