MODEL        6USER    Run = 6USERUSER    Estimated Free Energy of Binding    =  -9.71 kcal/mol  [=(1)+(2)+(3)-(4)]USERUSER    (1) Final Intermolecular Energy     = -11.20 kcal/molUSER        vdW + Hbond + desolv Energy     = -11.11 kcal/molUSER        Electrostatic Energy            =  -0.09 kcal/molUSER        Moving Ligand-Fixed Receptor    = -11.20 kcal/molUSER        Moving Ligand-Moving Receptor   =  +0.00 kcal/molUSER    (2) Final Total Internal Energy     =  -1.32 kcal/molUSER    (3) Torsional Free Energy           =  +1.49 kcal/molUSER    (4) Unbound System's Energy         =  -1.32 kcal/molUSERUSERREMARK SMILES CNC(=O)c1ccc(Nc2nc3c(s2)CCC[C@H]3C(=O)N2CCOCC2)cc1C(F)(F)FREMARK SMILES IDX 9 1 8 3 5 4 6 5 28 6 7 7 27 8 3 9 2 10 1 11 4 13 29 14 30 15REMARK SMILES IDX 31 16 32 17 10 18 11 19 14 20 12 21 13 22 18 23 15 24 17 25REMARK SMILES IDX 16 26 19 27 21 28 22 29 26 30 23 31 25 32 24 33 20 34REMARK H PARENT 9 2 2 12USER                              x       y       z     vdW  Elec       q    TypeUSER                           _______ _______ _______ _____ _____    ______ ____ROOTATOM      1  N   UNL     1      38.499  44.479  19.511 -0.16 +0.02    -0.332 N  ATOM      2  H   UNL     1      39.130  44.025  20.160 +0.11 -0.00    +0.169 HD ENDROOTBRANCH   1   3ATOM      3  C   UNL     1      37.237  43.869  19.392 -0.30 -0.00    +0.041 A  ATOM      4  C   UNL     1      34.693  42.668  19.012 -0.37 -0.01    +0.052 A  ATOM      5  C   UNL     1      35.324  42.629  20.261 -0.44 +0.00    +0.016 A  ATOM      6  C   UNL     1      35.315  43.322  17.939 -0.29 -0.02    +0.070 A  ATOM      7  C   UNL     1      36.580  43.217  20.441 -0.40 -0.00    +0.027 A  ATOM      8  C   UNL     1      36.592  43.896  18.143 -0.27 -0.01    +0.040 A  BRANCH   4   9ATOM      9  C   UNL     1      33.356  42.032  18.929 -0.28 -0.02    +0.251 C  ATOM     10  N   UNL     1      33.220  41.014  18.017 -0.19 +0.10    -0.355 N  ATOM     11  C   UNL     1      31.987  40.272  17.918 -0.39 -0.02    +0.143 C  ATOM     12  H   UNL     1      34.032  40.629  17.548 -0.45 -0.10    +0.163 HD ATOM     13  O   UNL     1      32.471  42.397  19.693 -0.53 -0.03    -0.269 OA ENDBRANCH   4   9BRANCH   6  14ATOM     14  C   UNL     1      34.654  43.449  16.594 -0.14 -0.17    +0.417 C  ATOM     15  F   UNL     1      35.411  44.142  15.692 -0.10 +0.07    -0.166 F  ATOM     16  F   UNL     1      34.434  42.233  16.016 -0.14 +0.09    -0.166 F  ATOM     17  F   UNL     1      33.455  44.090  16.626 -0.06 +0.08    -0.166 F  ENDBRANCH   6  14ENDBRANCH   1   3BRANCH   1  18ATOM     18  C   UNL     1      39.062  45.430  18.728 -0.29 -0.02    +0.187 A  ATOM     19  N   UNL     1      38.635  45.866  17.562 -0.26 +0.05    -0.224 NA ATOM     20  S   UNL     1      40.519  46.203  19.276 -0.50 +0.00    -0.102 S  ATOM     21  C   UNL     1      39.510  46.789  17.027 -0.41 -0.02    +0.069 A  ATOM     22  C   UNL     1      40.572  47.117  17.845 -0.47 -0.00    +0.031 A  ATOM     23  C   UNL     1      39.256  47.444  15.697 -0.46 -0.04    +0.129 C  ATOM     24  C   UNL     1      41.630  48.114  17.522 -0.46 -0.00    +0.049 C  ATOM     25  C   UNL     1      40.490  48.275  15.251 -0.63 -0.00    +0.020 C  ATOM     26  C   UNL     1      41.126  49.057  16.414 -0.58 -0.00    +0.007 C  BRANCH  23  27ATOM     27  C   UNL     1      38.924  46.393  14.629 -0.32 -0.06    +0.231 C  ATOM     28  N   UNL     1      37.632  46.347  14.133 -0.17 +0.13    -0.337 N  ATOM     29  C   UNL     1      37.300  45.389  13.080 -0.42 -0.05    +0.148 C  ATOM     30  C   UNL     1      36.509  47.159  14.616 -0.38 -0.11    +0.148 C  ATOM     31  C   UNL     1      36.290  45.992  12.096 -0.53 -0.08    +0.181 C  ATOM     32  C   UNL     1      35.162  46.620  14.130 -0.32 -0.16    +0.181 C  ATOM     33  O   UNL     1      35.096  46.516  12.704 -0.31 +0.27    -0.378 OA ATOM     34  O   UNL     1      39.791  45.619  14.211 -0.21 +0.04    -0.274 OA ENDBRANCH  23  27ENDBRANCH   1  18TORSDOF 5TERENDMDL