MODEL        9USER    Run = 9USERUSER    Estimated Free Energy of Binding    = -11.82 kcal/mol  [=(1)+(2)+(3)-(4)]USERUSER    (1) Final Intermolecular Energy     = -14.80 kcal/molUSER        vdW + Hbond + desolv Energy     = -14.59 kcal/molUSER        Electrostatic Energy            =  -0.21 kcal/molUSER        Moving Ligand-Fixed Receptor    = -14.80 kcal/molUSER        Moving Ligand-Moving Receptor   =  +0.00 kcal/molUSER    (2) Final Total Internal Energy     =  -2.35 kcal/molUSER    (3) Torsional Free Energy           =  +2.98 kcal/molUSER    (4) Unbound System's Energy         =  -2.35 kcal/molUSERUSERREMARK SMILES OCCOc1ccc2nc(-c3ncccn3)c(-c3ccc(CN4CCC(n5c(O)nc6ccccc65)CC4)cc3)nc2c1REMARK SMILES IDX 5 1 6 2 7 3 8 4 9 5 10 6 17 7 41 8 42 9 43 10 4 11 3 12 2 13REMARK SMILES IDX 1 14 18 16 19 17 40 18 20 19 39 20 21 21 22 22 23 23 24 24REMARK SMILES IDX 38 25 25 26 37 27 26 28 27 29 28 30 36 31 30 32 35 33 31 34REMARK SMILES IDX 34 35 32 36 33 37 29 38 11 40 12 41 16 42 13 43 15 44 14 45REMARK H PARENT 1 15 29 39USER                              x       y       z     vdW  Elec       q    TypeUSER                           _______ _______ _______ _____ _____    ______ ____ROOTATOM      1  C   UNL     1      41.038  47.687  17.389 -0.43 -0.01    +0.121 A  ATOM      2  C   UNL     1      41.631  47.266  18.573 -0.47 -0.00    +0.049 A  ATOM      3  C   UNL     1      40.964  46.351  19.394 -0.38 +0.00    +0.034 A  ATOM      4  C   UNL     1      39.714  45.850  19.055 -0.36 -0.01    +0.090 A  ATOM      5  N   UNL     1      39.118  44.962  19.867 -0.23 +0.01    -0.240 NA ATOM      6  C   UNL     1      37.890  44.481  19.490 -0.27 -0.01    +0.135 A  ATOM      7  C   UNL     1      37.281  44.924  18.311 -0.29 -0.02    +0.101 A  ATOM      8  N   UNL     1      37.898  45.823  17.489 -0.23 +0.07    -0.244 NA ATOM      9  C   UNL     1      39.106  46.282  17.860 -0.35 -0.02    +0.093 A  ATOM     10  C   UNL     1      39.773  47.198  17.056 -0.42 -0.02    +0.077 A  ENDROOTBRANCH   1  11ATOM     11  O   UNL     1      41.564  48.576  16.495 -0.68 -0.01    -0.491 OA BRANCH  11  12ATOM     12  C   UNL     1      40.915  48.729  15.227 -0.44 -0.04    +0.257 C  BRANCH  12  13ATOM     13  C   UNL     1      41.420  49.972  14.494 -0.57 -0.05    +0.197 C  BRANCH  13  14ATOM     14  O   UNL     1      42.204  50.779  15.371 -0.58 +0.04    -0.393 OA ATOM     15  H   UNL     1      41.783  50.732  16.250 -0.34 -0.03    +0.210 HD ENDBRANCH  13  14ENDBRANCH  12  13ENDBRANCH  11  12ENDBRANCH   1  11BRANCH   7  16ATOM     16  C   UNL     1      35.946  44.517  17.842 -0.32 -0.00    +0.003 A  ATOM     17  C   UNL     1      34.785  45.199  18.238 -0.39 -0.00    +0.011 A  ATOM     18  C   UNL     1      35.805  43.438  16.955 -0.37 -0.00    +0.011 A  ATOM     19  C   UNL     1      33.524  44.806  17.774 -0.34 -0.00    +0.006 A  ATOM     20  C   UNL     1      34.548  43.042  16.494 -0.41 -0.00    +0.006 A  ATOM     21  C   UNL     1      33.391  43.726  16.892 -0.30 +0.01    -0.034 A  BRANCH  21  22ATOM     22  C   UNL     1      32.031  43.299  16.381 -0.30 -0.05    +0.120 C  BRANCH  22  23ATOM     23  N   UNL     1      31.365  42.205  17.100 -0.12 +0.10    -0.299 NA ATOM     24  C   UNL     1      32.263  41.422  17.955 -0.38 -0.02    +0.087 C  ATOM     25  C   UNL     1      30.495  41.374  16.277 -0.32 -0.03    +0.087 C  ATOM     26  C   UNL     1      31.659  40.084  18.398 -0.45 -0.00    +0.041 C  ATOM     27  C   UNL     1      29.506  40.620  17.172 -0.35 -0.00    +0.041 C  ATOM     28  C   UNL     1      30.136  40.192  18.510 -0.22 +0.00    +0.095 C  BRANCH  28  29ATOM     29  N   UNL     1      29.522  38.998  19.071 -0.16 -0.05    -0.291 N  ATOM     30  C   UNL     1      30.073  37.749  19.135 -0.19 +0.10    +0.295 A  ATOM     31  C   UNL     1      28.278  38.918  19.667 -0.23 +0.00    +0.072 A  ATOM     32  N   UNL     1      29.300  36.872  19.717 -0.06 -0.05    -0.195 NA ATOM     33  C   UNL     1      27.260  39.852  19.907 -0.18 -0.00    +0.029 A  ATOM     34  C   UNL     1      28.173  37.581  20.056 -0.25 -0.00    +0.092 A  ATOM     35  C   UNL     1      26.107  39.392  20.556 -0.30 -0.00    +0.002 A  ATOM     36  C   UNL     1      27.010  37.141  20.706 -0.28 -0.02    +0.031 A  ATOM     37  C   UNL     1      25.980  38.059  20.948 -0.29 -0.00    +0.002 A  BRANCH  30  38ATOM     38  O   UNL     1      31.258  37.422  18.662 -0.65 -0.18    -0.480 OA ATOM     39  H   UNL     1      31.691  37.077  19.466 +0.23 +0.09    +0.296 HD ENDBRANCH  30  38ENDBRANCH  28  29ENDBRANCH  22  23ENDBRANCH  21  22ENDBRANCH   7  16BRANCH   6  40ATOM     40  C   UNL     1      37.304  43.454  20.368 -0.23 -0.01    +0.180 A  ATOM     41  N   UNL     1      36.305  42.691  19.875 -0.24 +0.01    -0.235 NA ATOM     42  N   UNL     1      37.830  43.306  21.605 -0.21 -0.01    -0.235 NA ATOM     43  C   UNL     1      35.815  41.739  20.688 -0.33 -0.00    +0.115 A  ATOM     44  C   UNL     1      37.310  42.328  22.370 -0.38 +0.01    +0.115 A  ATOM     45  C   UNL     1      36.291  41.504  21.957 -0.53 +0.00    +0.040 A  ENDBRANCH   6  40TORSDOF 10TERENDMDL