MODEL        8USER    Run = 8USERUSER    Estimated Free Energy of Binding    = -11.76 kcal/mol  [=(1)+(2)+(3)-(4)]USERUSER    (1) Final Intermolecular Energy     = -14.45 kcal/molUSER        vdW + Hbond + desolv Energy     = -14.39 kcal/molUSER        Electrostatic Energy            =  -0.05 kcal/molUSER        Moving Ligand-Fixed Receptor    = -14.45 kcal/molUSER        Moving Ligand-Moving Receptor   =  +0.00 kcal/molUSER    (2) Final Total Internal Energy     =  -3.83 kcal/molUSER    (3) Torsional Free Energy           =  +2.68 kcal/molUSER    (4) Unbound System's Energy         =  -3.83 kcal/molUSERUSERREMARK SMILES Oc1nc2ccccc2n1[C@@H]1CCN(Cc2ccc(-c3nc4ccccc4[nH]3)cc2)C[C@@H]1N1CCN(CCN2CCOCC2)CC1REMARK SMILES IDX 11 1 12 2 13 3 14 4 31 5 32 6 10 7 2 8 3 9 4 10 9 11 5 12REMARK SMILES IDX 8 13 6 14 7 15 1 16 33 18 34 19 46 20 35 21 45 22 36 23REMARK SMILES IDX 37 24 38 25 39 26 40 27 44 28 41 29 43 30 42 31 15 32 16 33REMARK SMILES IDX 17 34 30 35 18 36 29 37 19 38 20 39 21 40 28 41 22 42 27 43REMARK SMILES IDX 23 44 26 45 24 46 25 47REMARK H PARENT 1 17 28 48USER                              x       y       z     vdW  Elec       q    TypeUSER                           _______ _______ _______ _____ _____    ______ ____ROOTATOM      1  C   UNL     1      38.656  42.719  22.917 -0.29 +0.01    +0.112 C  ATOM      2  C   UNL     1      40.153  42.865  23.263 -0.28 +0.00    +0.043 C  ATOM      3  C   UNL     1      40.675  44.304  23.256 -0.19 +0.00    +0.087 C  ATOM      4  N   UNL     1      40.305  45.088  22.073 -0.11 -0.02    -0.297 NA ATOM      5  C   UNL     1      38.846  45.067  21.868 -0.33 +0.01    +0.106 C  ATOM      6  C   UNL     1      38.241  43.645  21.729 -0.33 +0.00    +0.094 C  ENDROOTBRANCH   1   7ATOM      7  N   UNL     1      37.800  42.678  24.095 -0.18 -0.02    -0.289 N  ATOM      8  C   UNL     1      36.679  41.927  24.308 -0.18 -0.00    +0.295 A  ATOM      9  N   UNL     1      36.095  42.164  25.451 -0.29 +0.02    -0.195 NA ATOM     10  C   UNL     1      36.870  43.130  26.037 -0.30 -0.01    +0.092 A  ATOM     11  C   UNL     1      37.948  43.477  25.220 -0.23 +0.00    +0.072 A  ATOM     12  C   UNL     1      36.709  43.759  27.280 -0.38 -0.01    +0.031 A  ATOM     13  C   UNL     1      38.893  44.440  25.606 -0.16 +0.00    +0.029 A  ATOM     14  C   UNL     1      37.642  44.725  27.676 -0.33 -0.00    +0.002 A  ATOM     15  C   UNL     1      38.715  45.056  26.850 -0.21 -0.00    +0.002 A  BRANCH   8  16ATOM     16  O   UNL     1      36.194  41.025  23.487 -0.17 +0.03    -0.480 OA ATOM     17  H   UNL     1      35.729  40.434  24.108 -0.10 -0.12    +0.296 HD ENDBRANCH   8  16ENDBRANCH   1   7BRANCH   6  18ATOM     18  N   UNL     1      36.825  43.561  21.302 -0.22 -0.01    -0.294 NA ATOM     19  C   UNL     1      36.490  42.285  20.652 -0.46 -0.00    +0.100 C  ATOM     20  C   UNL     1      36.306  44.706  20.526 +0.06 -0.00    +0.100 C  ATOM     21  C   UNL     1      34.974  42.128  20.361 -0.24 +0.01    +0.100 C  ATOM     22  C   UNL     1      35.248  44.363  19.440 -0.39 -0.02    +0.100 C  ATOM     23  N   UNL     1      34.303  43.349  19.899 -0.42 +0.01    -0.300 NA BRANCH  23  24ATOM     24  C   UNL     1      33.164  43.111  19.005 -0.38 -0.01    +0.100 C  BRANCH  24  25ATOM     25  C   UNL     1      33.231  41.842  18.113 -0.39 -0.02    +0.100 C  BRANCH  25  26ATOM     26  N   UNL     1      33.955  42.043  16.842 -0.21 +0.15    -0.297 NA ATOM     27  C   UNL     1      33.439  43.214  16.099 -0.31 -0.05    +0.113 C  ATOM     28  C   UNL     1      35.416  42.161  17.047 -0.32 -0.05    +0.113 C  ATOM     29  C   UNL     1      34.292  44.479  16.283 -0.25 -0.10    +0.175 C  ATOM     30  C   UNL     1      36.097  42.953  15.921 -0.38 -0.06    +0.175 C  ATOM     31  O   UNL     1      35.651  44.315  15.857 -0.14 +0.17    -0.379 OA ENDBRANCH  25  26ENDBRANCH  24  25ENDBRANCH  23  24ENDBRANCH   6  18BRANCH   4  32ATOM     32  C   UNL     1      41.049  44.713  20.860 -0.32 +0.01    +0.120 C  BRANCH  32  33ATOM     33  C   UNL     1      40.359  45.134  19.580 -0.40 -0.00    -0.034 A  ATOM     34  C   UNL     1      39.476  44.268  18.927 -0.32 -0.00    +0.006 A  ATOM     35  C   UNL     1      40.575  46.408  19.039 -0.40 -0.00    +0.006 A  ATOM     36  C   UNL     1      38.823  44.672  17.758 -0.30 -0.00    +0.012 A  ATOM     37  C   UNL     1      39.921  46.811  17.869 -0.44 -0.00    +0.012 A  ATOM     38  C   UNL     1      39.029  45.949  17.215 -0.41 -0.00    +0.017 A  BRANCH  38  39ATOM     39  C   UNL     1      38.312  46.329  15.993 -0.30 -0.05    +0.138 A  ATOM     40  N   UNL     1      38.129  47.564  15.554 -0.27 +0.12    -0.229 NA ATOM     41  N   UNL     1      37.741  45.435  15.114 -0.13 +0.12    -0.338 N  ATOM     42  C   UNL     1      37.424  47.457  14.382 -0.42 -0.05    +0.089 A  ATOM     43  C   UNL     1      37.168  46.127  14.080 -0.39 -0.03    +0.066 A  ATOM     44  C   UNL     1      36.964  48.457  13.514 -0.53 -0.01    +0.030 A  ATOM     45  C   UNL     1      36.473  45.718  12.941 -0.51 -0.01    +0.028 A  ATOM     46  C   UNL     1      36.261  48.077  12.364 -0.59 -0.00    +0.002 A  ATOM     47  C   UNL     1      36.022  46.729  12.085 -0.66 -0.00    +0.002 A  ATOM     48  H   UNL     1      37.759  44.431  15.206 +0.11 -0.05    +0.168 HD ENDBRANCH  38  39ENDBRANCH  32  33ENDBRANCH   4  32TORSDOF 9TERENDMDL