REMARK SMILES COc1ncc(C2CC2)c(N(C)CCCN2CCN(c3nc4ccccc4[nH]3)CC2)c1/C=C1\SC(=N)NC1=O
REMARK SMILES IDX 11 1 12 2 10 3 3 4 4 5 31 6 5 7 6 8 2 9 1 10 32 11 33 12
REMARK SMILES IDX 34 13 38 14 35 15 37 16 39 17 36 19 7 21 8 22 9 23 13 24
REMARK SMILES IDX 14 25 15 26 16 27 17 28 30 29 18 30 29 31 19 32 20 33 21 34
REMARK SMILES IDX 28 35 22 36 27 37 23 38 26 39 24 40 25 41
REMARK H PARENT 37 18 36 20 28 42
ROOT
ATOM      1  N   UNL     1      -2.150   1.711   0.442  1.00  0.00    -0.374 N 
ATOM      2  C   UNL     1      -1.765   2.321   1.714  1.00  0.00     0.143 C 
ENDROOT
BRANCH   1   3
ATOM      3  C   UNL     1      -3.553   1.716   0.218  1.00  0.00     0.054 A 
ATOM      4  C   UNL     1      -5.632   0.462   0.217  1.00  0.00     0.222 A 
ATOM      5  N   UNL     1      -6.351   1.534  -0.162  1.00  0.00    -0.221 NA
ATOM      6  C   UNL     1      -4.246   0.485   0.399  1.00  0.00     0.062 A 
ATOM      7  C   UNL     1      -5.662   2.684  -0.346  1.00  0.00     0.121 A 
ATOM      8  C   UNL     1      -4.285   2.877  -0.153  1.00  0.00    -0.002 A 
BRANCH   4   9
ATOM      9  O   UNL     1      -6.291  -0.730   0.464  1.00  0.00    -0.481 OA
ATOM     10  C   UNL     1      -7.704  -0.640   0.326  1.00  0.00     0.280 C 
ENDBRANCH   4   9
BRANCH   6  11
ATOM     11  C   UNL     1      -3.510  -0.736   0.775  1.00  0.00     0.037 C 
BRANCH  11  12
ATOM     12  C   UNL     1      -3.184  -1.724  -0.067  1.00  0.00     0.081 C 
ATOM     13  S   UNL     1      -3.530  -1.852  -1.755  1.00  0.00    -0.047 SA
ATOM     14  C   UNL     1      -2.387  -2.902   0.376  1.00  0.00     0.264 C 
ATOM     15  C   UNL     1      -2.620  -3.324  -1.889  1.00  0.00     0.165 C 
ATOM     16  N   UNL     1      -2.131  -3.717  -0.693  1.00  0.00    -0.301 N 
ATOM     17  O   UNL     1      -2.029  -3.126   1.521  1.00  0.00    -0.268 OA
ATOM     18  H   UNL     1      -1.582  -4.550  -0.558  1.00  0.00     0.172 HD
BRANCH  15  19
ATOM     19  N   UNL     1      -2.433  -3.962  -2.981  1.00  0.00    -0.278 NA
ATOM     20  H   UNL     1      -1.871  -4.800  -2.815  1.00  0.00     0.190 HD
ENDBRANCH  15  19
ENDBRANCH  11  12
ENDBRANCH   6  11
BRANCH   8  21
ATOM     21  C   UNL     1      -3.667   4.248  -0.381  1.00  0.00     0.023 C 
ATOM     22  C   UNL     1      -4.452   5.526  -0.146  1.00  0.00     0.009 C 
ATOM     23  C   UNL     1      -3.353   5.148   0.794  1.00  0.00     0.009 C 
ENDBRANCH   8  21
ENDBRANCH   1   3
BRANCH   1  24
ATOM     24  C   UNL     1      -1.309   2.019  -0.723  1.00  0.00     0.117 C 
BRANCH  24  25
ATOM     25  C   UNL     1      -0.449   0.817  -1.135  1.00  0.00     0.037 C 
BRANCH  25  26
ATOM     26  C   UNL     1       0.535   0.362  -0.050  1.00  0.00     0.086 C 
BRANCH  26  27
ATOM     27  N   UNL     1       1.395  -0.754  -0.498  1.00  0.00    -0.300 NA
ATOM     28  C   UNL     1       2.048  -1.427   0.654  1.00  0.00     0.106 C 
ATOM     29  C   UNL     1       2.467  -0.328  -1.439  1.00  0.00     0.106 C 
ATOM     30  C   UNL     1       3.173  -0.612   1.341  1.00  0.00     0.135 C 
ATOM     31  C   UNL     1       3.607   0.506  -0.803  1.00  0.00     0.135 C 
ATOM     32  N   UNL     1       4.193  -0.181   0.369  1.00  0.00    -0.340 N 
BRANCH  32  33
ATOM     33  C   UNL     1       5.270  -0.975   0.115  1.00  0.00     0.203 A 
ATOM     34  N   UNL     1       5.837  -1.236  -1.045  1.00  0.00    -0.213 NA
ATOM     35  N   UNL     1       5.986  -1.552   1.135  1.00  0.00    -0.324 N 
ATOM     36  C   UNL     1       6.924  -2.030  -0.765  1.00  0.00     0.091 A 
ATOM     37  C   UNL     1       7.043  -2.243   0.603  1.00  0.00     0.067 A 
ATOM     38  C   UNL     1       7.865  -2.607  -1.629  1.00  0.00     0.030 A 
ATOM     39  C   UNL     1       8.066  -3.001   1.179  1.00  0.00     0.028 A 
ATOM     40  C   UNL     1       8.899  -3.379  -1.081  1.00  0.00     0.002 A 
ATOM     41  C   UNL     1       8.995  -3.570   0.299  1.00  0.00     0.002 A 
ATOM     42  H   UNL     1       5.778  -1.449   2.116  1.00  0.00     0.170 HD
ENDBRANCH  32  33
ENDBRANCH  26  27
ENDBRANCH  25  26
ENDBRANCH  24  25
ENDBRANCH   1  24
TORSDOF 11
