MODEL        2USER    Run = 2USERUSER    Estimated Free Energy of Binding    = -10.65 kcal/mol  [=(1)+(2)+(3)-(4)]USERUSER    (1) Final Intermolecular Energy     = -13.93 kcal/molUSER        vdW + Hbond + desolv Energy     = -13.70 kcal/molUSER        Electrostatic Energy            =  -0.24 kcal/molUSER        Moving Ligand-Fixed Receptor    = -13.93 kcal/molUSER        Moving Ligand-Moving Receptor   =  +0.00 kcal/molUSER    (2) Final Total Internal Energy     =  -2.03 kcal/molUSER    (3) Torsional Free Energy           =  +3.28 kcal/molUSER    (4) Unbound System's Energy         =  -2.03 kcal/molUSERUSERREMARK SMILES COc1ncc(C2CC2)c(N(C)CCCN2CCN(c3nc4ccccc4[nH]3)CC2)c1/C=C1\SC(=N)NC1=OREMARK SMILES IDX 11 1 12 2 10 3 3 4 4 5 31 6 5 7 6 8 2 9 1 10 32 11 33 12REMARK SMILES IDX 34 13 38 14 35 15 37 16 39 17 36 19 7 21 8 22 9 23 13 24REMARK SMILES IDX 14 25 15 26 16 27 17 28 30 29 18 30 29 31 19 32 20 33 21 34REMARK SMILES IDX 28 35 22 36 27 37 23 38 26 39 24 40 25 41REMARK H PARENT 37 18 36 20 28 42USER                              x       y       z     vdW  Elec       q    TypeUSER                           _______ _______ _______ _____ _____    ______ ____ROOTATOM      1  N   UNL     1      37.736  45.092  16.568 -0.10 +0.11    -0.374 N  ATOM      2  C   UNL     1      37.562  43.642  16.638 +0.06 -0.04    +0.143 C  ENDROOTBRANCH   1   3ATOM      3  C   UNL     1      36.917  45.709  15.585 -0.33 -0.03    +0.054 A  ATOM      4  C   UNL     1      36.796  46.906  13.475 -0.36 -0.11    +0.222 A  ATOM      5  N   UNL     1      35.453  46.969  13.517 -0.35 +0.16    -0.221 NA ATOM      6  C   UNL     1      37.574  46.317  14.477 -0.37 -0.03    +0.062 A  ATOM      7  C   UNL     1      34.858  46.402  14.591 -0.12 -0.12    +0.121 A  ATOM      8  C   UNL     1      35.496  45.730  15.646 -0.35 +0.00    -0.002 A  BRANCH   4   9ATOM      9  O   UNL     1      37.456  47.430  12.377 -0.85 +0.09    -0.481 OA ATOM     10  C   UNL     1      37.265  46.678  11.185 -0.25 -0.08    +0.280 C  ENDBRANCH   4   9BRANCH   6  11ATOM     11  C   UNL     1      39.046  46.317  14.392 -0.44 -0.01    +0.037 C  BRANCH  11  12ATOM     12  C   UNL     1      39.846  47.222  14.968 -0.49 -0.02    +0.081 C  ATOM     13  S   UNL     1      40.129  48.859  14.492 -0.66 +0.02    -0.047 SA ATOM     14  C   UNL     1      40.616  46.916  16.206 -0.31 -0.03    +0.264 C  ATOM     15  C   UNL     1      41.137  49.148  15.876 -0.53 -0.02    +0.165 C  ATOM     16  N   UNL     1      41.288  48.033  16.622 -0.27 +0.03    -0.301 N  ATOM     17  O   UNL     1      40.663  45.830  16.761 -0.28 +0.01    -0.268 OA ATOM     18  H   UNL     1      41.841  47.991  17.463 -0.06 -0.01    +0.172 HD BRANCH  15  19ATOM     19  N   UNL     1      41.673  50.274  16.158 -0.80 +0.01    -0.278 NA ATOM     20  H   UNL     1      40.964  50.940  16.474 -0.36 -0.09    +0.190 HD ENDBRANCH  15  19ENDBRANCH  11  12ENDBRANCH   6  11BRANCH   8  21ATOM     21  C   UNL     1      34.675  45.123  16.773 -0.36 -0.01    +0.023 C  ATOM     22  C   UNL     1      34.147  45.967  17.920 -0.52 -0.01    +0.009 C  ATOM     23  C   UNL     1      33.199  45.435  16.894 -0.37 -0.01    +0.009 C  ENDBRANCH   8  21ENDBRANCH   1   3BRANCH   1  24ATOM     24  C   UNL     1      37.863  45.808  17.845 -0.33 -0.03    +0.117 C  BRANCH  24  25ATOM     25  C   UNL     1      38.048  44.840  19.021 -0.40 -0.00    +0.037 C  BRANCH  25  26ATOM     26  C   UNL     1      39.040  45.339  20.079 -0.36 -0.00    +0.086 C  BRANCH  26  27ATOM     27  N   UNL     1      39.334  44.317  21.106 -0.13 -0.01    -0.300 NA ATOM     28  C   UNL     1      38.208  43.359  21.250 -0.18 +0.00    +0.106 C  ATOM     29  C   UNL     1      39.608  44.896  22.450 -0.26 +0.01    +0.106 C  ATOM     30  C   UNL     1      36.941  43.930  21.937 -0.35 +0.01    +0.135 C  ATOM     31  C   UNL     1      38.375  45.497  23.171 -0.29 +0.01    +0.135 C  ATOM     32  N   UNL     1      37.263  44.524  23.246 -0.15 -0.05    -0.340 N  BRANCH  32  33ATOM     33  C   UNL     1      37.220  43.757  24.371 -0.21 +0.02    +0.203 A  ATOM     34  N   UNL     1      36.172  43.193  24.935 -0.19 -0.02    -0.213 NA ATOM     35  N   UNL     1      38.369  43.389  25.026 -0.07 -0.01    -0.324 N  ATOM     36  C   UNL     1      36.657  42.473  26.001 -0.35 -0.01    +0.091 A  ATOM     37  C   UNL     1      38.041  42.577  26.080 -0.26 -0.00    +0.067 A  ATOM     38  C   UNL     1      35.977  41.697  26.949 -0.54 -0.01    +0.030 A  ATOM     39  C   UNL     1      38.807  41.935  27.057 -0.33 -0.00    +0.028 A  ATOM     40  C   UNL     1      36.718  41.047  27.946 -0.49 -0.00    +0.002 A  ATOM     41  C   UNL     1      38.108  41.166  27.996 -0.41 -0.00    +0.002 A  ATOM     42  H   UNL     1      39.302  43.651  24.748 +0.08 +0.00    +0.170 HD ENDBRANCH  32  33ENDBRANCH  26  27ENDBRANCH  25  26ENDBRANCH  24  25ENDBRANCH   1  24TORSDOF 11TERENDMDL