REMARK SMILES Oc1nc2ccccc2n1[C@@H]1CCN(Cc2ccc(-c3nc4ccccc4[nH]3)cc2)C[C@@H]1N1CCN(CCN2CCOCC2)CC1
REMARK SMILES IDX 11 1 12 2 13 3 14 4 31 5 32 6 10 7 2 8 3 9 4 10 9 11 5 12
REMARK SMILES IDX 8 13 6 14 7 15 1 16 33 18 34 19 46 20 35 21 45 22 36 23
REMARK SMILES IDX 37 24 38 25 39 26 40 27 44 28 41 29 43 30 42 31 15 32 16 33
REMARK SMILES IDX 17 34 30 35 18 36 29 37 19 38 20 39 21 40 28 41 22 42 27 43
REMARK SMILES IDX 23 44 26 45 24 46 25 47
REMARK H PARENT 1 17 28 48
ROOT
ATOM      1  C   UNL     1       0.202  -2.659  -0.183  1.00  0.00     0.112 C 
ATOM      2  C   UNL     1       1.741  -2.630  -0.075  1.00  0.00     0.043 C 
ATOM      3  C   UNL     1       2.296  -1.590   0.901  1.00  0.00     0.087 C 
ATOM      4  N   UNL     1       1.728  -0.245   0.756  1.00  0.00    -0.297 NA
ATOM      5  C   UNL     1       0.257  -0.288   0.828  1.00  0.00     0.106 C 
ATOM      6  C   UNL     1      -0.406  -1.221  -0.220  1.00  0.00     0.094 C 
ENDROOT
BRANCH   1   7
ATOM      7  N   UNL     1      -0.412  -3.649   0.693  1.00  0.00    -0.289 N 
ATOM      8  C   UNL     1      -0.398  -3.705   2.058  1.00  0.00     0.295 A 
ATOM      9  N   UNL     1      -0.991  -4.758   2.548  1.00  0.00    -0.195 NA
ATOM     10  C   UNL     1      -1.427  -5.448   1.448  1.00  0.00     0.092 A 
ATOM     11  C   UNL     1      -1.085  -4.786   0.268  1.00  0.00     0.072 A 
ATOM     12  C   UNL     1      -2.131  -6.660   1.386  1.00  0.00     0.031 A 
ATOM     13  C   UNL     1      -1.431  -5.290  -0.995  1.00  0.00     0.029 A 
ATOM     14  C   UNL     1      -2.479  -7.178   0.133  1.00  0.00     0.002 A 
ATOM     15  C   UNL     1      -2.134  -6.500  -1.036  1.00  0.00     0.002 A 
BRANCH   8  16
ATOM     16  O   UNL     1       0.131  -2.806   2.856  1.00  0.00    -0.480 OA
ATOM     17  H   UNL     1      -0.046  -3.201   3.729  1.00  0.00     0.296 HD
ENDBRANCH   8  16
ENDBRANCH   1   7
BRANCH   6  18
ATOM     18  N   UNL     1      -1.880  -1.140  -0.347  1.00  0.00    -0.294 NA
ATOM     19  C   UNL     1      -2.340   0.109  -0.973  1.00  0.00     0.100 C 
ATOM     20  C   UNL     1      -2.660  -1.444   0.871  1.00  0.00     0.100 C 
ATOM     21  C   UNL     1      -3.864   0.121  -1.262  1.00  0.00     0.100 C 
ATOM     22  C   UNL     1      -3.981  -0.644   1.045  1.00  0.00     0.100 C 
ATOM     23  N   UNL     1      -4.697  -0.490  -0.219  1.00  0.00    -0.300 NA
BRANCH  23  24
ATOM     24  C   UNL     1      -6.042   0.086  -0.105  1.00  0.00     0.100 C 
BRANCH  24  25
ATOM     25  C   UNL     1      -6.142   1.506   0.513  1.00  0.00     0.100 C 
BRANCH  25  26
ATOM     26  N   UNL     1      -7.521   2.027   0.593  1.00  0.00    -0.297 NA
ATOM     27  C   UNL     1      -7.579   3.308   1.332  1.00  0.00     0.113 C 
ATOM     28  C   UNL     1      -8.140   2.171  -0.744  1.00  0.00     0.113 C 
ATOM     29  C   UNL     1      -7.628   4.541   0.416  1.00  0.00     0.175 C 
ATOM     30  C   UNL     1      -9.251   3.232  -0.757  1.00  0.00     0.175 C 
ATOM     31  O   UNL     1      -8.759   4.548  -0.466  1.00  0.00    -0.379 OA
ENDBRANCH  25  26
ENDBRANCH  24  25
ENDBRANCH  23  24
ENDBRANCH   6  18
BRANCH   4  32
ATOM     32  C   UNL     1       2.213   0.475  -0.432  1.00  0.00     0.120 C 
BRANCH  32  33
ATOM     33  C   UNL     1       3.665   0.891  -0.329  1.00  0.00    -0.034 A 
ATOM     34  C   UNL     1       4.591   0.496  -1.301  1.00  0.00     0.006 A 
ATOM     35  C   UNL     1       4.103   1.699   0.728  1.00  0.00     0.006 A 
ATOM     36  C   UNL     1       5.926   0.904  -1.214  1.00  0.00     0.012 A 
ATOM     37  C   UNL     1       5.439   2.106   0.814  1.00  0.00     0.012 A 
ATOM     38  C   UNL     1       6.369   1.719  -0.161  1.00  0.00     0.017 A 
BRANCH  38  39
ATOM     39  C   UNL     1       7.777   2.129  -0.121  1.00  0.00     0.138 A 
ATOM     40  N   UNL     1       8.747   1.643  -0.878  1.00  0.00    -0.229 NA
ATOM     41  N   UNL     1       8.281   3.106   0.709  1.00  0.00    -0.338 N 
ATOM     42  C   UNL     1       9.889   2.313  -0.520  1.00  0.00     0.089 A 
ATOM     43  C   UNL     1       9.624   3.242   0.476  1.00  0.00     0.066 A 
ATOM     44  C   UNL     1      11.198   2.183  -1.005  1.00  0.00     0.030 A 
ATOM     45  C   UNL     1      10.599   4.074   1.030  1.00  0.00     0.028 A 
ATOM     46  C   UNL     1      12.198   3.002  -0.466  1.00  0.00     0.002 A 
ATOM     47  C   UNL     1      11.900   3.931   0.534  1.00  0.00     0.002 A 
ATOM     48  H   UNL     1       7.745   3.648   1.369  1.00  0.00     0.168 HD
ENDBRANCH  38  39
ENDBRANCH  32  33
ENDBRANCH   4  32
TORSDOF 9
