REMARK SMILES OCCOc1ccc2nc(-c3ncccn3)c(-c3ccc(CN4CCC(n5c(O)nc6ccccc65)CC4)cc3)nc2c1
REMARK SMILES IDX 5 1 6 2 7 3 8 4 9 5 10 6 17 7 41 8 42 9 43 10 4 11 3 12 2 13
REMARK SMILES IDX 1 14 18 16 19 17 40 18 20 19 39 20 21 21 22 22 23 23 24 24
REMARK SMILES IDX 38 25 25 26 37 27 26 28 27 29 28 30 36 31 30 32 35 33 31 34
REMARK SMILES IDX 34 35 32 36 33 37 29 38 11 40 12 41 16 42 13 43 15 44 14 45
REMARK H PARENT 1 15 29 39
ROOT
ATOM      1  C   UNL     1       6.324   1.565  -1.979  1.00  0.00     0.121 A 
ATOM      2  C   UNL     1       7.329   1.373  -1.039  1.00  0.00     0.049 A 
ATOM      3  C   UNL     1       7.049   0.676   0.141  1.00  0.00     0.034 A 
ATOM      4  C   UNL     1       5.783   0.169   0.400  1.00  0.00     0.090 A 
ATOM      5  N   UNL     1       5.564  -0.506   1.540  1.00  0.00    -0.240 NA
ATOM      6  C   UNL     1       4.303  -1.003   1.752  1.00  0.00     0.135 A 
ATOM      7  C   UNL     1       3.284  -0.788   0.818  1.00  0.00     0.101 A 
ATOM      8  N   UNL     1       3.518  -0.104  -0.341  1.00  0.00    -0.244 NA
ATOM      9  C   UNL     1       4.759   0.370  -0.547  1.00  0.00     0.093 A 
ATOM     10  C   UNL     1       5.045   1.071  -1.712  1.00  0.00     0.077 A 
ENDROOT
BRANCH   1  11
ATOM     11  O   UNL     1       6.447   2.227  -3.168  1.00  0.00    -0.491 OA
BRANCH  11  12
ATOM     12  C   UNL     1       7.762   2.440  -3.695  1.00  0.00     0.257 C 
BRANCH  12  13
ATOM     13  C   UNL     1       8.294   3.821  -3.311  1.00  0.00     0.197 C 
BRANCH  13  14
ATOM     14  O   UNL     1       7.657   4.831  -4.091  1.00  0.00    -0.393 OA
ATOM     15  H   UNL     1       7.928   5.690  -3.716  1.00  0.00     0.210 HD
ENDBRANCH  13  14
ENDBRANCH  12  13
ENDBRANCH  11  12
ENDBRANCH   1  11
BRANCH   7  16
ATOM     16  C   UNL     1       1.887  -1.226   0.971  1.00  0.00     0.003 A 
ATOM     17  C   UNL     1       1.090  -0.791   2.042  1.00  0.00     0.011 A 
ATOM     18  C   UNL     1       1.305  -2.081   0.022  1.00  0.00     0.011 A 
ATOM     19  C   UNL     1      -0.240  -1.209   2.166  1.00  0.00     0.006 A 
ATOM     20  C   UNL     1      -0.021  -2.502   0.147  1.00  0.00     0.006 A 
ATOM     21  C   UNL     1      -0.813  -2.065   1.217  1.00  0.00    -0.034 A 
BRANCH  21  22
ATOM     22  C   UNL     1      -2.253  -2.516   1.343  1.00  0.00     0.120 C 
BRANCH  22  23
ATOM     23  N   UNL     1      -3.279  -1.626   0.785  1.00  0.00    -0.299 NA
ATOM     24  C   UNL     1      -3.251  -1.529  -0.678  1.00  0.00     0.087 C 
ATOM     25  C   UNL     1      -3.383  -0.327   1.439  1.00  0.00     0.087 C 
ATOM     26  C   UNL     1      -4.054  -0.340  -1.219  1.00  0.00     0.041 C 
ATOM     27  C   UNL     1      -4.750   0.295   1.134  1.00  0.00     0.041 C 
ATOM     28  C   UNL     1      -5.231  -0.020  -0.294  1.00  0.00     0.095 C 
BRANCH  28  29
ATOM     29  N   UNL     1      -6.116   1.001  -0.834  1.00  0.00    -0.291 N 
ATOM     30  C   UNL     1      -5.787   2.295  -1.128  1.00  0.00     0.295 A 
ATOM     31  C   UNL     1      -7.445   0.839  -1.173  1.00  0.00     0.072 A 
ATOM     32  N   UNL     1      -6.781   2.980  -1.626  1.00  0.00    -0.195 NA
ATOM     33  C   UNL     1      -8.332  -0.246  -1.112  1.00  0.00     0.029 A 
ATOM     34  C   UNL     1      -7.827   2.090  -1.661  1.00  0.00     0.092 A 
ATOM     35  C   UNL     1      -9.642  -0.029  -1.558  1.00  0.00     0.002 A 
ATOM     36  C   UNL     1      -9.144   2.285  -2.104  1.00  0.00     0.031 A 
ATOM     37  C   UNL     1     -10.045   1.215  -2.044  1.00  0.00     0.002 A 
BRANCH  30  38
ATOM     38  O   UNL     1      -4.601   2.834  -0.937  1.00  0.00    -0.480 OA
ATOM     39  H   UNL     1      -4.759   3.747  -1.243  1.00  0.00     0.296 HD
ENDBRANCH  30  38
ENDBRANCH  28  29
ENDBRANCH  22  23
ENDBRANCH  21  22
ENDBRANCH   7  16
BRANCH   6  40
ATOM     40  C   UNL     1       4.124  -1.801   2.977  1.00  0.00     0.180 A 
ATOM     41  N   UNL     1       3.541  -3.014   2.865  1.00  0.00    -0.235 NA
ATOM     42  N   UNL     1       4.592  -1.289   4.138  1.00  0.00    -0.235 NA
ATOM     43  C   UNL     1       3.424  -3.734   3.995  1.00  0.00     0.115 A 
ATOM     44  C   UNL     1       4.460  -2.060   5.234  1.00  0.00     0.115 A 
ATOM     45  C   UNL     1       3.879  -3.305   5.220  1.00  0.00     0.040 A 
ENDBRANCH   6  40
TORSDOF 10
