REMARK SMILES Cc1nc(NCC2CCOCC2)ccc1-c1ccc(C=C2SC(=O)NC2=O)cc1F
REMARK SMILES IDX 1 1 2 2 3 3 4 4 13 5 14 6 15 7 16 8 17 9 29 10 18 11 28 12
REMARK SMILES IDX 19 13 30 14 20 15 21 16 22 17 26 18 23 19 25 20 27 21 24 22
REMARK SMILES IDX 5 24 6 26 7 27 8 28 12 29 9 30 11 31 10 32
REMARK H PARENT 25 23 5 25
ROOT
ATOM      1  C   UNL     1       0.589   0.064   2.711  1.00  0.00     0.067 C 
ATOM      2  C   UNL     1       0.004  -0.032   1.330  1.00  0.00     0.048 A 
ATOM      3  N   UNL     1      -1.354  -0.121   1.279  1.00  0.00    -0.236 NA
ATOM      4  C   UNL     1      -1.949  -0.205   0.077  1.00  0.00     0.126 A 
ATOM      5  C   UNL     1      -1.227  -0.215  -1.105  1.00  0.00     0.047 A 
ATOM      6  C   UNL     1       0.161  -0.118  -1.050  1.00  0.00     0.014 A 
ATOM      7  C   UNL     1       0.814  -0.024   0.184  1.00  0.00     0.006 A 
ENDROOT
BRANCH   7   8
ATOM      8  C   UNL     1       2.277   0.084   0.229  1.00  0.00     0.019 A 
ATOM      9  C   UNL     1       2.915   1.284  -0.122  1.00  0.00     0.012 A 
ATOM     10  C   UNL     1       3.081  -0.997   0.611  1.00  0.00     0.131 A 
ATOM     11  C   UNL     1       4.310   1.391  -0.087  1.00  0.00     0.009 A 
ATOM     12  C   UNL     1       4.471  -0.900   0.648  1.00  0.00     0.048 A 
ATOM     13  C   UNL     1       5.096   0.297   0.290  1.00  0.00    -0.021 A 
ATOM     14  F   UNL     1       2.517  -2.164   0.957  1.00  0.00    -0.206 F 
BRANCH  13  15
ATOM     15  C   UNL     1       6.554   0.438   0.331  1.00  0.00     0.029 C 
BRANCH  15  16
ATOM     16  C   UNL     1       7.427  -0.203  -0.458  1.00  0.00     0.083 C 
ATOM     17  S   UNL     1       7.103  -1.333  -1.719  1.00  0.00    -0.022 SA
ATOM     18  C   UNL     1       8.893   0.019  -0.347  1.00  0.00     0.265 C 
ATOM     19  C   UNL     1       8.803  -1.521  -2.097  1.00  0.00     0.290 C 
ATOM     20  N   UNL     1       9.546  -0.745  -1.267  1.00  0.00    -0.282 N 
ATOM     21  O   UNL     1       9.436   0.774   0.442  1.00  0.00    -0.268 OA
ATOM     22  O   UNL     1       9.236  -2.242  -2.978  1.00  0.00    -0.261 OA
ATOM     23  H   UNL     1      10.549  -0.722  -1.347  1.00  0.00     0.174 HD
ENDBRANCH  15  16
ENDBRANCH  13  15
ENDBRANCH   7   8
BRANCH   4  24
ATOM     24  N   UNL     1      -3.341  -0.314   0.105  1.00  0.00    -0.370 N 
ATOM     25  H   UNL     1      -3.540  -0.306   1.106  1.00  0.00     0.162 HD
BRANCH  24  26
ATOM     26  C   UNL     1      -4.033   0.776  -0.581  1.00  0.00     0.118 C 
BRANCH  26  27
ATOM     27  C   UNL     1      -5.557   0.591  -0.528  1.00  0.00     0.013 C 
ATOM     28  C   UNL     1      -6.026  -0.659  -1.294  1.00  0.00     0.034 C 
ATOM     29  C   UNL     1      -6.125   0.580   0.894  1.00  0.00     0.034 C 
ATOM     30  C   UNL     1      -7.366  -1.178  -0.779  1.00  0.00     0.160 C 
ATOM     31  C   UNL     1      -7.653   0.507   0.865  1.00  0.00     0.160 C 
ATOM     32  O   UNL     1      -8.170  -0.095  -0.324  1.00  0.00    -0.381 OA
ENDBRANCH  26  27
ENDBRANCH  24  26
ENDBRANCH   4  24
TORSDOF 6
