REMARK SMILES Cc1nc(N2CCN(Cc3ccncc3)CC2)cc(C(F)(F)F)c1C#N
REMARK SMILES IDX 1 1 2 2 3 3 4 4 18 5 19 6 24 7 25 8 26 9 5 10 6 11 17 12
REMARK SMILES IDX 7 13 16 14 8 15 9 16 10 17 11 18 15 19 12 20 14 21 13 22
REMARK SMILES IDX 20 23 21 24 22 25 23 26
REMARK H PARENT
ROOT
ATOM      1  C   UNL     1       4.683  -1.861  -0.976  1.00  0.00     0.068 C 
ATOM      2  C   UNL     1       4.004  -0.722  -0.268  1.00  0.00     0.058 A 
ATOM      3  N   UNL     1       2.730  -0.464  -0.664  1.00  0.00    -0.235 NA
ATOM      4  C   UNL     1       2.025   0.533  -0.089  1.00  0.00     0.129 A 
ATOM      5  C   UNL     1       2.615   1.316   0.896  1.00  0.00     0.061 A 
ATOM      6  C   UNL     1       3.932   1.066   1.320  1.00  0.00     0.079 A 
ATOM      7  C   UNL     1       4.642   0.018   0.725  1.00  0.00     0.086 A 
ENDROOT
BRANCH   7   8
ATOM      8  C   UNL     1       5.988  -0.290   1.111  1.00  0.00     0.102 C 
ATOM      9  N   UNL     1       7.076  -0.544   1.421  1.00  0.00    -0.192 NA
ENDBRANCH   7   8
BRANCH   4  10
ATOM     10  N   UNL     1       0.737   0.782  -0.532  1.00  0.00    -0.354 N 
ATOM     11  C   UNL     1       0.280   0.007  -1.695  1.00  0.00     0.133 C 
ATOM     12  C   UNL     1      -0.308   1.190   0.423  1.00  0.00     0.133 C 
ATOM     13  C   UNL     1      -1.117   0.490  -2.145  1.00  0.00     0.106 C 
ATOM     14  C   UNL     1      -1.596   0.351   0.246  1.00  0.00     0.106 C 
ATOM     15  N   UNL     1      -2.179   0.408  -1.115  1.00  0.00    -0.296 NA
BRANCH  15  16
ATOM     16  C   UNL     1      -3.078  -0.729  -1.365  1.00  0.00     0.120 C 
BRANCH  16  17
ATOM     17  C   UNL     1      -4.296  -0.736  -0.469  1.00  0.00    -0.031 A 
ATOM     18  C   UNL     1      -5.188   0.342  -0.470  1.00  0.00     0.025 A 
ATOM     19  C   UNL     1      -4.567  -1.820   0.370  1.00  0.00     0.025 A 
ATOM     20  C   UNL     1      -6.294   0.292   0.364  1.00  0.00     0.111 A 
ATOM     21  C   UNL     1      -5.702  -1.777   1.166  1.00  0.00     0.111 A 
ATOM     22  N   UNL     1      -6.571  -0.744   1.183  1.00  0.00    -0.265 NA
ENDBRANCH  16  17
ENDBRANCH  15  16
ENDBRANCH   4  10
BRANCH   6  23
ATOM     23  C   UNL     1       4.554   1.923   2.387  1.00  0.00     0.417 C 
ATOM     24  F   UNL     1       5.664   2.575   1.950  1.00  0.00    -0.166 F 
ATOM     25  F   UNL     1       3.719   2.890   2.859  1.00  0.00    -0.166 F 
ATOM     26  F   UNL     1       4.933   1.202   3.475  1.00  0.00    -0.166 F 
ENDBRANCH   6  23
TORSDOF 5
