MODEL        2USER    Run = 2USERUSER    Estimated Free Energy of Binding    =  -7.98 kcal/mol  [=(1)+(2)+(3)-(4)]USERUSER    (1) Final Intermolecular Energy     =  -9.47 kcal/molUSER        vdW + Hbond + desolv Energy     =  -9.19 kcal/molUSER        Electrostatic Energy            =  -0.28 kcal/molUSER        Moving Ligand-Fixed Receptor    =  -9.47 kcal/molUSER        Moving Ligand-Moving Receptor   =  +0.00 kcal/molUSER    (2) Final Total Internal Energy     =  -1.31 kcal/molUSER    (3) Torsional Free Energy           =  +1.49 kcal/molUSER    (4) Unbound System's Energy         =  -1.31 kcal/molUSERUSERREMARK SMILES O=Cc1cc(F)ccc1Cc1ccc(CN2CCOCC2)[nH]c1=OREMARK SMILES IDX 10 1 9 2 3 3 4 4 5 5 8 6 7 7 6 8 2 9 1 10 11 11 12 12 23 13REMARK SMILES IDX 13 14 22 15 14 16 24 17 15 19 16 20 17 21 21 22 18 23 20 24REMARK SMILES IDX 19 25REMARK H PARENT 22 18USER                              x       y       z     vdW  Elec       q    TypeUSER                           _______ _______ _______ _____ _____    ______ ____ROOTATOM      1  C   UNL     1      31.078  43.203  17.386 -0.28 -0.02    +0.077 C  ENDROOTBRANCH   1   2ATOM      2  C   UNL     1      30.880  41.718  17.659 -0.27 +0.01    -0.033 A  ATOM      3  C   UNL     1      31.654  41.052  18.639 -0.34 -0.00    +0.021 A  ATOM      4  C   UNL     1      31.488  39.680  18.878 -0.38 +0.00    +0.051 A  ATOM      5  C   UNL     1      30.551  38.965  18.148 -0.30 +0.02    +0.123 A  ATOM      6  C   UNL     1      29.940  40.953  16.936 -0.34 -0.00    +0.008 A  ATOM      7  C   UNL     1      29.777  39.588  17.182 -0.31 +0.01    +0.039 A  ATOM      8  F   UNL     1      30.393  37.655  18.378 -0.14 -0.10    -0.207 F  BRANCH   3   9ATOM      9  C   UNL     1      32.676  41.758  19.452 -0.15 +0.02    +0.260 C  ATOM     10  O   UNL     1      32.484  42.879  19.909 -0.69 -0.04    -0.298 OA ENDBRANCH   3   9ENDBRANCH   1   2BRANCH   1  11ATOM     11  C   UNL     1      32.386  43.627  16.781 -0.30 -0.01    +0.022 A  ATOM     12  C   UNL     1      33.499  42.869  16.773 -0.35 -0.00    +0.011 A  ATOM     13  C   UNL     1      32.459  45.006  16.202 -0.16 -0.15    +0.251 A  ATOM     14  C   UNL     1      34.733  43.345  16.190 -0.37 -0.01    +0.023 A  ATOM     15  N   UNL     1      33.676  45.376  15.691 -0.12 +0.29    -0.325 N  ATOM     16  C   UNL     1      34.802  44.582  15.671 -0.29 -0.02    +0.032 A  ATOM     17  O   UNL     1      31.486  45.752  16.184 -0.75 +0.11    -0.269 OA ATOM     18  H   UNL     1      33.733  46.291  15.253 -0.20 -0.27    +0.170 HD BRANCH  16  19ATOM     19  C   UNL     1      36.047  45.169  15.040 -0.33 -0.07    +0.138 C  BRANCH  19  20ATOM     20  N   UNL     1      35.829  46.521  14.495 -0.21 +0.22    -0.293 NA ATOM     21  C   UNL     1      35.434  46.507  13.067 -0.50 -0.07    +0.113 C  ATOM     22  C   UNL     1      37.039  47.353  14.689 -0.44 -0.07    +0.113 C  ATOM     23  C   UNL     1      36.592  46.808  12.103 -0.61 -0.07    +0.175 C  ATOM     24  C   UNL     1      37.093  48.523  13.697 -0.46 -0.09    +0.175 C  ATOM     25  O   UNL     1      37.208  48.082  12.337 -0.91 +0.04    -0.379 OA ENDBRANCH  19  20ENDBRANCH  16  19ENDBRANCH   1  11TORSDOF 5TERENDMDL