MODEL        8USER    Run = 8USERUSER    Estimated Free Energy of Binding    =  -7.96 kcal/mol  [=(1)+(2)+(3)-(4)]USERUSER    (1) Final Intermolecular Energy     = -12.14 kcal/molUSER        vdW + Hbond + desolv Energy     = -11.97 kcal/molUSER        Electrostatic Energy            =  -0.31 kcal/molUSER        Moving Ligand-Fixed Receptor    = -12.28 kcal/molUSER        Moving Ligand-Moving Receptor   =  +0.14 kcal/molUSER    (2) Final Total Internal Energy     =  -2.32 kcal/molUSER    (3) Torsional Free Energy           =  +4.18 kcal/molUSER    (4) Unbound System's Energy         =  -2.32 kcal/molUSERUSERREMARK SMILES COc1ccc(O)c(C(=O)c2ccc(C(=O)N[C@@H]3CCCNC[C@H]3NC(=O)c3ccncc3)cc2)c1FREMARK SMILES IDX 15 1 16 2 17 3 14 5 11 6 12 7 35 8 13 9 34 10 9 11 10 12REMARK SMILES IDX 8 13 3 14 4 15 36 16 5 17 6 18 37 19 2 20 1 21 7 22 18 24REMARK SMILES IDX 19 25 24 27 23 28 22 29 21 31 20 32 25 34 26 35 27 37 28 38REMARK SMILES IDX 29 39 33 40 30 41 32 42 31 43REMARK H PARENT 17 4 7 23 22 30 25 36REMARK Flexibility Score:   88.900USER                              x       y       z     vdW  Elec       q    TypeUSER                           _______ _______ _______ _____ _____    ______ ____ROOTATOM      1  C   UNL     1      39.859  46.023  16.233 -0.22 -0.04    +0.251 C  ATOM      2  O   UNL     1      40.503  45.741  15.229 -0.26 +0.00    -0.269 OA ATOM      3  N   UNL     1      38.484  46.148  16.241 -0.15 +0.11    -0.347 N  ATOM      4  H   UNL     1      38.052  46.581  17.046 +0.10 -0.06    +0.164 HD ENDROOTBRANCH   1   5ATOM      5  C   UNL     1      40.557  46.328  17.513 -0.46 -0.00    +0.039 A  ATOM      6  C   UNL     1      41.882  46.762  19.945 -0.34 +0.00    +0.023 A  ATOM      7  C   UNL     1      40.982  45.700  19.818 -0.41 +0.00    +0.013 A  ATOM      8  C   UNL     1      42.120  47.608  18.856 -0.41 +0.00    +0.013 A  ATOM      9  C   UNL     1      40.312  45.491  18.610 -0.45 -0.00    +0.014 A  ATOM     10  C   UNL     1      41.449  47.399  17.643 -0.44 -0.00    +0.014 A  BRANCH   6  11ATOM     11  C   UNL     1      42.625  46.893  21.217 -0.29 +0.04    +0.199 C  ATOM     12  O   UNL     1      43.855  46.959  21.166 -0.40 -0.16    -0.288 OA BRANCH  11  13ATOM     13  C   UNL     1      41.982  46.998  22.548 -0.20 +0.01    +0.104 A  ATOM     14  C   UNL     1      40.628  46.079  24.359 -0.09 +0.01    +0.155 A  ATOM     15  C   UNL     1      40.796  47.260  25.086 -0.17 +0.00    +0.053 A  ATOM     16  C   UNL     1      41.228  45.958  23.093 -0.11 +0.02    +0.179 A  ATOM     17  C   UNL     1      41.571  48.298  24.562 -0.30 +0.01    +0.051 A  ATOM     18  C   UNL     1      42.168  48.160  23.312 -0.27 +0.02    +0.130 A  ATOM     19  F   UNL     1      41.088  44.802  22.425 -0.02 -0.01    -0.202 F  BRANCH  14  20ATOM     20  O   UNL     1      39.907  44.991  24.773 +0.02 -0.02    -0.494 OA ATOM     21  C   UNL     1      38.500  45.023  24.556 -0.15 +0.02    +0.278 C  ENDBRANCH  14  20BRANCH  18  22ATOM     22  O   UNL     1      42.935  49.216  22.893 -0.74 -0.21    -0.507 OA ATOM     23  H   UNL     1      43.465  48.907  22.120 -0.40 +0.02    +0.293 HD ENDBRANCH  18  22ENDBRANCH  11  13ENDBRANCH   6  11ENDBRANCH   1   5BRANCH   3  24ATOM     24  C   UNL     1      37.721  46.147  14.987 -0.38 -0.04    +0.106 C  BRANCH  24  25ATOM     25  C   UNL     1      38.355  47.129  13.993 -0.52 -0.01    +0.028 CG0ATOM     26  G   UNL     1      37.555  47.384  12.705 +0.00 +0.00    +0.000 G0 ENDBRANCH  24  25BRANCH  24  27ATOM     27  C   UNL     1      36.215  46.418  15.269 -0.36 -0.09    +0.118 C  BRANCH  27  28ATOM     28  C   UNL     1      35.258  46.055  14.109 -0.38 -0.08    +0.108 C  BRANCH  28  29ATOM     29  N   UNL     1      35.070  47.059  13.057 -0.22 +0.24    -0.315 NA ATOM     30  H   UNL     1      34.849  46.601  12.176 -0.24 -0.10    +0.122 HD BRANCH  29  31ATOM     31  C   UNL     1      36.167  48.000  12.861 -0.59 -0.04    +0.081 C  BRANCH  31  32ATOM     32  C   UNL     1      37.555  47.383  12.705 -0.58 -0.00    +0.017 CG0ATOM     33  G   UNL     1      38.353  47.130  13.994 +0.00 +0.00    +0.000 G0 ENDBRANCH  31  32ENDBRANCH  29  31ENDBRANCH  28  29ENDBRANCH  27  28BRANCH  27  34ATOM     34  N   UNL     1      35.808  45.757  16.515 -0.12 +0.23    -0.346 N  ATOM     35  C   UNL     1      35.968  44.402  16.698 -0.21 -0.10    +0.251 C  ATOM     36  H   UNL     1      35.671  46.344  17.323 +0.10 -0.13    +0.164 HD ATOM     37  O   UNL     1      36.367  43.642  15.825 -0.29 +0.09    -0.269 OA BRANCH  35  38ATOM     38  C   UNL     1      35.655  43.879  18.050 -0.29 -0.01    +0.042 A  ATOM     39  C   UNL     1      34.582  42.998  18.187 -0.34 -0.01    +0.034 A  ATOM     40  C   UNL     1      36.383  44.263  19.178 -0.35 -0.01    +0.034 A  ATOM     41  C   UNL     1      34.294  42.518  19.449 -0.34 -0.00    +0.112 A  ATOM     42  C   UNL     1      36.013  43.726  20.398 -0.34 -0.00    +0.112 A  ATOM     43  N   UNL     1      34.988  42.858  20.556 -0.37 -0.02    -0.265 NA ENDBRANCH  35  38ENDBRANCH  27  34ENDBRANCH  24  27ENDBRANCH   3  24TORSDOF 8TERENDMDL