REMARK SMILES CO[C@@H]1CC=C(c2nc(NCc3cccnc3)c3ncn(CC4CC4)c3n2)N=N1
REMARK SMILES IDX 7 1 8 2 9 3 18 4 19 5 20 6 21 7 26 8 27 9 6 10 3 11 4 12
REMARK SMILES IDX 29 13 5 14 28 15 2 16 1 17 10 18 11 20 12 21 13 22 17 23
REMARK SMILES IDX 14 24 16 25 15 26 22 27 23 28 24 29 25 30
REMARK H PARENT 10 19
ROOT
ATOM      1  C   UNL     1      -0.591  -0.245  -0.984  1.00  0.00     0.183 A 
ATOM      2  N   UNL     1       0.693  -0.357  -1.420  1.00  0.00    -0.207 NA
ATOM      3  C   UNL     1       1.591   0.623  -1.139  1.00  0.00     0.158 A 
ATOM      4  C   UNL     1       1.141   1.727  -0.395  1.00  0.00     0.150 A 
ATOM      5  N   UNL     1       1.784   2.862   0.062  1.00  0.00    -0.231 NA
ATOM      6  C   UNL     1       0.854   3.532   0.711  1.00  0.00     0.202 A 
ATOM      7  N   UNL     1      -0.350   2.880   0.696  1.00  0.00    -0.315 N 
ATOM      8  C   UNL     1      -0.185   1.719  -0.005  1.00  0.00     0.166 A 
ATOM      9  N   UNL     1      -1.103   0.778  -0.261  1.00  0.00    -0.206 NA
ENDROOT
BRANCH   1  10
ATOM     10  C   UNL     1      -1.530  -1.357  -1.328  1.00  0.00     0.126 C 
ATOM     11  C   UNL     1      -3.108  -3.590  -1.279  1.00  0.00     0.260 C 
ATOM     12  C   UNL     1      -2.103  -3.469  -2.432  1.00  0.00     0.088 C 
ATOM     13  N   UNL     1      -3.623  -2.250  -0.915  1.00  0.00    -0.156 NA
ATOM     14  C   UNL     1      -1.144  -2.359  -2.142  1.00  0.00     0.012 C 
ATOM     15  N   UNL     1      -2.823  -1.285  -0.840  1.00  0.00    -0.150 NA
BRANCH  11  16
ATOM     16  O   UNL     1      -2.480  -4.353  -0.232  1.00  0.00    -0.358 OA
ATOM     17  C   UNL     1      -3.338  -4.526   0.886  1.00  0.00     0.198 C 
ENDBRANCH  11  16
ENDBRANCH   1  10
BRANCH   3  18
ATOM     18  N   UNL     1       2.913   0.536  -1.585  1.00  0.00    -0.364 N 
ATOM     19  H   UNL     1       3.477   1.229  -1.096  1.00  0.00     0.162 HD
BRANCH  18  20
ATOM     20  C   UNL     1       3.489  -0.797  -1.623  1.00  0.00     0.152 C 
BRANCH  20  21
ATOM     21  C   UNL     1       3.900  -1.259  -0.252  1.00  0.00    -0.010 A 
ATOM     22  C   UNL     1       5.080  -0.814   0.351  1.00  0.00     0.009 A 
ATOM     23  C   UNL     1       3.099  -2.132   0.479  1.00  0.00     0.116 A 
ATOM     24  C   UNL     1       5.415  -1.259   1.626  1.00  0.00     0.020 A 
ATOM     25  N   UNL     1       3.403  -2.585   1.717  1.00  0.00    -0.264 NA
ATOM     26  C   UNL     1       4.553  -2.136   2.262  1.00  0.00     0.111 A 
ENDBRANCH  20  21
ENDBRANCH  18  20
ENDBRANCH   3  18
BRANCH   7  27
ATOM     27  C   UNL     1      -1.573   3.329   1.333  1.00  0.00     0.129 C 
BRANCH  27  28
ATOM     28  C   UNL     1      -2.418   4.134   0.394  1.00  0.00     0.009 C 
ATOM     29  C   UNL     1      -3.413   5.130   0.934  1.00  0.00     0.006 C 
ATOM     30  C   UNL     1      -2.187   5.613   0.210  1.00  0.00     0.006 C 
ENDBRANCH  27  28
ENDBRANCH   7  27
TORSDOF 7
