MODEL        10USER    Run = 10USERUSER    Estimated Free Energy of Binding    = -10.15 kcal/mol  [=(1)+(2)+(3)-(4)]USERUSER    (1) Final Intermolecular Energy     = -11.94 kcal/molUSER        vdW + Hbond + desolv Energy     = -11.79 kcal/molUSER        Electrostatic Energy            =  -0.15 kcal/molUSER        Moving Ligand-Fixed Receptor    = -11.94 kcal/molUSER        Moving Ligand-Moving Receptor   =  +0.00 kcal/molUSER    (2) Final Total Internal Energy     =  -1.58 kcal/molUSER    (3) Torsional Free Energy           =  +1.79 kcal/molUSER    (4) Unbound System's Energy         =  -1.58 kcal/molUSERUSERREMARK SMILES Cc1c(C(=Cc2ccccn2)C(N)=O)cccc1-c1ccc(C(F)(F)F)cc1REMARK SMILES IDX 1 1 2 2 3 3 15 4 16 5 17 6 18 7 4 8 5 9 6 10 7 11 11 12 8 13REMARK SMILES IDX 10 14 9 15 12 16 13 17 14 18 19 21 20 22 28 23 21 24 27 25REMARK SMILES IDX 22 26 23 27 24 28 25 29 26 30REMARK H PARENT 13 19 13 20USER                              x       y       z     vdW  Elec       q    TypeUSER                           _______ _______ _______ _____ _____    ______ ____ROOTATOM      1  C   UNL     1      36.900  46.561  16.368 -0.40 -0.03    +0.045 C  ATOM      2  C   UNL     1      38.013  46.040  17.250 -0.36 +0.01    -0.035 A  ATOM      3  C   UNL     1      39.362  46.382  16.979 -0.44 +0.00    -0.009 A  ATOM      4  C   UNL     1      40.388  45.897  17.808 -0.47 -0.00    +0.009 A  ATOM      5  C   UNL     1      40.098  45.066  18.884 -0.44 -0.00    +0.001 A  ATOM      6  C   UNL     1      38.779  44.702  19.137 -0.38 -0.00    +0.009 A  ATOM      7  C   UNL     1      37.724  45.168  18.330 -0.36 +0.00    -0.015 A  ENDROOTBRANCH   3   8ATOM      8  C   UNL     1      39.746  47.228  15.820 -0.52 -0.01    +0.049 C  BRANCH   8   9ATOM      9  C   UNL     1      39.542  46.710  14.592 -0.49 -0.01    +0.042 C  BRANCH   9  10ATOM     10  C   UNL     1      38.339  46.760  13.764 -0.38 -0.02    +0.064 A  ATOM     11  C   UNL     1      37.669  45.618  13.340 -0.37 -0.01    +0.028 A  ATOM     12  N   UNL     1      37.870  48.011  13.540 -0.62 +0.08    -0.257 NA ATOM     13  C   UNL     1      36.492  45.764  12.612 -0.58 -0.00    +0.004 A  ATOM     14  C   UNL     1      36.729  48.121  12.827 -0.46 -0.04    +0.111 A  ATOM     15  C   UNL     1      36.010  47.040  12.344 -0.65 -0.01    +0.020 A  ENDBRANCH   9  10ENDBRANCH   8   9BRANCH   8  16ATOM     16  C   UNL     1      40.303  48.602  16.047 -0.43 -0.07    +0.249 C  ATOM     17  N   UNL     1      39.566  49.620  15.519 -0.06 +0.22    -0.366 N  ATOM     18  O   UNL     1      41.326  48.839  16.674 -0.94 +0.01    -0.270 OA ATOM     19  H   UNL     1      38.736  49.471  14.963 -0.33 -0.13    +0.159 HD ATOM     20  H   UNL     1      39.924  50.558  15.624 -0.34 -0.11    +0.159 HD ENDBRANCH   8  16ENDBRANCH   3   8BRANCH   7  21ATOM     21  C   UNL     1      36.359  44.720  18.644 -0.34 +0.00    -0.018 A  ATOM     22  C   UNL     1      36.119  43.412  19.090 -0.35 -0.00    +0.009 A  ATOM     23  C   UNL     1      35.267  45.587  18.495 -0.29 -0.00    +0.009 A  ATOM     24  C   UNL     1      34.821  42.982  19.385 -0.41 -0.00    +0.014 A  ATOM     25  C   UNL     1      33.969  45.160  18.790 -0.42 -0.01    +0.014 A  ATOM     26  C   UNL     1      33.731  43.851  19.236 -0.37 -0.01    +0.056 A  BRANCH  26  27ATOM     27  C   UNL     1      32.326  43.407  19.558 -0.17 -0.00    +0.416 C  ATOM     28  F   UNL     1      31.827  44.025  20.664 -0.22 -0.01    -0.166 F  ATOM     29  F   UNL     1      32.217  42.070  19.796 -0.11 -0.02    -0.166 F  ATOM     30  F   UNL     1      31.449  43.677  18.551 -0.09 +0.01    -0.166 F  ENDBRANCH  26  27ENDBRANCH   7  21TORSDOF 6TERENDMDL