REMARK SMILES Cc1c(C(=Cc2ccccn2)C(N)=O)cccc1-c1ccc(C(F)(F)F)cc1
REMARK SMILES IDX 1 1 2 2 3 3 15 4 16 5 17 6 18 7 4 8 5 9 6 10 7 11 11 12 8 13
REMARK SMILES IDX 10 14 9 15 12 16 13 17 14 18 19 21 20 22 28 23 21 24 27 25
REMARK SMILES IDX 22 26 23 27 24 28 25 29 26 30
REMARK H PARENT 13 19 13 20
ROOT
ATOM      1  C   UNL     1      -0.329   1.017   0.582  1.00  0.00     0.045 C 
ATOM      2  C   UNL     1      -0.491  -0.232  -0.255  1.00  0.00    -0.035 A 
ATOM      3  C   UNL     1       0.627  -0.806  -0.911  1.00  0.00    -0.009 A 
ATOM      4  C   UNL     1       0.466  -1.970  -1.682  1.00  0.00     0.009 A 
ATOM      5  C   UNL     1      -0.785  -2.558  -1.826  1.00  0.00     0.001 A 
ATOM      6  C   UNL     1      -1.892  -1.983  -1.209  1.00  0.00     0.009 A 
ATOM      7  C   UNL     1      -1.771  -0.818  -0.428  1.00  0.00    -0.015 A 
ENDROOT
BRANCH   3   8
ATOM      8  C   UNL     1       1.982  -0.203  -0.837  1.00  0.00     0.049 C 
BRANCH   8   9
ATOM      9  C   UNL     1       2.913  -0.877  -0.132  1.00  0.00     0.042 C 
BRANCH   9  10
ATOM     10  C   UNL     1       4.329  -0.564   0.052  1.00  0.00     0.064 A 
ATOM     11  C   UNL     1       4.768   0.554   0.751  1.00  0.00     0.028 A 
ATOM     12  N   UNL     1       5.173  -1.514  -0.417  1.00  0.00    -0.257 NA
ATOM     13  C   UNL     1       6.136   0.734   0.935  1.00  0.00     0.004 A 
ATOM     14  C   UNL     1       6.495  -1.310  -0.228  1.00  0.00     0.111 A 
ATOM     15  C   UNL     1       7.021  -0.213   0.434  1.00  0.00     0.020 A 
ENDBRANCH   9  10
ENDBRANCH   8   9
BRANCH   8  16
ATOM     16  C   UNL     1       2.270   1.083  -1.553  1.00  0.00     0.249 C 
ATOM     17  N   UNL     1       1.549   1.286  -2.692  1.00  0.00    -0.366 N 
ATOM     18  O   UNL     1       3.067   1.927  -1.167  1.00  0.00    -0.270 OA
ATOM     19  H   UNL     1       0.907   0.603  -3.069  1.00  0.00     0.159 HD
ATOM     20  H   UNL     1       1.736   2.127  -3.219  1.00  0.00     0.159 HD
ENDBRANCH   8  16
ENDBRANCH   3   8
BRANCH   7  21
ATOM     21  C   UNL     1      -2.989  -0.254   0.172  1.00  0.00    -0.018 A 
ATOM     22  C   UNL     1      -3.570  -0.845   1.304  1.00  0.00     0.009 A 
ATOM     23  C   UNL     1      -3.602   0.881  -0.379  1.00  0.00     0.009 A 
ATOM     24  C   UNL     1      -4.731  -0.313   1.874  1.00  0.00     0.014 A 
ATOM     25  C   UNL     1      -4.762   1.415   0.189  1.00  0.00     0.014 A 
ATOM     26  C   UNL     1      -5.341   0.822   1.321  1.00  0.00     0.056 A 
BRANCH  26  27
ATOM     27  C   UNL     1      -6.589   1.414   1.928  1.00  0.00     0.416 C 
ATOM     28  F   UNL     1      -6.368   2.641   2.475  1.00  0.00    -0.166 F 
ATOM     29  F   UNL     1      -7.126   0.653   2.923  1.00  0.00    -0.166 F 
ATOM     30  F   UNL     1      -7.584   1.586   1.014  1.00  0.00    -0.166 F 
ENDBRANCH  26  27
ENDBRANCH   7  21
TORSDOF 6
