REMARK SMILES COc1ccc(-c2cccc(C(=Cc3ccccn3)C(N)=O)c2C)cc1
REMARK SMILES IDX 7 1 8 2 9 3 10 4 11 5 23 6 24 7 6 8 3 9 4 10 26 11 5 12
REMARK SMILES IDX 25 13 2 14 1 15 12 16 13 17 14 18 15 19 19 20 16 21 18 22
REMARK SMILES IDX 17 23 20 24 21 25 22 26
REMARK H PARENT 21 27 21 28
ROOT
ATOM      1  C   UNL     1       1.498   1.510   0.002  1.00  0.00    -0.015 A 
ATOM      2  C   UNL     1       1.488   2.819  -0.515  1.00  0.00     0.009 A 
ATOM      3  C   UNL     1       0.294   3.494  -0.747  1.00  0.00     0.001 A 
ATOM      4  C   UNL     1      -0.916   2.867  -0.473  1.00  0.00     0.009 A 
ATOM      5  C   UNL     1      -0.946   1.560   0.043  1.00  0.00    -0.009 A 
ATOM      6  C   UNL     1       0.266   0.872   0.299  1.00  0.00    -0.035 A 
ATOM      7  C   UNL     1       0.261  -0.538   0.844  1.00  0.00     0.045 C 
ENDROOT
BRANCH   1   8
ATOM      8  C   UNL     1       2.797   0.858   0.218  1.00  0.00    -0.018 A 
ATOM      9  C   UNL     1       5.304  -0.374   0.623  1.00  0.00     0.118 A 
ATOM     10  C   UNL     1       4.596  -0.595  -0.557  1.00  0.00     0.047 A 
ATOM     11  C   UNL     1       4.758   0.462   1.599  1.00  0.00     0.047 A 
ATOM     12  C   UNL     1       3.353   0.018  -0.758  1.00  0.00     0.012 A 
ATOM     13  C   UNL     1       3.517   1.074   1.401  1.00  0.00     0.012 A 
BRANCH   9  14
ATOM     14  O   UNL     1       6.523  -0.906   0.943  1.00  0.00    -0.497 OA
ATOM     15  C   UNL     1       7.120  -1.771  -0.015  1.00  0.00     0.278 C 
ENDBRANCH   9  14
ENDBRANCH   1   8
BRANCH   5  16
ATOM     16  C   UNL     1      -2.285   0.961   0.274  1.00  0.00     0.049 C 
BRANCH  16  17
ATOM     17  C   UNL     1      -2.769   0.194  -0.727  1.00  0.00     0.042 C 
BRANCH  17  18
ATOM     18  C   UNL     1      -4.004  -0.594  -0.836  1.00  0.00     0.064 A 
ATOM     19  C   UNL     1      -4.008  -1.750  -1.618  1.00  0.00     0.028 A 
ATOM     20  N   UNL     1      -5.118  -0.130  -0.223  1.00  0.00    -0.257 NA
ATOM     21  C   UNL     1      -5.194  -2.469  -1.758  1.00  0.00     0.004 A 
ATOM     22  C   UNL     1      -6.255  -0.851  -0.373  1.00  0.00     0.111 A 
ATOM     23  C   UNL     1      -6.343  -2.012  -1.123  1.00  0.00     0.020 A 
ENDBRANCH  17  18
ENDBRANCH  16  17
BRANCH  16  24
ATOM     24  C   UNL     1      -2.908   1.199   1.616  1.00  0.00     0.249 C 
ATOM     25  N   UNL     1      -4.222   1.538   1.626  1.00  0.00    -0.366 N 
ATOM     26  O   UNL     1      -2.262   1.153   2.657  1.00  0.00    -0.270 OA
ATOM     27  H   UNL     1      -4.793   1.228   0.839  1.00  0.00     0.159 HD
ATOM     28  H   UNL     1      -4.662   1.528   2.534  1.00  0.00     0.159 HD
ENDBRANCH  16  24
ENDBRANCH   5  16
TORSDOF 6
