MODEL        8USER    Run = 8USERUSER    Estimated Free Energy of Binding    =  -7.60 kcal/mol  [=(1)+(2)+(3)-(4)]USERUSER    (1) Final Intermolecular Energy     =  -9.68 kcal/molUSER        vdW + Hbond + desolv Energy     =  -9.27 kcal/molUSER        Electrostatic Energy            =  -0.41 kcal/molUSER        Moving Ligand-Fixed Receptor    =  -9.68 kcal/molUSER        Moving Ligand-Moving Receptor   =  +0.00 kcal/molUSER    (2) Final Total Internal Energy     =  -3.52 kcal/molUSER    (3) Torsional Free Energy           =  +2.09 kcal/molUSER    (4) Unbound System's Energy         =  -3.52 kcal/molUSERUSERREMARK SMILES CN1CC[C@@H](CCO)[C@@H]1NC(=O)Nc1cc(-c2ccnc(F)c2)cnc1NREMARK SMILES IDX 1 1 2 2 3 3 4 4 5 5 9 6 10 7 11 8 13 9 12 11 14 13 15 14REMARK SMILES IDX 26 15 16 16 25 17 24 18 27 19 17 22 18 23 23 24 19 25 21 26REMARK SMILES IDX 20 27 22 28 6 29 7 30 8 31REMARK H PARENT 10 10 13 12 27 20 27 21 8 32USER                              x       y       z     vdW  Elec       q    TypeUSER                           _______ _______ _______ _____ _____    ______ ____ROOTATOM      1  C   UNL     1      30.621  46.610  13.678 -0.54 -0.05    +0.107 C  ATOM      2  N   UNL     1      30.457  45.891  14.939 -0.30 +0.14    -0.286 NA ATOM      3  C   UNL     1      29.155  45.217  14.989 -0.17 -0.06    +0.086 C  ATOM      4  C   UNL     1      29.336  44.055  15.956 -0.33 -0.01    +0.023 C  ATOM      5  C   UNL     1      30.835  44.011  16.263 -0.35 -0.01    +0.030 C  ATOM      6  C   UNL     1      31.447  44.830  15.117 -0.35 -0.09    +0.157 C  ENDROOTBRANCH   6   7ATOM      7  N   UNL     1      32.653  45.504  15.499 -0.16 +0.27    -0.322 N  ATOM      8  C   UNL     1      33.801  44.830  15.820 -0.15 -0.21    +0.320 C  ATOM      9  N   UNL     1      34.793  45.702  16.202 -0.14 +0.27    -0.305 N  ATOM     10  H   UNL     1      32.517  46.445  15.828 -0.41 -0.28    +0.167 HD ATOM     11  O   UNL     1      33.903  43.614  15.741 -0.25 +0.12    -0.248 OA ATOM     12  H   UNL     1      34.673  46.633  15.831 -0.00 -0.29    +0.172 HD BRANCH   9  13ATOM     13  C   UNL     1      36.086  45.386  16.694 -0.28 -0.05    +0.086 A  ATOM     14  C   UNL     1      37.064  46.381  16.528 -0.34 -0.02    +0.040 A  ATOM     15  C   UNL     1      36.464  44.202  17.357 -0.23 -0.04    +0.147 A  ATOM     16  C   UNL     1      38.379  46.189  16.972 -0.40 -0.00    +0.002 A  ATOM     17  N   UNL     1      37.722  44.004  17.801 -0.14 +0.04    -0.237 NA ATOM     18  C   UNL     1      38.638  44.976  17.596 -0.28 -0.02    +0.122 A  BRANCH  15  19ATOM     19  N   UNL     1      35.555  43.197  17.699 -0.09 +0.11    -0.382 N  ATOM     20  H   UNL     1      35.455  42.576  16.887 +0.08 -0.06    +0.158 HD ATOM     21  H   UNL     1      34.639  43.612  17.818 +0.12 -0.05    +0.158 HD ENDBRANCH  15  19BRANCH  16  22ATOM     22  C   UNL     1      39.420  47.208  16.783 -0.46 +0.00    -0.011 A  ATOM     23  C   UNL     1      39.322  48.166  15.766 -0.49 -0.01    +0.029 A  ATOM     24  C   UNL     1      40.545  47.258  17.612 -0.45 -0.01    +0.069 A  ATOM     25  C   UNL     1      40.328  49.112  15.631 -0.51 -0.04    +0.115 A  ATOM     26  C   UNL     1      41.496  48.239  17.394 -0.22 -0.01    +0.213 A  ATOM     27  N   UNL     1      41.415  49.171  16.425 -1.00 -0.00    -0.228 NA ATOM     28  F   UNL     1      42.570  48.273  18.197 -0.19 -0.01    -0.185 F  ENDBRANCH  16  22ENDBRANCH   9  13ENDBRANCH   6   7BRANCH   5  29ATOM     29  C   UNL     1      31.414  42.593  16.386 -0.34 -0.02    +0.035 C  BRANCH  29  30ATOM     30  C   UNL     1      32.185  42.354  17.682 -0.28 -0.04    +0.156 C  BRANCH  30  31ATOM     31  O   UNL     1      33.467  41.811  17.413 -0.19 +0.16    -0.396 OA ATOM     32  H   UNL     1      33.535  41.704  16.449 -0.42 -0.15    +0.210 HD ENDBRANCH  30  31ENDBRANCH  29  30ENDBRANCH   5  29TORSDOF 7TERENDMDL