REMARK SMILES CN1CC[C@@H](CCO)[C@@H]1NC(=O)Nc1cc(-c2ccnc(F)c2)cnc1N
REMARK SMILES IDX 1 1 2 2 3 3 4 4 5 5 9 6 10 7 11 8 13 9 12 11 14 13 15 14
REMARK SMILES IDX 26 15 16 16 25 17 24 18 27 19 17 22 18 23 23 24 19 25 21 26
REMARK SMILES IDX 20 27 22 28 6 29 7 30 8 31
REMARK H PARENT 10 10 13 12 27 20 27 21 8 32
ROOT
ATOM      1  C   UNL     1      -2.985   2.963   1.659  1.00  0.00     0.107 C 
ATOM      2  N   UNL     1      -3.344   1.547   1.655  1.00  0.00    -0.286 NA
ATOM      3  C   UNL     1      -4.801   1.379   1.612  1.00  0.00     0.086 C 
ATOM      4  C   UNL     1      -5.034   0.010   0.988  1.00  0.00     0.023 C 
ATOM      5  C   UNL     1      -3.657  -0.460   0.512  1.00  0.00     0.030 C 
ATOM      6  C   UNL     1      -2.841   0.841   0.478  1.00  0.00     0.157 C 
ENDROOT
BRANCH   6   7
ATOM      7  N   UNL     1      -1.447   0.628   0.737  1.00  0.00    -0.322 N 
ATOM      8  C   UNL     1      -0.544   0.374  -0.261  1.00  0.00     0.320 C 
ATOM      9  N   UNL     1       0.711   0.155   0.255  1.00  0.00    -0.305 N 
ATOM     10  H   UNL     1      -1.237   0.355   1.682  1.00  0.00     0.167 HD
ATOM     11  O   UNL     1      -0.845   0.377  -1.447  1.00  0.00    -0.248 OA
ATOM     12  H   UNL     1       0.851   0.577   1.161  1.00  0.00     0.172 HD
BRANCH   9  13
ATOM     13  C   UNL     1       1.884  -0.229  -0.446  1.00  0.00     0.086 A 
ATOM     14  C   UNL     1       3.101   0.067   0.190  1.00  0.00     0.040 A 
ATOM     15  C   UNL     1       1.939  -0.902  -1.682  1.00  0.00     0.147 A 
ATOM     16  C   UNL     1       4.328  -0.262  -0.400  1.00  0.00     0.002 A 
ATOM     17  N   UNL     1       3.110  -1.237  -2.260  1.00  0.00    -0.237 NA
ATOM     18  C   UNL     1       4.258  -0.909  -1.627  1.00  0.00     0.122 A 
BRANCH  15  19
ATOM     19  N   UNL     1       0.801  -1.367  -2.348  1.00  0.00    -0.382 N 
ATOM     20  H   UNL     1       0.155  -0.576  -2.453  1.00  0.00     0.158 HD
ATOM     21  H   UNL     1       0.313  -2.018  -1.745  1.00  0.00     0.158 HD
ENDBRANCH  15  19
BRANCH  16  22
ATOM     22  C   UNL     1       5.610   0.063   0.239  1.00  0.00    -0.011 A 
ATOM     23  C   UNL     1       6.614   0.751  -0.455  1.00  0.00     0.029 A 
ATOM     24  C   UNL     1       5.874  -0.302   1.563  1.00  0.00     0.069 A 
ATOM     25  C   UNL     1       7.806   1.040   0.193  1.00  0.00     0.115 A 
ATOM     26  C   UNL     1       7.097   0.030   2.120  1.00  0.00     0.213 A 
ATOM     27  N   UNL     1       8.070   0.695   1.468  1.00  0.00    -0.228 NA
ATOM     28  F   UNL     1       7.335  -0.328   3.390  1.00  0.00    -0.185 F 
ENDBRANCH  16  22
ENDBRANCH   9  13
ENDBRANCH   6   7
BRANCH   5  29
ATOM     29  C   UNL     1      -3.674  -1.214  -0.826  1.00  0.00     0.035 C 
BRANCH  29  30
ATOM     30  C   UNL     1      -4.380  -2.566  -0.761  1.00  0.00     0.156 C 
BRANCH  30  31
ATOM     31  O   UNL     1      -5.774  -2.398  -0.561  1.00  0.00    -0.396 OA
ATOM     32  H   UNL     1      -6.175  -3.284  -0.590  1.00  0.00     0.210 HD
ENDBRANCH  30  31
ENDBRANCH  29  30
ENDBRANCH   5  29
TORSDOF 7
