MODEL        1USER    Run = 1USERUSER    Estimated Free Energy of Binding    = -10.31 kcal/mol  [=(1)+(2)+(3)-(4)]USERUSER    (1) Final Intermolecular Energy     = -12.10 kcal/molUSER        vdW + Hbond + desolv Energy     = -11.87 kcal/molUSER        Electrostatic Energy            =  -0.24 kcal/molUSER        Moving Ligand-Fixed Receptor    = -12.10 kcal/molUSER        Moving Ligand-Moving Receptor   =  +0.00 kcal/molUSER    (2) Final Total Internal Energy     =  -1.51 kcal/molUSER    (3) Torsional Free Energy           =  +1.79 kcal/molUSER    (4) Unbound System's Energy         =  -1.51 kcal/molUSERUSERREMARK SMILES COc1ccc(-c2cccc(C(=Cc3ccccn3)C(N)=O)c2C)cc1REMARK SMILES IDX 7 1 8 2 9 3 10 4 11 5 23 6 24 7 6 8 3 9 4 10 26 11 5 12REMARK SMILES IDX 25 13 2 14 1 15 12 16 13 17 14 18 15 19 19 20 16 21 18 22REMARK SMILES IDX 17 23 20 24 21 25 22 26REMARK H PARENT 21 27 21 28USER                              x       y       z     vdW  Elec       q    TypeUSER                           _______ _______ _______ _____ _____    ______ ____ROOTATOM      1  C   UNL     1      38.525  44.926  18.306 -0.38 +0.00    -0.015 A  ATOM      2  C   UNL     1      39.726  44.471  18.881 -0.38 -0.00    +0.009 A  ATOM      3  C   UNL     1      40.960  44.932  18.432 -0.43 +0.00    +0.001 A  ATOM      4  C   UNL     1      41.015  45.852  17.392 -0.42 -0.00    +0.009 A  ATOM      5  C   UNL     1      39.836  46.328  16.792 -0.45 +0.00    -0.009 A  ATOM      6  C   UNL     1      38.575  45.877  17.255 -0.38 +0.01    -0.035 A  ATOM      7  C   UNL     1      37.292  46.366  16.621 -0.40 -0.02    +0.045 C  ENDROOTBRANCH   1   8ATOM      8  C   UNL     1      37.259  44.392  18.829 -0.34 +0.00    -0.018 A  ATOM      9  C   UNL     1      34.818  43.392  19.832 -0.34 -0.01    +0.118 A  ATOM     10  C   UNL     1      35.807  43.836  20.708 -0.29 +0.00    +0.047 A  ATOM     11  C   UNL     1      35.051  43.448  18.456 -0.31 -0.01    +0.047 A  ATOM     12  C   UNL     1      37.017  44.334  20.209 -0.37 -0.00    +0.012 A  ATOM     13  C   UNL     1      36.258  43.943  17.956 -0.31 -0.00    +0.012 A  BRANCH   9  14ATOM     14  O   UNL     1      33.596  42.887  20.185 -0.59 -0.11    -0.497 OA ATOM     15  C   UNL     1      32.453  43.642  19.803 -0.32 +0.00    +0.278 C  ENDBRANCH   9  14ENDBRANCH   1   8BRANCH   5  16ATOM     16  C   UNL     1      39.995  47.284  15.668 -0.53 -0.01    +0.049 C  BRANCH  16  17ATOM     17  C   UNL     1      39.604  46.838  14.454 -0.43 -0.01    +0.042 C  BRANCH  17  18ATOM     18  C   UNL     1      38.305  46.897  13.770 -0.40 -0.02    +0.064 A  ATOM     19  C   UNL     1      37.685  45.709  13.381 -0.38 -0.01    +0.028 A  ATOM     20  N   UNL     1      37.785  48.113  13.483 -0.69 +0.08    -0.257 NA ATOM     21  C   UNL     1      36.476  45.770  12.690 -0.57 -0.00    +0.004 A  ATOM     22  C   UNL     1      36.607  48.143  12.814 -0.49 -0.04    +0.111 A  ATOM     23  C   UNL     1      35.923  47.012  12.399 -0.64 -0.01    +0.020 A  ENDBRANCH  17  18ENDBRANCH  16  17BRANCH  16  24ATOM     24  C   UNL     1      40.485  48.657  16.014 -0.44 -0.06    +0.249 C  ATOM     25  N   UNL     1      39.930  49.692  15.332 -0.05 +0.20    -0.366 N  ATOM     26  O   UNL     1      41.383  48.849  16.826 -0.98 +0.00    -0.270 OA ATOM     27  H   UNL     1      38.991  49.557  14.957 -0.33 -0.13    +0.159 HD ATOM     28  H   UNL     1      40.146  50.609  15.692 -0.24 -0.10    +0.159 HD ENDBRANCH  16  24ENDBRANCH   5  16TORSDOF 6TERENDMDL