MODEL        4USER    Run = 4USERUSER    Estimated Free Energy of Binding    =  -6.98 kcal/mol  [=(1)+(2)+(3)-(4)]USERUSER    (1) Final Intermolecular Energy     =  -7.28 kcal/molUSER        vdW + Hbond + desolv Energy     =  -7.27 kcal/molUSER        Electrostatic Energy            =  -0.01 kcal/molUSER        Moving Ligand-Fixed Receptor    =  -7.28 kcal/molUSER        Moving Ligand-Moving Receptor   =  +0.00 kcal/molUSER    (2) Final Total Internal Energy     =  -0.39 kcal/molUSER    (3) Torsional Free Energy           =  +0.30 kcal/molUSER    (4) Unbound System's Energy         =  -0.39 kcal/molUSERUSERREMARK SMILES Clc1cccc(Cl)c1C1=C=NCS1REMARK SMILES IDX 1 1 2 2 3 3 4 4 5 5 6 6 7 7 8 8 9 9 10 10 13 11 11 12 12 13REMARK H PARENTUSER                              x       y       z     vdW  Elec       q    TypeUSER                           _______ _______ _______ _____ _____    ______ ____ROOTATOM      1  Cl  UNL     1      41.218  49.937  15.272 -0.94 +0.02    -0.084 Cl ATOM      2  C   UNL     1      40.649  48.536  16.120 -0.55 -0.01    +0.051 A  ATOM      3  C   UNL     1      41.399  48.132  17.233 -0.49 -0.00    +0.021 A  ATOM      4  C   UNL     1      41.019  47.013  17.969 -0.53 -0.00    +0.003 A  ATOM      5  C   UNL     1      39.888  46.296  17.594 -0.46 -0.00    +0.021 A  ATOM      6  C   UNL     1      39.136  46.696  16.483 -0.40 -0.01    +0.051 A  ATOM      7  Cl  UNL     1      37.733  45.749  16.106 -0.50 +0.03    -0.084 Cl ATOM      8  C   UNL     1      39.502  47.824  15.722 -0.50 -0.01    +0.035 A  ENDROOTBRANCH   8   9ATOM      9  C   UNL     1      38.686  48.204  14.572 -0.53 -0.04    +0.081 C  ATOM     10  C   UNL     1      38.525  47.560  13.458 -0.41 +0.00    -0.002 C  ATOM     11  S   UNL     1      37.119  48.969  14.827 -0.57 +0.08    -0.091 SA ATOM     12  N   UNL     1      37.703  47.380  12.640 -0.93 +0.04    -0.231 NA ATOM     13  C   UNL     1      36.555  48.177  13.185 -0.46 -0.11    +0.228 C  ENDBRANCH   8   9TORSDOF 1TERENDMDL