MODEL        9USER    Run = 9USERUSER    Estimated Free Energy of Binding    =  -7.71 kcal/mol  [=(1)+(2)+(3)-(4)]USERUSER    (1) Final Intermolecular Energy     =  -9.80 kcal/molUSER        vdW + Hbond + desolv Energy     =  -9.76 kcal/molUSER        Electrostatic Energy            =  -0.04 kcal/molUSER        Moving Ligand-Fixed Receptor    =  -9.80 kcal/molUSER        Moving Ligand-Moving Receptor   =  +0.00 kcal/molUSER    (2) Final Total Internal Energy     =  -1.19 kcal/molUSER    (3) Torsional Free Energy           =  +2.09 kcal/molUSER    (4) Unbound System's Energy         =  -1.19 kcal/molUSERUSERREMARK SMILES O=CNC=CC=C1CC=CC=C1OCc1ccccc1REMARK SMILES IDX 6 1 5 2 4 3 3 4 2 5 1 6 7 8 8 9 12 10 9 11 11 12 10 13 13 14REMARK SMILES IDX 14 15 15 16 16 17 20 18 17 19 19 20 18 21REMARK H PARENT 3 7USER                              x       y       z     vdW  Elec       q    TypeUSER                           _______ _______ _______ _____ _____    ______ ____ROOTATOM      1  C   UNL     1      40.652  46.786  15.619 -0.49 -0.00    +0.009 C  ENDROOTBRANCH   1   2ATOM      2  C   UNL     1      40.312  48.077  15.057 -0.61 -0.00    +0.018 C  BRANCH   2   3ATOM      3  C   UNL     1      40.322  49.249  15.711 -0.62 -0.03    +0.085 C  BRANCH   3   4ATOM      4  N   UNL     1      41.338  50.170  15.663 -0.40 +0.07    -0.335 N  ATOM      5  C   UNL     1      42.128  50.371  14.556 -0.42 -0.06    +0.341 C  ATOM      6  O   UNL     1      42.059  49.781  13.486 -0.53 +0.06    -0.279 OA ATOM      7  H   UNL     1      41.506  50.769  16.465 -0.45 -0.04    +0.169 HD ENDBRANCH   3   4ENDBRANCH   2   3ENDBRANCH   1   2BRANCH   1   8ATOM      8  C   UNL     1      40.401  46.354  16.874 -0.53 +0.00    -0.002 C  ATOM      9  C   UNL     1      41.305  46.697  18.052 -0.52 -0.00    +0.066 C  ATOM     10  C   UNL     1      39.232  45.511  17.167 -0.33 -0.02    +0.123 C  ATOM     11  C   UNL     1      40.802  46.251  19.400 -0.46 -0.00    -0.022 C  ATOM     12  C   UNL     1      38.892  45.159  18.417 -0.43 -0.01    +0.046 C  ATOM     13  C   UNL     1      39.677  45.544  19.561 -0.46 +0.00    -0.000 C  BRANCH  10  14ATOM     14  O   UNL     1      38.451  45.125  16.093 -0.04 +0.12    -0.489 OA BRANCH  14  15ATOM     15  C   UNL     1      37.162  45.757  16.112 -0.23 -0.12    +0.265 C  BRANCH  15  16ATOM     16  C   UNL     1      36.928  46.453  14.792 -0.40 +0.01    -0.011 A  ATOM     17  C   UNL     1      36.510  45.730  13.665 -0.46 -0.00    +0.007 A  ATOM     18  C   UNL     1      37.139  47.835  14.669 -0.49 -0.00    +0.007 A  ATOM     19  C   UNL     1      36.302  46.376  12.444 -0.65 -0.00    +0.000 A  ATOM     20  C   UNL     1      36.933  48.478  13.446 -0.56 -0.00    +0.000 A  ATOM     21  C   UNL     1      36.514  47.749  12.336 -0.68 -0.00    +0.000 A  ENDBRANCH  15  16ENDBRANCH  14  15ENDBRANCH  10  14ENDBRANCH   1   8TORSDOF 7TERENDMDL