MODEL        9USER    Run = 9USERUSER    Estimated Free Energy of Binding    =  -8.50 kcal/mol  [=(1)+(2)+(3)-(4)]USERUSER    (1) Final Intermolecular Energy     = -12.97 kcal/molUSER        vdW + Hbond + desolv Energy     = -13.01 kcal/molUSER        Electrostatic Energy            =  -0.31 kcal/molUSER        Moving Ligand-Fixed Receptor    = -13.33 kcal/molUSER        Moving Ligand-Moving Receptor   =  +0.35 kcal/molUSER    (2) Final Total Internal Energy     =  -1.41 kcal/molUSER    (3) Torsional Free Energy           =  +4.47 kcal/molUSER    (4) Unbound System's Energy         =  -1.41 kcal/molUSERUSERREMARK SMILES C[C@H]1CNCCN(CC[C@@H](O)Cn2ccc3ccc4cc(-c5ccc(C(=O)O)cc5)ccc4c32)C1REMARK SMILES IDX 9 1 8 2 7 3 35 4 2 5 1 6 6 8 5 9 4 10 3 12 10 14 11 15 12 17REMARK SMILES IDX 13 18 14 19 34 20 15 21 33 22 16 23 32 24 19 25 17 26 31 27REMARK SMILES IDX 18 28 20 29 21 30 22 31 23 32 30 33 24 34 29 35 25 36 26 37REMARK SMILES IDX 27 38 28 39REMARK H PARENT 4 11 11 16 28 40REMARK Flexibility Score:  187.900USER                              x       y       z     vdW  Elec       q    TypeUSER                           _______ _______ _______ _____ _____    ______ ____ROOTATOM      1  C   UNL     1      29.129  44.835  16.158 -0.31 -0.01    +0.049 C  ENDROOTBRANCH   1   2ATOM      2  C   UNL     1      28.183  43.831  15.492 -0.14 -0.07    +0.087 C  BRANCH   2   3ATOM      3  N   UNL     1      26.819  44.359  15.312 -0.12 +0.14    -0.302 NA BRANCH   3   4ATOM      4  C   UNL     1      26.156  44.569  16.608 -0.36 +0.00    +0.089 C  BRANCH   4   5ATOM      5  C   UNL     1      26.555  43.495  17.647 -0.36 -0.00    +0.014 CG0ATOM      6  C   UNL     1      26.073  43.915  19.044 -0.53 -0.00    +0.010 C  ATOM      7  G   UNL     1      26.014  42.079  17.356 +0.00 +0.00    +0.000 G0 ENDBRANCH   4   5ENDBRANCH   3   4BRANCH   3   8ATOM      8  C   UNL     1      26.002  43.504  14.417 -0.24 -0.06    +0.099 C  BRANCH   8   9ATOM      9  C   UNL     1      25.580  42.099  14.927 -0.32 -0.03    +0.096 C  BRANCH   9  10ATOM     10  N   UNL     1      26.318  41.508  16.043 -0.11 +0.06    -0.315 NA ATOM     11  H   UNL     1      26.112  40.509  16.085 +0.07 +0.00    +0.122 HD BRANCH  10  12ATOM     12  C   UNL     1      26.017  42.077  17.355 -0.26 -0.01    +0.085 CG0ATOM     13  G   UNL     1      26.557  43.493  17.647 +0.00 +0.00    +0.000 G0 ENDBRANCH  10  12ENDBRANCH   9  10ENDBRANCH   8   9ENDBRANCH   3   8ENDBRANCH   2   3ENDBRANCH   1   2BRANCH   1  14ATOM     14  C   UNL     1      30.443  45.049  15.392 -0.36 -0.07    +0.135 C  BRANCH  14  15ATOM     15  O   UNL     1      31.237  45.984  16.144 -0.60 +0.13    -0.391 OA ATOM     16  H   UNL     1      31.745  46.518  15.507 -0.26 -0.22    +0.211 HD ENDBRANCH  14  15BRANCH  14  17ATOM     17  C   UNL     1      31.298  43.783  15.194 -0.32 -0.09    +0.154 C  BRANCH  17  18ATOM     18  N   UNL     1      31.811  43.197  16.423 -0.10 +0.14    -0.344 N  ATOM     19  C   UNL     1      31.065  42.307  17.163 -0.24 -0.03    +0.087 A  ATOM     20  C   UNL     1      33.045  43.412  17.030 -0.28 -0.02    +0.056 A  ATOM     21  C   UNL     1      31.852  41.826  18.174 -0.32 -0.00    +0.028 A  ATOM     22  C   UNL     1      34.153  44.297  16.767 -0.31 -0.00    +0.006 A  ATOM     23  C   UNL     1      33.098  42.497  18.098 -0.36 -0.00    +0.000 A  ATOM     24  C   UNL     1      34.160  45.303  15.778 -0.31 -0.01    +0.011 A  ATOM     25  C   UNL     1      35.315  44.153  17.573 -0.30 +0.01    -0.016 A  ATOM     26  C   UNL     1      34.262  42.399  18.880 -0.40 -0.00    +0.011 A  ATOM     27  C   UNL     1      35.284  46.111  15.568 -0.31 -0.01    +0.009 A  ATOM     28  C   UNL     1      35.358  43.213  18.601 -0.35 -0.00    +0.009 A  ATOM     29  C   UNL     1      36.433  44.974  17.340 -0.32 -0.01    +0.017 A  ATOM     30  C   UNL     1      36.441  45.957  16.338 -0.35 +0.01    -0.018 A  BRANCH  30  31ATOM     31  C   UNL     1      37.624  46.802  16.113 -0.38 +0.01    -0.018 A  ATOM     32  C   UNL     1      38.882  46.432  16.619 -0.41 -0.00    +0.009 A  ATOM     33  C   UNL     1      37.530  48.002  15.387 -0.47 -0.01    +0.009 A  ATOM     34  C   UNL     1      40.010  47.233  16.408 -0.49 -0.00    +0.016 A  ATOM     35  C   UNL     1      38.655  48.806  15.174 -0.46 -0.01    +0.016 A  ATOM     36  C   UNL     1      39.900  48.424  15.686 -0.51 -0.02    +0.059 A  BRANCH  36  37ATOM     37  C   UNL     1      41.064  49.308  15.438 -0.42 -0.06    +0.335 C  ATOM     38  O   UNL     1      41.464  49.674  14.348 -0.56 +0.05    -0.246 OA BRANCH  37  39ATOM     39  O   UNL     1      41.676  49.695  16.571 -0.84 -0.06    -0.478 OA ATOM     40  H   UNL     1      41.602  50.672  16.554 -0.27 -0.06    +0.297 HD ENDBRANCH  37  39ENDBRANCH  36  37ENDBRANCH  30  31ENDBRANCH  17  18ENDBRANCH  14  17ENDBRANCH   1  14TORSDOF 9TERENDMDL