REMARK SMILES CC=C1C=C(C=C2N=Cc3cc(Nc4cc(C)cc(C)c4N)cnc32)C=C1N
REMARK SMILES IDX 7 1 8 2 9 3 10 4 11 5 12 6 23 7 24 8 25 9 6 10 5 11 3 12
REMARK SMILES IDX 4 13 27 14 26 15 2 16 1 17 28 18 13 21 14 23 15 24 21 25
REMARK SMILES IDX 16 26 19 27 18 28 17 29 20 30 22 31
REMARK H PARENT 28 19 28 20 13 22 22 32 22 33
ROOT
ATOM      1  C   UNL     1       2.092   0.464  -0.731  1.00  0.00     0.090 C 
ATOM      2  N   UNL     1       2.542   1.090  -1.890  1.00  0.00    -0.254 NA
ATOM      3  C   UNL     1       1.475   1.388  -2.573  1.00  0.00     0.122 C 
ATOM      4  C   UNL     1       0.240   0.983  -1.932  1.00  0.00     0.023 A 
ATOM      5  C   UNL     1      -1.088   1.095  -2.275  1.00  0.00     0.039 A 
ATOM      6  C   UNL     1      -2.022   0.561  -1.375  1.00  0.00     0.058 A 
ATOM      7  C   UNL     1      -1.527  -0.005  -0.176  1.00  0.00     0.137 A 
ATOM      8  N   UNL     1      -0.211  -0.115   0.163  1.00  0.00    -0.252 NA
ATOM      9  C   UNL     1       0.626   0.393  -0.752  1.00  0.00     0.098 A 
ENDROOT
BRANCH   1  10
ATOM     10  C   UNL     1       2.834  -0.015   0.279  1.00  0.00     0.038 C 
BRANCH  10  11
ATOM     11  C   UNL     1       4.275  -0.013   0.436  1.00  0.00    -0.021 C 
ATOM     12  C   UNL     1       6.513   0.284   0.161  1.00  0.00    -0.006 C 
ATOM     13  C   UNL     1       5.191   0.489  -0.415  1.00  0.00     0.018 C 
ATOM     14  C   UNL     1       6.329  -0.430   1.422  1.00  0.00     0.039 C 
ATOM     15  C   UNL     1       5.003  -0.579   1.573  1.00  0.00     0.034 C 
BRANCH  12  16
ATOM     16  C   UNL     1       7.629   0.730  -0.439  1.00  0.00    -0.020 C 
ATOM     17  C   UNL     1       9.033   0.683   0.067  1.00  0.00     0.036 C 
ENDBRANCH  12  16
BRANCH  14  18
ATOM     18  N   UNL     1       7.329  -0.896   2.231  1.00  0.00    -0.398 N 
ATOM     19  H   UNL     1       7.003  -1.610   2.876  1.00  0.00     0.156 HD
ATOM     20  H   UNL     1       8.123  -1.224   1.689  1.00  0.00     0.156 HD
ENDBRANCH  14  18
ENDBRANCH  10  11
ENDBRANCH   1  10
BRANCH   6  21
ATOM     21  N   UNL     1      -3.404   0.720  -1.652  1.00  0.00    -0.353 N 
ATOM     22  H   UNL     1      -3.580   0.619  -2.649  1.00  0.00     0.167 HD
BRANCH  21  23
ATOM     23  C   UNL     1      -4.460   0.114  -0.912  1.00  0.00     0.062 A 
ATOM     24  C   UNL     1      -4.987  -1.110  -1.348  1.00  0.00     0.031 A 
ATOM     25  C   UNL     1      -4.897   0.679   0.310  1.00  0.00     0.058 A 
ATOM     26  C   UNL     1      -5.988  -1.756  -0.616  1.00  0.00    -0.049 A 
ATOM     27  C   UNL     1      -5.927   0.050   1.032  1.00  0.00    -0.026 A 
ATOM     28  C   UNL     1      -6.444  -1.174   0.572  1.00  0.00     0.009 A 
ATOM     29  C   UNL     1      -6.526  -3.081  -1.069  1.00  0.00     0.044 C 
ATOM     30  C   UNL     1      -6.487   0.655   2.290  1.00  0.00     0.046 C 
BRANCH  25  31
ATOM     31  N   UNL     1      -4.443   1.966   0.673  1.00  0.00    -0.397 N 
ATOM     32  H   UNL     1      -4.396   2.122   1.673  1.00  0.00     0.156 HD
ATOM     33  H   UNL     1      -3.579   2.202   0.190  1.00  0.00     0.156 HD
ENDBRANCH  25  31
ENDBRANCH  21  23
ENDBRANCH   6  21
TORSDOF 7
