REMARK SMILES NCCNCCCn1cnnc1C=CCC(=CC=CBr)CCl
REMARK SMILES IDX 8 1 9 2 10 3 11 4 12 5 7 6 6 7 5 8 4 9 3 11 2 12 1 13 13 16
REMARK SMILES IDX 14 17 15 18 16 19 17 20 18 21 19 22 20 23 21 24 22 25
REMARK H PARENT 4 10 1 14 1 15
ROOT
ATOM      1  N   UNL     1      -0.506   0.099  -1.278  1.00  0.00    -0.314 N 
ATOM      2  C   UNL     1      -0.483   0.483  -2.588  1.00  0.00     0.226 A 
ATOM      3  N   UNL     1       0.755   0.536  -3.009  1.00  0.00    -0.139 NA
ATOM      4  N   UNL     1       1.560   0.179  -1.958  1.00  0.00    -0.131 NA
ATOM      5  C   UNL     1       0.807  -0.087  -0.906  1.00  0.00     0.156 A 
ENDROOT
BRANCH   1   6
ATOM      6  C   UNL     1      -1.718  -0.058  -0.497  1.00  0.00     0.126 C 
BRANCH   6   7
ATOM      7  C   UNL     1      -2.020   1.173   0.354  1.00  0.00     0.037 C 
BRANCH   7   8
ATOM      8  C   UNL     1      -3.242   0.993   1.258  1.00  0.00     0.083 C 
BRANCH   8   9
ATOM      9  N   UNL     1      -4.509   0.742   0.579  1.00  0.00    -0.315 NA
ATOM     10  H   UNL     1      -4.472  -0.080  -0.021  1.00  0.00     0.122 HD
BRANCH   9  11
ATOM     11  C   UNL     1      -5.005   1.899  -0.182  1.00  0.00     0.096 C 
BRANCH  11  12
ATOM     12  C   UNL     1      -6.393   1.599  -0.787  1.00  0.00     0.093 C 
BRANCH  12  13
ATOM     13  N   UNL     1      -7.312   1.033   0.206  1.00  0.00    -0.329 NA
ATOM     14  H   UNL     1      -7.523   1.752   0.899  1.00  0.00     0.118 HD
ATOM     15  H   UNL     1      -6.773   0.342   0.740  1.00  0.00     0.118 HD
ENDBRANCH  12  13
ENDBRANCH  11  12
ENDBRANCH   9  11
ENDBRANCH   8   9
ENDBRANCH   7   8
ENDBRANCH   6   7
ENDBRANCH   1   6
BRANCH   5  16
ATOM     16  C   UNL     1       1.163  -0.507   0.402  1.00  0.00     0.045 C 
BRANCH  16  17
ATOM     17  C   UNL     1       2.421  -0.508   0.875  1.00  0.00    -0.019 C 
BRANCH  17  18
ATOM     18  C   UNL     1       3.693  -0.039   0.218  1.00  0.00     0.059 C 
BRANCH  18  19
ATOM     19  C   UNL     1       4.569  -1.207  -0.204  1.00  0.00    -0.052 C 
BRANCH  19  20
ATOM     20  C   UNL     1       5.556  -1.724   0.563  1.00  0.00     0.001 C 
BRANCH  20  21
ATOM     21  C   UNL     1       5.930  -1.305   1.900  1.00  0.00     0.008 C 
BRANCH  21  22
ATOM     22  C   UNL     1       6.921  -1.814   2.645  1.00  0.00     0.051 C 
ATOM     23  Br  UNL     1       8.100  -3.177   2.209  1.00  0.00    -0.059 Br
ENDBRANCH  21  22
ENDBRANCH  20  21
ENDBRANCH  19  20
BRANCH  19  24
ATOM     24  C   UNL     1       4.213  -1.699  -1.601  1.00  0.00     0.140 C 
ATOM     25  Cl  UNL     1       5.253  -2.982  -2.263  1.00  0.00    -0.122 Cl
ENDBRANCH  19  24
ENDBRANCH  18  19
ENDBRANCH  17  18
ENDBRANCH  16  17
ENDBRANCH   5  16
TORSDOF 15
