REMARK SMILES CSCCNC(=O)c1c(-c2ccccc2F)[nH]c2ccccc12
REMARK SMILES IDX 5 1 6 2 7 3 4 5 3 6 2 7 1 8 8 9 9 10 23 11 17 12 22 13 18 14
REMARK SMILES IDX 21 15 19 16 20 17 10 19 11 20 15 21 12 22 14 23 13 24 16 25
REMARK H PARENT 5 4 17 18
ROOT
ATOM      1  N   UNL     1       1.735  -0.387  -0.820  1.00  0.00    -0.351 N 
ATOM      2  C   UNL     1       0.518   0.098  -1.248  1.00  0.00     0.254 C 
ATOM      3  O   UNL     1       0.426   0.960  -2.116  1.00  0.00    -0.269 OA
ATOM      4  H   UNL     1       1.745  -0.883   0.066  1.00  0.00     0.163 HD
ENDROOT
BRANCH   1   5
ATOM      5  C   UNL     1       2.976   0.224  -1.250  1.00  0.00     0.127 C 
BRANCH   5   6
ATOM      6  C   UNL     1       4.199  -0.625  -0.907  1.00  0.00     0.090 C 
BRANCH   6   7
ATOM      7  S   UNL     1       4.320  -1.058   0.869  1.00  0.00    -0.164 SA
ATOM      8  C   UNL     1       4.620   0.587   1.562  1.00  0.00     0.085 C 
ENDBRANCH   6   7
ENDBRANCH   5   6
ENDBRANCH   1   5
BRANCH   2   9
ATOM      9  C   UNL     1      -0.629  -0.478  -0.548  1.00  0.00     0.073 A 
ATOM     10  C   UNL     1      -1.770   0.212  -0.136  1.00  0.00     0.062 A 
ATOM     11  C   UNL     1      -0.793  -1.850  -0.133  1.00  0.00     0.013 A 
ATOM     12  N   UNL     1      -2.555  -0.685   0.555  1.00  0.00    -0.354 N 
ATOM     13  C   UNL     1      -0.030  -3.030  -0.285  1.00  0.00     0.011 A 
ATOM     14  C   UNL     1      -1.998  -1.938   0.559  1.00  0.00     0.047 A 
ATOM     15  C   UNL     1      -0.488  -4.232   0.269  1.00  0.00     0.001 A 
ATOM     16  C   UNL     1      -2.472  -3.130   1.122  1.00  0.00     0.027 A 
ATOM     17  C   UNL     1      -1.691  -4.277   0.965  1.00  0.00     0.002 A 
ATOM     18  H   UNL     1      -3.431  -0.450   0.998  1.00  0.00     0.167 HD
BRANCH  10  19
ATOM     19  C   UNL     1      -2.185   1.613  -0.267  1.00  0.00     0.035 A 
ATOM     20  C   UNL     1      -2.237   2.234  -1.520  1.00  0.00     0.013 A 
ATOM     21  C   UNL     1      -2.582   2.358   0.853  1.00  0.00     0.132 A 
ATOM     22  C   UNL     1      -2.650   3.565  -1.643  1.00  0.00     0.001 A 
ATOM     23  C   UNL     1      -2.997   3.683   0.739  1.00  0.00     0.040 A 
ATOM     24  C   UNL     1      -3.028   4.291  -0.514  1.00  0.00     0.003 A 
ATOM     25  F   UNL     1      -2.581   1.797   2.074  1.00  0.00    -0.206 F 
ENDBRANCH  10  19
ENDBRANCH   2   9
TORSDOF 5
