REMARK SMILES Clc1cccc(Cl)c1C1=C=NCS1
REMARK SMILES IDX 1 1 2 2 3 3 4 4 5 5 6 6 7 7 8 8 9 9 10 10 13 11 11 12 12 13
REMARK H PARENT
ROOT
ATOM      1  Cl  UNL     1      -0.299   2.436  -0.562  1.00  0.00    -0.084 Cl
ATOM      2  C   UNL     1       0.747   1.068  -0.369  1.00  0.00     0.051 A 
ATOM      3  C   UNL     1       2.094   1.259  -0.705  1.00  0.00     0.021 A 
ATOM      4  C   UNL     1       3.004   0.212  -0.588  1.00  0.00     0.003 A 
ATOM      5  C   UNL     1       2.569  -1.029  -0.134  1.00  0.00     0.021 A 
ATOM      6  C   UNL     1       1.224  -1.224   0.203  1.00  0.00     0.051 A 
ATOM      7  Cl  UNL     1       0.782  -2.800   0.777  1.00  0.00    -0.084 Cl
ATOM      8  C   UNL     1       0.285  -0.180   0.091  1.00  0.00     0.035 A 
ENDROOT
BRANCH   8   9
ATOM      9  C   UNL     1      -1.107  -0.430   0.456  1.00  0.00     0.081 C 
ATOM     10  C   UNL     1      -1.816   0.170   1.361  1.00  0.00    -0.002 C 
ATOM     11  S   UNL     1      -2.286  -0.804  -0.799  1.00  0.00    -0.091 SA
ATOM     12  N   UNL     1      -2.928   0.485   1.562  1.00  0.00    -0.231 NA
ATOM     13  C   UNL     1      -3.609   0.001   0.317  1.00  0.00     0.228 C 
ENDBRANCH   8   9
TORSDOF 1
