REMARK SMILES C[C@H]1CNCCN(CC[C@@H](O)Cn2ccc3ccc4cc(-c5ccc(C(=O)O)cc5)ccc4c32)C1
REMARK SMILES IDX 9 1 8 2 7 3 35 4 2 5 1 6 6 8 5 9 4 10 3 12 10 14 11 15 12 17
REMARK SMILES IDX 13 18 14 19 34 20 15 21 33 22 16 23 32 24 19 25 17 26 31 27
REMARK SMILES IDX 18 28 20 29 21 30 22 31 23 32 30 33 24 34 29 35 25 36 26 37
REMARK SMILES IDX 27 38 28 39
REMARK H PARENT 4 11 11 16 28 40
REMARK Flexibility Score:  187.900
ROOT
ATOM      1  C   UNL     1      -2.305  -1.028   1.330  1.00  0.00     0.049 C 
ENDROOT
BRANCH   1   2
ATOM      2  C   UNL     1      -2.929  -0.251   0.166  1.00  0.00     0.087 C 
BRANCH   2   3
ATOM      3  N   UNL     1      -4.285   0.242   0.466  1.00  0.00    -0.302 NA
BRANCH   3   4
ATOM      4  C   UNL     1      -4.942   0.758  -0.744  1.00  0.00     0.089 C 
BRANCH   4   5
ATOM      5  C   UNL     1      -6.482   0.640  -0.666  1.00  0.00     0.014 CG0
ATOM      6  C   UNL     1      -6.941  -0.659  -1.347  1.00  0.00     0.010 C 
ATOM      7  G   UNL     1      -7.063   0.666   0.763  1.00  0.00     0.000 G0
ENDBRANCH   4   5
ENDBRANCH   3   4
BRANCH   3   8
ATOM      8  C   UNL     1      -4.284   1.249   1.555  1.00  0.00     0.099 C 
BRANCH   8   9
ATOM      9  C   UNL     1      -5.414   2.314   1.571  1.00  0.00     0.096 C 
BRANCH   9  10
ATOM     10  N   UNL     1      -6.805   1.861   1.564  1.00  0.00    -0.315 NA
ATOM     11  H   UNL     1      -7.093   1.659   2.522  1.00  0.00     0.122 HD
BRANCH  10  12
ATOM     12  C   UNL     1      -7.063   0.666   0.763  1.00  0.00     0.085 CG0
ATOM     13  G   UNL     1      -6.482   0.640  -0.666  1.00  0.00     0.000 G0
ENDBRANCH  10  12
ENDBRANCH   9  10
ENDBRANCH   8   9
ENDBRANCH   3   8
ENDBRANCH   2   3
ENDBRANCH   1   2
BRANCH   1  14
ATOM     14  C   UNL     1      -0.853  -1.461   1.077  1.00  0.00     0.135 C 
BRANCH  14  15
ATOM     15  O   UNL     1      -0.348  -2.023   2.301  1.00  0.00    -0.391 OA
ATOM     16  H   UNL     1      -0.390  -1.329   2.983  1.00  0.00     0.211 HD
ENDBRANCH  14  15
BRANCH  14  17
ATOM     17  C   UNL     1      -0.670  -2.524  -0.022  1.00  0.00     0.154 C 
BRANCH  17  18
ATOM     18  N   UNL     1      -0.415  -1.987  -1.351  1.00  0.00    -0.344 N 
ATOM     19  C   UNL     1      -1.317  -2.147  -2.378  1.00  0.00     0.087 A 
ATOM     20  C   UNL     1       0.697  -1.276  -1.793  1.00  0.00     0.056 A 
ATOM     21  C   UNL     1      -0.874  -1.425  -3.453  1.00  0.00     0.028 A 
ATOM     22  C   UNL     1       1.962  -0.918  -1.200  1.00  0.00     0.006 A 
ATOM     23  C   UNL     1       0.378  -0.863  -3.100  1.00  0.00     0.000 A 
ATOM     24  C   UNL     1       2.407  -1.354   0.066  1.00  0.00     0.011 A 
ATOM     25  C   UNL     1       2.827  -0.078  -1.952  1.00  0.00    -0.016 A 
ATOM     26  C   UNL     1       1.270  -0.045  -3.815  1.00  0.00     0.011 A 
ATOM     27  C   UNL     1       3.642  -0.947   0.584  1.00  0.00     0.009 A 
ATOM     28  C   UNL     1       2.472   0.349  -3.231  1.00  0.00     0.009 A 
ATOM     29  C   UNL     1       4.061   0.321  -1.408  1.00  0.00     0.017 A 
ATOM     30  C   UNL     1       4.486  -0.098  -0.138  1.00  0.00    -0.018 A 
BRANCH  30  31
ATOM     31  C   UNL     1       5.781   0.335   0.410  1.00  0.00    -0.018 A 
ATOM     32  C   UNL     1       6.104   1.700   0.506  1.00  0.00     0.009 A 
ATOM     33  C   UNL     1       6.731  -0.602   0.852  1.00  0.00     0.009 A 
ATOM     34  C   UNL     1       7.335   2.117   1.026  1.00  0.00     0.016 A 
ATOM     35  C   UNL     1       7.963  -0.190   1.371  1.00  0.00     0.016 A 
ATOM     36  C   UNL     1       8.270   1.172   1.459  1.00  0.00     0.059 A 
BRANCH  36  37
ATOM     37  C   UNL     1       9.588   1.563   2.014  1.00  0.00     0.335 C 
ATOM     38  O   UNL     1      10.463   0.800   2.382  1.00  0.00    -0.246 OA
BRANCH  37  39
ATOM     39  O   UNL     1       9.751   2.896   2.082  1.00  0.00    -0.478 OA
ATOM     40  H   UNL     1      10.649   3.002   2.459  1.00  0.00     0.297 HD
ENDBRANCH  37  39
ENDBRANCH  36  37
ENDBRANCH  30  31
ENDBRANCH  17  18
ENDBRANCH  14  17
ENDBRANCH   1  14
TORSDOF 9
