MODEL        8USER    Run = 8USERUSER    Estimated Free Energy of Binding    =  -8.99 kcal/mol  [=(1)+(2)+(3)-(4)]USERUSER    (1) Final Intermolecular Energy     = -10.48 kcal/molUSER        vdW + Hbond + desolv Energy     = -10.46 kcal/molUSER        Electrostatic Energy            =  -0.01 kcal/molUSER        Moving Ligand-Fixed Receptor    = -10.48 kcal/molUSER        Moving Ligand-Moving Receptor   =  +0.00 kcal/molUSER    (2) Final Total Internal Energy     =  -0.58 kcal/molUSER    (3) Torsional Free Energy           =  +1.49 kcal/molUSER    (4) Unbound System's Energy         =  -0.58 kcal/molUSERUSERREMARK SMILES CSCCNC(=O)c1c(-c2ccccc2F)[nH]c2ccccc12REMARK SMILES IDX 5 1 6 2 7 3 4 5 3 6 2 7 1 8 8 9 9 10 23 11 17 12 22 13 18 14REMARK SMILES IDX 21 15 19 16 20 17 10 19 11 20 15 21 12 22 14 23 13 24 16 25REMARK H PARENT 5 4 17 18USER                              x       y       z     vdW  Elec       q    TypeUSER                           _______ _______ _______ _____ _____    ______ ____ROOTATOM      1  N   UNL     1      41.275  49.436  14.452 -0.34 +0.07    -0.351 N  ATOM      2  C   UNL     1      40.982  49.167  15.772 -0.48 -0.04    +0.254 C  ATOM      3  O   UNL     1      41.543  49.744  16.697 -0.99 -0.01    -0.269 OA ATOM      4  H   UNL     1      40.980  48.747  13.767 +0.13 -0.02    +0.163 HD ENDROOTBRANCH   1   5ATOM      5  C   UNL     1      42.387  50.293  14.093 -0.63 -0.03    +0.127 C  BRANCH   5   6ATOM      6  C   UNL     1      42.920  50.007  12.690 -0.66 -0.03    +0.090 C  BRANCH   6   7ATOM      7  S   UNL     1      42.938  51.477  11.596 -0.62 +0.09    -0.164 SA ATOM      8  C   UNL     1      44.591  52.112  11.970 -0.42 -0.04    +0.085 C  ENDBRANCH   6   7ENDBRANCH   5   6ENDBRANCH   1   5BRANCH   2   9ATOM      9  C   UNL     1      39.985  48.113  15.954 -0.49 -0.02    +0.073 A  ATOM     10  C   UNL     1      39.973  47.162  16.976 -0.45 -0.01    +0.062 A  ATOM     11  C   UNL     1      38.845  47.843  15.113 -0.50 -0.01    +0.013 A  ATOM     12  N   UNL     1      38.916  46.315  16.724 -0.17 +0.10    -0.354 N  ATOM     13  C   UNL     1      38.288  48.458  13.969 -0.46 -0.00    +0.011 A  ATOM     14  C   UNL     1      38.210  46.711  15.617 -0.38 -0.02    +0.047 A  ATOM     15  C   UNL     1      37.144  47.914  13.372 -0.58 -0.00    +0.001 A  ATOM     16  C   UNL     1      37.067  46.150  15.034 -0.37 -0.01    +0.027 A  ATOM     17  C   UNL     1      36.546  46.774  13.898 -0.49 -0.00    +0.002 A  ATOM     18  H   UNL     1      38.688  45.509  17.287 +0.11 -0.04    +0.167 HD BRANCH  10  19ATOM     19  C   UNL     1      40.859  46.924  18.121 -0.48 -0.00    +0.035 A  ATOM     20  C   UNL     1      42.097  47.568  18.220 -0.45 -0.00    +0.013 A  ATOM     21  C   UNL     1      40.473  46.076  19.170 -0.34 -0.00    +0.132 A  ATOM     22  C   UNL     1      42.931  47.352  19.322 -0.54 +0.00    +0.001 A  ATOM     23  C   UNL     1      41.296  45.857  20.272 -0.36 +0.00    +0.040 A  ATOM     24  C   UNL     1      42.533  46.494  20.347 -0.39 +0.00    +0.003 A  ATOM     25  F   UNL     1      39.280  45.459  19.137 -0.11 +0.01    -0.206 F  ENDBRANCH  10  19ENDBRANCH   2   9TORSDOF 5TERENDMDL