REMARK SMILES CC=CS(=O)(=O)Nc1cc(Cl)ccc1/C=C/C=C\c1ccncc1
REMARK SMILES IDX 8 1 9 2 10 3 11 4 12 5 13 6 14 7 7 8 4 10 5 11 6 12 3 13
REMARK SMILES IDX 2 14 1 15 15 16 16 17 17 18 18 19 19 20 20 21 24 22 21 23
REMARK SMILES IDX 23 24 22 25
REMARK H PARENT 7 9
ROOT
ATOM      1  C   UNL     1      -1.270  -0.560  -2.098  1.00  0.00     0.058 A 
ATOM      2  C   UNL     1      -1.308  -1.367  -3.240  1.00  0.00     0.047 A 
ATOM      3  C   UNL     1      -0.634  -2.587  -3.256  1.00  0.00     0.043 A 
ATOM      4  Cl  UNL     1      -0.700  -3.584  -4.655  1.00  0.00    -0.084 Cl
ATOM      5  C   UNL     1       0.096  -3.004  -2.148  1.00  0.00     0.021 A 
ATOM      6  C   UNL     1       0.170  -2.184  -1.021  1.00  0.00     0.012 A 
ATOM      7  C   UNL     1      -0.484  -0.941  -0.989  1.00  0.00    -0.001 A 
ENDROOT
BRANCH   1   8
ATOM      8  N   UNL     1      -1.949   0.710  -2.092  1.00  0.00    -0.279 N 
ATOM      9  H   UNL     1      -1.600   1.356  -2.800  1.00  0.00     0.180 HD
BRANCH   8  10
ATOM     10  S   UNL     1      -3.650   0.703  -2.177  1.00  0.00     0.254 S 
ATOM     11  O   UNL     1      -4.024  -0.131  -3.302  1.00  0.00    -0.202 OA
ATOM     12  O   UNL     1      -4.035   2.101  -2.187  1.00  0.00    -0.202 OA
BRANCH  10  13
ATOM     13  C   UNL     1      -4.219  -0.062  -0.729  1.00  0.00     0.124 C 
BRANCH  13  14
ATOM     14  C   UNL     1      -4.233   0.520   0.482  1.00  0.00    -0.016 C 
ATOM     15  C   UNL     1      -3.751   1.881   0.875  1.00  0.00     0.036 C 
ENDBRANCH  13  14
ENDBRANCH  10  13
ENDBRANCH   8  10
ENDBRANCH   1   8
BRANCH   7  16
ATOM     16  C   UNL     1      -0.362  -0.073   0.197  1.00  0.00     0.010 C 
BRANCH  16  17
ATOM     17  C   UNL     1       0.786   0.124   0.865  1.00  0.00     0.001 C 
BRANCH  17  18
ATOM     18  C   UNL     1       0.883   1.005   2.010  1.00  0.00     0.001 C 
BRANCH  18  19
ATOM     19  C   UNL     1       1.997   1.294   2.703  1.00  0.00     0.008 C 
BRANCH  19  20
ATOM     20  C   UNL     1       3.348   0.799   2.422  1.00  0.00    -0.023 A 
ATOM     21  C   UNL     1       3.983  -0.038   3.339  1.00  0.00     0.028 A 
ATOM     22  C   UNL     1       4.027   1.173   1.263  1.00  0.00     0.028 A 
ATOM     23  C   UNL     1       5.263  -0.480   3.046  1.00  0.00     0.111 A 
ATOM     24  C   UNL     1       5.306   0.679   1.061  1.00  0.00     0.111 A 
ATOM     25  N   UNL     1       5.938  -0.144   1.926  1.00  0.00    -0.265 NA
ENDBRANCH  19  20
ENDBRANCH  18  19
ENDBRANCH  17  18
ENDBRANCH  16  17
ENDBRANCH   7  16
TORSDOF 9
