REMARK SMILES Cc1ccc2c(c1)C=NN=CSC(c1c(F)cccc1F)=NN2
REMARK SMILES IDX 1 1 2 2 3 3 4 4 5 5 6 6 7 7 8 8 9 9 10 10 11 11 12 12 13 13
REMARK SMILES IDX 22 14 23 15 14 17 15 18 20 19 17 20 19 21 18 22 16 23 21 24
REMARK H PARENT 23 16
ROOT
ATOM      1  C   UNL     1      -3.918   1.745   1.542  1.00  0.00     0.044 C 
ATOM      2  C   UNL     1      -2.895   1.125   0.637  1.00  0.00    -0.050 A 
ATOM      3  C   UNL     1      -2.367   1.846  -0.440  1.00  0.00     0.005 A 
ATOM      4  C   UNL     1      -1.429   1.264  -1.303  1.00  0.00     0.028 A 
ATOM      5  C   UNL     1      -0.984  -0.052  -1.109  1.00  0.00     0.065 A 
ATOM      6  C   UNL     1      -1.574  -0.778  -0.057  1.00  0.00     0.020 A 
ATOM      7  C   UNL     1      -2.505  -0.205   0.816  1.00  0.00     0.015 A 
ATOM      8  C   UNL     1      -1.232  -2.187   0.130  1.00  0.00     0.146 C 
ATOM      9  N   UNL     1      -0.291  -2.536   0.950  1.00  0.00    -0.158 NA
ATOM     10  N   UNL     1       0.059  -3.859   0.723  1.00  0.00    -0.152 NA
ATOM     11  C   UNL     1       1.234  -4.056   0.194  1.00  0.00     0.183 C 
ATOM     12  S   UNL     1       2.533  -2.958  -0.227  1.00  0.00    -0.053 SA
ATOM     13  C   UNL     1       1.667  -1.530  -0.774  1.00  0.00     0.135 C 
ATOM     14  N   UNL     1       0.719  -1.674  -1.662  1.00  0.00    -0.167 NA
ATOM     15  N   UNL     1      -0.030  -0.584  -2.022  1.00  0.00    -0.277 N 
ATOM     16  H   UNL     1       0.458   0.130  -2.566  1.00  0.00     0.190 HD
ENDROOT
BRANCH  13  17
ATOM     17  C   UNL     1       2.167  -0.254  -0.212  1.00  0.00     0.080 A 
ATOM     18  C   UNL     1       2.571   0.767  -1.074  1.00  0.00     0.136 A 
ATOM     19  C   UNL     1       2.261  -0.035   1.162  1.00  0.00     0.136 A 
ATOM     20  C   UNL     1       3.047   1.983  -0.582  1.00  0.00     0.040 A 
ATOM     21  C   UNL     1       2.735   1.178   1.665  1.00  0.00     0.040 A 
ATOM     22  C   UNL     1       3.129   2.191   0.793  1.00  0.00     0.006 A 
ATOM     23  F   UNL     1       2.507   0.609  -2.405  1.00  0.00    -0.206 F 
ATOM     24  F   UNL     1       1.901  -0.974   2.046  1.00  0.00    -0.206 F 
ENDBRANCH  13  17
TORSDOF 1
