MODEL        6USER    Run = 6USERUSER    Estimated Free Energy of Binding    = -10.36 kcal/mol  [=(1)+(2)+(3)-(4)]USERUSER    (1) Final Intermolecular Energy     = -12.44 kcal/molUSER        vdW + Hbond + desolv Energy     = -12.26 kcal/molUSER        Electrostatic Energy            =  -0.19 kcal/molUSER        Moving Ligand-Fixed Receptor    = -12.44 kcal/molUSER        Moving Ligand-Moving Receptor   =  +0.00 kcal/molUSER    (2) Final Total Internal Energy     =  -1.04 kcal/molUSER    (3) Torsional Free Energy           =  +2.09 kcal/molUSER    (4) Unbound System's Energy         =  -1.04 kcal/molUSERUSERREMARK SMILES CC=C1C=C(C=C2N=Cc3cc(Nc4cc(C)cc(C)c4N)cnc32)C=C1NREMARK SMILES IDX 7 1 8 2 9 3 10 4 11 5 12 6 23 7 24 8 25 9 6 10 5 11 3 12REMARK SMILES IDX 4 13 27 14 26 15 2 16 1 17 28 18 13 21 14 23 15 24 21 25REMARK SMILES IDX 16 26 19 27 18 28 17 29 20 30 22 31REMARK H PARENT 28 19 28 20 13 22 22 32 22 33USER                              x       y       z     vdW  Elec       q    TypeUSER                           _______ _______ _______ _____ _____    ______ ____ROOTATOM      1  C   UNL     1      36.814  46.996  14.529 -0.44 -0.06    +0.090 C  ATOM      2  N   UNL     1      37.254  47.977  13.645 -0.53 +0.11    -0.254 NA ATOM      3  C   UNL     1      38.473  48.261  14.002 -0.46 -0.05    +0.122 C  ATOM      4  C   UNL     1      38.937  47.502  15.147 -0.48 -0.01    +0.023 A  ATOM      5  C   UNL     1      40.122  47.467  15.845 -0.49 -0.01    +0.039 A  ATOM      6  C   UNL     1      40.192  46.581  16.930 -0.44 -0.01    +0.058 A  ATOM      7  C   UNL     1      39.062  45.769  17.187 -0.31 -0.03    +0.137 A  ATOM      8  N   UNL     1      37.889  45.804  16.494 -0.20 +0.09    -0.252 NA ATOM      9  C   UNL     1      37.882  46.689  15.488 -0.33 -0.04    +0.098 A  ENDROOTBRANCH   1  10ATOM     10  C   UNL     1      35.618  46.390  14.546 -0.44 -0.03    +0.038 C  BRANCH  10  11ATOM     11  C   UNL     1      35.064  45.487  15.536 -0.39 +0.02    -0.021 C  ATOM     12  C   UNL     1      34.047  44.583  17.358 -0.37 +0.00    -0.006 C  ATOM     13  C   UNL     1      34.457  45.813  16.693 -0.34 -0.02    +0.018 C  ATOM     14  C   UNL     1      34.498  43.471  16.526 -0.41 -0.02    +0.039 C  ATOM     15  C   UNL     1      35.079  44.026  15.450 -0.18 -0.02    +0.034 C  BRANCH  12  16ATOM     16  C   UNL     1      33.365  44.592  18.516 -0.44 +0.01    -0.020 C  ATOM     17  C   UNL     1      33.636  43.802  19.754 -0.45 -0.00    +0.036 C  ENDBRANCH  12  16BRANCH  14  18ATOM     18  N   UNL     1      34.393  42.143  16.839 -0.18 +0.19    -0.398 N  ATOM     19  H   UNL     1      33.556  41.719  16.447 -0.46 -0.11    +0.156 HD ATOM     20  H   UNL     1      35.227  41.630  16.568 -0.30 -0.09    +0.156 HD ENDBRANCH  14  18ENDBRANCH  10  11ENDBRANCH   1  10BRANCH   6  21ATOM     21  N   UNL     1      41.419  46.459  17.632 -0.20 +0.03    -0.353 N  ATOM     22  H   UNL     1      42.118  47.083  17.236 -0.43 -0.05    +0.167 HD BRANCH  21  23ATOM     23  C   UNL     1      41.548  46.428  19.051 -0.45 +0.00    +0.062 A  ATOM     24  C   UNL     1      40.532  45.842  19.818 -0.38 +0.00    +0.031 A  ATOM     25  C   UNL     1      42.736  46.880  19.674 -0.42 +0.01    +0.058 A  ATOM     26  C   UNL     1      40.652  45.749  21.208 -0.28 -0.00    -0.049 A  ATOM     27  C   UNL     1      42.847  46.820  21.074 -0.36 -0.01    -0.026 A  ATOM     28  C   UNL     1      41.812  46.232  21.824 -0.28 +0.00    +0.009 A  ATOM     29  C   UNL     1      39.577  45.092  22.022 -0.32 +0.00    +0.044 C  ATOM     30  C   UNL     1      44.051  47.366  21.791 -0.33 +0.02    +0.046 C  BRANCH  25  31ATOM     31  N   UNL     1      43.695  47.573  18.903 -0.19 -0.10    -0.397 N  ATOM     32  H   UNL     1      43.655  47.369  17.911 -0.49 -0.01    +0.156 HD ATOM     33  H   UNL     1      43.682  48.570  19.108 -0.53 -0.03    +0.156 HD ENDBRANCH  25  31ENDBRANCH  21  23ENDBRANCH   6  21TORSDOF 7TERENDMDL