MODEL        2USER    Run = 2USERUSER    Estimated Free Energy of Binding    =  -7.99 kcal/mol  [=(1)+(2)+(3)-(4)]USERUSER    (1) Final Intermolecular Energy     =  -9.18 kcal/molUSER        vdW + Hbond + desolv Energy     =  -9.12 kcal/molUSER        Electrostatic Energy            =  -0.05 kcal/molUSER        Moving Ligand-Fixed Receptor    =  -9.18 kcal/molUSER        Moving Ligand-Moving Receptor   =  +0.00 kcal/molUSER    (2) Final Total Internal Energy     =  -1.45 kcal/molUSER    (3) Torsional Free Energy           =  +1.19 kcal/molUSER    (4) Unbound System's Energy         =  -1.45 kcal/molUSERUSERREMARK SMILES CC(C)[C@@H]1OC[C@H](C)C[C@@H]1NC(=O)Nc1ccncc1[N+](=O)[O-]REMARK SMILES IDX 11 1 12 2 13 3 14 4 10 7 7 8 6 9 9 10 5 11 4 12 8 13 2 14REMARK SMILES IDX 1 15 3 16 15 17 16 18 20 19 17 20 19 21 18 22 21 23 22 24REMARK SMILES IDX 23 25REMARK H PARENT 11 5 14 6USER                              x       y       z     vdW  Elec       q    TypeUSER                           _______ _______ _______ _____ _____    ______ ____ROOTATOM      1  N   UNL     1      36.800  44.948  18.198 -0.13 +0.09    -0.332 N  ATOM      2  C   UNL     1      38.091  45.404  18.018 -0.23 -0.07    +0.319 C  ATOM      3  O   UNL     1      39.065  44.859  18.515 -0.28 +0.02    -0.248 OA ATOM      4  N   UNL     1      38.099  46.512  17.201 -0.20 +0.11    -0.302 N  ATOM      5  H   UNL     1      36.097  45.670  18.168 +0.10 -0.06    +0.165 HD ATOM      6  H   UNL     1      37.218  46.697  16.727 +0.11 -0.10    +0.172 HD ENDROOTBRANCH   1   7ATOM      7  C   UNL     1      36.519  43.822  19.078 -0.33 -0.02    +0.113 C  ATOM      8  C   UNL     1      37.003  42.773  21.333 -0.49 +0.00    +0.014 C  ATOM      9  C   UNL     1      35.790  41.934  20.918 -0.41 +0.00    +0.164 C  ATOM     10  C   UNL     1      37.144  44.032  20.463 -0.43 -0.00    +0.033 C  ATOM     11  O   UNL     1      34.741  42.789  20.477 -0.44 -0.04    -0.376 OA ATOM     12  C   UNL     1      35.016  43.410  19.198 -0.35 -0.02    +0.143 C  ATOM     13  C   UNL     1      36.925  43.165  22.809 -0.44 +0.00    +0.010 C  BRANCH  12  14ATOM     14  C   UNL     1      33.911  44.484  19.022 -0.47 -0.00    +0.014 C  ATOM     15  C   UNL     1      32.562  44.095  19.630 -0.48 -0.00    +0.010 C  ATOM     16  C   UNL     1      33.745  44.975  17.581 -0.40 -0.01    +0.010 C  ENDBRANCH  12  14ENDBRANCH   1   7BRANCH   4  17ATOM     17  C   UNL     1      39.204  47.313  16.809 -0.35 -0.04    +0.124 A  ATOM     18  C   UNL     1      40.359  47.392  17.593 -0.43 -0.01    +0.053 A  ATOM     19  C   UNL     1      39.173  48.073  15.624 -0.26 -0.13    +0.310 A  ATOM     20  C   UNL     1      41.414  48.193  17.175 -0.39 -0.01    +0.113 A  ATOM     21  C   UNL     1      40.279  48.848  15.286 -0.43 -0.06    +0.198 A  ATOM     22  N   UNL     1      41.399  48.922  16.041 -0.88 +0.01    -0.257 NA BRANCH  19  23ATOM     23  N   UNL     1      38.030  48.091  14.716 -0.48 -0.04    +0.066 N  ATOM     24  O   UNL     1      38.255  48.126  13.499 -0.69 +0.07    -0.258 OA ATOM     25  O   UNL     1      36.891  48.074  15.211 -0.35 +0.24    -0.258 OA ENDBRANCH  19  23ENDBRANCH   4  17TORSDOF 4TERENDMDL