REMARK SMILES O=CNC=CC=C1CC=CC=C1OCc1ccccc1
REMARK SMILES IDX 6 1 5 2 4 3 3 4 2 5 1 6 7 8 8 9 12 10 9 11 11 12 10 13 13 14
REMARK SMILES IDX 14 15 15 16 16 17 20 18 17 19 19 20 18 21
REMARK H PARENT 3 7
ROOT
ATOM      1  C   UNL     1       1.059  -0.741   0.598  1.00  0.00     0.009 C 
ENDROOT
BRANCH   1   2
ATOM      2  C   UNL     1       2.264  -0.141   1.132  1.00  0.00     0.018 C 
BRANCH   2   3
ATOM      3  C   UNL     1       2.326   0.974   1.876  1.00  0.00     0.085 C 
BRANCH   3   4
ATOM      4  N   UNL     1       1.251   1.760   2.209  1.00  0.00    -0.335 N 
ATOM      5  C   UNL     1       1.353   2.905   2.963  1.00  0.00     0.341 C 
ATOM      6  O   UNL     1       2.373   3.381   3.443  1.00  0.00    -0.279 OA
ATOM      7  H   UNL     1       0.330   1.518   1.859  1.00  0.00     0.169 HD
ENDBRANCH   3   4
ENDBRANCH   2   3
ENDBRANCH   1   2
BRANCH   1   8
ATOM      8  C   UNL     1       0.980  -1.727  -0.323  1.00  0.00    -0.002 C 
ATOM      9  C   UNL     1       2.216  -2.386  -0.922  1.00  0.00     0.066 C 
ATOM     10  C   UNL     1      -0.322  -2.212  -0.805  1.00  0.00     0.123 C 
ATOM     11  C   UNL     1       1.945  -3.559  -1.828  1.00  0.00    -0.022 C 
ATOM     12  C   UNL     1      -0.439  -3.263  -1.632  1.00  0.00     0.046 C 
ATOM     13  C   UNL     1       0.709  -3.964  -2.145  1.00  0.00    -0.000 C 
BRANCH  10  14
ATOM     14  O   UNL     1      -1.449  -1.565  -0.330  1.00  0.00    -0.489 OA
BRANCH  14  15
ATOM     15  C   UNL     1      -1.891  -0.532  -1.223  1.00  0.00     0.265 C 
BRANCH  15  16
ATOM     16  C   UNL     1      -1.998   0.771  -0.466  1.00  0.00    -0.011 A 
ATOM     17  C   UNL     1      -1.242   1.887  -0.853  1.00  0.00     0.007 A 
ATOM     18  C   UNL     1      -2.845   0.880   0.647  1.00  0.00     0.007 A 
ATOM     19  C   UNL     1      -1.337   3.088  -0.146  1.00  0.00     0.000 A 
ATOM     20  C   UNL     1      -2.936   2.081   1.354  1.00  0.00     0.000 A 
ATOM     21  C   UNL     1      -2.184   3.184   0.956  1.00  0.00     0.000 A 
ENDBRANCH  15  16
ENDBRANCH  14  15
ENDBRANCH  10  14
ENDBRANCH   1   8
TORSDOF 7
