MODEL        1USER    Run = 1USERUSER    Estimated Free Energy of Binding    =  -8.13 kcal/mol  [=(1)+(2)+(3)-(4)]USERUSER    (1) Final Intermolecular Energy     = -12.61 kcal/molUSER        vdW + Hbond + desolv Energy     = -12.31 kcal/molUSER        Electrostatic Energy            =  -0.30 kcal/molUSER        Moving Ligand-Fixed Receptor    = -12.61 kcal/molUSER        Moving Ligand-Moving Receptor   =  +0.00 kcal/molUSER    (2) Final Total Internal Energy     =  -3.00 kcal/molUSER    (3) Torsional Free Energy           =  +4.47 kcal/molUSER    (4) Unbound System's Energy         =  -3.00 kcal/molUSERUSERREMARK SMILES NCCNCCCn1cnnc1C=CCC(=CC=CBr)CClREMARK SMILES IDX 8 1 9 2 10 3 11 4 12 5 7 6 6 7 5 8 4 9 3 11 2 12 1 13 13 16REMARK SMILES IDX 14 17 15 18 16 19 17 20 18 21 19 22 20 23 21 24 22 25REMARK H PARENT 4 10 1 14 1 15USER                              x       y       z     vdW  Elec       q    TypeUSER                           _______ _______ _______ _____ _____    ______ ____ROOTATOM      1  N   UNL     1      36.784  46.471  13.985 -0.20 +0.16    -0.314 N  ATOM      2  C   UNL     1      36.527  46.150  12.683 -0.41 -0.10    +0.226 A  ATOM      3  N   UNL     1      36.821  47.167  11.913 -0.87 +0.05    -0.139 NA ATOM      4  N   UNL     1      37.280  48.174  12.723 -0.99 +0.02    -0.131 NA ATOM      5  C   UNL     1      37.261  47.763  13.978 -0.42 -0.08    +0.156 A  ENDROOTBRANCH   1   6ATOM      6  C   UNL     1      36.567  45.573  15.103 -0.34 -0.06    +0.126 C  BRANCH   6   7ATOM      7  C   UNL     1      35.276  45.887  15.855 -0.38 -0.03    +0.037 C  BRANCH   7   8ATOM      8  C   UNL     1      34.104  44.997  15.435 -0.29 -0.06    +0.083 C  BRANCH   8   9ATOM      9  N   UNL     1      32.945  45.685  14.877 -0.14 +0.30    -0.315 NA ATOM     10  H   UNL     1      32.821  46.617  15.268 -0.44 -0.25    +0.122 HD BRANCH   9  11ATOM     11  C   UNL     1      31.695  44.919  14.995 -0.40 -0.06    +0.096 C  BRANCH  11  12ATOM     12  C   UNL     1      30.501  45.861  15.260 -0.46 -0.04    +0.093 C  BRANCH  12  13ATOM     13  N   UNL     1      30.921  47.263  15.355 -0.63 +0.13    -0.329 NA ATOM     14  H   UNL     1      31.661  47.426  14.672 -0.47 -0.12    +0.118 HD ATOM     15  H   UNL     1      31.405  47.361  16.255 -0.45 -0.11    +0.118 HD ENDBRANCH  12  13ENDBRANCH  11  12ENDBRANCH   9  11ENDBRANCH   8   9ENDBRANCH   7   8ENDBRANCH   6   7ENDBRANCH   1   6BRANCH   5  16ATOM     16  C   UNL     1      37.647  48.426  15.172 -0.55 -0.03    +0.045 C  BRANCH  16  17ATOM     17  C   UNL     1      38.923  48.668  15.519 -0.56 +0.01    -0.019 C  BRANCH  17  18ATOM     18  C   UNL     1      40.122  47.758  15.461 -0.56 -0.01    +0.059 C  BRANCH  18  19ATOM     19  C   UNL     1      40.389  47.097  16.803 -0.53 +0.01    -0.052 C  BRANCH  19  20ATOM     20  C   UNL     1      39.781  45.962  17.218 -0.50 -0.00    +0.001 C  BRANCH  20  21ATOM     21  C   UNL     1      38.496  45.855  17.882 -0.45 -0.00    +0.008 C  BRANCH  21  22ATOM     22  C   UNL     1      38.100  44.865  18.694 -0.40 -0.01    +0.051 C  ATOM     23  Br  UNL     1      36.370  44.322  19.082 -0.70 +0.01    -0.059 Br ENDBRANCH  21  22ENDBRANCH  20  21ENDBRANCH  19  20BRANCH  19  24ATOM     24  C   UNL     1      41.400  47.885  17.625 -0.46 -0.01    +0.140 C  ATOM     25  Cl  UNL     1      42.233  46.980  18.911 -0.70 -0.01    -0.122 Cl ENDBRANCH  19  24ENDBRANCH  18  19ENDBRANCH  17  18ENDBRANCH  16  17ENDBRANCH   5  16TORSDOF 15TERENDMDL