MODEL        10USER    Run = 10USERUSER    Estimated Free Energy of Binding    =  -9.23 kcal/mol  [=(1)+(2)+(3)-(4)]USERUSER    (1) Final Intermolecular Energy     = -11.92 kcal/molUSER        vdW + Hbond + desolv Energy     = -11.71 kcal/molUSER        Electrostatic Energy            =  -0.21 kcal/molUSER        Moving Ligand-Fixed Receptor    = -11.92 kcal/molUSER        Moving Ligand-Moving Receptor   =  +0.00 kcal/molUSER    (2) Final Total Internal Energy     =  -1.58 kcal/molUSER    (3) Torsional Free Energy           =  +2.68 kcal/molUSER    (4) Unbound System's Energy         =  -1.58 kcal/molUSERUSERREMARK SMILES CC=CS(=O)(=O)Nc1cc(Cl)ccc1/C=C/C=C\c1ccncc1REMARK SMILES IDX 8 1 9 2 10 3 11 4 12 5 13 6 14 7 7 8 4 10 5 11 6 12 3 13REMARK SMILES IDX 2 14 1 15 15 16 16 17 17 18 18 19 19 20 20 21 24 22 21 23REMARK SMILES IDX 23 24 22 25REMARK H PARENT 7 9USER                              x       y       z     vdW  Elec       q    TypeUSER                           _______ _______ _______ _____ _____    ______ ____ROOTATOM      1  C   UNL     1      38.385  47.905  15.433 -0.45 -0.03    +0.058 A  ATOM      2  C   UNL     1      39.322  48.814  14.931 -0.42 -0.02    +0.047 A  ATOM      3  C   UNL     1      40.594  48.889  15.496 -0.58 -0.01    +0.043 A  ATOM      4  Cl  UNL     1      41.748  49.994  14.863 -0.94 +0.01    -0.084 Cl ATOM      5  C   UNL     1      40.937  48.078  16.572 -0.53 -0.00    +0.021 A  ATOM      6  C   UNL     1      39.992  47.198  17.103 -0.48 -0.00    +0.012 A  ATOM      7  C   UNL     1      38.697  47.119  16.563 -0.42 +0.00    -0.001 A  ENDROOTBRANCH   1   8ATOM      8  N   UNL     1      37.064  47.844  14.862 -0.27 +0.21    -0.279 N  ATOM      9  H   UNL     1      36.476  48.636  15.123 +0.11 -0.23    +0.180 HD BRANCH   8  10ATOM     10  S   UNL     1      36.935  47.625  13.178 -0.63 -0.11    +0.254 S  ATOM     11  O   UNL     1      38.273  47.401  12.666 -0.79 +0.02    -0.202 OA ATOM     12  O   UNL     1      36.189  48.773  12.701 -0.67 +0.09    -0.202 OA BRANCH  10  13ATOM     13  C   UNL     1      36.017  46.174  12.933 -0.53 -0.06    +0.124 C  BRANCH  13  14ATOM     14  C   UNL     1      36.553  44.947  12.817 -0.46 +0.01    -0.016 C  ATOM     15  C   UNL     1      36.931  44.201  11.576 -0.54 -0.01    +0.036 C  ENDBRANCH  13  14ENDBRANCH  10  13ENDBRANCH   8  10ENDBRANCH   1   8BRANCH   7  16ATOM     16  C   UNL     1      37.702  46.210  17.162 -0.42 -0.00    +0.010 C  BRANCH  16  17ATOM     17  C   UNL     1      37.744  44.873  17.045 -0.41 -0.00    +0.001 C  BRANCH  17  18ATOM     18  C   UNL     1      36.980  44.151  16.049 -0.42 -0.00    +0.001 C  BRANCH  18  19ATOM     19  C   UNL     1      35.721  43.701  16.180 -0.45 -0.00    +0.008 C  BRANCH  19  20ATOM     20  C   UNL     1      34.986  43.530  17.437 -0.32 +0.01    -0.023 A  ATOM     21  C   UNL     1      34.322  44.618  18.003 -0.32 -0.01    +0.028 A  ATOM     22  C   UNL     1      34.961  42.302  18.097 -0.39 -0.01    +0.028 A  ATOM     23  C   UNL     1      33.644  44.423  19.196 -0.34 -0.03    +0.111 A  ATOM     24  C   UNL     1      34.256  42.209  19.287 -0.32 -0.01    +0.111 A  ATOM     25  N   UNL     1      33.593  43.243  19.849 -0.75 -0.01    -0.265 NA ENDBRANCH  19  20ENDBRANCH  18  19ENDBRANCH  17  18ENDBRANCH  16  17ENDBRANCH   7  16TORSDOF 9TERENDMDL