REMARK SMILES CC(C)[C@@H]1OC[C@H](C)C[C@@H]1NC(=O)Nc1ccncc1[N+](=O)[O-]
REMARK SMILES IDX 11 1 12 2 13 3 14 4 10 7 7 8 6 9 9 10 5 11 4 12 8 13 2 14
REMARK SMILES IDX 1 15 3 16 15 17 16 18 20 19 17 20 19 21 18 22 21 23 22 24
REMARK SMILES IDX 23 25
REMARK H PARENT 11 5 14 6
ROOT
ATOM      1  N   UNL     1       0.083   0.254  -0.159  1.00  0.00    -0.332 N 
ATOM      2  C   UNL     1       1.359  -0.084  -0.567  1.00  0.00     0.319 C 
ATOM      3  O   UNL     1       1.583  -0.763  -1.558  1.00  0.00    -0.248 OA
ATOM      4  N   UNL     1       2.295   0.469   0.278  1.00  0.00    -0.302 N 
ATOM      5  H   UNL     1      -0.014   0.379   0.837  1.00  0.00     0.165 HD
ATOM      6  H   UNL     1       1.927   1.162   0.925  1.00  0.00     0.172 HD
ENDROOT
BRANCH   1   7
ATOM      7  C   UNL     1      -1.087  -0.264  -0.854  1.00  0.00     0.113 C 
ATOM      8  C   UNL     1      -2.555  -2.296  -1.227  1.00  0.00     0.014 C 
ATOM      9  C   UNL     1      -3.452  -1.217  -1.843  1.00  0.00     0.164 C 
ATOM     10  C   UNL     1      -1.435  -1.679  -0.374  1.00  0.00     0.033 C 
ATOM     11  O   UNL     1      -3.568  -0.117  -0.948  1.00  0.00    -0.376 OA
ATOM     12  C   UNL     1      -2.349   0.658  -0.841  1.00  0.00     0.143 C 
ATOM     13  C   UNL     1      -3.370  -3.279  -0.385  1.00  0.00     0.010 C 
BRANCH  12  14
ATOM     14  C   UNL     1      -2.583   1.621   0.352  1.00  0.00     0.014 C 
ATOM     15  C   UNL     1      -1.594   2.787   0.414  1.00  0.00     0.010 C 
ATOM     16  C   UNL     1      -2.692   0.917   1.707  1.00  0.00     0.010 C 
ENDBRANCH  12  14
ENDBRANCH   1   7
BRANCH   4  17
ATOM     17  C   UNL     1       3.707   0.325   0.247  1.00  0.00     0.124 A 
ATOM     18  C   UNL     1       4.327  -0.584  -0.616  1.00  0.00     0.053 A 
ATOM     19  C   UNL     1       4.538   1.080   1.097  1.00  0.00     0.310 A 
ATOM     20  C   UNL     1       5.711  -0.697  -0.608  1.00  0.00     0.113 A 
ATOM     21  C   UNL     1       5.917   0.898   1.034  1.00  0.00     0.198 A 
ATOM     22  N   UNL     1       6.518   0.023   0.197  1.00  0.00    -0.257 NA
BRANCH  19  23
ATOM     23  N   UNL     1       4.026   2.058   2.052  1.00  0.00     0.066 N 
ATOM     24  O   UNL     1       4.846   2.730   2.692  1.00  0.00    -0.258 OA
ATOM     25  O   UNL     1       2.795   2.163   2.177  1.00  0.00    -0.258 OA
ENDBRANCH  19  23
ENDBRANCH   4  17
TORSDOF 4
