MODEL        4USER    Run = 4USERUSER    Estimated Free Energy of Binding    =  -7.18 kcal/mol  [=(1)+(2)+(3)-(4)]USERUSER    (1) Final Intermolecular Energy     =  -7.48 kcal/molUSER        vdW + Hbond + desolv Energy     =  -7.40 kcal/molUSER        Electrostatic Energy            =  -0.08 kcal/molUSER        Moving Ligand-Fixed Receptor    =  -7.48 kcal/molUSER        Moving Ligand-Moving Receptor   =  +0.00 kcal/molUSER    (2) Final Total Internal Energy     =  -0.74 kcal/molUSER    (3) Torsional Free Energy           =  +0.30 kcal/molUSER    (4) Unbound System's Energy         =  -0.74 kcal/molUSERUSERREMARK SMILES Cc1ccc2c(c1)C=NN=CSC(c1c(F)cccc1F)=NN2REMARK SMILES IDX 1 1 2 2 3 3 4 4 5 5 6 6 7 7 8 8 9 9 10 10 11 11 12 12 13 13REMARK SMILES IDX 22 14 23 15 14 17 15 18 20 19 17 20 19 21 18 22 16 23 21 24REMARK H PARENT 23 16USER                              x       y       z     vdW  Elec       q    TypeUSER                           _______ _______ _______ _____ _____    ______ ____ROOTATOM      1  C   UNL     1      40.633  46.605  19.082 -0.38 -0.00    +0.044 C  ATOM      2  C   UNL     1      39.729  45.978  18.062 -0.42 +0.01    -0.050 A  ATOM      3  C   UNL     1      39.100  44.755  18.325 -0.39 -0.00    +0.005 A  ATOM      4  C   UNL     1      38.274  44.153  17.367 -0.03 -0.01    +0.028 A  ATOM      5  C   UNL     1      38.043  44.759  16.123 -0.18 -0.02    +0.065 A  ATOM      6  C   UNL     1      38.734  45.957  15.858 -0.37 -0.01    +0.020 A  ATOM      7  C   UNL     1      39.555  46.572  16.809 -0.45 -0.00    +0.015 A  ATOM      8  C   UNL     1      38.620  46.581  14.541 -0.39 -0.04    +0.146 C  ATOM      9  N   UNL     1      37.741  47.507  14.322 -0.37 +0.07    -0.158 NA ATOM     10  N   UNL     1      37.609  47.712  12.956 -0.96 +0.03    -0.152 NA ATOM     11  C   UNL     1      36.485  47.319  12.426 -0.60 -0.08    +0.183 C  ATOM     12  S   UNL     1      35.030  46.637  13.126 -0.53 +0.04    -0.053 SA ATOM     13  C   UNL     1      35.660  45.643  14.431 -0.35 -0.08    +0.135 C  ATOM     14  N   UNL     1      36.626  44.802  14.168 -0.30 +0.06    -0.167 NA ATOM     15  N   UNL     1      37.193  44.094  15.195 -0.08 +0.09    -0.277 N  ATOM     16  H   UNL     1      36.602  43.379  15.621 +0.12 -0.06    +0.190 HD ENDROOTBRANCH  13  17ATOM     17  C   UNL     1      34.959  45.808  15.725 -0.27 -0.07    +0.080 A  ATOM     18  C   UNL     1      33.754  45.138  15.946 -0.23 -0.10    +0.136 A  ATOM     19  C   UNL     1      35.456  46.625  16.739 -0.19 -0.15    +0.136 A  ATOM     20  C   UNL     1      33.064  45.268  17.152 -0.29 -0.02    +0.040 A  ATOM     21  C   UNL     1      34.775  46.762  17.950 -0.29 -0.04    +0.040 A  ATOM     22  C   UNL     1      33.576  46.083  18.159 -0.45 -0.00    +0.006 A  ATOM     23  F   UNL     1      33.227  44.343  15.002 +0.04 +0.12    -0.206 F  ATOM     24  F   UNL     1      36.600  47.305  16.592 -0.04 +0.19    -0.206 F  ENDBRANCH  13  17TORSDOF 1TERENDMDL