MODEL        6USER    Run = 6USERUSER    Estimated Free Energy of Binding    = -10.06 kcal/mol  [=(1)+(2)+(3)-(4)]USERUSER    (1) Final Intermolecular Energy     = -13.34 kcal/molUSER        vdW + Hbond + desolv Energy     = -13.00 kcal/molUSER        Electrostatic Energy            =  -0.34 kcal/molUSER        Moving Ligand-Fixed Receptor    = -13.34 kcal/molUSER        Moving Ligand-Moving Receptor   =  +0.00 kcal/molUSER    (2) Final Total Internal Energy     =  -3.22 kcal/molUSER    (3) Torsional Free Energy           =  +3.28 kcal/molUSER    (4) Unbound System's Energy         =  -3.22 kcal/molUSERUSERREMARK SMILES COc1ccc(O)c(C(=O)c2ccc(C(=O)N[C@@H]3CCN(CCO)C[C@H]3NC(=O)c3ccncc3)cc2)c1FREMARK SMILES IDX 15 1 16 2 17 3 14 5 11 6 12 7 37 8 13 9 36 10 9 11 10 12REMARK SMILES IDX 8 13 3 14 4 15 38 16 5 17 6 18 39 19 2 20 1 21 7 22 18 24REMARK SMILES IDX 19 25 26 26 20 27 25 28 21 29 27 30 28 31 29 33 30 34 31 35REMARK SMILES IDX 35 36 32 37 34 38 33 39 22 40 23 41 24 42REMARK H PARENT 17 4 7 23 27 32 24 43USER                              x       y       z     vdW  Elec       q    TypeUSER                           _______ _______ _______ _____ _____    ______ ____ROOTATOM      1  C   UNL     1      35.295  43.504  19.637 -0.29 -0.03    +0.251 C  ATOM      2  O   UNL     1      35.122  42.571  18.861 -0.25 +0.04    -0.269 OA ATOM      3  N   UNL     1      34.695  44.735  19.500 -0.17 +0.09    -0.347 N  ATOM      4  H   UNL     1      34.838  45.435  20.217 -0.10 -0.07    +0.164 HD ENDROOTBRANCH   1   5ATOM      5  C   UNL     1      36.183  43.338  20.810 -0.41 +0.00    +0.039 A  ATOM      6  C   UNL     1      37.791  42.979  23.072 -0.35 +0.00    +0.023 A  ATOM      7  C   UNL     1      36.987  41.928  22.609 -0.50 +0.00    +0.013 A  ATOM      8  C   UNL     1      37.804  44.201  22.384 -0.35 +0.00    +0.013 A  ATOM      9  C   UNL     1      36.170  42.116  21.491 -0.51 +0.00    +0.014 A  ATOM     10  C   UNL     1      36.996  44.384  21.258 -0.34 +0.00    +0.014 A  BRANCH   6  11ATOM     11  C   UNL     1      38.691  42.824  24.241 -0.18 +0.01    +0.199 C  ATOM     12  O   UNL     1      39.893  43.059  24.101 -0.14 -0.01    -0.288 OA BRANCH  11  13ATOM     13  C   UNL     1      38.236  42.345  25.565 -0.21 -0.00    +0.104 A  ATOM     14  C   UNL     1      36.482  41.952  27.215 -0.38 -0.04    +0.155 A  ATOM     15  C   UNL     1      37.426  41.397  28.082 -0.39 -0.01    +0.053 A  ATOM     16  C   UNL     1      36.902  42.435  25.966 -0.26 -0.02    +0.179 A  ATOM     17  C   UNL     1      38.770  41.336  27.707 -0.38 -0.00    +0.051 A  ATOM     18  C   UNL     1      39.172  41.819  26.464 -0.19 -0.00    +0.130 A  ATOM     19  F   UNL     1      35.993  43.006  25.158 -0.06 -0.01    -0.202 F  BRANCH  14  20ATOM     20  O   UNL     1      35.144  42.079  27.473 -0.21 +0.16    -0.494 OA ATOM     21  C   UNL     1      34.705  43.300  28.055 -0.44 -0.07    +0.278 C  ENDBRANCH  14  20BRANCH  18  22ATOM     22  O   UNL     1      40.511  41.751  26.186 -0.01 +0.05    -0.507 OA ATOM     23  H   UNL     1      40.680  42.311  25.392 +0.11 -0.01    +0.293 HD ENDBRANCH  18  22ENDBRANCH  11  13ENDBRANCH   6  11ENDBRANCH   1   5BRANCH   3  24ATOM     24  C   UNL     1      33.714  45.016  18.442 -0.40 -0.04    +0.107 C  ATOM     25  C   UNL     1      32.491  44.097  18.589 -0.38 -0.01    +0.042 C  ATOM     26  C   UNL     1      34.320  44.906  17.021 -0.29 -0.07    +0.118 C  ATOM     27  C   UNL     1      31.793  43.794  17.259 -0.29 -0.02    +0.087 C  ATOM     28  C   UNL     1      33.240  45.250  15.961 -0.29 -0.09    +0.111 C  ATOM     29  N   UNL     1      31.857  44.959  16.384 -0.47 +0.12    -0.299 NA BRANCH  26  30ATOM     30  N   UNL     1      35.505  45.749  16.860 -0.12 +0.24    -0.346 N  ATOM     31  C   UNL     1      36.777  45.227  16.856 -0.23 -0.10    +0.251 C  ATOM     32  H   UNL     1      35.338  46.750  16.824 +0.05 -0.20    +0.164 HD ATOM     33  O   UNL     1      36.988  44.022  16.959 -0.22 +0.08    -0.269 OA BRANCH  31  34ATOM     34  C   UNL     1      37.921  46.179  16.742 -0.36 -0.02    +0.042 A  ATOM     35  C   UNL     1      37.808  47.216  15.810 -0.40 -0.02    +0.034 A  ATOM     36  C   UNL     1      39.080  46.089  17.514 -0.40 -0.01    +0.034 A  ATOM     37  C   UNL     1      38.856  48.108  15.686 -0.41 -0.05    +0.112 A  ATOM     38  C   UNL     1      40.073  47.034  17.312 -0.41 -0.02    +0.112 A  ATOM     39  N   UNL     1      39.987  48.040  16.417 -0.31 +0.07    -0.265 NA ENDBRANCH  31  34ENDBRANCH  26  30BRANCH  29  40ATOM     40  C   UNL     1      30.926  44.907  15.243 -0.38 -0.06    +0.112 C  BRANCH  40  41ATOM     41  C   UNL     1      30.486  46.244  14.613 -0.45 -0.08    +0.171 C  BRANCH  41  42ATOM     42  O   UNL     1      30.928  47.366  15.375 -0.79 +0.15    -0.395 OA ATOM     43  H   UNL     1      31.710  47.084  15.879 -0.40 -0.30    +0.210 HD ENDBRANCH  41  42ENDBRANCH  40  41ENDBRANCH  29  40ENDBRANCH   3  24TORSDOF 11TERENDMDL