MODEL        4USER    Run = 4USERUSER    Estimated Free Energy of Binding    = -10.92 kcal/mol  [=(1)+(2)+(3)-(4)]USERUSER    (1) Final Intermolecular Energy     = -13.61 kcal/molUSER        vdW + Hbond + desolv Energy     = -13.54 kcal/molUSER        Electrostatic Energy            =  -0.07 kcal/molUSER        Moving Ligand-Fixed Receptor    = -13.61 kcal/molUSER        Moving Ligand-Moving Receptor   =  +0.00 kcal/molUSER    (2) Final Total Internal Energy     =  -3.18 kcal/molUSER    (3) Torsional Free Energy           =  +2.68 kcal/molUSER    (4) Unbound System's Energy         =  -3.18 kcal/molUSERUSERREMARK SMILES COc1ccc(O)c(C(=O)c2ccc(C(=O)N[C@@H]3CCN(c4ncc(F)cn4)C[C@H]3NC(=O)c3ccncc3)cc2)c1FREMARK SMILES IDX 11 1 12 2 13 3 14 4 40 5 41 6 9 7 10 8 8 9 3 10 4 11 42 12REMARK SMILES IDX 5 13 6 14 43 15 2 16 1 17 7 18 15 20 17 21 16 22 18 24 19 25REMARK SMILES IDX 30 26 20 27 29 28 21 29 31 30 32 31 33 33 34 34 35 35 39 36REMARK SMILES IDX 36 37 38 38 37 39 22 40 23 41 28 42 24 43 27 44 25 45 26 46REMARK H PARENT 7 19 17 23 31 32USER                              x       y       z     vdW  Elec       q    TypeUSER                           _______ _______ _______ _____ _____    ______ ____ROOTATOM      1  C   UNL     1      38.799  46.896  16.609 -0.41 -0.01    +0.023 A  ATOM      2  C   UNL     1      40.103  46.841  17.114 -0.49 -0.00    +0.013 A  ATOM      3  C   UNL     1      40.379  46.090  18.260 -0.47 -0.00    +0.014 A  ATOM      4  C   UNL     1      39.351  45.390  18.905 -0.40 -0.00    +0.039 A  ATOM      5  C   UNL     1      38.053  45.416  18.379 -0.36 -0.00    +0.014 A  ATOM      6  C   UNL     1      37.779  46.162  17.228 -0.36 -0.00    +0.013 A  ENDROOTBRANCH   1   7ATOM      7  C   UNL     1      38.558  47.677  15.374 -0.40 -0.09    +0.199 C  ATOM      8  O   UNL     1      39.079  48.789  15.269 -0.36 +0.15    -0.288 OA BRANCH   7   9ATOM      9  C   UNL     1      37.757  47.178  14.232 -0.40 -0.04    +0.104 A  ATOM     10  C   UNL     1      36.975  45.373  12.789 -0.39 -0.05    +0.155 A  ATOM     11  C   UNL     1      36.217  46.289  12.056 -0.61 -0.02    +0.053 A  ATOM     12  C   UNL     1      37.737  45.829  13.875 -0.29 -0.06    +0.179 A  ATOM     13  C   UNL     1      36.204  47.637  12.422 -0.63 -0.03    +0.051 A  ATOM     14  C   UNL     1      36.957  48.073  13.510 -0.48 -0.06    +0.130 A  ATOM     15  F   UNL     1      38.433  44.931  14.593 -0.04 +0.05    -0.202 F  BRANCH  10  16ATOM     16  O   UNL     1      37.056  44.030  12.535 -0.13 +0.15    -0.494 OA ATOM     17  C   UNL     1      37.296  43.636  11.190 -0.35 -0.08    +0.278 C  ENDBRANCH  10  16BRANCH  14  18ATOM     18  O   UNL     1      36.860  49.404  13.818 -0.13 +0.33    -0.507 OA ATOM     19  H   UNL     1      37.683  49.666  14.289 -0.34 -0.25    +0.293 HD ENDBRANCH  14  18ENDBRANCH   7   9ENDBRANCH   1   7BRANCH   4  20ATOM     20  C   UNL     1      39.683  44.613  20.128 -0.25 +0.00    +0.251 C  ATOM     21  N   UNL     1      38.617  44.058  20.808 -0.12 -0.00    -0.347 N  ATOM     22  O   UNL     1      40.845  44.533  20.520 -0.24 -0.02    -0.269 OA ATOM     23  H   UNL     1      37.693  44.411  20.592 +0.10 -0.00    +0.164 HD BRANCH  21  24ATOM     24  C   UNL     1      38.797  43.384  22.107 -0.27 +0.01    +0.108 C  ATOM     25  C   UNL     1      37.768  42.259  22.271 -0.43 +0.00    +0.048 C  ATOM     26  C   UNL     1      38.789  44.408  23.281 -0.25 +0.01    +0.124 C  ATOM     27  C   UNL     1      36.669  42.619  23.265 -0.35 +0.01    +0.122 C  ATOM     28  C   UNL     1      38.514  43.683  24.618 -0.20 +0.00    +0.146 C  ATOM     29  N   UNL     1      37.270  42.906  24.557 -0.16 -0.01    -0.339 N  BRANCH  26  30ATOM     30  N   UNL     1      40.035  45.182  23.293 -0.05 -0.02    -0.345 N  ATOM     31  C   UNL     1      40.059  46.512  23.649 -0.17 +0.02    +0.251 C  ATOM     32  H   UNL     1      40.758  44.849  22.654 +0.08 +0.01    +0.164 HD ATOM     33  O   UNL     1      39.084  47.096  24.111 -0.24 -0.03    -0.269 OA BRANCH  31  34ATOM     34  C   UNL     1      41.327  47.256  23.405 -0.22 +0.00    +0.042 A  ATOM     35  C   UNL     1      42.062  46.934  22.262 -0.25 +0.00    +0.034 A  ATOM     36  C   UNL     1      41.795  48.257  24.259 -0.31 +0.01    +0.034 A  ATOM     37  C   UNL     1      43.243  47.615  22.032 -0.26 +0.02    +0.112 A  ATOM     38  C   UNL     1      42.991  48.876  23.940 -0.28 +0.03    +0.112 A  ATOM     39  N   UNL     1      43.727  48.574  22.849 -0.57 -0.07    -0.265 NA ENDBRANCH  31  34ENDBRANCH  26  30BRANCH  29  40ATOM     40  C   UNL     1      36.419  42.998  25.645 -0.22 -0.01    +0.225 A  ATOM     41  N   UNL     1      36.398  44.142  26.357 -0.25 +0.03    -0.218 NA ATOM     42  N   UNL     1      35.662  41.931  25.972 -0.29 +0.04    -0.218 NA ATOM     43  C   UNL     1      35.568  44.209  27.422 -0.29 -0.04    +0.156 A  ATOM     44  C   UNL     1      34.848  42.043  27.045 -0.43 -0.04    +0.156 A  ATOM     45  C   UNL     1      34.764  43.174  27.811 -0.46 -0.04    +0.159 A  ATOM     46  F   UNL     1      33.949  43.259  28.869 -0.11 +0.05    -0.204 F  ENDBRANCH  29  40ENDBRANCH  21  24ENDBRANCH   4  20TORSDOF 9TERENDMDL