REMARK SMILES COc1cc(F)c(O)c(C(=O)c2ccc(C(=O)N[C@@H]3CCN(C)C[C@H]3NC(=O)c3ccncc3)cc2)c1
REMARK SMILES IDX 12 1 13 2 14 3 15 4 35 5 36 6 10 7 11 8 9 9 3 10 4 11 37 12
REMARK SMILES IDX 5 13 7 14 6 15 2 16 1 17 8 18 16 20 18 21 17 22 19 24 20 25
REMARK SMILES IDX 25 26 21 27 24 28 22 29 23 30 26 31 27 32 28 34 29 35 30 36
REMARK SMILES IDX 34 37 31 38 33 39 32 40
REMARK H PARENT 8 19 18 23 26 33
ROOT
ATOM      1  C   UNL     1       3.795  -0.565   0.474  1.00  0.00     0.023 A 
ATOM      2  C   UNL     1       3.178   0.517  -0.177  1.00  0.00     0.013 A 
ATOM      3  C   UNL     1       1.833   0.813   0.074  1.00  0.00     0.014 A 
ATOM      4  C   UNL     1       1.103   0.016   0.961  1.00  0.00     0.039 A 
ATOM      5  C   UNL     1       1.707  -1.071   1.608  1.00  0.00     0.014 A 
ATOM      6  C   UNL     1       3.053  -1.357   1.366  1.00  0.00     0.013 A 
ENDROOT
BRANCH   1   7
ATOM      7  C   UNL     1       5.250  -0.845   0.326  1.00  0.00     0.196 C 
ATOM      8  O   UNL     1       5.855  -1.499   1.169  1.00  0.00    -0.288 OA
BRANCH   7   9
ATOM      9  C   UNL     1       6.016  -0.248  -0.780  1.00  0.00     0.071 A 
ATOM     10  C   UNL     1       7.626   1.421  -1.485  1.00  0.00     0.122 A 
ATOM     11  C   UNL     1       7.490   0.968  -2.801  1.00  0.00     0.089 A 
ATOM     12  C   UNL     1       6.906   0.794  -0.468  1.00  0.00     0.062 A 
ATOM     13  C   UNL     1       6.626  -0.086  -3.089  1.00  0.00     0.169 A 
ATOM     14  C   UNL     1       5.872  -0.694  -2.089  1.00  0.00     0.162 A 
ATOM     15  F   UNL     1       6.501  -0.516  -4.353  1.00  0.00    -0.203 F 
BRANCH  10  16
ATOM     16  O   UNL     1       8.491   2.470  -1.322  1.00  0.00    -0.497 OA
ATOM     17  C   UNL     1       8.494   3.103  -0.042  1.00  0.00     0.278 C 
ENDBRANCH  10  16
BRANCH  14  18
ATOM     18  O   UNL     1       5.025  -1.724  -2.399  1.00  0.00    -0.504 OA
ATOM     19  H   UNL     1       5.159  -1.938  -3.345  1.00  0.00     0.293 HD
ENDBRANCH  14  18
ENDBRANCH   7   9
ENDBRANCH   1   7
BRANCH   4  20
ATOM     20  C   UNL     1      -0.304   0.358   1.253  1.00  0.00     0.251 C 
ATOM     21  N   UNL     1      -1.198  -0.659   1.022  1.00  0.00    -0.347 N 
ATOM     22  O   UNL     1      -0.596   1.462   1.685  1.00  0.00    -0.269 OA
ATOM     23  H   UNL     1      -0.862  -1.528   0.626  1.00  0.00     0.164 HD
BRANCH  21  24
ATOM     24  C   UNL     1      -2.613  -0.522   1.350  1.00  0.00     0.107 C 
ATOM     25  C   UNL     1      -2.827  -0.657   2.862  1.00  0.00     0.042 C 
ATOM     26  C   UNL     1      -3.498  -1.526   0.555  1.00  0.00     0.118 C 
ATOM     27  C   UNL     1      -4.316  -0.630   3.213  1.00  0.00     0.086 C 
ATOM     28  C   UNL     1      -4.357  -2.389   1.507  1.00  0.00     0.111 C 
ATOM     29  N   UNL     1      -5.154  -1.524   2.392  1.00  0.00    -0.304 NA
ATOM     30  C   UNL     1      -6.050  -2.324   3.234  1.00  0.00     0.105 C 
BRANCH  26  31
ATOM     31  N   UNL     1      -4.374  -0.791  -0.364  1.00  0.00    -0.346 N 
ATOM     32  C   UNL     1      -3.897  -0.233  -1.527  1.00  0.00     0.251 C 
ATOM     33  H   UNL     1      -5.250  -0.480   0.039  1.00  0.00     0.164 HD
ATOM     34  O   UNL     1      -2.834  -0.546  -2.055  1.00  0.00    -0.269 OA
BRANCH  32  35
ATOM     35  C   UNL     1      -4.750   0.814  -2.151  1.00  0.00     0.042 A 
ATOM     36  C   UNL     1      -4.668   0.999  -3.533  1.00  0.00     0.034 A 
ATOM     37  C   UNL     1      -5.572   1.650  -1.389  1.00  0.00     0.034 A 
ATOM     38  C   UNL     1      -5.439   1.997  -4.102  1.00  0.00     0.112 A 
ATOM     39  C   UNL     1      -6.301   2.622  -2.055  1.00  0.00     0.112 A 
ATOM     40  N   UNL     1      -6.259   2.806  -3.394  1.00  0.00    -0.265 NA
ENDBRANCH  32  35
ENDBRANCH  26  31
ENDBRANCH  21  24
ENDBRANCH   4  20
TORSDOF 8
