MODEL        3USER    Run = 3USERUSER    Estimated Free Energy of Binding    =  -9.20 kcal/mol  [=(1)+(2)+(3)-(4)]USERUSER    (1) Final Intermolecular Energy     = -11.59 kcal/molUSER        vdW + Hbond + desolv Energy     = -11.50 kcal/molUSER        Electrostatic Energy            =  -0.08 kcal/molUSER        Moving Ligand-Fixed Receptor    = -11.59 kcal/molUSER        Moving Ligand-Moving Receptor   =  +0.00 kcal/molUSER    (2) Final Total Internal Energy     =  -2.32 kcal/molUSER    (3) Torsional Free Energy           =  +2.39 kcal/molUSER    (4) Unbound System's Energy         =  -2.32 kcal/molUSERUSERREMARK SMILES C[C@@]1(F)C(C(=O)NC2CCC2)=CC=C1c1ccncc1NCCc1ccccc1C=OREMARK SMILES IDX 21 1 20 3 15 4 16 5 17 6 19 7 18 8 14 9 2 10 4 11 12 12REMARK SMILES IDX 13 13 1 14 3 15 5 16 7 17 6 18 8 20 9 21 11 22 10 23 22 24REMARK SMILES IDX 23 25 24 26 25 27 29 28 26 29 28 30 27 31 30 32 31 33REMARK H PARENT 21 2 7 19USER                              x       y       z     vdW  Elec       q    TypeUSER                           _______ _______ _______ _____ _____    ______ ____ROOTATOM      1  N   UNL     1      38.523  47.188  15.466 -0.14 +0.16    -0.383 N  ATOM      2  H   UNL     1      39.130  48.008  15.376 +0.12 -0.06    +0.160 HD ENDROOTBRANCH   1   3ATOM      3  C   UNL     1      37.673  47.095  14.359 -0.42 -0.03    +0.060 A  ATOM      4  C   UNL     1      36.367  46.579  14.519 -0.42 -0.00    +0.007 A  ATOM      5  C   UNL     1      35.524  46.415  13.405 -0.48 -0.02    +0.031 A  ATOM      6  C   UNL     1      35.999  46.777  12.160 -0.55 -0.06    +0.112 A  ATOM      7  C   UNL     1      38.044  47.369  13.041 -0.33 -0.03    +0.137 A  ATOM      8  N   UNL     1      37.244  47.242  11.950 -0.92 +0.06    -0.263 NA BRANCH   4   9ATOM      9  C   UNL     1      35.862  46.176  15.833 -0.43 -0.00    +0.003 C  ATOM     10  C   UNL     1      35.181  44.840  16.095 -0.27 -0.09    +0.164 C  ATOM     11  C   UNL     1      34.707  45.061  17.509 -0.36 -0.03    +0.058 C  ATOM     12  C   UNL     1      35.065  46.280  17.958 -0.46 -0.01    +0.013 C  ATOM     13  C   UNL     1      35.778  46.979  16.917 -0.12 -0.01    +0.009 C  ATOM     14  C   UNL     1      36.120  43.644  15.908 -0.44 -0.02    +0.059 C  ATOM     15  F   UNL     1      34.106  44.697  15.251 -0.02 +0.14    -0.233 F  BRANCH  11  16ATOM     16  C   UNL     1      33.964  44.050  18.259 -0.22 -0.07    +0.251 C  ATOM     17  N   UNL     1      32.844  43.590  17.609 -0.07 +0.10    -0.349 N  ATOM     18  O   UNL     1      34.358  43.661  19.353 -0.29 +0.04    -0.270 OA ATOM     19  H   UNL     1      32.688  43.912  16.663 +0.12 -0.07    +0.164 HD BRANCH  17  20ATOM     20  C   UNL     1      31.946  42.582  18.209 -0.32 -0.01    +0.082 C  ATOM     21  C   UNL     1      31.472  41.498  17.213 -0.34 -0.01    +0.025 C  ATOM     22  C   UNL     1      32.686  41.449  18.964 -0.42 -0.00    +0.025 C  ATOM     23  C   UNL     1      32.685  40.651  17.648 -0.40 -0.00    +0.004 C  ENDBRANCH  17  20ENDBRANCH  11  16ENDBRANCH   4   9ENDBRANCH   1   3BRANCH   1  24ATOM     24  C   UNL     1      39.224  46.047  16.045 -0.36 -0.03    +0.118 C  BRANCH  24  25ATOM     25  C   UNL     1      39.124  46.068  17.581 -0.45 -0.01    +0.057 C  BRANCH  25  26ATOM     26  C   UNL     1      40.446  46.420  18.240 -0.46 +0.00    -0.036 A  ATOM     27  C   UNL     1      40.910  45.580  19.273 -0.44 +0.00    +0.004 A  ATOM     28  C   UNL     1      41.217  47.553  17.911 -0.50 -0.00    +0.018 A  ATOM     29  C   UNL     1      42.098  45.853  19.956 -0.32 +0.00    +0.000 A  ATOM     30  C   UNL     1      42.405  47.828  18.615 -0.46 +0.00    +0.012 A  ATOM     31  C   UNL     1      42.844  46.980  19.631 -0.48 +0.00    +0.001 A  BRANCH  28  32ATOM     32  C   UNL     1      40.833  48.489  16.823 -0.33 -0.04    +0.260 C  ATOM     33  O   UNL     1      41.269  48.373  15.684 -0.52 +0.02    -0.298 OA ENDBRANCH  28  32ENDBRANCH  25  26ENDBRANCH  24  25ENDBRANCH   1  24TORSDOF 8TERENDMDL