REMARK SMILES O=Cc1ccccc1CCNc1cnccc1C1=CC=C(C(=O)N2CCOCC2)[C@H]1F
REMARK SMILES IDX 10 1 9 2 8 3 3 4 4 5 5 6 7 7 6 8 2 9 1 10 11 11 12 13 13 14
REMARK SMILES IDX 17 15 14 16 16 17 15 18 18 19 19 20 30 21 20 22 21 23 31 24
REMARK SMILES IDX 22 25 24 26 25 27 29 28 26 29 28 30 27 31 23 32
REMARK H PARENT 11 12
ROOT
ATOM      1  C   UNL     1      -2.722   0.256   0.044  1.00  0.00     0.118 C 
ENDROOT
BRANCH   1   2
ATOM      2  C   UNL     1      -3.642  -0.657  -0.779  1.00  0.00     0.057 C 
BRANCH   2   3
ATOM      3  C   UNL     1      -4.772   0.111  -1.430  1.00  0.00    -0.036 A 
ATOM      4  C   UNL     1      -5.988   0.420  -0.791  1.00  0.00     0.018 A 
ATOM      5  C   UNL     1      -6.969   1.168  -1.462  1.00  0.00     0.012 A 
ATOM      6  C   UNL     1      -6.754   1.611  -2.766  1.00  0.00     0.001 A 
ATOM      7  C   UNL     1      -4.576   0.572  -2.747  1.00  0.00     0.004 A 
ATOM      8  C   UNL     1      -5.558   1.313  -3.408  1.00  0.00     0.000 A 
BRANCH   4   9
ATOM      9  C   UNL     1      -6.295  -0.015   0.593  1.00  0.00     0.260 C 
ATOM     10  O   UNL     1      -7.326   0.317   1.168  1.00  0.00    -0.298 OA
ENDBRANCH   4   9
ENDBRANCH   2   3
ENDBRANCH   1   2
BRANCH   1  11
ATOM     11  N   UNL     1      -1.505  -0.454   0.432  1.00  0.00    -0.383 N 
ATOM     12  H   UNL     1      -0.662   0.084   0.227  1.00  0.00     0.160 HD
BRANCH  11  13
ATOM     13  C   UNL     1      -1.381  -1.099   1.672  1.00  0.00     0.060 A 
ATOM     14  C   UNL     1      -2.467  -1.455   2.477  1.00  0.00     0.137 A 
ATOM     15  C   UNL     1      -0.117  -1.537   2.132  1.00  0.00     0.007 A 
ATOM     16  N   UNL     1      -2.395  -2.107   3.663  1.00  0.00    -0.263 NA
ATOM     17  C   UNL     1      -0.016  -2.203   3.362  1.00  0.00     0.031 A 
ATOM     18  C   UNL     1      -1.168  -2.458   4.082  1.00  0.00     0.112 A 
BRANCH  15  19
ATOM     19  C   UNL     1       1.117  -1.328   1.366  1.00  0.00     0.000 C 
ATOM     20  C   UNL     1       1.368  -1.752   0.114  1.00  0.00     0.008 C 
ATOM     21  C   UNL     1       2.334  -0.632   1.927  1.00  0.00     0.233 C 
ATOM     22  C   UNL     1       2.717  -1.395  -0.250  1.00  0.00     0.013 C 
ATOM     23  C   UNL     1       3.279  -0.735   0.775  1.00  0.00     0.056 C 
ATOM     24  F   UNL     1       2.049   0.671   2.201  1.00  0.00    -0.237 F 
BRANCH  23  25
ATOM     25  C   UNL     1       4.672  -0.306   0.902  1.00  0.00     0.253 C 
ATOM     26  N   UNL     1       5.194   0.508  -0.092  1.00  0.00    -0.334 N 
ATOM     27  C   UNL     1       6.578   0.955   0.083  1.00  0.00     0.148 C 
ATOM     28  C   UNL     1       4.368   1.443  -0.870  1.00  0.00     0.148 C 
ATOM     29  C   UNL     1       7.196   1.415  -1.238  1.00  0.00     0.181 C 
ATOM     30  C   UNL     1       5.077   1.882  -2.154  1.00  0.00     0.181 C 
ATOM     31  O   UNL     1       6.380   2.410  -1.874  1.00  0.00    -0.378 OA
ATOM     32  O   UNL     1       5.319  -0.701   1.870  1.00  0.00    -0.269 OA
ENDBRANCH  23  25
ENDBRANCH  15  19
ENDBRANCH  11  13
ENDBRANCH   1  11
TORSDOF 7
