MODEL        7USER    Run = 7USERUSER    Estimated Free Energy of Binding    =  -9.90 kcal/mol  [=(1)+(2)+(3)-(4)]USERUSER    (1) Final Intermolecular Energy     = -11.99 kcal/molUSER        vdW + Hbond + desolv Energy     = -11.84 kcal/molUSER        Electrostatic Energy            =  -0.15 kcal/molUSER        Moving Ligand-Fixed Receptor    = -11.99 kcal/molUSER        Moving Ligand-Moving Receptor   =  +0.00 kcal/molUSER    (2) Final Total Internal Energy     =  -1.74 kcal/molUSER    (3) Torsional Free Energy           =  +2.09 kcal/molUSER    (4) Unbound System's Energy         =  -1.74 kcal/molUSERUSERREMARK SMILES O=Cc1ccccc1CCNc1cnccc1C1=CC=C(C(=O)N2CCOCC2)[C@H]1FREMARK SMILES IDX 10 1 9 2 8 3 3 4 4 5 5 6 7 7 6 8 2 9 1 10 11 11 12 13 13 14REMARK SMILES IDX 17 15 14 16 16 17 15 18 18 19 19 20 30 21 20 22 21 23 31 24REMARK SMILES IDX 22 25 24 26 25 27 29 28 26 29 28 30 27 31 23 32REMARK H PARENT 11 12USER                              x       y       z     vdW  Elec       q    TypeUSER                           _______ _______ _______ _____ _____    ______ ____ROOTATOM      1  C   UNL     1      39.993  46.881  15.603 -0.45 -0.02    +0.118 C  ENDROOTBRANCH   1   2ATOM      2  C   UNL     1      40.747  47.445  16.815 -0.53 -0.01    +0.057 C  BRANCH   2   3ATOM      3  C   UNL     1      40.662  46.529  18.016 -0.48 +0.00    -0.036 A  ATOM      4  C   UNL     1      41.533  46.591  19.120 -0.48 +0.00    +0.018 A  ATOM      5  C   UNL     1      41.358  45.721  20.209 -0.38 +0.00    +0.012 A  ATOM      6  C   UNL     1      40.324  44.786  20.210 -0.38 +0.00    +0.001 A  ATOM      7  C   UNL     1      39.622  45.578  18.041 -0.44 -0.00    +0.004 A  ATOM      8  C   UNL     1      39.457  44.715  19.126 -0.40 -0.00    +0.000 A  BRANCH   4   9ATOM      9  C   UNL     1      42.658  47.554  19.196 -0.35 +0.02    +0.260 C  ATOM     10  O   UNL     1      43.756  47.242  19.645 -0.36 -0.14    -0.298 OA ENDBRANCH   4   9ENDBRANCH   2   3ENDBRANCH   1   2BRANCH   1  11ATOM     11  N   UNL     1      38.562  47.157  15.713 -0.14 +0.16    -0.383 N  ATOM     12  H   UNL     1      38.373  48.019  16.226 +0.11 -0.10    +0.160 HD BRANCH  11  13ATOM     13  C   UNL     1      37.694  47.043  14.616 -0.40 -0.03    +0.060 A  ATOM     14  C   UNL     1      38.001  47.493  13.329 -0.37 -0.03    +0.137 A  ATOM     15  C   UNL     1      36.471  46.342  14.737 -0.40 -0.00    +0.007 A  ATOM     16  N   UNL     1      37.208  47.374  12.237 -0.99 +0.07    -0.263 NA ATOM     17  C   UNL     1      35.628  46.216  13.623 -0.45 -0.02    +0.031 A  ATOM     18  C   UNL     1      36.034  46.745  12.412 -0.56 -0.06    +0.112 A  BRANCH  15  19ATOM     19  C   UNL     1      36.036  45.725  15.995 -0.41 -0.00    +0.000 C  ATOM     20  C   UNL     1      35.500  46.354  17.057 -0.41 -0.01    +0.008 C  ATOM     21  C   UNL     1      36.192  44.253  16.294 -0.25 -0.09    +0.233 C  ATOM     22  C   UNL     1      35.268  45.399  18.112 -0.43 -0.01    +0.013 C  ATOM     23  C   UNL     1      35.644  44.184  17.682 -0.33 -0.02    +0.056 C  ATOM     24  F   UNL     1      35.433  43.514  15.439 -0.07 +0.09    -0.237 F  BRANCH  23  25ATOM     25  C   UNL     1      35.714  42.946  18.459 -0.21 -0.05    +0.253 C  ATOM     26  N   UNL     1      36.237  43.014  19.742 -0.17 +0.03    -0.334 N  ATOM     27  C   UNL     1      36.257  41.767  20.511 -0.41 -0.00    +0.148 C  ATOM     28  C   UNL     1      36.138  44.219  20.579 -0.30 -0.00    +0.148 C  ATOM     29  C   UNL     1      37.254  41.832  21.669 -0.40 +0.01    +0.181 C  ATOM     30  C   UNL     1      37.142  44.184  21.734 -0.31 +0.01    +0.181 C  ATOM     31  O   UNL     1      37.013  42.978  22.498 -0.22 -0.03    -0.378 OA ATOM     32  O   UNL     1      35.327  41.904  17.935 -0.45 +0.08    -0.269 OA ENDBRANCH  23  25ENDBRANCH  15  19ENDBRANCH  11  13ENDBRANCH   1  11TORSDOF 7TERENDMDL