REMARK SMILES C[C@@]1(F)C(C(=O)NC2CCC2)=CC=C1c1ccncc1NCCc1ccccc1C=O
REMARK SMILES IDX 21 1 20 3 15 4 16 5 17 6 19 7 18 8 14 9 2 10 4 11 12 12
REMARK SMILES IDX 13 13 1 14 3 15 5 16 7 17 6 18 8 20 9 21 11 22 10 23 22 24
REMARK SMILES IDX 23 25 24 26 25 27 29 28 26 29 28 30 27 31 30 32 31 33
REMARK H PARENT 21 2 7 19
ROOT
ATOM      1  N   UNL     1       1.448  -0.491  -0.641  1.00  0.00    -0.383 N 
ATOM      2  H   UNL     1       0.509  -0.127  -0.826  1.00  0.00     0.160 HD
ENDROOT
BRANCH   1   3
ATOM      3  C   UNL     1       1.593  -1.760  -1.211  1.00  0.00     0.060 A 
ATOM      4  C   UNL     1       0.518  -2.676  -1.167  1.00  0.00     0.007 A 
ATOM      5  C   UNL     1       0.670  -3.978  -1.675  1.00  0.00     0.031 A 
ATOM      6  C   UNL     1       1.887  -4.335  -2.222  1.00  0.00     0.112 A 
ATOM      7  C   UNL     1       2.782  -2.267  -1.740  1.00  0.00     0.137 A 
ATOM      8  N   UNL     1       2.951  -3.512  -2.258  1.00  0.00    -0.263 NA
BRANCH   4   9
ATOM      9  C   UNL     1      -0.770  -2.311  -0.573  1.00  0.00     0.003 C 
ATOM     10  C   UNL     1      -1.767  -1.377  -1.245  1.00  0.00     0.164 C 
ATOM     11  C   UNL     1      -2.763  -1.210  -0.126  1.00  0.00     0.058 C 
ATOM     12  C   UNL     1      -2.402  -1.922   0.959  1.00  0.00     0.013 C 
ATOM     13  C   UNL     1      -1.160  -2.604   0.687  1.00  0.00     0.009 C 
ATOM     14  C   UNL     1      -2.343  -1.952  -2.543  1.00  0.00     0.059 C 
ATOM     15  F   UNL     1      -1.159  -0.176  -1.523  1.00  0.00    -0.233 F 
BRANCH  11  16
ATOM     16  C   UNL     1      -3.957  -0.376  -0.252  1.00  0.00     0.251 C 
ATOM     17  N   UNL     1      -4.174   0.449   0.826  1.00  0.00    -0.349 N 
ATOM     18  O   UNL     1      -4.657  -0.425  -1.258  1.00  0.00    -0.270 OA
ATOM     19  H   UNL     1      -3.463   0.473   1.545  1.00  0.00     0.164 HD
BRANCH  17  20
ATOM     20  C   UNL     1      -5.340   1.353   0.901  1.00  0.00     0.082 C 
ATOM     21  C   UNL     1      -6.553   0.745   1.644  1.00  0.00     0.025 C 
ATOM     22  C   UNL     1      -5.260   2.390   2.049  1.00  0.00     0.025 C 
ATOM     23  C   UNL     1      -6.002   1.376   2.938  1.00  0.00     0.004 C 
ENDBRANCH  17  20
ENDBRANCH  11  16
ENDBRANCH   4   9
ENDBRANCH   1   3
BRANCH   1  24
ATOM     24  C   UNL     1       2.466   0.552  -0.720  1.00  0.00     0.118 C 
BRANCH  24  25
ATOM     25  C   UNL     1       3.486   0.405   0.424  1.00  0.00     0.057 C 
BRANCH  25  26
ATOM     26  C   UNL     1       4.317   1.660   0.620  1.00  0.00    -0.036 A 
ATOM     27  C   UNL     1       3.954   2.533   1.666  1.00  0.00     0.004 A 
ATOM     28  C   UNL     1       5.402   2.026  -0.201  1.00  0.00     0.018 A 
ATOM     29  C   UNL     1       4.643   3.727   1.891  1.00  0.00     0.000 A 
ATOM     30  C   UNL     1       6.081   3.239   0.024  1.00  0.00     0.012 A 
ATOM     31  C   UNL     1       5.704   4.084   1.067  1.00  0.00     0.001 A 
BRANCH  28  32
ATOM     32  C   UNL     1       5.884   1.168  -1.314  1.00  0.00     0.260 C 
ATOM     33  O   UNL     1       6.733   1.553  -2.109  1.00  0.00    -0.298 OA
ENDBRANCH  28  32
ENDBRANCH  25  26
ENDBRANCH  24  25
ENDBRANCH   1  24
TORSDOF 8
