MODEL        5USER    Run = 5USERUSER    Estimated Free Energy of Binding    = -10.30 kcal/mol  [=(1)+(2)+(3)-(4)]USERUSER    (1) Final Intermolecular Energy     = -12.69 kcal/molUSER        vdW + Hbond + desolv Energy     = -12.59 kcal/molUSER        Electrostatic Energy            =  -0.10 kcal/molUSER        Moving Ligand-Fixed Receptor    = -12.69 kcal/molUSER        Moving Ligand-Moving Receptor   =  +0.00 kcal/molUSER    (2) Final Total Internal Energy     =  -2.12 kcal/molUSER    (3) Torsional Free Energy           =  +2.39 kcal/molUSER    (4) Unbound System's Energy         =  -2.12 kcal/molUSERUSERREMARK SMILES NC(=O)c1ccccc1CCNc1cnccc1C1=CC=C(C(=O)NC2CC2)[C@H]1FREMARK SMILES IDX 11 1 10 2 9 3 4 4 5 5 6 6 8 7 7 8 2 9 1 10 3 13 12 14 13 16REMARK SMILES IDX 14 17 18 18 15 19 17 20 16 21 19 22 20 23 29 24 21 25 22 26REMARK SMILES IDX 30 27 23 28 25 29 24 30 26 32 27 33 28 34REMARK H PARENT 1 11 1 12 12 15 25 31USER                              x       y       z     vdW  Elec       q    TypeUSER                           _______ _______ _______ _____ _____    ______ ____ROOTATOM      1  C   UNL     1      39.317  48.017  15.864 -0.48 -0.05    +0.118 C  ENDROOTBRANCH   1   2ATOM      2  C   UNL     1      40.131  46.720  15.966 -0.49 -0.01    +0.057 C  BRANCH   2   3ATOM      3  C   UNL     1      40.137  46.137  17.363 -0.44 +0.00    -0.034 A  ATOM      4  C   UNL     1      40.984  46.592  18.397 -0.48 -0.00    +0.042 A  ATOM      5  C   UNL     1      40.928  45.983  19.665 -0.40 +0.00    +0.014 A  ATOM      6  C   UNL     1      40.026  44.950  19.920 -0.39 +0.00    +0.001 A  ATOM      7  C   UNL     1      39.232  45.096  17.646 -0.34 -0.00    +0.004 A  ATOM      8  C   UNL     1      39.177  44.510  18.912 -0.38 -0.00    +0.000 A  BRANCH   4   9ATOM      9  C   UNL     1      41.961  47.700  18.190 -0.35 -0.01    +0.248 C  ATOM     10  N   UNL     1      43.039  47.728  19.033 -0.32 -0.03    -0.366 N  ATOM     11  H   UNL     1      43.078  47.176  19.880 +0.02 +0.04    +0.159 HD ATOM     12  H   UNL     1      43.642  48.537  18.969 -0.51 -0.02    +0.159 HD ATOM     13  O   UNL     1      41.812  48.573  17.347 -0.80 -0.02    -0.270 OA ENDBRANCH   4   9ENDBRANCH   2   3ENDBRANCH   1   2BRANCH   1  14ATOM     14  N   UNL     1      37.876  47.754  15.845 -0.16 +0.25    -0.383 N  ATOM     15  H   UNL     1      37.375  48.440  16.412 +0.11 -0.17    +0.160 HD BRANCH  14  16ATOM     16  C   UNL     1      37.197  47.501  14.642 -0.43 -0.04    +0.060 A  ATOM     17  C   UNL     1      37.276  48.341  13.525 -0.41 -0.06    +0.137 A  ATOM     18  C   UNL     1      36.478  46.297  14.449 -0.42 -0.00    +0.007 A  ATOM     19  N   UNL     1      36.660  48.138  12.334 -0.96 +0.08    -0.263 NA ATOM     20  C   UNL     1      35.827  46.070  13.228 -0.47 -0.02    +0.031 A  ATOM     21  C   UNL     1      35.942  47.009  12.219 -0.54 -0.06    +0.112 A  BRANCH  18  22ATOM     22  C   UNL     1      36.372  45.261  15.486 -0.42 -0.00    +0.000 C  ATOM     23  C   UNL     1      36.646  43.951  15.350 -0.41 -0.00    +0.008 C  ATOM     24  C   UNL     1      35.876  45.535  16.887 -0.24 -0.13    +0.233 C  ATOM     25  C   UNL     1      36.381  43.271  16.594 -0.39 -0.00    +0.013 C  ATOM     26  C   UNL     1      35.942  44.169  17.492 -0.33 -0.02    +0.055 C  ATOM     27  F   UNL     1      36.716  46.394  17.525 -0.05 +0.12    -0.237 F  BRANCH  26  28ATOM     28  C   UNL     1      35.465  43.938  18.859 -0.24 -0.05    +0.250 C  ATOM     29  N   UNL     1      36.225  43.048  19.582 -0.15 +0.03    -0.349 N  ATOM     30  O   UNL     1      34.482  44.533  19.286 -0.28 +0.07    -0.270 OA ATOM     31  H   UNL     1      37.095  42.713  19.188 +0.13 -0.02    +0.164 HD BRANCH  29  32ATOM     32  C   UNL     1      35.941  42.742  20.947 -0.44 +0.00    +0.082 C  ATOM     33  C   UNL     1      37.031  42.778  21.984 -0.48 +0.00    +0.027 C  ATOM     34  C   UNL     1      36.443  41.464  21.561 -0.61 +0.00    +0.027 C  ENDBRANCH  29  32ENDBRANCH  26  28ENDBRANCH  18  22ENDBRANCH  14  16ENDBRANCH   1  14TORSDOF 8TERENDMDL