REMARK SMILES NC(=O)c1ccccc1CCNc1cnccc1C1=CC=C(C(=O)NC2CC2)[C@H]1F
REMARK SMILES IDX 11 1 10 2 9 3 4 4 5 5 6 6 8 7 7 8 2 9 1 10 3 13 12 14 13 16
REMARK SMILES IDX 14 17 18 18 15 19 17 20 16 21 19 22 20 23 29 24 21 25 22 26
REMARK SMILES IDX 30 27 23 28 25 29 24 30 26 32 27 33 28 34
REMARK H PARENT 1 11 1 12 12 15 25 31
ROOT
ATOM      1  C   UNL     1      -2.504  -0.689  -0.645  1.00  0.00     0.118 C 
ENDROOT
BRANCH   1   2
ATOM      2  C   UNL     1      -2.828   0.177   0.580  1.00  0.00     0.057 C 
BRANCH   2   3
ATOM      3  C   UNL     1      -4.214   0.784   0.523  1.00  0.00    -0.034 A 
ATOM      4  C   UNL     1      -4.567   1.849  -0.333  1.00  0.00     0.042 A 
ATOM      5  C   UNL     1      -5.879   2.357  -0.312  1.00  0.00     0.014 A 
ATOM      6  C   UNL     1      -6.844   1.803   0.529  1.00  0.00     0.001 A 
ATOM      7  C   UNL     1      -5.206   0.238   1.360  1.00  0.00     0.004 A 
ATOM      8  C   UNL     1      -6.508   0.742   1.361  1.00  0.00     0.000 A 
BRANCH   4   9
ATOM      9  C   UNL     1      -3.583   2.477  -1.263  1.00  0.00     0.248 C 
ATOM     10  N   UNL     1      -4.062   2.867  -2.485  1.00  0.00    -0.366 N 
ATOM     11  H   UNL     1      -4.961   2.565  -2.835  1.00  0.00     0.159 HD
ATOM     12  H   UNL     1      -3.377   3.189  -3.156  1.00  0.00     0.159 HD
ATOM     13  O   UNL     1      -2.399   2.611  -0.990  1.00  0.00    -0.270 OA
ENDBRANCH   4   9
ENDBRANCH   2   3
ENDBRANCH   1   2
BRANCH   1  14
ATOM     14  N   UNL     1      -1.164  -1.275  -0.557  1.00  0.00    -0.383 N 
ATOM     15  H   UNL     1      -0.452  -0.545  -0.500  1.00  0.00     0.160 HD
BRANCH  14  16
ATOM     16  C   UNL     1      -0.885  -2.324   0.334  1.00  0.00     0.060 A 
ATOM     17  C   UNL     1      -1.858  -3.221   0.792  1.00  0.00     0.137 A 
ATOM     18  C   UNL     1       0.443  -2.610   0.732  1.00  0.00     0.007 A 
ATOM     19  N   UNL     1      -1.644  -4.261   1.635  1.00  0.00    -0.263 NA
ATOM     20  C   UNL     1       0.685  -3.676   1.610  1.00  0.00     0.031 A 
ATOM     21  C   UNL     1      -0.376  -4.457   2.031  1.00  0.00     0.112 A 
BRANCH  18  22
ATOM     22  C   UNL     1       1.597  -1.826   0.270  1.00  0.00     0.000 C 
ATOM     23  C   UNL     1       1.923  -1.543  -1.004  1.00  0.00     0.008 C 
ATOM     24  C   UNL     1       2.636  -1.249   1.203  1.00  0.00     0.233 C 
ATOM     25  C   UNL     1       3.145  -0.778  -1.030  1.00  0.00     0.013 C 
ATOM     26  C   UNL     1       3.567  -0.595   0.232  1.00  0.00     0.055 C 
ATOM     27  F   UNL     1       2.069  -0.332   2.032  1.00  0.00    -0.237 F 
BRANCH  26  28
ATOM     28  C   UNL     1       4.802   0.042   0.701  1.00  0.00     0.250 C 
ATOM     29  N   UNL     1       5.209   1.116  -0.056  1.00  0.00    -0.349 N 
ATOM     30  O   UNL     1       5.372  -0.367   1.706  1.00  0.00    -0.270 OA
ATOM     31  H   UNL     1       4.599   1.461  -0.786  1.00  0.00     0.164 HD
BRANCH  29  32
ATOM     32  C   UNL     1       6.360   1.890   0.282  1.00  0.00     0.082 C 
ATOM     33  C   UNL     1       6.912   2.904  -0.682  1.00  0.00     0.027 C 
ATOM     34  C   UNL     1       7.673   1.641  -0.407  1.00  0.00     0.027 C 
ENDBRANCH  29  32
ENDBRANCH  26  28
ENDBRANCH  18  22
ENDBRANCH  14  16
ENDBRANCH   1  14
TORSDOF 8
