REMARK SMILES COC1=c2cc[nH]c2=C(N2CC[C@H](Cc3ccc(F)cc3)C2=O)C[C@H]1C
REMARK SMILES IDX 10 1 11 2 12 3 13 4 22 5 23 6 9 7 3 8 4 9 25 10 5 11 8 12
REMARK SMILES IDX 24 13 6 14 7 15 26 16 2 18 1 19 14 20 15 21 16 22 21 23
REMARK SMILES IDX 17 24 20 25 18 26 19 27
REMARK H PARENT 7 17
ROOT
ATOM      1  N   UNL     1      -0.028  -0.320  -0.150  1.00  0.00    -0.314 N 
ATOM      2  C   UNL     1       0.835  -1.343   0.398  1.00  0.00     0.126 C 
ATOM      3  C   UNL     1       2.158  -0.637   0.617  1.00  0.00     0.036 C 
ATOM      4  C   UNL     1       2.209   0.339  -0.550  1.00  0.00     0.085 C 
ATOM      5  C   UNL     1       0.748   0.720  -0.705  1.00  0.00     0.230 C 
ATOM      6  O   UNL     1       0.366   1.732  -1.273  1.00  0.00    -0.274 OA
ENDROOT
BRANCH   1   7
ATOM      7  C   UNL     1      -1.424  -0.367  -0.113  1.00  0.00     0.046 C 
ATOM      8  C   UNL     1      -4.339  -0.362   0.185  1.00  0.00     0.108 C 
ATOM      9  C   UNL     1      -3.601  -1.479   0.214  1.00  0.00     0.039 A 
ATOM     10  C   UNL     1      -3.670   0.990   0.057  1.00  0.00     0.058 C 
ATOM     11  C   UNL     1      -4.055  -2.853   0.331  1.00  0.00     0.031 A 
ATOM     12  C   UNL     1      -2.135  -1.476   0.169  1.00  0.00     0.069 A 
ATOM     13  C   UNL     1      -2.193   0.913  -0.428  1.00  0.00     0.067 C 
ATOM     14  C   UNL     1      -2.935  -3.592   0.386  1.00  0.00     0.083 A 
ATOM     15  N   UNL     1      -1.791  -2.807   0.365  1.00  0.00    -0.360 N 
ATOM     16  C   UNL     1      -4.447   1.951  -0.851  1.00  0.00     0.016 C 
ATOM     17  H   UNL     1      -0.995  -3.162  -0.148  1.00  0.00     0.166 HD
BRANCH   8  18
ATOM     18  O   UNL     1      -5.721  -0.402   0.234  1.00  0.00    -0.500 OA
ATOM     19  C   UNL     1      -6.195  -0.064   1.538  1.00  0.00     0.278 C 
ENDBRANCH   8  18
ENDBRANCH   1   7
BRANCH   4  20
ATOM     20  C   UNL     1       3.094   1.561  -0.319  1.00  0.00     0.049 C 
BRANCH  20  21
ATOM     21  C   UNL     1       4.556   1.203  -0.198  1.00  0.00    -0.047 A 
ATOM     22  C   UNL     1       5.179   1.166   1.060  1.00  0.00     0.007 A 
ATOM     23  C   UNL     1       5.305   0.888  -1.343  1.00  0.00     0.007 A 
ATOM     24  C   UNL     1       6.526   0.819   1.169  1.00  0.00     0.039 A 
ATOM     25  C   UNL     1       6.652   0.541  -1.231  1.00  0.00     0.039 A 
ATOM     26  C   UNL     1       7.249   0.509   0.023  1.00  0.00     0.123 A 
ATOM     27  F   UNL     1       8.542   0.175   0.130  1.00  0.00    -0.207 F 
ENDBRANCH  20  21
ENDBRANCH   4  20
TORSDOF 4
