MODEL        8USER    Run = 8USERUSER    Estimated Free Energy of Binding    =  -8.86 kcal/mol  [=(1)+(2)+(3)-(4)]USERUSER    (1) Final Intermolecular Energy     = -10.65 kcal/molUSER        vdW + Hbond + desolv Energy     = -10.50 kcal/molUSER        Electrostatic Energy            =  -0.14 kcal/molUSER        Moving Ligand-Fixed Receptor    = -10.65 kcal/molUSER        Moving Ligand-Moving Receptor   =  +0.00 kcal/molUSER    (2) Final Total Internal Energy     =  -1.70 kcal/molUSER    (3) Torsional Free Energy           =  +1.79 kcal/molUSER    (4) Unbound System's Energy         =  -1.70 kcal/molUSERUSERREMARK SMILES Nc1ncnc2c1ncn2[C@H]1CC[C@@H](O)C[C@@H]1NCc1ccc(F)cc1REMARK SMILES IDX 11 1 12 2 13 3 14 4 16 5 17 6 10 7 2 8 3 9 7 10 4 11 6 12REMARK SMILES IDX 8 13 5 14 9 15 1 16 18 19 19 21 20 22 21 23 26 24 22 25REMARK SMILES IDX 25 26 23 27 24 28 15 29REMARK H PARENT 1 17 1 18 18 20 15 30USER                              x       y       z     vdW  Elec       q    TypeUSER                           _______ _______ _______ _____ _____    ______ ____ROOTATOM      1  C   UNL     1      38.051  47.419  15.315 -0.44 -0.05    +0.107 C  ATOM      2  C   UNL     1      37.815  48.379  14.128 -0.59 -0.02    +0.030 C  ATOM      3  C   UNL     1      36.789  47.865  13.118 -0.66 -0.01    +0.034 C  ATOM      4  C   UNL     1      35.731  46.997  13.783 -0.45 -0.08    +0.116 C  ATOM      5  C   UNL     1      36.336  45.750  14.440 -0.43 -0.03    +0.052 C  ATOM      6  C   UNL     1      37.796  45.941  14.904 -0.39 -0.03    +0.079 C  ENDROOTBRANCH   1   7ATOM      7  N   UNL     1      39.361  47.664  15.906 -0.25 +0.11    -0.310 N  ATOM      8  C   UNL     1      41.777  47.276  18.410 -0.42 -0.00    +0.155 A  ATOM      9  N   UNL     1      41.159  46.463  19.297 -0.31 -0.01    -0.217 NA ATOM     10  C   UNL     1      41.081  47.661  17.252 -0.39 -0.02    +0.150 A  ATOM     11  C   UNL     1      39.908  46.038  19.009 -0.26 -0.01    +0.226 A  ATOM     12  C   UNL     1      39.805  47.147  17.095 -0.35 -0.04    +0.165 A  ATOM     13  N   UNL     1      41.409  48.494  16.202 -0.78 +0.01    -0.231 NA ATOM     14  N   UNL     1      39.148  46.330  17.935 -0.29 +0.04    -0.217 NA ATOM     15  C   UNL     1      40.357  48.465  15.411 -0.41 -0.05    +0.202 A  BRANCH   8  16ATOM     16  N   UNL     1      43.063  47.711  18.705 -0.30 -0.03    -0.382 N  ATOM     17  H   UNL     1      43.066  48.621  19.146 -0.46 -0.02    +0.158 HD ATOM     18  H   UNL     1      43.725  47.543  17.955 -0.41 +0.00    +0.158 HD ENDBRANCH   8  16ENDBRANCH   1   7BRANCH   6  19ATOM     19  N   UNL     1      38.138  45.014  15.991 -0.11 +0.09    -0.308 NA ATOM     20  H   UNL     1      38.127  45.482  16.898 +0.08 -0.03    +0.123 HD BRANCH  19  21ATOM     21  C   UNL     1      37.291  43.826  16.050 -0.25 -0.03    +0.117 C  BRANCH  21  22ATOM     22  C   UNL     1      36.181  44.012  17.060 -0.31 +0.01    -0.034 A  ATOM     23  C   UNL     1      35.930  45.272  17.624 -0.33 -0.00    +0.008 A  ATOM     24  C   UNL     1      35.375  42.923  17.438 -0.38 -0.00    +0.008 A  ATOM     25  C   UNL     1      34.898  45.439  18.549 -0.37 -0.02    +0.039 A  ATOM     26  C   UNL     1      34.345  43.091  18.364 -0.33 -0.01    +0.039 A  ATOM     27  C   UNL     1      34.116  44.347  18.910 -0.31 -0.03    +0.123 A  ATOM     28  F   UNL     1      33.126  44.511  19.798 -0.14 +0.04    -0.207 F  ENDBRANCH  21  22ENDBRANCH  19  21ENDBRANCH   6  19BRANCH   4  29ATOM     29  O   UNL     1      34.745  46.609  12.836 -0.10 +0.31    -0.393 OA ATOM     30  H   UNL     1      33.898  47.020  13.080 -0.37 -0.21    +0.210 HD ENDBRANCH   4  29TORSDOF 6TERENDMDL