MODEL        9USER    Run = 9USERUSER    Estimated Free Energy of Binding    =  -9.17 kcal/mol  [=(1)+(2)+(3)-(4)]USERUSER    (1) Final Intermolecular Energy     = -10.96 kcal/molUSER        vdW + Hbond + desolv Energy     = -10.91 kcal/molUSER        Electrostatic Energy            =  -0.05 kcal/molUSER        Moving Ligand-Fixed Receptor    = -10.96 kcal/molUSER        Moving Ligand-Moving Receptor   =  +0.00 kcal/molUSER    (2) Final Total Internal Energy     =  -1.37 kcal/molUSER    (3) Torsional Free Energy           =  +1.79 kcal/molUSER    (4) Unbound System's Energy         =  -1.37 kcal/molUSERUSERREMARK SMILES CC[C@H]1Cc2cc(NCC(N)=O)cc(-c3ccc(F)cc3)c2[S@@H]1OREMARK SMILES IDX 8 1 7 3 3 4 4 5 23 6 5 7 22 8 6 9 14 10 13 11 2 13 1 14REMARK SMILES IDX 24 15 15 17 16 18 21 19 17 20 20 21 18 22 19 23 9 24 10 25REMARK SMILES IDX 11 26 12 27REMARK H PARENT 8 2 23 12 24 16 11 28 11 29USER                              x       y       z     vdW  Elec       q    TypeUSER                           _______ _______ _______ _____ _____    ______ ____ROOTATOM      1  N   UNL     1      42.133  50.003  14.949 -0.32 +0.02    -0.376 N  ATOM      2  H   UNL     1      43.084  49.632  14.930 -0.03 +0.02    +0.161 HD ENDROOTBRANCH   1   3ATOM      3  C   UNL     1      41.242  49.049  15.467 -0.56 -0.00    +0.035 A  ATOM      4  C   UNL     1      39.263  45.972  18.650 -0.41 -0.01    +0.058 C  ATOM      5  C   UNL     1      40.625  46.666  18.413 -0.50 -0.00    +0.052 C  ATOM      6  S   UNL     1      38.544  45.818  17.022 -0.48 +0.03    -0.120 S  ATOM      7  C   UNL     1      40.530  47.431  17.117 -0.50 +0.00    -0.030 A  ATOM      8  C   UNL     1      39.500  47.042  16.261 -0.46 -0.01    +0.021 A  ATOM      9  C   UNL     1      41.419  48.419  16.706 -0.41 -0.00    +0.030 A  ATOM     10  C   UNL     1      39.290  47.593  15.008 -0.51 +0.00    -0.002 A  ATOM     11  C   UNL     1      40.196  48.600  14.625 -0.52 -0.01    +0.035 A  ATOM     12  H   UNL     1      38.561  44.571  16.497 +0.07 -0.02    +0.115 HD BRANCH   4  13ATOM     13  C   UNL     1      39.417  44.621  19.341 -0.43 -0.00    +0.012 C  ATOM     14  C   UNL     1      38.327  44.362  20.372 -0.42 -0.00    +0.005 C  ENDBRANCH   4  13BRANCH   6  15ATOM     15  O   UNL     1      37.066  46.424  17.291 -0.19 +0.17    -0.350 OA ATOM     16  H   UNL     1      36.830  47.219  16.753 +0.15 -0.18    +0.226 HD ENDBRANCH   6  15BRANCH  10  17ATOM     17  C   UNL     1      38.202  47.182  14.115 -0.47 +0.01    -0.017 A  ATOM     18  C   UNL     1      37.996  45.823  13.817 -0.39 -0.00    +0.012 A  ATOM     19  C   UNL     1      37.344  48.133  13.534 -0.55 -0.00    +0.012 A  ATOM     20  C   UNL     1      36.967  45.427  12.961 -0.48 -0.01    +0.040 A  ATOM     21  C   UNL     1      36.315  47.736  12.676 -0.63 -0.02    +0.040 A  ATOM     22  C   UNL     1      36.137  46.388  12.398 -0.54 -0.06    +0.123 A  ATOM     23  F   UNL     1      35.150  46.008  11.577 -0.07 +0.13    -0.207 F  ENDBRANCH  10  17ENDBRANCH   1   3BRANCH   1  24ATOM     24  C   UNL     1      41.807  50.651  13.662 -0.26 -0.07    +0.213 C  BRANCH  24  25ATOM     25  C   UNL     1      42.874  50.324  12.607 -0.51 -0.09    +0.236 C  ATOM     26  N   UNL     1      42.875  51.135  11.504 -0.30 +0.21    -0.368 N  ATOM     27  O   UNL     1      43.668  49.395  12.710 -0.67 +0.08    -0.273 OA ATOM     28  H   UNL     1      43.456  50.851  10.727 -0.45 -0.12    +0.159 HD ATOM     29  H   UNL     1      42.029  51.662  11.310 -0.09 -0.12    +0.159 HD ENDBRANCH  24  25ENDBRANCH   1  24TORSDOF 6TERENDMDL