MODEL        10USER    Run = 10USERUSER    Estimated Free Energy of Binding    =  -8.69 kcal/mol  [=(1)+(2)+(3)-(4)]USERUSER    (1) Final Intermolecular Energy     =  -9.88 kcal/molUSER        vdW + Hbond + desolv Energy     =  -9.81 kcal/molUSER        Electrostatic Energy            =  -0.07 kcal/molUSER        Moving Ligand-Fixed Receptor    =  -9.88 kcal/molUSER        Moving Ligand-Moving Receptor   =  +0.00 kcal/molUSER    (2) Final Total Internal Energy     =  -1.22 kcal/molUSER    (3) Torsional Free Energy           =  +1.19 kcal/molUSER    (4) Unbound System's Energy         =  -1.22 kcal/molUSERUSERREMARK SMILES COC1=c2cc[nH]c2=C(N2CC[C@H](Cc3ccc(F)cc3)C2=O)C[C@H]1CREMARK SMILES IDX 10 1 11 2 12 3 13 4 22 5 23 6 9 7 3 8 4 9 25 10 5 11 8 12REMARK SMILES IDX 24 13 6 14 7 15 26 16 2 18 1 19 14 20 15 21 16 22 21 23REMARK SMILES IDX 17 24 20 25 18 26 19 27REMARK H PARENT 7 17USER                              x       y       z     vdW  Elec       q    TypeUSER                           _______ _______ _______ _____ _____    ______ ____ROOTATOM      1  N   UNL     1      37.056  45.142  17.710 -0.15 +0.09    -0.314 N  ATOM      2  C   UNL     1      35.853  44.547  18.250 -0.31 -0.04    +0.126 C  ATOM      3  C   UNL     1      36.154  44.371  19.725 -0.41 -0.00    +0.036 C  ATOM      4  C   UNL     1      37.640  44.043  19.722 -0.35 -0.01    +0.085 C  ATOM      5  C   UNL     1      38.147  44.890  18.569 -0.28 -0.03    +0.230 C  ATOM      6  O   UNL     1      39.316  45.215  18.427 -0.27 +0.03    -0.274 OA ENDROOTBRANCH   1   7ATOM      7  C   UNL     1      37.106  45.868  16.518 -0.39 -0.02    +0.046 C  ATOM      8  C   UNL     1      37.276  47.185  13.905 -0.49 -0.05    +0.108 C  ATOM      9  C   UNL     1      38.148  47.408  14.897 -0.44 -0.02    +0.039 A  ATOM     10  C   UNL     1      36.171  46.164  14.078 -0.47 -0.03    +0.058 C  ATOM     11  C   UNL     1      39.264  48.336  14.920 -0.52 -0.01    +0.031 A  ATOM     12  C   UNL     1      38.126  46.675  16.167 -0.35 -0.03    +0.069 A  ATOM     13  C   UNL     1      35.924  45.755  15.559 -0.37 -0.04    +0.067 C  ATOM     14  C   UNL     1      39.869  48.133  16.102 -0.47 -0.03    +0.083 A  ATOM     15  N   UNL     1      39.267  47.114  16.827 -0.20 +0.11    -0.360 N  ATOM     16  C   UNL     1      34.845  46.617  13.454 -0.44 -0.01    +0.016 C  ATOM     17  H   UNL     1      39.208  47.231  17.830 +0.08 -0.05    +0.166 HD BRANCH   8  18ATOM     18  O   UNL     1      37.329  47.892  12.718 -0.81 +0.10    -0.500 OA ATOM     19  C   UNL     1      37.297  47.009  11.596 -0.41 -0.07    +0.278 C  ENDBRANCH   8  18ENDBRANCH   1   7BRANCH   4  20ATOM     20  C   UNL     1      38.365  44.365  21.026 -0.39 +0.00    +0.049 C  BRANCH  20  21ATOM     21  C   UNL     1      37.760  43.659  22.216 -0.34 -0.00    -0.047 A  ATOM     22  C   UNL     1      37.218  42.371  22.080 -0.47 +0.00    +0.007 A  ATOM     23  C   UNL     1      37.746  44.279  23.476 -0.32 +0.00    +0.007 A  ATOM     24  C   UNL     1      36.674  41.715  23.185 -0.46 +0.00    +0.039 A  ATOM     25  C   UNL     1      37.202  43.621  24.579 -0.32 +0.00    +0.039 A  ATOM     26  C   UNL     1      36.672  42.346  24.424 -0.32 +0.00    +0.123 A  ATOM     27  F   UNL     1      36.150  41.715  25.484 -0.13 +0.04    -0.207 F  ENDBRANCH  20  21ENDBRANCH   4  20TORSDOF 4TERENDMDL