REMARK SMILES COc1ccc(O)c(C(=O)c2ccc(C(=O)N[C@@H]3CCCNC[C@H]3NC(=O)c3ccncc3)cc2)c1
REMARK SMILES IDX 15 1 16 2 17 3 14 5 11 6 12 7 35 8 13 9 34 10 9 11 10 12
REMARK SMILES IDX 8 13 3 14 4 15 36 16 5 17 6 18 2 19 1 20 7 21 18 23 19 24
REMARK SMILES IDX 24 26 23 27 22 28 21 30 20 31 25 33 26 34 27 36 28 37 29 38
REMARK SMILES IDX 33 39 30 40 32 41 31 42
REMARK H PARENT 17 4 7 22 22 29 25 35
REMARK Flexibility Score:   88.900
ROOT
ATOM      1  C   UNL     1      -0.224   0.125  -0.447  1.00  0.00     0.251 C 
ATOM      2  O   UNL     1      -0.518  -1.066  -0.410  1.00  0.00    -0.269 OA
ATOM      3  N   UNL     1      -1.166   1.125  -0.609  1.00  0.00    -0.347 N 
ATOM      4  H   UNL     1      -0.924   2.076  -0.363  1.00  0.00     0.164 HD
ENDROOT
BRANCH   1   5
ATOM      5  C   UNL     1       1.199   0.546  -0.314  1.00  0.00     0.039 A 
ATOM      6  C   UNL     1       3.932   1.198  -0.132  1.00  0.00     0.023 A 
ATOM      7  C   UNL     1       3.478  -0.057   0.286  1.00  0.00     0.013 A 
ATOM      8  C   UNL     1       3.009   2.127  -0.632  1.00  0.00     0.013 A 
ATOM      9  C   UNL     1       2.119  -0.377   0.199  1.00  0.00     0.014 A 
ATOM     10  C   UNL     1       1.653   1.802  -0.733  1.00  0.00     0.014 A 
BRANCH   6  11
ATOM     11  C   UNL     1       5.373   1.579  -0.126  1.00  0.00     0.196 C 
ATOM     12  O   UNL     1       5.730   2.707  -0.467  1.00  0.00    -0.288 OA
BRANCH  11  13
ATOM     13  C   UNL     1       6.416   0.594   0.212  1.00  0.00     0.068 A 
ATOM     14  C   UNL     1       8.144  -0.900  -0.564  1.00  0.00     0.119 A 
ATOM     15  C   UNL     1       8.383  -1.275   0.764  1.00  0.00     0.050 A 
ATOM     16  C   UNL     1       7.166   0.052  -0.840  1.00  0.00     0.062 A 
ATOM     17  C   UNL     1       7.649  -0.716   1.815  1.00  0.00     0.051 A 
ATOM     18  C   UNL     1       6.662   0.222   1.535  1.00  0.00     0.127 A 
BRANCH  14  19
ATOM     19  O   UNL     1       8.932  -1.531  -1.488  1.00  0.00    -0.497 OA
ATOM     20  C   UNL     1       8.633  -1.287  -2.858  1.00  0.00     0.278 C 
ENDBRANCH  14  19
BRANCH  18  21
ATOM     21  O   UNL     1       5.930   0.766   2.553  1.00  0.00    -0.507 OA
ATOM     22  H   UNL     1       6.405   0.614   3.393  1.00  0.00     0.293 HD
ENDBRANCH  18  21
ENDBRANCH  11  13
ENDBRANCH   6  11
ENDBRANCH   1   5
BRANCH   3  23
ATOM     23  C   UNL     1      -2.591   0.811  -0.738  1.00  0.00     0.106 C 
BRANCH  23  24
ATOM     24  C   UNL     1      -3.265   1.898  -1.590  1.00  0.00     0.028 CG0
ATOM     25  G   UNL     1      -4.797   1.906  -1.557  1.00  0.00     0.000 G0
ENDBRANCH  23  24
BRANCH  23  26
ATOM     26  C   UNL     1      -3.250   0.491   0.640  1.00  0.00     0.118 C 
BRANCH  26  27
ATOM     27  C   UNL     1      -3.670   1.772   1.426  1.00  0.00     0.108 C 
BRANCH  27  28
ATOM     28  N   UNL     1      -4.463   2.811   0.745  1.00  0.00    -0.315 NA
ATOM     29  H   UNL     1      -4.954   3.351   1.460  1.00  0.00     0.122 HD
BRANCH  28  30
ATOM     30  C   UNL     1      -5.429   2.285  -0.209  1.00  0.00     0.081 C 
BRANCH  30  31
ATOM     31  C   UNL     1      -4.797   1.906  -1.557  1.00  0.00     0.017 CG0
ATOM     32  G   UNL     1      -3.265   1.898  -1.590  1.00  0.00     0.000 G0
ENDBRANCH  30  31
ENDBRANCH  28  30
ENDBRANCH  27  28
ENDBRANCH  26  27
BRANCH  26  33
ATOM     33  N   UNL     1      -4.333  -0.499   0.482  1.00  0.00    -0.346 N 
ATOM     34  C   UNL     1      -4.920  -1.126   1.562  1.00  0.00     0.251 C 
ATOM     35  H   UNL     1      -4.325  -1.020  -0.385  1.00  0.00     0.164 HD
ATOM     36  O   UNL     1      -4.718  -0.810   2.727  1.00  0.00    -0.269 OA
BRANCH  34  37
ATOM     37  C   UNL     1      -5.828  -2.267   1.253  1.00  0.00     0.042 A 
ATOM     38  C   UNL     1      -6.087  -3.191   2.267  1.00  0.00     0.034 A 
ATOM     39  C   UNL     1      -6.428  -2.432   0.005  1.00  0.00     0.034 A 
ATOM     40  C   UNL     1      -6.915  -4.258   1.981  1.00  0.00     0.112 A 
ATOM     41  C   UNL     1      -7.244  -3.535  -0.180  1.00  0.00     0.112 A 
ATOM     42  N   UNL     1      -7.495  -4.453   0.777  1.00  0.00    -0.265 NA
ENDBRANCH  34  37
ENDBRANCH  26  33
ENDBRANCH  23  26
ENDBRANCH   3  23
TORSDOF 8
