MODEL        9USER    Run = 9USERUSER    Estimated Free Energy of Binding    =  -7.76 kcal/mol  [=(1)+(2)+(3)-(4)]USERUSER    (1) Final Intermolecular Energy     =  -9.85 kcal/molUSER        vdW + Hbond + desolv Energy     =  -9.34 kcal/molUSER        Electrostatic Energy            =  -0.51 kcal/molUSER        Moving Ligand-Fixed Receptor    =  -9.85 kcal/molUSER        Moving Ligand-Moving Receptor   =  +0.00 kcal/molUSER    (2) Final Total Internal Energy     =  -1.55 kcal/molUSER    (3) Torsional Free Energy           =  +2.09 kcal/molUSER    (4) Unbound System's Energy         =  -1.55 kcal/molUSERUSERREMARK SMILES O=C(O)c1cccc(O)c1C(=O)c1ccc(O)c(N2CCOCC2)c1REMARK SMILES IDX 4 1 5 2 6 3 7 4 8 5 10 6 2 7 1 8 3 9 11 11 12 12 13 13 14 14REMARK SMILES IDX 25 15 15 16 18 17 16 18 19 19 20 20 24 21 21 22 23 23 22 24REMARK SMILES IDX 17 25 9 27REMARK H PARENT 3 10 17 26 9 28USER                              x       y       z     vdW  Elec       q    TypeUSER                           _______ _______ _______ _____ _____    ______ ____ROOTATOM      1  C   UNL     1      32.589  44.480  16.679 -0.26 -0.03    +0.074 A  ATOM      2  C   UNL     1      31.784  43.356  16.429 -0.31 -0.01    +0.017 A  ATOM      3  C   UNL     1      31.571  42.406  17.428 -0.30 -0.00    +0.005 A  ATOM      4  C   UNL     1      32.148  42.579  18.683 -0.32 -0.01    +0.047 A  ATOM      5  C   UNL     1      32.956  43.688  18.929 -0.31 -0.02    +0.127 A  ATOM      6  C   UNL     1      33.222  44.629  17.922 -0.29 -0.03    +0.079 A  ENDROOTBRANCH   1   7ATOM      7  C   UNL     1      32.689  45.465  15.589 -0.14 -0.28    +0.336 C  ATOM      8  O   UNL     1      33.592  45.537  14.779 -0.26 +0.21    -0.246 OA BRANCH   7   9ATOM      9  O   UNL     1      31.605  46.254  15.541 -0.32 +0.37    -0.478 OA ATOM     10  H   UNL     1      31.944  47.153  15.339 -0.35 -0.55    +0.297 HD ENDBRANCH   7   9ENDBRANCH   1   7BRANCH   6  11ATOM     11  C   UNL     1      34.188  45.710  18.232 -0.38 -0.11    +0.197 C  ATOM     12  O   UNL     1      33.800  46.653  18.922 -0.80 +0.18    -0.288 OA BRANCH  11  13ATOM     13  C   UNL     1      35.615  45.634  17.838 -0.34 -0.01    +0.025 A  ATOM     14  C   UNL     1      36.585  45.114  18.696 -0.26 -0.00    +0.016 A  ATOM     15  C   UNL     1      35.984  46.126  16.579 -0.34 -0.03    +0.042 A  ATOM     16  C   UNL     1      37.915  45.065  18.281 -0.35 -0.01    +0.049 A  ATOM     17  C   UNL     1      37.315  46.071  16.129 -0.32 -0.04    +0.080 A  ATOM     18  C   UNL     1      38.274  45.539  17.013 -0.29 -0.04    +0.138 A  BRANCH  17  19ATOM     19  N   UNL     1      37.576  46.576  14.844 -0.12 +0.17    -0.364 N  ATOM     20  C   UNL     1      38.015  47.982  14.702 -0.48 -0.08    +0.145 C  ATOM     21  C   UNL     1      36.530  46.178  13.872 -0.42 -0.07    +0.145 C  ATOM     22  C   UNL     1      36.943  48.838  14.012 -0.40 -0.12    +0.181 C  ATOM     23  C   UNL     1      36.720  46.945  12.553 -0.58 -0.07    +0.181 C  ATOM     24  O   UNL     1      36.603  48.371  12.693 -0.84 +0.14    -0.378 OA ENDBRANCH  17  19BRANCH  18  25ATOM     25  O   UNL     1      39.598  45.513  16.660 -0.01 +0.07    -0.506 OA ATOM     26  H   UNL     1      39.678  45.718  15.714 +0.21 -0.04    +0.293 HD ENDBRANCH  18  25ENDBRANCH  11  13ENDBRANCH   6  11BRANCH   5  27ATOM     27  O   UNL     1      33.472  43.792  20.196 -0.59 -0.01    -0.507 OA ATOM     28  H   UNL     1      33.584  44.748  20.397 -0.18 -0.09    +0.293 HD ENDBRANCH   5  27TORSDOF 7TERENDMDL