REMARK SMILES Cc1c(CS(=O)(=O)Nc2nccs2)cccc1NC1=CC=CC=CN=CNC1
REMARK SMILES IDX 18 1 17 3 2 4 3 5 14 6 16 7 15 8 1 9 4 10 5 11 6 12 7 13
REMARK SMILES IDX 8 14 9 16 10 17 13 18 11 19 12 20 19 21 20 22 21 23 22 24
REMARK SMILES IDX 28 26 27 27 26 28 25 30 24 31 23 32
REMARK H PARENT 18 2 8 15 27 29
REMARK Flexibility Score:  104.900
ROOT
ATOM      1  N   UNL     1      -0.853   0.722   0.259  1.00  0.00    -0.357 N 
ATOM      2  H   UNL     1      -0.452   1.033   1.143  1.00  0.00     0.166 HD
ENDROOT
BRANCH   1   3
ATOM      3  C   UNL     1       0.176   0.402  -0.661  1.00  0.00     0.041 A 
ATOM      4  C   UNL     1       0.983  -0.756  -0.542  1.00  0.00    -0.023 A 
ATOM      5  C   UNL     1       2.010  -0.980  -1.495  1.00  0.00    -0.026 A 
ATOM      6  C   UNL     1       2.236  -0.019  -2.501  1.00  0.00     0.005 A 
ATOM      7  C   UNL     1       0.457   1.353  -1.652  1.00  0.00     0.026 A 
ATOM      8  C   UNL     1       1.476   1.142  -2.572  1.00  0.00     0.002 A 
ATOM      9  C   UNL     1       0.711  -1.753   0.556  1.00  0.00     0.047 C 
BRANCH   5  10
ATOM     10  C   UNL     1       2.872  -2.220  -1.502  1.00  0.00     0.195 C 
BRANCH  10  11
ATOM     11  S   UNL     1       4.516  -1.912  -0.836  1.00  0.00     0.238 S 
ATOM     12  O   UNL     1       5.156  -0.822  -1.541  1.00  0.00    -0.206 OA
ATOM     13  O   UNL     1       5.188  -3.198  -0.765  1.00  0.00    -0.206 OA
BRANCH  11  14
ATOM     14  N   UNL     1       4.243  -1.518   0.776  1.00  0.00    -0.258 N 
ATOM     15  H   UNL     1       4.796  -2.150   1.353  1.00  0.00     0.182 HD
BRANCH  14  16
ATOM     16  C   UNL     1       4.530  -0.130   1.065  1.00  0.00     0.196 A 
ATOM     17  N   UNL     1       3.609   0.787   0.915  1.00  0.00    -0.228 NA
ATOM     18  S   UNL     1       6.009   0.379   1.751  1.00  0.00    -0.105 S 
ATOM     19  C   UNL     1       4.131   2.014   1.272  1.00  0.00     0.125 A 
ATOM     20  C   UNL     1       5.425   1.993   1.750  1.00  0.00     0.089 A 
ENDBRANCH  14  16
ENDBRANCH  11  14
ENDBRANCH  10  11
ENDBRANCH   5  10
ENDBRANCH   1   3
BRANCH   1  21
ATOM     21  C   UNL     1      -2.043   0.001   0.396  1.00  0.00     0.035 C 
BRANCH  21  22
ATOM     22  C   UNL     1      -2.626  -0.670  -0.623  1.00  0.00     0.023 C 
BRANCH  22  23
ATOM     23  C   UNL     1      -3.898  -1.358  -0.586  1.00  0.00     0.002 C 
BRANCH  23  24
ATOM     24  C   UNL     1      -5.112  -0.789  -0.661  1.00  0.00     0.002 CG0
ATOM     25  G   UNL     1      -5.394   0.622  -0.827  1.00  0.00     0.000 G0
ENDBRANCH  23  24
ENDBRANCH  22  23
ENDBRANCH  21  22
BRANCH  21  26
ATOM     26  C   UNL     1      -2.686   0.055   1.785  1.00  0.00     0.167 C 
BRANCH  26  27
ATOM     27  N   UNL     1      -3.544   1.233   1.852  1.00  0.00    -0.371 N 
ATOM     28  C   UNL     1      -4.859   1.011   2.185  1.00  0.00     0.192 C 
ATOM     29  H   UNL     1      -3.483   1.718   0.959  1.00  0.00     0.161 HD
BRANCH  28  30
ATOM     30  N   UNL     1      -5.928   1.126   1.470  1.00  0.00    -0.247 NA
BRANCH  30  31
ATOM     31  C   UNL     1      -5.759   1.463   0.153  1.00  0.00     0.113 C 
BRANCH  31  32
ATOM     32  C   UNL     1      -5.394   0.622  -0.827  1.00  0.00     0.020 CG0
ATOM     33  G   UNL     1      -5.112  -0.789  -0.661  1.00  0.00     0.000 G0
ENDBRANCH  31  32
ENDBRANCH  30  31
ENDBRANCH  28  30
ENDBRANCH  26  27
ENDBRANCH  21  26
ENDBRANCH   1  21
TORSDOF 6
