MODEL        7USER    Run = 7USERUSER    Estimated Free Energy of Binding    =  -9.10 kcal/mol  [=(1)+(2)+(3)-(4)]USERUSER    (1) Final Intermolecular Energy     = -10.00 kcal/molUSER        vdW + Hbond + desolv Energy     =  -9.87 kcal/molUSER        Electrostatic Energy            =  -0.13 kcal/molUSER        Moving Ligand-Fixed Receptor    = -10.00 kcal/molUSER        Moving Ligand-Moving Receptor   =  +0.00 kcal/molUSER    (2) Final Total Internal Energy     =  -0.63 kcal/molUSER    (3) Torsional Free Energy           =  +0.89 kcal/molUSER    (4) Unbound System's Energy         =  -0.63 kcal/molUSERUSERREMARK SMILES Fc1ccc(Nc2cc(-c3nncc4c3NCCO4)ccn2)cc1REMARK SMILES IDX 7 1 8 2 9 3 20 4 21 5 22 6 6 7 5 9 2 10 3 11 24 12 4 13REMARK SMILES IDX 23 14 1 15 10 16 11 17 15 18 12 19 14 20 16 21 13 22 19 23REMARK SMILES IDX 17 24 18 25REMARK H PARENT 6 8 16 26USER                              x       y       z     vdW  Elec       q    TypeUSER                           _______ _______ _______ _____ _____    ______ ____ROOTATOM      1  C   UNL     1      41.011  47.480  16.924 -0.36 -0.02    +0.130 A  ATOM      2  C   UNL     1      39.923  47.053  16.160 -0.45 -0.01    +0.057 A  ATOM      3  C   UNL     1      39.330  47.910  15.219 -0.52 -0.00    +0.009 A  ATOM      4  C   UNL     1      39.883  49.183  15.070 -0.37 -0.01    +0.031 A  ATOM      5  C   UNL     1      40.954  49.539  15.867 -0.53 -0.02    +0.114 A  ATOM      6  N   UNL     1      41.509  48.725  16.789 -0.86 -0.01    -0.239 NA ENDROOTBRANCH   1   7ATOM      7  N   UNL     1      41.547  46.563  17.860 -0.21 +0.02    -0.340 N  ATOM      8  H   UNL     1      42.546  46.723  17.945 -0.43 -0.02    +0.168 HD BRANCH   7   9ATOM      9  C   UNL     1      40.987  46.094  19.068 -0.44 +0.00    +0.040 A  ATOM     10  C   UNL     1      39.720  45.273  21.435 -0.25 +0.01    +0.123 A  ATOM     11  C   UNL     1      40.988  45.832  21.492 -0.27 +0.00    +0.041 A  ATOM     12  C   UNL     1      39.059  45.136  20.221 -0.35 -0.00    +0.041 A  ATOM     13  C   UNL     1      41.612  46.252  20.313 -0.37 +0.00    +0.029 A  ATOM     14  C   UNL     1      39.687  45.557  19.045 -0.41 -0.00    +0.029 A  ATOM     15  F   UNL     1      39.119  44.875  22.563 -0.05 -0.01    -0.207 F  ENDBRANCH   7   9ENDBRANCH   1   7BRANCH   3  16ATOM     16  C   UNL     1      38.186  47.457  14.410 -0.40 -0.05    +0.120 A  ATOM     17  N   UNL     1      38.290  47.754  13.087 -0.74 +0.02    -0.148 NA ATOM     18  C   UNL     1      37.077  46.758  14.922 -0.33 -0.06    +0.107 A  ATOM     19  N   UNL     1      37.292  47.424  12.217 -1.12 +0.03    -0.154 NA ATOM     20  C   UNL     1      36.036  46.482  14.022 -0.34 -0.10    +0.164 A  ATOM     21  N   UNL     1      36.956  46.429  16.302 -0.12 +0.22    -0.377 N  ATOM     22  C   UNL     1      36.191  46.813  12.689 -0.49 -0.09    +0.184 A  ATOM     23  O   UNL     1      34.866  45.848  14.368 -0.12 +0.38    -0.488 OA ATOM     24  C   UNL     1      35.917  45.428  16.537 -0.29 -0.09    +0.154 C  ATOM     25  C   UNL     1      34.650  45.825  15.786 -0.15 -0.25    +0.251 C  ATOM     26  H   UNL     1      37.860  46.171  16.700 +0.10 -0.06    +0.160 HD ENDBRANCH   3  16TORSDOF 3TERENDMDL