MODEL        4USER    Run = 4USERUSER    Estimated Free Energy of Binding    =  -9.89 kcal/mol  [=(1)+(2)+(3)-(4)]USERUSER    (1) Final Intermolecular Energy     = -11.68 kcal/molUSER        vdW + Hbond + desolv Energy     = -11.58 kcal/molUSER        Electrostatic Energy            =  -0.10 kcal/molUSER        Moving Ligand-Fixed Receptor    = -11.68 kcal/molUSER        Moving Ligand-Moving Receptor   =  +0.00 kcal/molUSER    (2) Final Total Internal Energy     =  -1.95 kcal/molUSER    (3) Torsional Free Energy           =  +1.79 kcal/molUSER    (4) Unbound System's Energy         =  -1.95 kcal/molUSERUSERREMARK SMILES CC(C)NC(=O)Nc1ccc(-c2cncc(-c3ccc4c(N)n[nH]c4c3)n2)cc1NREMARK SMILES IDX 8 1 9 2 10 3 11 4 28 5 29 6 7 7 4 8 5 9 6 11 2 13 1 14 3 15REMARK SMILES IDX 30 16 12 19 13 20 27 21 14 22 16 23 15 24 17 25 18 26 26 27REMARK SMILES IDX 19 28 25 29 20 30 24 31 21 32 23 33 22 35REMARK H PARENT 4 10 7 12 30 17 30 18 24 34 22 36 22 37USER                              x       y       z     vdW  Elec       q    TypeUSER                           _______ _______ _______ _____ _____    ______ ____ROOTATOM      1  C   UNL     1      37.622  44.171  23.088 -0.31 +0.01    +0.065 A  ATOM      2  C   UNL     1      38.548  45.225  23.177 -0.30 +0.00    +0.029 A  ATOM      3  C   UNL     1      39.197  45.729  22.044 -0.31 +0.00    +0.013 A  ATOM      4  C   UNL     1      38.963  45.185  20.776 -0.35 +0.00    +0.004 A  ATOM      5  C   UNL     1      38.050  44.118  20.700 -0.33 -0.00    +0.038 A  ATOM      6  C   UNL     1      37.340  43.635  21.818 -0.36 +0.00    +0.056 A  ENDROOTBRANCH   1   7ATOM      7  N   UNL     1      37.096  43.736  24.330 -0.18 -0.03    -0.306 N  ATOM      8  N   UNL     1      36.301  42.495  26.047 -0.19 +0.04    -0.336 N  ATOM      9  C   UNL     1      36.602  42.508  24.697 -0.22 +0.00    +0.319 C  ATOM     10  H   UNL     1      36.887  43.087  26.617 +0.12 -0.02    +0.165 HD ATOM     11  O   UNL     1      36.417  41.541  23.972 -0.40 +0.01    -0.248 OA ATOM     12  H   UNL     1      36.867  44.467  24.986 +0.08 +0.01    +0.171 HD BRANCH   8  13ATOM     13  C   UNL     1      35.805  41.281  26.688 -0.54 -0.03    +0.077 C  ATOM     14  C   UNL     1      34.313  41.422  26.974 -0.56 -0.01    +0.030 C  ATOM     15  C   UNL     1      36.576  40.990  27.974 -0.55 -0.01    +0.030 C  ENDBRANCH   8  13ENDBRANCH   1   7BRANCH   6  16ATOM     16  N   UNL     1      36.568  42.475  21.597 -0.20 -0.02    -0.397 N  ATOM     17  H   UNL     1      37.074  41.649  21.900 +0.10 +0.01    +0.156 HD ATOM     18  H   UNL     1      35.701  42.515  22.150 +0.09 +0.02    +0.156 HD ENDBRANCH   6  16BRANCH   4  19ATOM     19  C   UNL     1      39.650  45.677  19.569 -0.33 -0.00    +0.089 A  ATOM     20  C   UNL     1      41.004  46.004  19.533 -0.33 +0.01    +0.140 A  ATOM     21  N   UNL     1      38.886  45.807  18.451 -0.26 +0.04    -0.245 NA ATOM     22  N   UNL     1      41.637  46.439  18.418 -0.32 -0.00    -0.260 NA ATOM     23  C   UNL     1      39.487  46.258  17.316 -0.39 -0.02    +0.089 A  ATOM     24  C   UNL     1      40.849  46.553  17.322 -0.36 -0.01    +0.140 A  BRANCH  23  25ATOM     25  C   UNL     1      38.618  46.388  16.126 -0.41 -0.00    +0.004 A  ATOM     26  C   UNL     1      37.885  45.298  15.614 -0.34 -0.00    +0.011 A  ATOM     27  C   UNL     1      38.513  47.631  15.465 -0.45 -0.02    +0.038 A  ATOM     28  C   UNL     1      37.052  45.418  14.487 -0.39 -0.01    +0.015 A  ATOM     29  C   UNL     1      37.680  47.731  14.344 -0.47 -0.03    +0.068 A  ATOM     30  C   UNL     1      36.951  46.662  13.843 -0.45 -0.02    +0.044 A  ATOM     31  N   UNL     1      37.383  48.783  13.519 -0.29 +0.12    -0.276 N  ATOM     32  C   UNL     1      36.257  47.195  12.724 -0.53 -0.08    +0.153 A  ATOM     33  N   UNL     1      36.525  48.484  12.530 -0.90 +0.06    -0.157 NA ATOM     34  H   UNL     1      37.736  49.731  13.579 -0.39 -0.12    +0.190 HD BRANCH  32  35ATOM     35  N   UNL     1      35.434  46.494  11.929 -0.22 +0.24    -0.382 N  ATOM     36  H   UNL     1      35.396  46.715  10.943 -0.05 -0.11    +0.158 HD ATOM     37  H   UNL     1      34.520  46.299  12.326 -0.31 -0.13    +0.158 HD ENDBRANCH  32  35ENDBRANCH  23  25ENDBRANCH   4  19TORSDOF 6TERENDMDL