MODEL        8USER    Run = 8USERUSER    Estimated Free Energy of Binding    =  -5.30 kcal/mol  [=(1)+(2)+(3)-(4)]USERUSER    (1) Final Intermolecular Energy     =  -9.48 kcal/molUSER        vdW + Hbond + desolv Energy     = -10.31 kcal/molUSER        Electrostatic Energy            =  -0.06 kcal/molUSER        Moving Ligand-Fixed Receptor    = -10.37 kcal/molUSER        Moving Ligand-Moving Receptor   =  +0.89 kcal/molUSER    (2) Final Total Internal Energy     =  -2.48 kcal/molUSER    (3) Torsional Free Energy           =  +4.18 kcal/molUSER    (4) Unbound System's Energy         =  -2.48 kcal/molUSERUSERREMARK SMILES Cc1c(CS(=O)(=O)Nc2nccs2)cccc1NC1=CC=CC=CN=CNC1REMARK SMILES IDX 18 1 17 3 2 4 3 5 14 6 16 7 15 8 1 9 4 10 5 11 6 12 7 13REMARK SMILES IDX 8 14 9 16 10 17 13 18 11 19 12 20 19 21 20 22 21 23 22 24REMARK SMILES IDX 28 26 27 27 26 28 25 30 24 31 23 32REMARK H PARENT 18 2 8 15 27 29REMARK Flexibility Score:  104.900USER                              x       y       z     vdW  Elec       q    TypeUSER                           _______ _______ _______ _____ _____    ______ ____ROOTATOM      1  N   UNL     1      35.663  45.330  15.007 -0.12 +0.21    -0.357 N  ATOM      2  H   UNL     1      34.988  44.999  14.319 +0.12 -0.09    +0.166 HD ENDROOTBRANCH   1   3ATOM      3  C   UNL     1      35.168  45.128  16.318 -0.29 -0.03    +0.041 A  ATOM      4  C   UNL     1      34.936  43.841  16.865 -0.32 +0.01    -0.023 A  ATOM      5  C   UNL     1      34.410  43.736  18.178 -0.30 +0.01    -0.026 A  ATOM      6  C   UNL     1      34.081  44.911  18.883 -0.41 -0.00    +0.005 A  ATOM      7  C   UNL     1      34.791  46.272  17.036 -0.25 -0.03    +0.026 A  ATOM      8  C   UNL     1      34.257  46.166  18.314 -0.52 -0.00    +0.002 A  ATOM      9  C   UNL     1      35.296  42.611  16.071 -0.41 -0.02    +0.047 C  BRANCH   5  10ATOM     10  C   UNL     1      34.202  42.415  18.879 -0.33 -0.03    +0.195 C  BRANCH  10  11ATOM     11  S   UNL     1      32.457  42.035  19.115 -0.38 -0.00    +0.238 S  ATOM     12  O   UNL     1      31.761  43.170  19.681 -0.42 -0.01    -0.206 OA ATOM     13  O   UNL     1      32.395  40.755  19.798 -0.73 -0.05    -0.206 OA BRANCH  11  14ATOM     14  N   UNL     1      31.897  41.686  17.568 -0.18 +0.08    -0.258 N  ATOM     15  H   UNL     1      31.118  41.035  17.654 +0.10 -0.04    +0.182 HD BRANCH  14  16ATOM     16  C   UNL     1      31.530  42.874  16.829 -0.18 -0.07    +0.196 A  ATOM     17  N   UNL     1      32.214  43.243  15.776 -0.22 +0.12    -0.228 NA ATOM     18  S   UNL     1      30.121  43.774  17.177 -0.28 +0.02    -0.105 S  ATOM     19  C   UNL     1      31.650  44.388  15.250 -0.29 -0.07    +0.125 A  ATOM     20  C   UNL     1      30.504  44.829  15.878 -0.29 -0.03    +0.089 A  ENDBRANCH  14  16ENDBRANCH  11  14ENDBRANCH  10  11ENDBRANCH   5  10ENDBRANCH   1   3BRANCH   1  21ATOM     21  C   UNL     1      36.997  45.146  14.628 -0.43 -0.01    +0.035 C  BRANCH  21  22ATOM     22  C   UNL     1      38.033  45.241  15.492 -0.37 -0.01    +0.023 C  BRANCH  22  23ATOM     23  C   UNL     1      38.929  46.367  15.642 -0.48 -0.00    +0.002 C  BRANCH  23  24ATOM     24  C   UNL     1      38.596  47.665  15.555 -0.55 -0.00    +0.002 CG0ATOM     25  G   UNL     1      38.470  48.443  14.340 +0.00 +0.00    +0.000 G0 ENDBRANCH  23  24ENDBRANCH  22  23ENDBRANCH  21  22BRANCH  21  26ATOM     26  C   UNL     1      37.224  44.870  13.139 -0.36 -0.05    +0.167 C  BRANCH  26  27ATOM     27  N   UNL     1      36.496  45.872  12.367 -0.28 +0.15    -0.371 N  ATOM     28  C   UNL     1      36.995  47.152  12.407 -0.56 -0.06    +0.192 C  ATOM     29  H   UNL     1      35.526  45.862  12.674 +0.10 -0.09    +0.161 HD BRANCH  28  30ATOM     30  N   UNL     1      36.506  48.218  12.949 -0.71 +0.11    -0.247 NA BRANCH  30  31ATOM     31  C   UNL     1      37.319  48.900  13.816 -0.40 -0.06    +0.113 C  BRANCH  31  32ATOM     32  C   UNL     1      38.470  48.442  14.331 -0.57 -0.01    +0.020 CG0ATOM     33  G   UNL     1      38.596  47.665  15.546 +0.00 +0.00    +0.000 G0 ENDBRANCH  31  32ENDBRANCH  30  31ENDBRANCH  28  30ENDBRANCH  26  27ENDBRANCH  21  26ENDBRANCH   1  21TORSDOF 6TERENDMDL