REMARK SMILES Cc1cccc(-c2nnc3sc(C(=O)NCC4CC4)cn23)c1
REMARK SMILES IDX 7 1 8 2 9 3 10 4 11 5 12 6 20 7 21 8 6 9 2 10 3 11 22 12
REMARK SMILES IDX 4 13 5 14 1 15 13 16 15 17 14 18 16 20 17 21 18 22 19 23
REMARK H PARENT 15 19
ROOT
ATOM      1  C   UNL     1       1.954  -0.960   1.256  1.00  0.00     0.169 A 
ATOM      2  N   UNL     1       2.005  -1.592   2.427  1.00  0.00    -0.128 NA
ATOM      3  N   UNL     1       0.749  -1.560   3.023  1.00  0.00    -0.118 NA
ATOM      4  C   UNL     1      -0.007  -0.893   2.201  1.00  0.00     0.217 A 
ATOM      5  S   UNL     1      -1.657  -0.369   2.175  1.00  0.00    -0.089 S 
ATOM      6  C   UNL     1      -1.322   0.432   0.637  1.00  0.00     0.112 A 
ATOM      7  C   UNL     1      -0.053   0.280   0.215  1.00  0.00     0.120 A 
ATOM      8  N   UNL     1       0.677  -0.478   1.101  1.00  0.00    -0.272 N 
ENDROOT
BRANCH   1   9
ATOM      9  C   UNL     1       3.071  -0.773   0.332  1.00  0.00     0.020 A 
ATOM     10  C   UNL     1       5.457  -0.355   0.003  1.00  0.00    -0.050 A 
ATOM     11  C   UNL     1       5.269  -0.420  -1.381  1.00  0.00     0.003 A 
ATOM     12  C   UNL     1       4.356  -0.550   0.850  1.00  0.00     0.015 A 
ATOM     13  C   UNL     1       4.002  -0.661  -1.909  1.00  0.00     0.001 A 
ATOM     14  C   UNL     1       2.908  -0.839  -1.058  1.00  0.00     0.012 A 
ATOM     15  C   UNL     1       6.827  -0.147   0.578  1.00  0.00     0.044 C 
ENDBRANCH   1   9
BRANCH   6  16
ATOM     16  C   UNL     1      -2.351   1.198  -0.112  1.00  0.00     0.263 C 
ATOM     17  N   UNL     1      -3.577   1.270   0.494  1.00  0.00    -0.351 N 
ATOM     18  O   UNL     1      -2.084   1.708  -1.195  1.00  0.00    -0.268 OA
ATOM     19  H   UNL     1      -3.717   0.797   1.377  1.00  0.00     0.163 HD
BRANCH  17  20
ATOM     20  C   UNL     1      -4.715   1.919  -0.114  1.00  0.00     0.119 C 
BRANCH  20  21
ATOM     21  C   UNL     1      -5.748   0.950  -0.606  1.00  0.00     0.008 C 
ATOM     22  C   UNL     1      -5.384  -0.344  -1.293  1.00  0.00     0.006 C 
ATOM     23  C   UNL     1      -6.032  -0.373   0.067  1.00  0.00     0.006 C 
ENDBRANCH  20  21
ENDBRANCH  17  20
ENDBRANCH   6  16
TORSDOF 4
