MODEL        2USER    Run = 2USERUSER    Estimated Free Energy of Binding    = -11.26 kcal/mol  [=(1)+(2)+(3)-(4)]USERUSER    (1) Final Intermolecular Energy     = -12.75 kcal/molUSER        vdW + Hbond + desolv Energy     = -12.73 kcal/molUSER        Electrostatic Energy            =  -0.02 kcal/molUSER        Moving Ligand-Fixed Receptor    = -12.75 kcal/molUSER        Moving Ligand-Moving Receptor   =  +0.00 kcal/molUSER    (2) Final Total Internal Energy     =  -1.07 kcal/molUSER    (3) Torsional Free Energy           =  +1.49 kcal/molUSER    (4) Unbound System's Energy         =  -1.07 kcal/molUSERUSERREMARK SMILES Nc1ncc(C2CCCC2)nc1-c1ccc(-c2cccc(N3CCOCC3)c2)cc1REMARK SMILES IDX 2 1 3 2 4 3 5 4 11 5 12 6 1 7 13 10 14 11 30 12 15 13 29 14REMARK SMILES IDX 16 15 17 16 18 17 28 18 19 19 21 20 20 21 22 22 23 23 27 24REMARK SMILES IDX 24 25 26 26 25 27 6 28 7 29 10 30 8 31 9 32REMARK H PARENT 1 8 1 9USER                              x       y       z     vdW  Elec       q    TypeUSER                           _______ _______ _______ _____ _____    ______ ____ROOTATOM      1  C   UNL     1      40.981  47.656  17.223 -0.40 -0.02    +0.150 A  ATOM      2  N   UNL     1      41.397  48.482  16.241 -0.76 +0.01    -0.236 NA ATOM      3  C   UNL     1      40.567  48.612  15.180 -0.48 -0.03    +0.137 A  ATOM      4  C   UNL     1      39.353  47.946  15.077 -0.48 -0.02    +0.063 A  ATOM      5  N   UNL     1      38.936  47.113  16.060 -0.25 +0.09    -0.247 NA ATOM      6  C   UNL     1      39.743  46.984  17.154 -0.40 -0.02    +0.113 A  ENDROOTBRANCH   1   7ATOM      7  N   UNL     1      41.871  47.543  18.294 -0.29 +0.01    -0.382 N  ATOM      8  H   UNL     1      42.745  47.119  18.001 -0.41 -0.02    +0.158 HD ATOM      9  H   UNL     1      42.002  48.478  18.669 +0.05 -0.00    +0.158 HD ENDBRANCH   1   7BRANCH   6  10ATOM     10  C   UNL     1      39.217  46.083  18.201 -0.41 -0.00    +0.004 A  ATOM     11  C   UNL     1      37.974  45.450  18.036 -0.37 -0.00    +0.011 A  ATOM     12  C   UNL     1      39.908  45.843  19.398 -0.40 -0.00    +0.011 A  ATOM     13  C   UNL     1      37.453  44.596  19.017 -0.35 -0.00    +0.009 A  ATOM     14  C   UNL     1      39.388  44.989  20.381 -0.36 +0.00    +0.009 A  ATOM     15  C   UNL     1      38.153  44.350  20.205 -0.35 +0.00    -0.018 A  BRANCH  15  16ATOM     16  C   UNL     1      37.603  43.461  21.241 -0.36 -0.00    -0.016 A  ATOM     17  C   UNL     1      36.913  42.292  20.892 -0.43 +0.00    +0.009 A  ATOM     18  C   UNL     1      37.760  43.762  22.609 -0.34 +0.00    +0.034 A  ATOM     19  C   UNL     1      36.401  41.452  21.877 -0.57 +0.00    +0.003 A  ATOM     20  C   UNL     1      37.253  42.933  23.624 -0.36 +0.00    +0.037 A  ATOM     21  C   UNL     1      36.573  41.772  23.224 -0.47 +0.00    +0.026 A  BRANCH  20  22ATOM     22  N   UNL     1      37.395  43.202  24.992 -0.11 -0.00    -0.367 N  ATOM     23  C   UNL     1      37.075  42.158  25.989 -0.35 -0.02    +0.145 C  ATOM     24  C   UNL     1      36.907  44.554  25.365 -0.30 +0.00    +0.145 C  ATOM     25  C   UNL     1      35.743  42.469  26.686 -0.43 -0.03    +0.181 C  ATOM     26  C   UNL     1      36.704  44.660  26.886 -0.31 -0.03    +0.181 C  ATOM     27  O   UNL     1      35.744  43.720  27.396 -0.25 +0.09    -0.378 OA ENDBRANCH  20  22ENDBRANCH  15  16ENDBRANCH   6  10BRANCH   4  28ATOM     28  C   UNL     1      38.485  48.111  13.862 -0.53 -0.01    +0.040 C  ATOM     29  C   UNL     1      37.153  48.814  14.133 -0.58 -0.01    +0.010 C  ATOM     30  C   UNL     1      38.041  46.780  13.249 -0.47 -0.00    +0.010 C  ATOM     31  C   UNL     1      36.343  48.506  12.882 -0.43 -0.00    +0.001 C  ATOM     32  C   UNL     1      36.777  47.105  12.453 -0.75 -0.00    +0.001 C  ENDBRANCH   4  28TORSDOF 5TERENDMDL