REMARK SMILES Cc1[nH]c2ccccc2c1C=Cc1nc(N2C=NC(CC(=O)O)=CC2)no1
REMARK SMILES IDX 16 1 17 2 18 3 19 4 24 5 25 6 15 7 13 8 14 9 27 10 26 11
REMARK SMILES IDX 12 12 11 13 10 14 2 15 3 16 4 17 9 18 5 19 8 20 6 21 7 22
REMARK SMILES IDX 1 23 20 25 21 26 22 27 23 28
REMARK H PARENT 3 24 23 29
ROOT
ATOM      1  N   UNL     1       2.469   0.022   0.053  1.00  0.00    -0.294 N 
ATOM      2  C   UNL     1       2.982  -0.863  -0.857  1.00  0.00     0.202 C 
ATOM      3  N   UNL     1       4.207  -0.950  -1.277  1.00  0.00    -0.243 NA
ATOM      4  C   UNL     1       5.099  -0.052  -0.739  1.00  0.00     0.051 C 
ATOM      5  C   UNL     1       4.731   0.885   0.152  1.00  0.00     0.019 C 
ATOM      6  C   UNL     1       3.331   1.009   0.668  1.00  0.00     0.156 C 
ENDROOT
BRANCH   1   7
ATOM      7  C   UNL     1       1.156  -0.025   0.389  1.00  0.00     0.271 A 
ATOM      8  C   UNL     1      -0.613   0.588   1.419  1.00  0.00     0.252 A 
ATOM      9  N   UNL     1       0.673   0.874   1.312  1.00  0.00    -0.172 NA
ATOM     10  O   UNL     1      -0.937  -0.469   0.600  1.00  0.00    -0.333 OA
ATOM     11  N   UNL     1       0.213  -0.859  -0.065  1.00  0.00    -0.037 NA
BRANCH   8  12
ATOM     12  C   UNL     1      -1.516   1.258   2.290  1.00  0.00     0.072 C 
BRANCH  12  13
ATOM     13  C   UNL     1      -2.853   1.134   2.285  1.00  0.00     0.016 C 
BRANCH  13  14
ATOM     14  C   UNL     1      -3.663   0.369   1.398  1.00  0.00     0.003 A 
ATOM     15  C   UNL     1      -4.422  -0.719   1.785  1.00  0.00     0.020 A 
ATOM     16  N   UNL     1      -5.062  -1.181   0.659  1.00  0.00    -0.358 N 
ATOM     17  C   UNL     1      -4.755  -0.400  -0.432  1.00  0.00     0.046 A 
ATOM     18  C   UNL     1      -3.876   0.591   0.004  1.00  0.00     0.007 A 
ATOM     19  C   UNL     1      -5.187  -0.498  -1.760  1.00  0.00     0.027 A 
ATOM     20  C   UNL     1      -3.410   1.538  -0.934  1.00  0.00     0.011 A 
ATOM     21  C   UNL     1      -4.707   0.448  -2.670  1.00  0.00     0.002 A 
ATOM     22  C   UNL     1      -3.832   1.453  -2.266  1.00  0.00     0.001 A 
ATOM     23  C   UNL     1      -4.593  -1.381   3.103  1.00  0.00     0.065 C 
ATOM     24  H   UNL     1      -5.679  -1.980   0.627  1.00  0.00     0.166 HD
ENDBRANCH  13  14
ENDBRANCH  12  13
ENDBRANCH   8  12
ENDBRANCH   1   7
BRANCH   4  25
ATOM     25  C   UNL     1       6.515  -0.151  -1.247  1.00  0.00     0.178 C 
BRANCH  25  26
ATOM     26  C   UNL     1       7.322  -1.119  -0.415  1.00  0.00     0.309 C 
ATOM     27  O   UNL     1       7.207  -1.366   0.775  1.00  0.00    -0.252 OA
BRANCH  26  28
ATOM     28  O   UNL     1       8.331  -1.680  -1.119  1.00  0.00    -0.481 OA
ATOM     29  H   UNL     1       8.763  -2.272  -0.469  1.00  0.00     0.296 HD
ENDBRANCH  26  28
ENDBRANCH  25  26
ENDBRANCH   4  25
TORSDOF 7
