REMARK SMILES NCCCn1c2c(c3ccccc31)C(=O)C=C1N=CC([N+](=O)[O-])=C1[C@@H]2O
REMARK SMILES IDX 5 1 6 2 7 3 8 4 9 5 10 6 11 7 12 8 13 9 4 10 3 11 2 12 1 13
REMARK SMILES IDX 25 16 24 17 20 18 17 19 19 20 18 21 21 23 22 24 23 25 26 26
REMARK SMILES IDX 14 28 15 29 16 30
REMARK H PARENT 1 14 1 15 26 27
REMARK Flexibility Score:   19.900
ROOT
ATOM      1  N   UNL     1      -0.948   0.474  -0.081  1.00  0.00    -0.341 N 
ATOM      2  C   UNL     1       0.231   0.407  -0.798  1.00  0.00     0.064 A 
ATOM      3  C   UNL     1       0.729   1.698  -0.925  1.00  0.00     0.054 A 
ATOM      4  C   UNL     1      -0.217   2.575  -0.305  1.00  0.00     0.011 A 
ATOM      5  C   UNL     1      -0.279   3.976  -0.135  1.00  0.00     0.011 A 
ATOM      6  C   UNL     1      -1.342   4.546   0.571  1.00  0.00     0.001 A 
ATOM      7  C   UNL     1      -2.338   3.743   1.112  1.00  0.00     0.002 A 
ATOM      8  C   UNL     1      -2.302   2.354   0.958  1.00  0.00     0.027 A 
ATOM      9  C   UNL     1      -1.235   1.789   0.238  1.00  0.00     0.049 A 
ENDROOT
BRANCH   1  10
ATOM     10  C   UNL     1      -1.799  -0.655   0.287  1.00  0.00     0.124 C 
BRANCH  10  11
ATOM     11  C   UNL     1      -1.348  -1.303   1.593  1.00  0.00     0.037 C 
BRANCH  11  12
ATOM     12  C   UNL     1      -2.089  -2.601   1.905  1.00  0.00     0.079 C 
BRANCH  12  13
ATOM     13  N   UNL     1      -3.518  -2.384   2.094  1.00  0.00    -0.330 NA
ATOM     14  H   UNL     1      -3.933  -3.228   2.491  1.00  0.00     0.118 HD
ATOM     15  H   UNL     1      -3.981  -2.257   1.194  1.00  0.00     0.118 HD
ENDBRANCH  12  13
ENDBRANCH  11  12
ENDBRANCH  10  11
ENDBRANCH   1  10
BRANCH   2  16
ATOM     16  C   UNL     1       0.818  -0.847  -1.347  1.00  0.00     0.201 C 
BRANCH  16  17
ATOM     17  C   UNL     1       2.236  -1.085  -0.968  1.00  0.00     0.092 C 
ATOM     18  C   UNL     1       2.834  -2.196  -0.537  1.00  0.00     0.295 C 
ATOM     19  C   UNL     1       3.267  -0.064  -1.103  1.00  0.00     0.080 CG0
ATOM     20  C   UNL     1       4.239  -1.868  -0.502  1.00  0.00     0.197 C 
ATOM     21  N   UNL     1       4.500  -0.641  -0.839  1.00  0.00    -0.249 NA
ATOM     22  G   UNL     1       3.160   1.236  -1.401  1.00  0.00     0.000 G0
BRANCH  18  23
ATOM     23  N   UNL     1       2.275  -3.466  -0.253  1.00  0.00     0.064 N 
ATOM     24  O   UNL     1       3.061  -4.418  -0.188  1.00  0.00    -0.258 OA
ATOM     25  O   UNL     1       1.056  -3.542  -0.053  1.00  0.00    -0.258 OA
ENDBRANCH  18  23
ENDBRANCH  16  17
BRANCH  16  26
ATOM     26  O   UNL     1       0.786  -0.708  -2.766  1.00  0.00    -0.382 OA
ATOM     27  H   UNL     1      -0.080  -0.334  -3.005  1.00  0.00     0.212 HD
ENDBRANCH  16  26
ENDBRANCH   2  16
BRANCH   3  28
ATOM     28  C   UNL     1       1.966   2.099  -1.586  1.00  0.00     0.190 C 
ATOM     29  O   UNL     1       2.090   3.171  -2.174  1.00  0.00    -0.289 OA
BRANCH  28  30
ATOM     30  C   UNL     1       3.160   1.236  -1.401  1.00  0.00     0.081 CG0
ATOM     31  G   UNL     1       3.267  -0.064  -1.103  1.00  0.00     0.000 G0
ENDBRANCH  28  30
ENDBRANCH   3  28
TORSDOF 6
