MODEL        8USER    Run = 8USERUSER    Estimated Free Energy of Binding    =  -8.87 kcal/mol  [=(1)+(2)+(3)-(4)]USERUSER    (1) Final Intermolecular Energy     = -10.07 kcal/molUSER        vdW + Hbond + desolv Energy     = -10.02 kcal/molUSER        Electrostatic Energy            =  -0.04 kcal/molUSER        Moving Ligand-Fixed Receptor    = -10.07 kcal/molUSER        Moving Ligand-Moving Receptor   =  +0.00 kcal/molUSER    (2) Final Total Internal Energy     =  -0.63 kcal/molUSER    (3) Torsional Free Energy           =  +1.19 kcal/molUSER    (4) Unbound System's Energy         =  -0.63 kcal/molUSERUSERREMARK SMILES Cc1cccc(-c2nnc3sc(C(=O)NCC4CC4)cn23)c1REMARK SMILES IDX 7 1 8 2 9 3 10 4 11 5 12 6 20 7 21 8 6 9 2 10 3 11 22 12REMARK SMILES IDX 4 13 5 14 1 15 13 16 15 17 14 18 16 20 17 21 18 22 19 23REMARK H PARENT 15 19USER                              x       y       z     vdW  Elec       q    TypeUSER                           _______ _______ _______ _____ _____    ______ ____ROOTATOM      1  C   UNL     1      39.642  48.121  15.230 -0.41 -0.05    +0.169 A  ATOM      2  N   UNL     1      40.493  49.136  15.091 -0.51 +0.04    -0.128 NA ATOM      3  N   UNL     1      41.419  49.106  16.129 -1.08 +0.00    -0.118 NA ATOM      4  C   UNL     1      41.080  48.089  16.865 -0.35 -0.02    +0.217 A  ATOM      5  S   UNL     1      41.655  47.368  18.331 -0.68 +0.00    -0.089 S  ATOM      6  C   UNL     1      40.323  46.213  18.222 -0.40 -0.01    +0.112 A  ATOM      7  C   UNL     1      39.540  46.394  17.142 -0.37 -0.02    +0.120 A  ATOM      8  N   UNL     1      39.983  47.449  16.379 -0.30 +0.06    -0.272 N  ENDROOTBRANCH   1   9ATOM      9  C   UNL     1      38.521  47.814  14.344 -0.50 -0.01    +0.020 A  ATOM     10  C   UNL     1      37.278  46.150  13.054 -0.48 +0.02    -0.050 A  ATOM     11  C   UNL     1      36.380  47.144  12.654 -0.67 -0.00    +0.003 A  ATOM     12  C   UNL     1      38.334  46.492  13.912 -0.41 -0.00    +0.015 A  ATOM     13  C   UNL     1      36.541  48.457  13.092 -0.51 -0.00    +0.001 A  ATOM     14  C   UNL     1      37.605  48.792  13.934 -0.42 -0.01    +0.012 A  ATOM     15  C   UNL     1      37.079  44.726  12.628 -0.49 -0.01    +0.044 C  ENDBRANCH   1   9BRANCH   6  16ATOM     16  C   UNL     1      40.098  45.147  19.231 -0.31 -0.00    +0.263 C  ATOM     17  N   UNL     1      38.864  45.159  19.824 -0.17 +0.01    -0.351 N  ATOM     18  O   UNL     1      40.982  44.337  19.490 -0.29 -0.02    -0.268 OA ATOM     19  H   UNL     1      38.203  45.881  19.568 +0.08 -0.01    +0.163 HD BRANCH  17  20ATOM     20  C   UNL     1      38.488  44.238  20.871 -0.32 +0.00    +0.119 C  BRANCH  20  21ATOM     21  C   UNL     1      37.010  43.998  20.937 -0.46 +0.00    +0.008 C  ATOM     22  C   UNL     1      36.157  43.849  19.701 -0.46 -0.00    +0.006 C  ATOM     23  C   UNL     1      36.370  42.668  20.612 -0.52 -0.00    +0.006 C  ENDBRANCH  20  21ENDBRANCH  17  20ENDBRANCH   6  16TORSDOF 4TERENDMDL