MODEL        1USER    Run = 1USERUSER    Estimated Free Energy of Binding    =  -5.83 kcal/mol  [=(1)+(2)+(3)-(4)]USERUSER    (1) Final Intermolecular Energy     =  -9.11 kcal/molUSER        vdW + Hbond + desolv Energy     =  -8.76 kcal/molUSER        Electrostatic Energy            =  -0.53 kcal/molUSER        Moving Ligand-Fixed Receptor    =  -9.29 kcal/molUSER        Moving Ligand-Moving Receptor   =  +0.18 kcal/molUSER    (2) Final Total Internal Energy     =  -2.82 kcal/molUSER    (3) Torsional Free Energy           =  +3.28 kcal/molUSER    (4) Unbound System's Energy         =  -2.82 kcal/molUSERUSERREMARK SMILES C=C1C(=O)C(O)=C(c2ccc(O)c(O)c2)Oc2cc(O)cc(O)c21REMARK SMILES IDX 16 1 17 2 24 3 22 4 21 5 18 6 19 7 2 8 1 9 3 10 4 11 23 13REMARK SMILES IDX 20 15 7 17 5 18 6 20 8 22 9 23 15 24 10 25 13 26 11 27 14 28REMARK SMILES IDX 12 30REMARK H PARENT 23 14 20 16 6 21 14 29 12 31REMARK Flexibility Score:   19.900USER                              x       y       z     vdW  Elec       q    TypeUSER                           _______ _______ _______ _____ _____    ______ ____ROOTATOM      1  O   UNL     1      37.686  44.704  15.821 -0.10 +0.14    -0.452 OA ENDROOTBRANCH   1   2ATOM      2  C   UNL     1      36.939  45.422  14.918 -0.28 -0.06    +0.143 A  ATOM      3  C   UNL     1      35.543  45.480  15.003 -0.32 -0.04    +0.070 A  ATOM      4  C   UNL     1      34.866  46.256  14.045 -0.29 -0.11    +0.130 A  ATOM      5  C   UNL     1      35.555  46.908  13.020 -0.47 -0.06    +0.093 A  ATOM      6  C   UNL     1      37.640  46.051  13.884 -0.37 -0.03    +0.094 A  ATOM      7  C   UNL     1      36.938  46.793  12.946 -0.50 -0.05    +0.123 A  BRANCH   3   8ATOM      8  C   UNL     1      34.850  44.748  16.077 -0.36 -0.02    +0.033 C  ATOM      9  C   UNL     1      33.870  43.868  15.800 -0.30 -0.01    +0.022 C  BRANCH   8  10ATOM     10  C   UNL     1      35.191  44.928  17.518 -0.23 -0.11    +0.231 CG0ATOM     11  O   UNL     1      34.326  44.979  18.399 -0.24 +0.11    -0.285 OA ATOM     12  G   UNL     1      36.611  45.091  17.963 +0.00 +0.00    +0.000 G0 ENDBRANCH   8  10ENDBRANCH   3   8BRANCH   4  13ATOM     13  O   UNL     1      33.504  46.390  14.118 -0.08 +0.55    -0.507 OA ATOM     14  H   UNL     1      33.288  47.263  14.488 -0.18 -0.61    +0.293 HD ENDBRANCH   4  13BRANCH   7  15ATOM     15  O   UNL     1      37.574  47.439  11.927 -0.80 +0.05    -0.508 OA ATOM     16  H   UNL     1      36.910  47.751  11.287 -0.04 -0.11    +0.293 HD ENDBRANCH   7  15ENDBRANCH   1   2BRANCH   1  17ATOM     17  C   UNL     1      37.664  45.170  17.125 -0.30 -0.05    +0.180 C  BRANCH  17  18ATOM     18  C   UNL     1      36.612  45.089  17.963 -0.26 -0.06    +0.208 CG0ATOM     19  G   UNL     1      35.192  44.928  17.519 +0.00 +0.00    +0.000 G0 BRANCH  18  20ATOM     20  O   UNL     1      36.794  45.049  19.346 -0.01 +0.06    -0.502 OA ATOM     21  H   UNL     1      35.888  45.136  19.718 +0.18 -0.05    +0.293 HD ENDBRANCH  18  20ENDBRANCH  17  18BRANCH  17  22ATOM     22  C   UNL     1      38.977  45.677  17.568 -0.40 -0.00    +0.025 A  ATOM     23  C   UNL     1      39.657  45.079  18.646 -0.42 -0.00    +0.016 A  ATOM     24  C   UNL     1      39.576  46.749  16.892 -0.42 -0.01    +0.062 A  ATOM     25  C   UNL     1      40.913  45.546  19.049 -0.42 +0.00    +0.051 A  ATOM     26  C   UNL     1      40.825  47.200  17.294 -0.38 -0.02    +0.158 A  ATOM     27  C   UNL     1      41.490  46.607  18.365 -0.40 -0.00    +0.157 A  BRANCH  26  28ATOM     28  O   UNL     1      41.404  48.242  16.626 -0.52 +0.03    -0.504 OA ATOM     29  H   UNL     1      42.360  48.144  16.806 -0.27 +0.02    +0.293 HD ENDBRANCH  26  28BRANCH  27  30ATOM     30  O   UNL     1      42.715  47.109  18.708 -0.27 -0.05    -0.504 OA ATOM     31  H   UNL     1      43.121  47.484  17.907 -0.33 -0.03    +0.293 HD ENDBRANCH  27  30ENDBRANCH  17  22ENDBRANCH   1  17TORSDOF 6TERENDMDL