REMARK SMILES O=Cc1cnc(Nc2ccccc2Cl)nc1N[C@@H]1CC[C@@H](O)[C@@H](O)C[C@H]1CO
REMARK SMILES IDX 18 1 17 2 16 4 3 5 4 6 5 7 15 8 6 9 2 10 1 11 7 12 8 14 9 15
REMARK SMILES IDX 13 16 10 17 12 18 11 19 14 20 19 21 20 22 21 23 22 24 23 26
REMARK SMILES IDX 24 27 25 29 26 31 27 33 28 34
REMARK H PARENT 17 3 7 13 22 25 24 28 28 35
REMARK Flexibility Score:   99.900
ROOT
ATOM      1  C   UNL     1      -1.795  -0.338   0.315  1.00  0.00     0.086 C 
ENDROOT
BRANCH   1   2
ATOM      2  N   UNL     1      -0.572  -0.380   1.163  1.00  0.00    -0.366 N 
ATOM      3  H   UNL     1      -0.231  -1.346   1.128  1.00  0.00     0.162 HD
BRANCH   2   4
ATOM      4  C   UNL     1       0.574   0.333   0.845  1.00  0.00     0.142 A 
ATOM      5  C   UNL     1       0.761   1.695   0.975  1.00  0.00     0.075 A 
ATOM      6  C   UNL     1       2.007   2.158   0.610  1.00  0.00     0.130 A 
ATOM      7  N   UNL     1       3.004   1.375   0.159  1.00  0.00    -0.220 NA
ATOM      8  N   UNL     1       1.573  -0.473   0.423  1.00  0.00    -0.195 NA
ATOM      9  C   UNL     1       2.756   0.063   0.082  1.00  0.00     0.229 A 
BRANCH   5  10
ATOM     10  C   UNL     1      -0.195   2.691   1.494  1.00  0.00     0.265 C 
ATOM     11  O   UNL     1      -1.356   2.469   1.804  1.00  0.00    -0.298 OA
ENDBRANCH   5  10
BRANCH   9  12
ATOM     12  N   UNL     1       3.711  -0.844  -0.357  1.00  0.00    -0.323 N 
ATOM     13  H   UNL     1       3.326  -1.780  -0.345  1.00  0.00     0.170 HD
BRANCH  12  14
ATOM     14  C   UNL     1       5.037  -0.746  -0.805  1.00  0.00     0.060 A 
ATOM     15  C   UNL     1       5.731   0.468  -0.892  1.00  0.00     0.028 A 
ATOM     16  C   UNL     1       5.732  -1.913  -1.192  1.00  0.00     0.064 A 
ATOM     17  C   UNL     1       7.054   0.520  -1.346  1.00  0.00     0.002 A 
ATOM     18  C   UNL     1       7.054  -1.866  -1.647  1.00  0.00     0.023 A 
ATOM     19  C   UNL     1       7.716  -0.645  -1.723  1.00  0.00     0.002 A 
ATOM     20  Cl  UNL     1       4.958  -3.463  -1.118  1.00  0.00    -0.082 Cl
ENDBRANCH  12  14
ENDBRANCH   9  12
ENDBRANCH   2   4
ENDBRANCH   1   2
BRANCH   1  21
ATOM     21  C   UNL     1      -1.625   0.434  -1.007  1.00  0.00     0.028 C 
BRANCH  21  22
ATOM     22  C   UNL     1      -2.881   0.726  -1.826  1.00  0.00     0.036 C 
BRANCH  22  23
ATOM     23  C   UNL     1      -3.945  -0.360  -1.883  1.00  0.00     0.143 C 
BRANCH  23  24
ATOM     24  O   UNL     1      -3.351  -1.648  -2.037  1.00  0.00    -0.390 OA
ATOM     25  H   UNL     1      -4.104  -2.273  -2.002  1.00  0.00     0.211 HD
ENDBRANCH  23  24
BRANCH  23  26
ATOM     26  C   UNL     1      -4.895  -0.345  -0.676  1.00  0.00     0.143 C 
BRANCH  26  27
ATOM     27  O   UNL     1      -5.943  -1.288  -0.968  1.00  0.00    -0.390 OA
ATOM     28  H   UNL     1      -6.579  -1.247  -0.232  1.00  0.00     0.211 HD
ENDBRANCH  26  27
BRANCH  26  29
ATOM     29  C   UNL     1      -4.290  -0.745   0.669  1.00  0.00     0.042 CG0
ATOM     30  G   UNL     1      -3.053   0.063   1.134  1.00  0.00     0.000 G0
ENDBRANCH  26  29
ENDBRANCH  23  26
ENDBRANCH  22  23
ENDBRANCH  21  22
ENDBRANCH   1  21
BRANCH   1  31
ATOM     31  C   UNL     1      -3.053   0.063   1.134  1.00  0.00     0.040 CG0
ATOM     32  G   UNL     1      -4.290  -0.745   0.669  1.00  0.00     0.000 G0
BRANCH  31  33
ATOM     33  C   UNL     1      -2.888  -0.167   2.650  1.00  0.00     0.161 C 
BRANCH  33  34
ATOM     34  O   UNL     1      -3.987   0.422   3.350  1.00  0.00    -0.396 OA
ATOM     35  H   UNL     1      -3.824   1.384   3.325  1.00  0.00     0.210 HD
ENDBRANCH  33  34
ENDBRANCH  31  33
ENDBRANCH   1  31
TORSDOF 9
