REMARK SMILES Fc1ccc(Nc2cc(-c3nncc4c3NCCO4)ccn2)cc1
REMARK SMILES IDX 7 1 8 2 9 3 20 4 21 5 22 6 6 7 5 9 2 10 3 11 24 12 4 13
REMARK SMILES IDX 23 14 1 15 10 16 11 17 15 18 12 19 14 20 16 21 13 22 19 23
REMARK SMILES IDX 17 24 18 25
REMARK H PARENT 6 8 16 26
ROOT
ATOM      1  C   UNL     1      -1.595   0.294   0.108  1.00  0.00     0.130 A 
ATOM      2  C   UNL     1      -0.328   0.838   0.325  1.00  0.00     0.057 A 
ATOM      3  C   UNL     1       0.702   0.649  -0.610  1.00  0.00     0.009 A 
ATOM      4  C   UNL     1       0.399  -0.080  -1.762  1.00  0.00     0.031 A 
ATOM      5  C   UNL     1      -0.875  -0.596  -1.905  1.00  0.00     0.114 A 
ATOM      6  N   UNL     1      -1.858  -0.435  -0.995  1.00  0.00    -0.239 NA
ENDROOT
BRANCH   1   7
ATOM      7  N   UNL     1      -2.578   0.518   1.102  1.00  0.00    -0.340 N 
ATOM      8  H   UNL     1      -2.581   1.502   1.349  1.00  0.00     0.168 HD
BRANCH   7   9
ATOM      9  C   UNL     1      -3.860  -0.059   1.231  1.00  0.00     0.040 A 
ATOM     10  C   UNL     1      -6.389  -1.192   1.677  1.00  0.00     0.123 A 
ATOM     11  C   UNL     1      -5.447  -1.886   0.933  1.00  0.00     0.041 A 
ATOM     12  C   UNL     1      -6.088   0.048   2.224  1.00  0.00     0.041 A 
ATOM     13  C   UNL     1      -4.183  -1.325   0.723  1.00  0.00     0.029 A 
ATOM     14  C   UNL     1      -4.824   0.605   2.011  1.00  0.00     0.029 A 
ATOM     15  F   UNL     1      -7.598  -1.730   1.883  1.00  0.00    -0.207 F 
ENDBRANCH   7   9
ENDBRANCH   1   7
BRANCH   3  16
ATOM     16  C   UNL     1       2.037   1.228  -0.382  1.00  0.00     0.120 A 
ATOM     17  N   UNL     1       2.019   2.540  -0.024  1.00  0.00    -0.148 NA
ATOM     18  C   UNL     1       3.243   0.513  -0.496  1.00  0.00     0.107 A 
ATOM     19  N   UNL     1       3.182   3.220   0.191  1.00  0.00    -0.154 NA
ATOM     20  C   UNL     1       4.428   1.246  -0.330  1.00  0.00     0.164 A 
ATOM     21  N   UNL     1       3.281  -0.863  -0.860  1.00  0.00    -0.377 N 
ATOM     22  C   UNL     1       4.353   2.579   0.027  1.00  0.00     0.184 A 
ATOM     23  O   UNL     1       5.689   0.711  -0.452  1.00  0.00    -0.488 OA
ATOM     24  C   UNL     1       4.584  -1.467  -0.584  1.00  0.00     0.154 C 
ATOM     25  C   UNL     1       5.687  -0.559  -1.118  1.00  0.00     0.251 C 
ATOM     26  H   UNL     1       2.504  -1.376  -0.442  1.00  0.00     0.160 HD
ENDBRANCH   3  16
TORSDOF 3
