MODEL        2USER    Run = 2USERUSER    Estimated Free Energy of Binding    =  -6.54 kcal/mol  [=(1)+(2)+(3)-(4)]USERUSER    (1) Final Intermolecular Energy     =  -9.53 kcal/molUSER        vdW + Hbond + desolv Energy     =  -9.52 kcal/molUSER        Electrostatic Energy            =  -0.03 kcal/molUSER        Moving Ligand-Fixed Receptor    =  -9.55 kcal/molUSER        Moving Ligand-Moving Receptor   =  +0.02 kcal/molUSER    (2) Final Total Internal Energy     =  -3.37 kcal/molUSER    (3) Torsional Free Energy           =  +2.98 kcal/molUSER    (4) Unbound System's Energy         =  -3.37 kcal/molUSERUSERREMARK SMILES NCCCn1c2c(c3ccccc31)C(=O)C=C1N=CC([N+](=O)[O-])=C1[C@@H]2OREMARK SMILES IDX 5 1 6 2 7 3 8 4 9 5 10 6 11 7 12 8 13 9 4 10 3 11 2 12 1 13REMARK SMILES IDX 25 16 24 17 20 18 17 19 19 20 18 21 21 23 22 24 23 25 26 26REMARK SMILES IDX 14 28 15 29 16 30REMARK H PARENT 1 14 1 15 26 27REMARK Flexibility Score:   19.900USER                              x       y       z     vdW  Elec       q    TypeUSER                           _______ _______ _______ _____ _____    ______ ____ROOTATOM      1  N   UNL     1      37.283  44.565  16.904 -0.12 +0.10    -0.341 N  ATOM      2  C   UNL     1      36.502  43.813  17.760 -0.25 -0.02    +0.064 A  ATOM      3  C   UNL     1      37.124  43.794  19.002 -0.22 -0.01    +0.054 A  ATOM      4  C   UNL     1      38.351  44.518  18.868 -0.36 -0.00    +0.011 A  ATOM      5  C   UNL     1      39.405  44.820  19.758 -0.38 -0.00    +0.011 A  ATOM      6  C   UNL     1      40.478  45.605  19.326 -0.44 +0.00    +0.001 A  ATOM      7  C   UNL     1      40.513  46.096  18.027 -0.49 -0.00    +0.002 A  ATOM      8  C   UNL     1      39.484  45.812  17.125 -0.39 -0.00    +0.027 A  ATOM      9  C   UNL     1      38.413  45.013  17.564 -0.34 -0.01    +0.049 A  ENDROOTBRANCH   1  10ATOM     10  C   UNL     1      36.996  44.849  15.500 -0.33 -0.05    +0.124 C  BRANCH  10  11ATOM     11  C   UNL     1      36.098  46.072  15.341 -0.41 -0.03    +0.037 C  BRANCH  11  12ATOM     12  C   UNL     1      34.730  45.900  15.997 -0.26 -0.08    +0.079 C  BRANCH  12  13ATOM     13  N   UNL     1      33.666  45.742  15.013 -0.10 +0.34    -0.330 NA ATOM     14  H   UNL     1      32.881  46.340  15.272 -0.41 -0.19    +0.118 HD ATOM     15  H   UNL     1      33.297  44.791  15.038 +0.07 -0.08    +0.118 HD ENDBRANCH  12  13ENDBRANCH  11  12ENDBRANCH  10  11ENDBRANCH   1  10BRANCH   2  16ATOM     16  C   UNL     1      35.234  43.133  17.373 -0.29 -0.07    +0.201 C  BRANCH  16  17ATOM     17  C   UNL     1      34.071  43.449  18.243 -0.32 -0.02    +0.092 C  ATOM     18  C   UNL     1      32.815  43.758  17.918 -0.17 -0.08    +0.295 C  ATOM     19  C   UNL     1      34.137  43.382  19.697 -0.41 -0.00    +0.080 CG0ATOM     20  C   UNL     1      32.106  43.785  19.175 -0.28 -0.01    +0.197 C  ATOM     21  N   UNL     1      32.859  43.557  20.208 -0.84 -0.02    -0.249 NA ATOM     22  G   UNL     1      35.188  43.210  20.506 +0.00 +0.00    +0.000 G0 BRANCH  18  23ATOM     23  N   UNL     1      32.236  43.937  16.638 -0.29 -0.03    +0.064 N  ATOM     24  O   UNL     1      32.360  43.006  15.835 -0.26 +0.14    -0.258 OA ATOM     25  O   UNL     1      31.616  44.985  16.413 -0.67 +0.09    -0.258 OA ENDBRANCH  18  23ENDBRANCH  16  17BRANCH  16  26ATOM     26  O   UNL     1      35.482  41.735  17.504 -0.28 +0.16    -0.382 OA ATOM     27  H   UNL     1      34.875  41.271  16.900 -0.43 -0.15    +0.212 HD ENDBRANCH  16  26ENDBRANCH   2  16BRANCH   3  28ATOM     28  C   UNL     1      36.642  43.139  20.214 -0.33 -0.01    +0.190 C  ATOM     29  O   UNL     1      37.396  42.651  21.052 -0.23 -0.00    -0.289 OA BRANCH  28  30ATOM     30  C   UNL     1      35.188  43.210  20.506 -0.30 +0.00    +0.081 CG0ATOM     31  G   UNL     1      34.137  43.382  19.697 +0.00 +0.00    +0.000 G0 ENDBRANCH  28  30ENDBRANCH   3  28TORSDOF 6TERENDMDL