MODEL        4USER    Run = 4USERUSER    Estimated Free Energy of Binding    =  -9.64 kcal/mol  [=(1)+(2)+(3)-(4)]USERUSER    (1) Final Intermolecular Energy     = -11.72 kcal/molUSER        vdW + Hbond + desolv Energy     = -11.26 kcal/molUSER        Electrostatic Energy            =  -0.46 kcal/molUSER        Moving Ligand-Fixed Receptor    = -11.72 kcal/molUSER        Moving Ligand-Moving Receptor   =  +0.00 kcal/molUSER    (2) Final Total Internal Energy     =  -1.88 kcal/molUSER    (3) Torsional Free Energy           =  +2.09 kcal/molUSER    (4) Unbound System's Energy         =  -1.88 kcal/molUSERUSERREMARK SMILES Cc1[nH]c2ccccc2c1C=Cc1nc(N2C=NC(CC(=O)O)=CC2)no1REMARK SMILES IDX 16 1 17 2 18 3 19 4 24 5 25 6 15 7 13 8 14 9 27 10 26 11REMARK SMILES IDX 12 12 11 13 10 14 2 15 3 16 4 17 9 18 5 19 8 20 6 21 7 22REMARK SMILES IDX 1 23 20 25 21 26 22 27 23 28REMARK H PARENT 3 24 23 29USER                              x       y       z     vdW  Elec       q    TypeUSER                           _______ _______ _______ _____ _____    ______ ____ROOTATOM      1  N   UNL     1      34.553  44.781  16.769 -0.11 +0.16    -0.294 N  ATOM      2  C   UNL     1      34.357  45.515  15.630 -0.23 -0.18    +0.202 C  ATOM      3  N   UNL     1      33.270  45.617  14.927 -0.19 +0.23    -0.243 NA ATOM      4  C   UNL     1      32.183  44.909  15.383 -0.40 -0.03    +0.051 C  ATOM      5  C   UNL     1      32.236  44.131  16.479 -0.37 -0.01    +0.019 C  ATOM      6  C   UNL     1      33.467  43.998  17.321 -0.26 -0.06    +0.156 C  ENDROOTBRANCH   1   7ATOM      7  C   UNL     1      35.758  44.788  17.390 -0.13 -0.11    +0.271 A  ATOM      8  C   UNL     1      37.817  45.303  17.638 -0.20 -0.06    +0.252 A  ATOM      9  N   UNL     1      36.802  45.471  16.808 -0.23 +0.07    -0.172 NA ATOM     10  O   UNL     1      37.437  44.526  18.707 -0.19 +0.05    -0.333 OA ATOM     11  N   UNL     1      36.102  44.198  18.541 -0.31 +0.01    -0.037 NA BRANCH   8  12ATOM     12  C   UNL     1      39.124  45.823  17.424 -0.43 -0.01    +0.072 C  BRANCH  12  13ATOM     13  C   UNL     1      39.623  46.240  16.250 -0.48 -0.00    +0.016 C  BRANCH  13  14ATOM     14  C   UNL     1      38.968  46.988  15.230 -0.46 -0.00    +0.003 A  ATOM     15  C   UNL     1      39.164  48.339  15.012 -0.53 -0.01    +0.020 A  ATOM     16  N   UNL     1      38.369  48.691  13.947 -0.17 +0.16    -0.358 N  ATOM     17  C   UNL     1      37.691  47.597  13.460 -0.51 -0.02    +0.046 A  ATOM     18  C   UNL     1      38.052  46.504  14.248 -0.43 -0.00    +0.007 A  ATOM     19  C   UNL     1      36.794  47.496  12.391 -0.63 -0.01    +0.027 A  ATOM     20  C   UNL     1      37.493  45.243  13.947 -0.40 -0.00    +0.011 A  ATOM     21  C   UNL     1      36.250  46.238  12.117 -0.65 -0.00    +0.002 A  ATOM     22  C   UNL     1      36.593  45.126  12.881 -0.48 -0.00    +0.001 A  ATOM     23  C   UNL     1      40.010  49.336  15.715 -0.58 -0.03    +0.065 C  ATOM     24  H   UNL     1      38.290  49.622  13.563 -0.37 -0.11    +0.166 HD ENDBRANCH  13  14ENDBRANCH  12  13ENDBRANCH   8  12ENDBRANCH   1   7BRANCH   4  25ATOM     25  C   UNL     1      30.932  45.020  14.550 -0.37 -0.13    +0.178 C  BRANCH  25  26ATOM     26  C   UNL     1      30.780  46.412  13.985 -0.37 -0.17    +0.309 C  ATOM     27  O   UNL     1      30.623  46.738  12.819 -0.77 +0.12    -0.252 OA BRANCH  26  28ATOM     28  O   UNL     1      30.933  47.367  14.930 -0.66 +0.19    -0.481 OA ATOM     29  H   UNL     1      31.877  47.290  15.183 -0.35 -0.51    +0.296 HD ENDBRANCH  26  28ENDBRANCH  25  26ENDBRANCH   4  25TORSDOF 7TERENDMDL