REMARK SMILES C=C1C(=O)C(O)=C(c2ccc(O)c(O)c2)Oc2cc(O)cc(O)c21
REMARK SMILES IDX 16 1 17 2 24 3 22 4 21 5 18 6 19 7 2 8 1 9 3 10 4 11 23 13
REMARK SMILES IDX 20 15 7 17 5 18 6 20 8 22 9 23 15 24 10 25 13 26 11 27 14 28
REMARK SMILES IDX 12 30
REMARK H PARENT 23 14 20 16 6 21 14 29 12 31
REMARK Flexibility Score:   19.900
ROOT
ATOM      1  O   UNL     1      -0.893   0.511   0.527  1.00  0.00    -0.452 OA
ENDROOT
BRANCH   1   2
ATOM      2  C   UNL     1      -1.480  -0.604  -0.022  1.00  0.00     0.143 A 
ATOM      3  C   UNL     1      -2.107  -0.561  -1.273  1.00  0.00     0.070 A 
ATOM      4  C   UNL     1      -2.664  -1.757  -1.761  1.00  0.00     0.130 A 
ATOM      5  C   UNL     1      -2.633  -2.933  -1.008  1.00  0.00     0.093 A 
ATOM      6  C   UNL     1      -1.462  -1.768   0.753  1.00  0.00     0.094 A 
ATOM      7  C   UNL     1      -2.037  -2.925   0.247  1.00  0.00     0.123 A 
BRANCH   3   8
ATOM      8  C   UNL     1      -2.151   0.708  -2.020  1.00  0.00     0.033 C 
ATOM      9  C   UNL     1      -3.312   1.197  -2.494  1.00  0.00     0.022 C 
BRANCH   8  10
ATOM     10  C   UNL     1      -0.930   1.522  -2.288  1.00  0.00     0.231 CG0
ATOM     11  O   UNL     1      -0.838   2.270  -3.267  1.00  0.00    -0.285 OA
ATOM     12  G   UNL     1       0.266   1.442  -1.391  1.00  0.00     0.000 G0
ENDBRANCH   8  10
ENDBRANCH   3   8
BRANCH   4  13
ATOM     13  O   UNL     1      -3.239  -1.781  -3.005  1.00  0.00    -0.507 OA
ATOM     14  H   UNL     1      -3.530  -2.686  -3.206  1.00  0.00     0.293 HD
ENDBRANCH   4  13
BRANCH   7  15
ATOM     15  O   UNL     1      -2.033  -4.091   0.954  1.00  0.00    -0.508 OA
ATOM     16  H   UNL     1      -1.563  -3.950   1.794  1.00  0.00     0.293 HD
ENDBRANCH   7  15
ENDBRANCH   1   2
BRANCH   1  17
ATOM     17  C   UNL     1       0.235   0.980  -0.126  1.00  0.00     0.180 C 
BRANCH  17  18
ATOM     18  C   UNL     1       0.266   1.442  -1.391  1.00  0.00     0.208 CG0
ATOM     19  G   UNL     1      -0.930   1.522  -2.288  1.00  0.00     0.000 G0
BRANCH  18  20
ATOM     20  O   UNL     1       1.432   1.985  -1.932  1.00  0.00    -0.502 OA
ATOM     21  H   UNL     1       1.155   2.353  -2.800  1.00  0.00     0.293 HD
ENDBRANCH  18  20
ENDBRANCH  17  18
BRANCH  17  22
ATOM     22  C   UNL     1       1.417   1.038   0.755  1.00  0.00     0.025 A 
ATOM     23  C   UNL     1       1.963   2.273   1.152  1.00  0.00     0.016 A 
ATOM     24  C   UNL     1       1.992  -0.148   1.232  1.00  0.00     0.062 A 
ATOM     25  C   UNL     1       3.069   2.327   2.007  1.00  0.00     0.051 A 
ATOM     26  C   UNL     1       3.085  -0.085   2.085  1.00  0.00     0.158 A 
ATOM     27  C   UNL     1       3.623   1.141   2.470  1.00  0.00     0.157 A 
BRANCH  26  28
ATOM     28  O   UNL     1       3.635  -1.246   2.549  1.00  0.00    -0.504 OA
ATOM     29  H   UNL     1       4.385  -0.954   3.104  1.00  0.00     0.293 HD
ENDBRANCH  26  28
BRANCH  27  30
ATOM     30  O   UNL     1       4.703   1.125   3.308  1.00  0.00    -0.504 OA
ATOM     31  H   UNL     1       4.977   2.046   3.463  1.00  0.00     0.293 HD
ENDBRANCH  27  30
ENDBRANCH  17  22
ENDBRANCH   1  17
TORSDOF 6
