MODEL        8USER    Run = 8USERUSER    Estimated Free Energy of Binding    =  -8.19 kcal/mol  [=(1)+(2)+(3)-(4)]USERUSER    (1) Final Intermolecular Energy     =  -9.69 kcal/molUSER        vdW + Hbond + desolv Energy     =  -9.50 kcal/molUSER        Electrostatic Energy            =  -0.19 kcal/molUSER        Moving Ligand-Fixed Receptor    =  -9.69 kcal/molUSER        Moving Ligand-Moving Receptor   =  +0.00 kcal/molUSER    (2) Final Total Internal Energy     =  -0.67 kcal/molUSER    (3) Torsional Free Energy           =  +1.49 kcal/molUSER    (4) Unbound System's Energy         =  -0.67 kcal/molUSERUSERREMARK SMILES CSC=C1C=C(Nc2nc(-c3ccncc3)cs2)C=C1CREMARK SMILES IDX 4 1 5 2 6 3 19 4 20 5 21 6 3 7 2 8 1 9 7 10 8 12 9 13 18 14REMARK SMILES IDX 10 15 17 16 11 17 12 18 16 19 13 20 15 21 14 22REMARK H PARENT 7 11USER                              x       y       z     vdW  Elec       q    TypeUSER                           _______ _______ _______ _____ _____    ______ ____ROOTATOM      1  C   UNL     1      34.817  43.607  19.330 -0.45 +0.00    -0.014 C  ATOM      2  C   UNL     1      35.572  44.491  18.454 -0.38 -0.01    +0.035 C  ATOM      3  C   UNL     1      34.705  45.276  17.788 -0.41 -0.02    +0.041 C  ATOM      4  C   UNL     1      33.358  44.910  18.228 -0.42 -0.01    +0.030 C  ATOM      5  C   UNL     1      33.407  43.923  19.140 -0.45 +0.01    -0.041 C  ATOM      6  C   UNL     1      32.267  43.270  19.831 -0.41 +0.00    +0.045 C  ENDROOTBRANCH   1   7ATOM      7  C   UNL     1      35.301  42.672  20.163 -0.48 -0.00    +0.048 C  BRANCH   7   8ATOM      8  S   UNL     1      36.563  42.955  21.321 -0.52 -0.01    -0.137 SA ATOM      9  C   UNL     1      36.586  41.363  22.177 -0.57 +0.00    +0.090 C  ENDBRANCH   7   8ENDBRANCH   1   7BRANCH   3  10ATOM     10  N   UNL     1      34.860  46.267  16.857 -0.13 +0.37    -0.332 N  ATOM     11  H   UNL     1      34.063  46.889  16.789 -0.29 -0.39    +0.169 HD BRANCH  10  12ATOM     12  C   UNL     1      35.854  46.603  15.999 -0.20 -0.18    +0.187 A  ATOM     13  N   UNL     1      36.978  47.111  16.459 -0.21 +0.17    -0.220 NA ATOM     14  S   UNL     1      35.819  46.436  14.285 -0.55 +0.08    -0.105 S  ATOM     15  C   UNL     1      37.875  47.379  15.433 -0.38 -0.05    +0.084 A  ATOM     16  C   UNL     1      37.399  47.079  14.175 -0.40 -0.05    +0.097 A  BRANCH  15  17ATOM     17  C   UNL     1      39.189  47.949  15.719 -0.51 -0.00    +0.004 A  ATOM     18  C   UNL     1      39.817  48.855  14.861 -0.50 -0.01    +0.030 A  ATOM     19  C   UNL     1      39.859  47.572  16.887 -0.45 -0.01    +0.030 A  ATOM     20  C   UNL     1      41.066  49.345  15.211 -0.56 -0.02    +0.111 A  ATOM     21  C   UNL     1      41.104  48.118  17.150 -0.43 -0.01    +0.111 A  ATOM     22  N   UNL     1      41.723  48.999  16.337 -0.81 -0.04    -0.265 NA ENDBRANCH  15  17ENDBRANCH  10  12ENDBRANCH   3  10TORSDOF 5TERENDMDL