MODEL        5USER    Run = 5USERUSER    Estimated Free Energy of Binding    =  -6.01 kcal/mol  [=(1)+(2)+(3)-(4)]USERUSER    (1) Final Intermolecular Energy     = -10.49 kcal/molUSER        vdW + Hbond + desolv Energy     = -10.93 kcal/molUSER        Electrostatic Energy            =  -0.29 kcal/molUSER        Moving Ligand-Fixed Receptor    = -11.22 kcal/molUSER        Moving Ligand-Moving Receptor   =  +0.73 kcal/molUSER    (2) Final Total Internal Energy     =  -4.39 kcal/molUSER    (3) Torsional Free Energy           =  +4.47 kcal/molUSER    (4) Unbound System's Energy         =  -4.39 kcal/molUSERUSERREMARK SMILES O=Cc1cnc(Nc2ccccc2Cl)nc1N[C@@H]1CC[C@@H](O)[C@@H](O)C[C@H]1COREMARK SMILES IDX 18 1 17 2 16 4 3 5 4 6 5 7 15 8 6 9 2 10 1 11 7 12 8 14 9 15REMARK SMILES IDX 13 16 10 17 12 18 11 19 14 20 19 21 20 22 21 23 22 24 23 26REMARK SMILES IDX 24 27 25 29 26 31 27 33 28 34REMARK H PARENT 17 3 7 13 22 25 24 28 28 35REMARK Flexibility Score:   99.900USER                              x       y       z     vdW  Elec       q    TypeUSER                           _______ _______ _______ _____ _____    ______ ____ROOTATOM      1  C   UNL     1      39.464  46.768  15.752 -0.46 -0.02    +0.086 C  ENDROOTBRANCH   1   2ATOM      2  N   UNL     1      40.570  46.274  16.619 -0.18 +0.03    -0.366 N  ATOM      3  H   UNL     1      41.220  47.058  16.730 -0.12 -0.02    +0.162 HD BRANCH   2   4ATOM      4  C   UNL     1      40.363  45.893  17.936 -0.37 -0.01    +0.142 A  ATOM      5  C   UNL     1      41.140  46.237  19.026 -0.43 +0.00    +0.075 A  ATOM      6  C   UNL     1      40.706  45.747  20.239 -0.29 +0.01    +0.130 A  ATOM      7  N   UNL     1      39.606  44.988  20.400 -0.23 -0.00    -0.220 NA ATOM      8  N   UNL     1      39.239  45.158  18.082 -0.28 +0.02    -0.195 NA ATOM      9  C   UNL     1      38.892  44.716  19.302 -0.23 -0.01    +0.229 A  BRANCH   5  10ATOM     10  C   UNL     1      42.340  47.093  19.043 -0.40 +0.02    +0.265 C  ATOM     11  O   UNL     1      42.607  47.962  18.226 -0.44 -0.00    -0.298 OA ENDBRANCH   5  10BRANCH   9  12ATOM     12  N   UNL     1      37.733  43.954  19.346 -0.13 +0.03    -0.323 N  ATOM     13  H   UNL     1      37.956  43.005  19.617 +0.12 -0.01    +0.170 HD BRANCH  12  14ATOM     14  C   UNL     1      36.372  44.207  19.115 -0.33 -0.01    +0.060 A  ATOM     15  C   UNL     1      35.913  45.222  18.266 -0.31 -0.01    +0.028 A  ATOM     16  C   UNL     1      35.395  43.415  19.757 -0.38 -0.01    +0.064 A  ATOM     17  C   UNL     1      34.545  45.441  18.065 -0.42 -0.00    +0.002 A  ATOM     18  C   UNL     1      34.027  43.630  19.560 -0.40 -0.00    +0.023 A  ATOM     19  C   UNL     1      33.602  44.646  18.711 -0.41 -0.00    +0.002 A  ATOM     20  Cl  UNL     1      35.865  42.133  20.826 -0.68 -0.00    -0.082 Cl ENDBRANCH  12  14ENDBRANCH   9  12ENDBRANCH   2   4ENDBRANCH   1   2BRANCH   1  21ATOM     21  C   UNL     1      38.736  45.664  14.961 -0.38 -0.01    +0.028 C  BRANCH  21  22ATOM     22  C   UNL     1      37.329  45.967  14.451 -0.44 -0.01    +0.036 C  BRANCH  22  23ATOM     23  C   UNL     1      36.699  47.284  14.880 -0.38 -0.11    +0.143 C  BRANCH  23  24ATOM     24  O   UNL     1      36.615  47.370  16.301 -0.17 +0.38    -0.390 OA ATOM     25  H   UNL     1      36.104  48.188  16.469 +0.03 -0.38    +0.211 HD ENDBRANCH  23  24BRANCH  23  26ATOM     26  C   UNL     1      37.416  48.516  14.307 -0.50 -0.09    +0.143 C  BRANCH  26  27ATOM     27  O   UNL     1      37.475  49.486  15.369 -0.35 +0.40    -0.390 OA ATOM     28  H   UNL     1      36.657  49.392  15.889 -0.05 -0.37    +0.211 HD ENDBRANCH  26  27BRANCH  26  29ATOM     29  C   UNL     1      38.846  48.301  13.813 -0.39 -0.01    +0.042 CG0ATOM     30  G   UNL     1      39.906  47.982  14.895 +0.00 +0.00    +0.000 G0 ENDBRANCH  26  29ENDBRANCH  23  26ENDBRANCH  22  23ENDBRANCH  21  22ENDBRANCH   1  21BRANCH   1  31ATOM     31  C   UNL     1      39.902  47.987  14.895 -0.57 -0.01    +0.040 CG0ATOM     32  G   UNL     1      38.841  48.307  13.813 +0.00 +0.00    +0.000 G0 BRANCH  31  33ATOM     33  C   UNL     1      40.119  49.267  15.728 -0.51 -0.06    +0.161 C  BRANCH  33  34ATOM     34  O   UNL     1      41.406  49.226  16.350 -0.95 -0.00    -0.396 OA ATOM     35  H   UNL     1      41.317  48.593  17.087 +0.12 -0.01    +0.210 HD ENDBRANCH  33  34ENDBRANCH  31  33ENDBRANCH   1  31TORSDOF 9TERENDMDL