REMARK SMILES CC(=O)Oc1nc2cc(F)ccc2n1C1CCN(Cc2ccc(N3CCN(C)CC3)cc2)CC1
REMARK SMILES IDX 15 1 16 2 17 3 18 4 33 5 34 6 14 7 5 8 6 9 7 10 13 11 8 12
REMARK SMILES IDX 12 13 9 14 11 15 10 16 4 17 2 18 1 19 3 20 19 21 20 22 21 23
REMARK SMILES IDX 32 24 22 25 31 26 23 27 24 28 25 29 30 30 26 31 29 32 27 33
REMARK SMILES IDX 28 34
REMARK H PARENT
ROOT
ATOM      1  C   UNL     1      -3.474   0.864  -0.348  1.00  0.00     0.095 C 
ATOM      2  C   UNL     1      -2.343   0.600   0.651  1.00  0.00     0.041 C 
ATOM      3  C   UNL     1      -1.071   0.233  -0.107  1.00  0.00     0.087 C 
ATOM      4  N   UNL     1      -1.210  -1.024  -0.857  1.00  0.00    -0.299 NA
ATOM      5  C   UNL     1      -2.577  -1.325  -1.293  1.00  0.00     0.087 C 
ATOM      6  C   UNL     1      -3.439  -0.092  -1.555  1.00  0.00     0.041 C 
ENDROOT
BRANCH   1   7
ATOM      7  N   UNL     1      -4.778   0.952   0.300  1.00  0.00    -0.290 N 
ATOM      8  C   UNL     1      -5.479  -0.073   0.888  1.00  0.00     0.305 A 
ATOM      9  N   UNL     1      -6.649   0.321   1.335  1.00  0.00    -0.195 NA
ATOM     10  C   UNL     1      -6.681   1.672   1.111  1.00  0.00     0.095 A 
ATOM     11  C   UNL     1      -5.525   2.103   0.459  1.00  0.00     0.072 A 
ATOM     12  C   UNL     1      -7.683   2.596   1.438  1.00  0.00     0.070 A 
ATOM     13  C   UNL     1      -5.318   3.447   0.110  1.00  0.00     0.032 A 
ATOM     14  C   UNL     1      -7.482   3.931   1.095  1.00  0.00     0.125 A 
ATOM     15  C   UNL     1      -6.328   4.355   0.445  1.00  0.00     0.041 A 
ATOM     16  F   UNL     1      -8.426   4.832   1.401  1.00  0.00    -0.207 F 
BRANCH   8  17
ATOM     17  O   UNL     1      -5.083  -1.332   0.881  1.00  0.00    -0.392 OA
BRANCH  17  18
ATOM     18  C   UNL     1      -4.889  -1.813   2.139  1.00  0.00     0.310 C 
ATOM     19  C   UNL     1      -4.788  -3.309   2.081  1.00  0.00     0.139 C 
ATOM     20  O   UNL     1      -4.740  -1.171   3.172  1.00  0.00    -0.252 OA
ENDBRANCH  17  18
ENDBRANCH   8  17
ENDBRANCH   1   7
BRANCH   4  21
ATOM     21  C   UNL     1      -0.242  -1.123  -1.964  1.00  0.00     0.120 C 
BRANCH  21  22
ATOM     22  C   UNL     1       1.204  -1.026  -1.528  1.00  0.00    -0.034 A 
ATOM     23  C   UNL     1       1.720  -1.884  -0.554  1.00  0.00     0.007 A 
ATOM     24  C   UNL     1       2.064  -0.087  -2.102  1.00  0.00     0.007 A 
ATOM     25  C   UNL     1       3.058  -1.782  -0.148  1.00  0.00     0.026 A 
ATOM     26  C   UNL     1       3.402   0.003  -1.690  1.00  0.00     0.026 A 
ATOM     27  C   UNL     1       3.935  -0.833  -0.696  1.00  0.00     0.037 A 
BRANCH  27  28
ATOM     28  N   UNL     1       5.251  -0.729  -0.280  1.00  0.00    -0.369 N 
ATOM     29  C   UNL     1       5.688  -1.236   1.035  1.00  0.00     0.132 C 
ATOM     30  C   UNL     1       6.273  -0.041  -1.085  1.00  0.00     0.132 C 
ATOM     31  C   UNL     1       6.866  -0.397   1.579  1.00  0.00     0.105 C 
ATOM     32  C   UNL     1       7.697  -0.518  -0.714  1.00  0.00     0.105 C 
ATOM     33  N   UNL     1       8.065  -0.408   0.714  1.00  0.00    -0.303 NA
ATOM     34  C   UNL     1       8.897   0.762   0.975  1.00  0.00     0.105 C 
ENDBRANCH  27  28
ENDBRANCH  21  22
ENDBRANCH   4  21
TORSDOF 6
