MODEL        10USER    Run = 10USERUSER    Estimated Free Energy of Binding    =  -8.02 kcal/mol  [=(1)+(2)+(3)-(4)]USERUSER    (1) Final Intermolecular Energy     = -11.89 kcal/molUSER        vdW + Hbond + desolv Energy     = -12.05 kcal/molUSER        Electrostatic Energy            =  -0.02 kcal/molUSER        Moving Ligand-Fixed Receptor    = -12.07 kcal/molUSER        Moving Ligand-Moving Receptor   =  +0.17 kcal/molUSER    (2) Final Total Internal Energy     =  -1.90 kcal/molUSER    (3) Torsional Free Energy           =  +3.88 kcal/molUSER    (4) Unbound System's Energy         =  -1.90 kcal/molUSERUSERREMARK SMILES Cc1nc2c(n1CC1=CN=CCC1)=C[C@H](C=C1CCN(CCN3CCOCCO3)CC1)C=2REMARK SMILES IDX 21 1 20 2 17 3 18 4 31 5 19 6 30 7 16 8 15 9 2 10 3 11 6 12REMARK SMILES IDX 4 13 5 14 32 15 14 16 1 17 7 18 8 19 9 20 13 21 10 22 12 23REMARK SMILES IDX 11 24 22 25 23 26 24 27 25 28 26 29 27 30 29 32 28 33REMARK H PARENTREMARK Flexibility Score:  192.900USER                              x       y       z     vdW  Elec       q    TypeUSER                           _______ _______ _______ _____ _____    ______ ____ROOTATOM      1  C   UNL     1      41.476  44.589  20.683 -0.33 +0.01    +0.102 C  ENDROOTBRANCH   1   2ATOM      2  N   UNL     1      41.333  45.373  19.445 -0.22 -0.03    -0.301 NA ATOM      3  C   UNL     1      41.013  47.619  17.603 -0.54 +0.01    -0.071 C  ATOM      4  C   UNL     1      39.891  46.634  17.881 -0.49 -0.01    +0.046 C  ATOM      5  C   UNL     1      41.988  47.749  18.747 -0.39 -0.00    +0.046 C  ATOM      6  C   UNL     1      40.001  45.951  19.258 -0.40 -0.00    +0.089 C  ATOM      7  C   UNL     1      42.411  46.376  19.313 -0.37 +0.02    +0.089 C  BRANCH   3   8ATOM      8  C   UNL     1      41.052  48.270  16.422 -0.61 +0.00    -0.016 C  BRANCH   8   9ATOM      9  C   UNL     1      40.648  47.855  15.031 -0.54 -0.01    +0.061 C  ATOM     10  C   UNL     1      36.908  47.154  13.224 -0.50 -0.05    +0.107 A  ATOM     11  N   UNL     1      37.508  48.337  13.213 -0.73 +0.06    -0.234 NA ATOM     12  N   UNL     1      37.610  46.153  13.896 -0.19 +0.12    -0.324 N  ATOM     13  C   UNL     1      38.668  48.112  13.906 -0.40 -0.03    +0.085 A  ATOM     14  C   UNL     1      38.747  46.743  14.342 -0.40 -0.02    +0.065 A  ATOM     15  C   UNL     1      39.729  48.812  14.295 -0.41 -0.01    +0.015 C  ATOM     16  C   UNL     1      39.879  46.541  15.012 -0.51 -0.00    +0.013 C  ATOM     17  C   UNL     1      35.584  46.939  12.561 -0.50 -0.06    +0.088 C  BRANCH  12  18ATOM     18  C   UNL     1      37.183  44.797  14.133 -0.29 -0.05    +0.156 C  BRANCH  18  19ATOM     19  C   UNL     1      36.684  44.554  15.538 -0.40 +0.01    -0.032 C  ATOM     20  C   UNL     1      36.334  43.367  16.063 -0.41 -0.04    +0.111 C  ATOM     21  C   UNL     1      36.562  45.790  16.389 -0.39 -0.02    +0.040 C  ATOM     22  N   UNL     1      35.831  43.172  17.321 -0.18 +0.08    -0.269 NA ATOM     23  C   UNL     1      36.563  45.476  17.876 -0.36 -0.02    +0.052 C  ATOM     24  C   UNL     1      35.915  44.154  18.162 -0.32 -0.02    +0.084 C  ENDBRANCH  18  19ENDBRANCH  12  18ENDBRANCH   8   9ENDBRANCH   3   8ENDBRANCH   1   2BRANCH   1  25ATOM     25  C   UNL     1      41.011  45.232  22.019 -0.23 +0.01    +0.131 C  BRANCH  25  26ATOM     26  N   UNL     1      41.755  46.446  22.395 -0.16 -0.02    -0.186 NA BRANCH  26  27ATOM     27  C   UNL     1      41.066  47.199  23.457 -0.21 +0.02    +0.144 C  BRANCH  27  28ATOM     28  C   UNL     1      41.602  48.642  23.568 -0.25 +0.03    +0.178 C  BRANCH  28  29ATOM     29  O   UNL     1      42.705  48.879  22.693 -0.77 -0.09    -0.378 OA BRANCH  29  30ATOM     30  C   UNL     1      43.917  48.191  23.024 -0.25 +0.05    +0.190 CG0ATOM     31  G   UNL     1      44.065  46.758  22.516 +0.00 +0.00    +0.000 G0 ENDBRANCH  29  30ENDBRANCH  28  29ENDBRANCH  27  28ENDBRANCH  26  27BRANCH  26  32ATOM     32  O   UNL     1      42.989  45.969  23.014 -0.08 -0.06    -0.296 OA BRANCH  32  33ATOM     33  C   UNL     1      44.065  46.758  22.515 -0.21 +0.09    +0.214 CG0ATOM     34  G   UNL     1      43.917  48.190  23.027 +0.00 +0.00    +0.000 G0 ENDBRANCH  32  33ENDBRANCH  26  32ENDBRANCH  25  26ENDBRANCH   1  25TORSDOF 7TERENDMDL