REMARK SMILES COc1nc2cc(F)ccc2n1C1CCN(Cc2ccc(N3CCN(C)CC3)cc2)CC1
REMARK SMILES IDX 13 1 14 2 15 3 16 4 31 5 32 6 12 7 3 8 4 9 5 10 11 11 6 12
REMARK SMILES IDX 10 13 7 14 9 15 8 16 2 17 1 18 17 19 18 20 19 21 30 22 20 23
REMARK SMILES IDX 29 24 21 25 22 26 23 27 28 28 24 29 27 30 25 31 26 32
REMARK H PARENT
ROOT
ATOM      1  C   UNL     1      -3.573   0.609   0.054  1.00  0.00     0.095 C 
ATOM      2  C   UNL     1      -2.574  -0.132  -0.843  1.00  0.00     0.041 C 
ATOM      3  C   UNL     1      -1.186  -0.037  -0.216  1.00  0.00     0.087 C 
ATOM      4  N   UNL     1      -1.104  -0.669   1.108  1.00  0.00    -0.299 NA
ATOM      5  C   UNL     1      -2.392  -0.844   1.783  1.00  0.00     0.087 C 
ATOM      6  C   UNL     1      -3.393   0.285   1.547  1.00  0.00     0.041 C 
ENDROOT
BRANCH   1   7
ATOM      7  N   UNL     1      -4.952   0.495  -0.405  1.00  0.00    -0.291 N 
ATOM      8  C   UNL     1      -5.726   1.556  -0.814  1.00  0.00     0.297 A 
ATOM      9  N   UNL     1      -6.933   1.182  -1.167  1.00  0.00    -0.195 NA
ATOM     10  C   UNL     1      -6.954  -0.175  -0.983  1.00  0.00     0.095 A 
ATOM     11  C   UNL     1      -5.727  -0.643  -0.504  1.00  0.00     0.072 A 
ATOM     12  C   UNL     1      -8.006  -1.073  -1.209  1.00  0.00     0.070 A 
ATOM     13  C   UNL     1      -5.503  -2.001  -0.236  1.00  0.00     0.032 A 
ATOM     14  C   UNL     1      -7.785  -2.421  -0.944  1.00  0.00     0.125 A 
ATOM     15  C   UNL     1      -6.563  -2.884  -0.468  1.00  0.00     0.041 A 
ATOM     16  F   UNL     1      -8.777  -3.299  -1.154  1.00  0.00    -0.207 F 
BRANCH   8  17
ATOM     17  O   UNL     1      -5.271   2.807  -0.834  1.00  0.00    -0.468 OA
ATOM     18  C   UNL     1      -6.217   3.768  -1.289  1.00  0.00     0.282 C 
ENDBRANCH   8  17
ENDBRANCH   1   7
BRANCH   4  19
ATOM     19  C   UNL     1      -0.103  -0.021   1.973  1.00  0.00     0.120 C 
BRANCH  19  20
ATOM     20  C   UNL     1       1.303  -0.088   1.416  1.00  0.00    -0.034 A 
ATOM     21  C   UNL     1       1.988   1.073   1.047  1.00  0.00     0.007 A 
ATOM     22  C   UNL     1       1.942  -1.319   1.244  1.00  0.00     0.007 A 
ATOM     23  C   UNL     1       3.285   1.001   0.519  1.00  0.00     0.026 A 
ATOM     24  C   UNL     1       3.239  -1.380   0.719  1.00  0.00     0.026 A 
ATOM     25  C   UNL     1       3.947  -0.224   0.353  1.00  0.00     0.037 A 
BRANCH  25  26
ATOM     26  N   UNL     1       5.238  -0.341  -0.187  1.00  0.00    -0.369 N 
ATOM     27  C   UNL     1       5.811   0.826  -0.886  1.00  0.00     0.132 C 
ATOM     28  C   UNL     1       6.208  -1.027   0.699  1.00  0.00     0.132 C 
ATOM     29  C   UNL     1       7.126   0.446  -1.610  1.00  0.00     0.105 C 
ATOM     30  C   UNL     1       7.523  -1.344  -0.058  1.00  0.00     0.105 C 
ATOM     31  N   UNL     1       8.151  -0.204  -0.763  1.00  0.00    -0.303 NA
ATOM     32  C   UNL     1       8.759   0.739   0.172  1.00  0.00     0.105 C 
ENDBRANCH  25  26
ENDBRANCH  19  20
ENDBRANCH   4  19
TORSDOF 5
