MODEL        1USER    Run = 1USERUSER    Estimated Free Energy of Binding    = -11.13 kcal/mol  [=(1)+(2)+(3)-(4)]USERUSER    (1) Final Intermolecular Energy     = -12.62 kcal/molUSER        vdW + Hbond + desolv Energy     = -12.49 kcal/molUSER        Electrostatic Energy            =  -0.13 kcal/molUSER        Moving Ligand-Fixed Receptor    = -12.62 kcal/molUSER        Moving Ligand-Moving Receptor   =  +0.00 kcal/molUSER    (2) Final Total Internal Energy     =  -0.27 kcal/molUSER    (3) Torsional Free Energy           =  +1.49 kcal/molUSER    (4) Unbound System's Energy         =  -0.27 kcal/molUSERUSERREMARK SMILES COc1nc2cc(F)ccc2n1C1CCN(Cc2ccc(N3CCN(C)CC3)cc2)CC1REMARK SMILES IDX 13 1 14 2 15 3 16 4 31 5 32 6 12 7 3 8 4 9 5 10 11 11 6 12REMARK SMILES IDX 10 13 7 14 9 15 8 16 2 17 1 18 17 19 18 20 19 21 30 22 20 23REMARK SMILES IDX 29 24 21 25 22 26 23 27 28 28 24 29 27 30 25 31 26 32REMARK H PARENTUSER                              x       y       z     vdW  Elec       q    TypeUSER                           _______ _______ _______ _____ _____    ______ ____ROOTATOM      1  C   UNL     1      38.902  47.378  15.485 -0.47 -0.03    +0.095 C  ATOM      2  C   UNL     1      39.313  46.875  14.096 -0.31 -0.01    +0.041 C  ATOM      3  C   UNL     1      38.053  46.588  13.285 -0.36 -0.02    +0.087 C  ATOM      4  N   UNL     1      37.221  47.779  13.066 -0.79 +0.10    -0.299 NA ATOM      5  C   UNL     1      37.461  48.874  14.008 -0.45 -0.05    +0.087 C  ATOM      6  C   UNL     1      37.779  48.428  15.434 -0.51 -0.03    +0.041 C  ENDROOTBRANCH   1   7ATOM      7  N   UNL     1      40.036  47.777  16.310 -0.29 +0.07    -0.291 N  ATOM      8  C   UNL     1      40.806  48.895  16.087 -0.34 -0.05    +0.297 A  ATOM      9  N   UNL     1      41.769  49.017  16.969 -0.84 -0.03    -0.195 NA ATOM     10  C   UNL     1      41.628  47.940  17.803 -0.37 -0.00    +0.095 A  ATOM     11  C   UNL     1      40.550  47.137  17.420 -0.46 -0.01    +0.072 A  ATOM     12  C   UNL     1      42.402  47.589  18.918 -0.44 +0.00    +0.070 A  ATOM     13  C   UNL     1      40.205  45.972  18.121 -0.45 -0.00    +0.032 A  ATOM     14  C   UNL     1      42.060  46.434  19.614 -0.36 +0.02    +0.125 A  ATOM     15  C   UNL     1      40.987  45.637  19.231 -0.42 +0.00    +0.041 A  ATOM     16  F   UNL     1      42.785  46.079  20.685 -0.08 -0.07    -0.207 F  BRANCH   8  17ATOM     17  O   UNL     1      40.573  49.733  15.080 -0.26 +0.19    -0.468 OA ATOM     18  C   UNL     1      41.715  50.022  14.281 -0.50 -0.06    +0.282 C  ENDBRANCH   8  17ENDBRANCH   1   7BRANCH   4  19ATOM     19  C   UNL     1      35.791  47.446  12.948 -0.53 -0.07    +0.120 C  BRANCH  19  20ATOM     20  C   UNL     1      35.276  46.603  14.095 -0.39 +0.03    -0.034 A  ATOM     21  C   UNL     1      33.924  46.263  14.190 -0.16 -0.01    +0.007 A  ATOM     22  C   UNL     1      36.144  46.159  15.097 -0.38 -0.00    +0.007 A  ATOM     23  C   UNL     1      33.453  45.494  15.263 -0.28 -0.02    +0.026 A  ATOM     24  C   UNL     1      35.664  45.388  16.163 -0.32 -0.02    +0.026 A  ATOM     25  C   UNL     1      34.311  45.027  16.269 -0.29 -0.03    +0.037 A  BRANCH  25  26ATOM     26  N   UNL     1      33.878  44.269  17.369 -0.05 +0.15    -0.369 N  ATOM     27  C   UNL     1      34.120  42.813  17.352 -0.34 -0.05    +0.132 C  ATOM     28  C   UNL     1      34.154  44.893  18.685 -0.38 -0.05    +0.132 C  ATOM     29  C   UNL     1      33.377  42.116  18.519 -0.39 -0.02    +0.105 C  ATOM     30  C   UNL     1      33.427  44.133  19.823 -0.37 -0.01    +0.105 C  ATOM     31  N   UNL     1      33.649  42.670  19.864 -0.58 -0.04    -0.303 NA ATOM     32  C   UNL     1      34.996  42.342  20.323 -0.32 +0.00    +0.105 C  ENDBRANCH  25  26ENDBRANCH  19  20ENDBRANCH   4  19TORSDOF 5TERENDMDL