MODEL        4USER    Run = 4USERUSER    Estimated Free Energy of Binding    = -10.29 kcal/mol  [=(1)+(2)+(3)-(4)]USERUSER    (1) Final Intermolecular Energy     = -12.08 kcal/molUSER        vdW + Hbond + desolv Energy     = -12.05 kcal/molUSER        Electrostatic Energy            =  -0.03 kcal/molUSER        Moving Ligand-Fixed Receptor    = -12.08 kcal/molUSER        Moving Ligand-Moving Receptor   =  +0.00 kcal/molUSER    (2) Final Total Internal Energy     =  -1.19 kcal/molUSER    (3) Torsional Free Energy           =  +1.79 kcal/molUSER    (4) Unbound System's Energy         =  -1.19 kcal/molUSERUSERREMARK SMILES CC(=O)Oc1nc2cc(F)ccc2n1C1CCN(Cc2ccc(N3CCN(C)CC3)cc2)CC1REMARK SMILES IDX 15 1 16 2 17 3 18 4 33 5 34 6 14 7 5 8 6 9 7 10 13 11 8 12REMARK SMILES IDX 12 13 9 14 11 15 10 16 4 17 2 18 1 19 3 20 19 21 20 22 21 23REMARK SMILES IDX 32 24 22 25 31 26 23 27 24 28 25 29 30 30 26 31 29 32 27 33REMARK SMILES IDX 28 34REMARK H PARENTUSER                              x       y       z     vdW  Elec       q    TypeUSER                           _______ _______ _______ _____ _____    ______ ____ROOTATOM      1  C   UNL     1      39.524  46.905  17.576 -0.42 -0.02    +0.095 C  ATOM      2  C   UNL     1      39.304  45.417  17.865 -0.44 -0.01    +0.041 C  ATOM      3  C   UNL     1      39.881  45.075  19.235 -0.42 -0.00    +0.087 C  ATOM      4  N   UNL     1      41.339  45.257  19.289 -0.22 -0.03    -0.299 NA ATOM      5  C   UNL     1      41.859  46.281  18.379 -0.46 +0.00    +0.087 C  ATOM      6  C   UNL     1      40.882  47.418  18.088 -0.49 -0.00    +0.041 C  ENDROOTBRANCH   1   7ATOM      7  N   UNL     1      39.247  47.247  16.185 -0.25 +0.09    -0.290 N  ATOM      8  C   UNL     1      40.121  47.805  15.282 -0.28 -0.07    +0.305 A  ATOM      9  N   UNL     1      39.550  48.042  14.124 -0.29 +0.05    -0.195 NA ATOM     10  C   UNL     1      38.280  47.541  14.242 -0.43 -0.04    +0.095 A  ATOM     11  C   UNL     1      38.053  47.038  15.523 -0.37 -0.03    +0.072 A  ATOM     12  C   UNL     1      37.259  47.492  13.282 -0.52 -0.03    +0.070 A  ATOM     13  C   UNL     1      36.824  46.474  15.900 -0.36 -0.02    +0.032 A  ATOM     14  C   UNL     1      36.038  46.933  13.651 -0.42 -0.08    +0.125 A  ATOM     15  C   UNL     1      35.817  46.433  14.930 -0.35 -0.03    +0.041 A  ATOM     16  F   UNL     1      35.049  46.873  12.748 -0.15 +0.16    -0.207 F  BRANCH   8  17ATOM     17  O   UNL     1      41.348  48.184  15.586 -0.33 +0.02    -0.392 OA BRANCH  17  18ATOM     18  C   UNL     1      41.491  49.536  15.533 -0.32 -0.02    +0.310 C  ATOM     19  C   UNL     1      41.688  49.952  14.105 -0.62 -0.03    +0.139 C  ATOM     20  O   UNL     1      41.408  50.336  16.458 -0.92 +0.04    -0.252 OA ENDBRANCH  17  18ENDBRANCH   8  17ENDBRANCH   1   7BRANCH   4  21ATOM     21  C   UNL     1      41.828  45.443  20.667 -0.31 +0.02    +0.120 C  BRANCH  21  22ATOM     22  C   UNL     1      40.891  44.911  21.730 -0.26 -0.00    -0.034 A  ATOM     23  C   UNL     1      39.970  45.750  22.362 -0.28 +0.00    +0.007 A  ATOM     24  C   UNL     1      40.910  43.562  22.092 -0.30 +0.00    +0.007 A  ATOM     25  C   UNL     1      39.112  45.253  23.352 -0.26 +0.00    +0.026 A  ATOM     26  C   UNL     1      40.043  43.075  23.082 -0.25 +0.00    +0.026 A  ATOM     27  C   UNL     1      39.128  43.906  23.747 -0.21 +0.00    +0.037 A  BRANCH  27  28ATOM     28  N   UNL     1      38.287  43.425  24.736 -0.06 -0.01    -0.369 N  ATOM     29  C   UNL     1      38.803  42.650  25.880 -0.22 -0.00    +0.132 C  ATOM     30  C   UNL     1      36.826  43.588  24.666 -0.31 +0.01    +0.132 C  ATOM     31  C   UNL     1      37.747  41.636  26.374 -0.35 -0.01    +0.105 C  ATOM     32  C   UNL     1      36.180  43.484  26.068 -0.39 -0.01    +0.105 C  ATOM     33  N   UNL     1      36.484  42.254  26.831 -0.21 +0.06    -0.303 NA ATOM     34  C   UNL     1      35.390  41.290  26.772 -0.58 -0.04    +0.105 C  ENDBRANCH  27  28ENDBRANCH  21  22ENDBRANCH   4  21TORSDOF 6TERENDMDL