REMARK SMILES COc1nc2cc(F)ccc2n1C1CCN(Cc2ccc(N3CCN(C)CC3)cc2Cl)CC1
REMARK SMILES IDX 13 1 14 2 15 3 16 4 32 5 33 6 12 7 3 8 4 9 5 10 11 11 6 12
REMARK SMILES IDX 10 13 7 14 9 15 8 16 2 17 1 18 17 19 18 20 19 21 30 22 20 23
REMARK SMILES IDX 29 24 21 25 31 26 22 27 23 28 28 29 24 30 27 31 25 32 26 33
REMARK H PARENT
ROOT
ATOM      1  C   UNL     1      -3.562   0.397  -0.731  1.00  0.00     0.095 C 
ATOM      2  C   UNL     1      -3.547   1.901  -0.402  1.00  0.00     0.041 C 
ATOM      3  C   UNL     1      -2.639   2.309   0.761  1.00  0.00     0.087 C 
ATOM      4  N   UNL     1      -1.328   1.654   0.763  1.00  0.00    -0.299 NA
ATOM      5  C   UNL     1      -1.485   0.199   0.741  1.00  0.00     0.087 C 
ATOM      6  C   UNL     1      -2.222  -0.311  -0.493  1.00  0.00     0.041 C 
ENDROOT
BRANCH   1   7
ATOM      7  N   UNL     1      -4.691  -0.366  -0.201  1.00  0.00    -0.291 N 
ATOM      8  C   UNL     1      -5.177  -0.383   1.082  1.00  0.00     0.297 A 
ATOM      9  N   UNL     1      -6.197  -1.198   1.216  1.00  0.00    -0.195 NA
ATOM     10  C   UNL     1      -6.378  -1.760  -0.018  1.00  0.00     0.095 A 
ATOM     11  C   UNL     1      -5.447  -1.269  -0.932  1.00  0.00     0.072 A 
ATOM     12  C   UNL     1      -7.322  -2.713  -0.423  1.00  0.00     0.070 A 
ATOM     13  C   UNL     1      -5.407  -1.703  -2.266  1.00  0.00     0.032 A 
ATOM     14  C   UNL     1      -7.292  -3.142  -1.748  1.00  0.00     0.125 A 
ATOM     15  C   UNL     1      -6.358  -2.654  -2.656  1.00  0.00     0.041 A 
ATOM     16  F   UNL     1      -8.182  -4.057  -2.158  1.00  0.00    -0.207 F 
BRANCH   8  17
ATOM     17  O   UNL     1      -4.655   0.346   2.060  1.00  0.00    -0.468 OA
ATOM     18  C   UNL     1      -5.274   0.168   3.327  1.00  0.00     0.282 C 
ENDBRANCH   8  17
ENDBRANCH   1   7
BRANCH   4  19
ATOM     19  C   UNL     1      -0.427   2.209  -0.259  1.00  0.00     0.121 C 
BRANCH  19  20
ATOM     20  C   UNL     1       1.004   1.728  -0.147  1.00  0.00    -0.015 A 
ATOM     21  C   UNL     1       1.490   0.805  -1.082  1.00  0.00     0.009 A 
ATOM     22  C   UNL     1       1.881   2.157   0.855  1.00  0.00     0.047 A 
ATOM     23  C   UNL     1       2.803   0.323  -1.007  1.00  0.00     0.026 A 
ATOM     24  C   UNL     1       3.196   1.665   0.919  1.00  0.00     0.046 A 
ATOM     25  C   UNL     1       3.692   0.733  -0.005  1.00  0.00     0.038 A 
ATOM     26  Cl  UNL     1       1.406   3.316   2.049  1.00  0.00    -0.084 Cl
BRANCH  25  27
ATOM     27  N   UNL     1       4.988   0.251   0.056  1.00  0.00    -0.369 N 
ATOM     28  C   UNL     1       5.357  -1.035  -0.564  1.00  0.00     0.132 C 
ATOM     29  C   UNL     1       6.035   0.912   0.855  1.00  0.00     0.132 C 
ATOM     30  C   UNL     1       6.545  -1.695   0.172  1.00  0.00     0.105 C 
ATOM     31  C   UNL     1       7.437   0.574   0.294  1.00  0.00     0.105 C 
ATOM     32  N   UNL     1       7.765  -0.870   0.283  1.00  0.00    -0.303 NA
ATOM     33  C   UNL     1       8.722  -1.169  -0.778  1.00  0.00     0.105 C 
ENDBRANCH  25  27
ENDBRANCH  19  20
ENDBRANCH   4  19
TORSDOF 5
