REMARK SMILES CC(=O)N1CCN(CCN2CCC(=C[C@@H]3C=c4nc(C)n(CC5=CN=CCC5)c4=C3)CC2)CC1
REMARK SMILES IDX 10 1 11 2 12 3 13 4 31 5 32 6 9 7 8 8 7 9 2 10 4 11 5 12
REMARK SMILES IDX 34 13 6 14 33 15 1 16 3 17 14 18 15 19 16 20 30 21 17 22
REMARK SMILES IDX 29 23 18 24 21 25 19 26 20 27 22 28 23 29 24 30 28 31 25 32
REMARK SMILES IDX 27 33 26 34
REMARK H PARENT
ROOT
ATOM      1  N   UNL     1       2.577  -0.778  -0.390  1.00  0.00    -0.301 NA
ATOM      2  C   UNL     1       1.969   0.436  -0.954  1.00  0.00     0.089 C 
ATOM      3  C   UNL     1       0.604   0.810  -0.350  1.00  0.00     0.046 C 
ATOM      4  C   UNL     1      -0.378  -0.343  -0.394  1.00  0.00    -0.071 C 
ATOM      5  C   UNL     1       0.233  -1.656  -0.834  1.00  0.00     0.046 C 
ATOM      6  C   UNL     1       1.593  -1.855  -0.145  1.00  0.00     0.089 C 
ENDROOT
BRANCH   1   7
ATOM      7  C   UNL     1       3.386  -0.538   0.819  1.00  0.00     0.100 C 
BRANCH   7   8
ATOM      8  C   UNL     1       4.582   0.451   0.695  1.00  0.00     0.100 C 
BRANCH   8   9
ATOM      9  N   UNL     1       5.436   0.313  -0.498  1.00  0.00    -0.299 NA
ATOM     10  C   UNL     1       9.654  -0.767  -0.855  1.00  0.00     0.219 C 
ATOM     11  N   UNL     1       8.337  -0.351  -0.770  1.00  0.00    -0.340 N 
ATOM     12  C   UNL     1       7.886   0.849  -0.059  1.00  0.00     0.135 C 
ATOM     13  C   UNL     1       7.290  -1.140  -1.424  1.00  0.00     0.135 C 
ATOM     14  C   UNL     1       6.503   1.331  -0.536  1.00  0.00     0.106 C 
ATOM     15  C   UNL     1       5.962  -1.061  -0.649  1.00  0.00     0.106 C 
ATOM     16  C   UNL     1      10.677   0.048  -0.105  1.00  0.00     0.114 C 
ATOM     17  O   UNL     1      10.002  -1.749  -1.510  1.00  0.00    -0.275 OA
ENDBRANCH   8   9
ENDBRANCH   7   8
ENDBRANCH   1   7
BRANCH   4  18
ATOM     18  C   UNL     1      -1.668  -0.249  -0.017  1.00  0.00    -0.016 C 
BRANCH  18  19
ATOM     19  C   UNL     1      -2.361   0.987   0.492  1.00  0.00     0.061 C 
ATOM     20  C   UNL     1      -2.776   0.837   1.945  1.00  0.00     0.015 C 
ATOM     21  C   UNL     1      -3.688   1.224  -0.221  1.00  0.00     0.013 C 
ATOM     22  C   UNL     1      -4.095   0.987   1.998  1.00  0.00     0.085 A 
ATOM     23  C   UNL     1      -4.655   1.220   0.695  1.00  0.00     0.065 A 
ATOM     24  N   UNL     1      -5.070   0.984   2.958  1.00  0.00    -0.234 NA
ATOM     25  N   UNL     1      -5.991   1.351   0.892  1.00  0.00    -0.324 N 
ATOM     26  C   UNL     1      -6.181   1.209   2.270  1.00  0.00     0.107 A 
ATOM     27  C   UNL     1      -7.514   1.272   2.948  1.00  0.00     0.088 C 
BRANCH  25  28
ATOM     28  C   UNL     1      -6.998   1.595  -0.111  1.00  0.00     0.156 C 
BRANCH  28  29
ATOM     29  C   UNL     1      -7.847   0.368  -0.322  1.00  0.00    -0.032 C 
ATOM     30  C   UNL     1      -9.181   0.390  -0.172  1.00  0.00     0.111 C 
ATOM     31  C   UNL     1      -7.157  -0.909  -0.706  1.00  0.00     0.040 C 
ATOM     32  N   UNL     1     -10.009  -0.690  -0.297  1.00  0.00    -0.269 NA
ATOM     33  C   UNL     1      -8.109  -1.921  -1.322  1.00  0.00     0.052 C 
ATOM     34  C   UNL     1      -9.511  -1.774  -0.802  1.00  0.00     0.084 C 
ENDBRANCH  28  29
ENDBRANCH  25  28
ENDBRANCH  18  19
ENDBRANCH   4  18
TORSDOF 7
