REMARK SMILES COc1ccc(Cn2c(C)nc3c2=C[C@H](C=C2CCN(CCN4CCOCCO4)CC2)C=3)cc1
REMARK SMILES IDX 17 1 18 2 19 3 20 4 30 5 31 6 16 7 15 8 8 9 9 10 13 11 11 12
REMARK SMILES IDX 12 13 14 14 32 15 10 16 7 17 6 18 3 19 4 20 34 21 5 22 33 23
REMARK SMILES IDX 2 24 1 25 21 26 22 27 23 28 24 29 25 30 26 31 27 32 29 34
REMARK SMILES IDX 28 35
REMARK H PARENT
REMARK Flexibility Score:  107.900
ROOT
ATOM      1  C   UNL     1       1.022  -0.340   0.356  1.00  0.00    -0.071 C 
ATOM      2  C   UNL     1       1.331   0.476  -0.881  1.00  0.00     0.046 C 
ATOM      3  C   UNL     1       2.836   0.520  -1.218  1.00  0.00     0.089 C 
ATOM      4  N   UNL     1       3.631   0.779  -0.018  1.00  0.00    -0.301 NA
ATOM      5  C   UNL     1       3.474  -0.252   1.017  1.00  0.00     0.089 C 
ATOM      6  C   UNL     1       2.200  -1.113   0.898  1.00  0.00     0.046 C 
ENDROOT
BRANCH   1   7
ATOM      7  C   UNL     1      -0.179  -0.351   0.971  1.00  0.00    -0.016 C 
BRANCH   7   8
ATOM      8  C   UNL     1      -1.419   0.375   0.523  1.00  0.00     0.061 C 
ATOM      9  N   UNL     1      -4.773  -0.167   1.909  1.00  0.00    -0.324 N 
ATOM     10  C   UNL     1      -4.961   0.937   2.744  1.00  0.00     0.107 A 
ATOM     11  C   UNL     1      -3.538  -0.009   1.372  1.00  0.00     0.065 A 
ATOM     12  N   UNL     1      -3.939   1.782   2.777  1.00  0.00    -0.234 NA
ATOM     13  C   UNL     1      -3.027   1.214   1.930  1.00  0.00     0.085 A 
ATOM     14  C   UNL     1      -2.638  -0.543   0.547  1.00  0.00     0.013 C 
ATOM     15  C   UNL     1      -1.805   1.484   1.483  1.00  0.00     0.015 C 
ATOM     16  C   UNL     1      -6.203   1.191   3.538  1.00  0.00     0.088 C 
BRANCH   9  17
ATOM     17  C   UNL     1      -5.680  -1.268   1.698  1.00  0.00     0.159 C 
BRANCH  17  18
ATOM     18  C   UNL     1      -6.798  -0.906   0.746  1.00  0.00    -0.028 A 
ATOM     19  C   UNL     1      -8.882  -0.263  -1.041  1.00  0.00     0.118 A 
ATOM     20  C   UNL     1      -9.148  -0.479   0.313  1.00  0.00     0.047 A 
ATOM     21  C   UNL     1      -7.568  -0.358  -1.501  1.00  0.00     0.047 A 
ATOM     22  C   UNL     1      -8.119  -0.803   1.200  1.00  0.00     0.009 A 
ATOM     23  C   UNL     1      -6.534  -0.678  -0.614  1.00  0.00     0.009 A 
BRANCH  19  24
ATOM     24  O   UNL     1      -9.978   0.043  -1.800  1.00  0.00    -0.497 OA
ATOM     25  C   UNL     1      -9.792   0.050  -3.212  1.00  0.00     0.278 C 
ENDBRANCH  19  24
ENDBRANCH  17  18
ENDBRANCH   9  17
ENDBRANCH   7   8
ENDBRANCH   1   7
BRANCH   4  26
ATOM     26  C   UNL     1       5.027   1.153  -0.278  1.00  0.00     0.102 C 
BRANCH  26  27
ATOM     27  C   UNL     1       5.880   0.145  -1.087  1.00  0.00     0.131 C 
BRANCH  27  28
ATOM     28  N   UNL     1       7.251   0.614  -1.340  1.00  0.00    -0.186 NA
BRANCH  28  29
ATOM     29  C   UNL     1       8.076   0.808  -0.137  1.00  0.00     0.144 C 
BRANCH  29  30
ATOM     30  C   UNL     1       9.568   1.011  -0.433  1.00  0.00     0.178 C 
BRANCH  30  31
ATOM     31  O   UNL     1      10.272  -0.235  -0.435  1.00  0.00    -0.378 OA
BRANCH  31  32
ATOM     32  C   UNL     1      10.032  -1.014  -1.610  1.00  0.00     0.190 CG0
ATOM     33  G   UNL     1       8.566  -1.396  -1.784  1.00  0.00     0.000 G0
ENDBRANCH  31  32
ENDBRANCH  30  31
ENDBRANCH  29  30
ENDBRANCH  28  29
BRANCH  28  34
ATOM     34  O   UNL     1       7.842  -0.286  -2.329  1.00  0.00    -0.296 OA
BRANCH  34  35
ATOM     35  C   UNL     1       8.566  -1.396  -1.784  1.00  0.00     0.214 CG0
ATOM     36  G   UNL     1      10.032  -1.014  -1.610  1.00  0.00     0.000 G0
ENDBRANCH  34  35
ENDBRANCH  28  34
ENDBRANCH  27  28
ENDBRANCH  26  27
ENDBRANCH   4  26
TORSDOF 8
