MODEL        6USER    Run = 6USERUSER    Estimated Free Energy of Binding    =  -5.88 kcal/mol  [=(1)+(2)+(3)-(4)]USERUSER    (1) Final Intermolecular Energy     = -10.06 kcal/molUSER        vdW + Hbond + desolv Energy     = -10.57 kcal/molUSER        Electrostatic Energy            =  -0.04 kcal/molUSER        Moving Ligand-Fixed Receptor    = -10.61 kcal/molUSER        Moving Ligand-Moving Receptor   =  +0.55 kcal/molUSER    (2) Final Total Internal Energy     =  -2.16 kcal/molUSER    (3) Torsional Free Energy           =  +4.18 kcal/molUSER    (4) Unbound System's Energy         =  -2.16 kcal/molUSERUSERREMARK SMILES COc1ccc(Cn2c(C)nc3c2=C[C@H](C=C2CCN(CCN4CCOCCO4)CC2)C=3)cc1REMARK SMILES IDX 17 1 18 2 19 3 20 4 30 5 31 6 16 7 15 8 8 9 9 10 13 11 11 12REMARK SMILES IDX 12 13 14 14 32 15 10 16 7 17 6 18 3 19 4 20 34 21 5 22 33 23REMARK SMILES IDX 2 24 1 25 21 26 22 27 23 28 24 29 25 30 26 31 27 32 29 34REMARK SMILES IDX 28 35REMARK H PARENTREMARK Flexibility Score:  107.900USER                              x       y       z     vdW  Elec       q    TypeUSER                           _______ _______ _______ _____ _____    ______ ____ROOTATOM      1  C   UNL     1      40.610  45.869  17.960 -0.49 +0.00    -0.071 C  ATOM      2  C   UNL     1      39.303  45.454  17.319 -0.38 -0.01    +0.046 C  ATOM      3  C   UNL     1      38.871  46.383  16.165 -0.41 -0.03    +0.089 C  ATOM      4  N   UNL     1      39.026  47.788  16.543 -0.21 +0.13    -0.301 NA ATOM      5  C   UNL     1      40.412  48.154  16.865 -0.47 -0.02    +0.089 C  ATOM      6  C   UNL     1      41.335  46.973  17.229 -0.12 -0.01    +0.046 C  ENDROOTBRANCH   1   7ATOM      7  C   UNL     1      41.082  45.350  19.113 -0.49 -0.00    -0.016 C  BRANCH   7   8ATOM      8  C   UNL     1      40.522  45.581  20.491 -0.37 +0.00    +0.061 C  ATOM      9  N   UNL     1      37.607  43.840  21.881 -0.18 -0.02    -0.324 N  ATOM     10  C   UNL     1      38.172  42.901  22.747 -0.28 +0.01    +0.107 A  ATOM     11  C   UNL     1      38.654  44.511  21.340 -0.31 +0.00    +0.065 A  ATOM     12  N   UNL     1      39.498  42.926  22.796 -0.16 -0.02    -0.234 NA ATOM     13  C   UNL     1      39.831  43.923  21.920 -0.21 +0.00    +0.085 A  ATOM     14  C   UNL     1      38.999  45.482  20.495 -0.37 +0.00    +0.013 C  ATOM     15  C   UNL     1      40.940  44.494  21.462 -0.34 +0.00    +0.015 C  ATOM     16  C   UNL     1      37.384  41.942  23.581 -0.35 +0.01    +0.088 C  BRANCH   9  17ATOM     17  C   UNL     1      36.207  44.027  21.587 +0.13 +0.02    +0.159 C  BRANCH  17  18ATOM     18  C   UNL     1      35.908  43.837  20.117 -0.40 +0.00    -0.028 A  ATOM     19  C   UNL     1      35.380  43.494  17.368 -0.26 -0.04    +0.118 A  ATOM     20  C   UNL     1      35.694  42.397  18.174 -0.14 -0.01    +0.047 A  ATOM     21  C   UNL     1      35.319  44.765  17.941 -0.30 -0.02    +0.047 A  ATOM     22  C   UNL     1      35.962  42.564  19.535 -0.38 -0.00    +0.009 A  ATOM     23  C   UNL     1      35.582  44.935  19.305 -0.21 -0.00    +0.009 A  BRANCH  19  24ATOM     24  O   UNL     1      35.145  43.193  16.055 -0.15 +0.20    -0.497 OA ATOM     25  C   UNL     1      36.175  42.490  15.368 +0.09 -0.09    +0.278 C  ENDBRANCH  19  24ENDBRANCH  17  18ENDBRANCH   9  17ENDBRANCH   7   8ENDBRANCH   1   7BRANCH   4  26ATOM     26  C   UNL     1      38.352  48.739  15.650 -0.37 -0.07    +0.102 C  BRANCH  26  27ATOM     27  C   UNL     1      36.951  48.335  15.129 -0.38 -0.13    +0.131 C  BRANCH  27  28ATOM     28  N   UNL     1      36.997  47.342  14.045 -0.35 +0.10    -0.186 NA BRANCH  28  29ATOM     29  C   UNL     1      36.065  46.212  14.194 -0.39 -0.09    +0.144 C  BRANCH  29  30ATOM     30  C   UNL     1      36.629  44.873  13.700 -0.32 -0.07    +0.178 C  BRANCH  30  31ATOM     31  O   UNL     1      37.110  44.975  12.356 -0.29 +0.12    -0.378 OA BRANCH  31  32ATOM     32  C   UNL     1      36.457  46.000  11.602 -0.43 -0.08    +0.190 CG0ATOM     33  G   UNL     1      37.212  47.326  11.619 +0.00 +0.00    +0.000 G0 ENDBRANCH  31  32ENDBRANCH  30  31ENDBRANCH  29  30ENDBRANCH  28  29BRANCH  28  34ATOM     34  O   UNL     1      36.856  48.068  12.785 -0.95 +0.10    -0.296 OA BRANCH  34  35ATOM     35  C   UNL     1      37.211  47.325  11.612 -0.30 -0.05    +0.214 CG0ATOM     36  G   UNL     1      36.455  46.000  11.599 +0.00 +0.00    +0.000 G0 ENDBRANCH  34  35ENDBRANCH  28  34ENDBRANCH  27  28ENDBRANCH  26  27ENDBRANCH   4  26TORSDOF 8TERENDMDL