REMARK SMILES Cc1nc2c(n1CC1=CN=CCC1)=C[C@H](C=C1CCN(CCN3CCOCCO3)CC1)C=2
REMARK SMILES IDX 21 1 20 2 17 3 18 4 31 5 19 6 30 7 16 8 15 9 2 10 3 11 6 12
REMARK SMILES IDX 4 13 5 14 32 15 14 16 1 17 7 18 8 19 9 20 13 21 10 22 12 23
REMARK SMILES IDX 11 24 22 25 23 26 24 27 25 28 26 29 27 30 29 32 28 33
REMARK H PARENT
REMARK Flexibility Score:  192.900
ROOT
ATOM      1  C   UNL     1       3.771   1.043   1.919  1.00  0.00     0.102 C 
ENDROOT
BRANCH   1   2
ATOM      2  N   UNL     1       2.913   0.289   0.990  1.00  0.00    -0.301 NA
ATOM      3  C   UNL     1       0.611  -1.095  -0.160  1.00  0.00    -0.071 C 
ATOM      4  C   UNL     1       1.834  -1.841   0.345  1.00  0.00     0.046 C 
ATOM      5  C   UNL     1       0.394   0.229   0.529  1.00  0.00     0.046 C 
ATOM      6  C   UNL     1       2.614  -1.075   1.431  1.00  0.00     0.089 C 
ATOM      7  C   UNL     1       1.697   1.051   0.638  1.00  0.00     0.089 C 
BRANCH   3   8
ATOM      8  C   UNL     1      -0.150  -1.642  -1.131  1.00  0.00    -0.016 C 
BRANCH   8   9
ATOM      9  C   UNL     1      -1.411  -1.170  -1.807  1.00  0.00     0.061 C 
ATOM     10  C   UNL     1      -4.093   1.974  -0.993  1.00  0.00     0.107 A 
ATOM     11  N   UNL     1      -3.045   2.105  -1.795  1.00  0.00    -0.234 NA
ATOM     12  N   UNL     1      -4.235   0.708  -0.424  1.00  0.00    -0.324 N 
ATOM     13  C   UNL     1      -2.464   0.865  -1.764  1.00  0.00     0.085 A 
ATOM     14  C   UNL     1      -3.200  -0.025  -0.906  1.00  0.00     0.065 A 
ATOM     15  C   UNL     1      -1.403   0.265  -2.296  1.00  0.00     0.015 C 
ATOM     16  C   UNL     1      -2.623  -1.224  -0.887  1.00  0.00     0.013 C 
ATOM     17  C   UNL     1      -5.032   3.111  -0.736  1.00  0.00     0.088 C 
BRANCH  12  18
ATOM     18  C   UNL     1      -5.226   0.288   0.534  1.00  0.00     0.156 C 
BRANCH  18  19
ATOM     19  C   UNL     1      -6.457  -0.324  -0.093  1.00  0.00    -0.032 C 
ATOM     20  C   UNL     1      -6.697  -0.454  -1.409  1.00  0.00     0.111 C 
ATOM     21  C   UNL     1      -7.495  -0.802   0.887  1.00  0.00     0.040 C 
ATOM     22  N   UNL     1      -7.843  -0.961  -1.961  1.00  0.00    -0.269 NA
ATOM     23  C   UNL     1      -8.434  -1.834   0.284  1.00  0.00     0.052 C 
ATOM     24  C   UNL     1      -8.664  -1.585  -1.177  1.00  0.00     0.084 C 
ENDBRANCH  18  19
ENDBRANCH  12  18
ENDBRANCH   8   9
ENDBRANCH   3   8
ENDBRANCH   1   2
BRANCH   1  25
ATOM     25  C   UNL     1       5.182   0.476   2.241  1.00  0.00     0.131 C 
BRANCH  25  26
ATOM     26  N   UNL     1       6.099   0.451   1.089  1.00  0.00    -0.186 NA
BRANCH  26  27
ATOM     27  C   UNL     1       7.470   0.095   1.493  1.00  0.00     0.144 C 
BRANCH  27  28
ATOM     28  C   UNL     1       8.434   0.096   0.288  1.00  0.00     0.178 C 
BRANCH  28  29
ATOM     29  O   UNL     1       8.304  -1.080  -0.511  1.00  0.00    -0.378 OA
BRANCH  29  30
ATOM     30  C   UNL     1       7.259  -1.051  -1.490  1.00  0.00     0.190 CG0
ATOM     31  G   UNL     1       5.956  -0.356  -1.097  1.00  0.00     0.000 G0
ENDBRANCH  29  30
ENDBRANCH  28  29
ENDBRANCH  27  28
ENDBRANCH  26  27
BRANCH  26  32
ATOM     32  O   UNL     1       5.651  -0.666   0.260  1.00  0.00    -0.296 OA
BRANCH  32  33
ATOM     33  C   UNL     1       5.956  -0.356  -1.097  1.00  0.00     0.214 CG0
ATOM     34  G   UNL     1       7.259  -1.051  -1.490  1.00  0.00     0.000 G0
ENDBRANCH  32  33
ENDBRANCH  26  32
ENDBRANCH  25  26
ENDBRANCH   1  25
TORSDOF 7
