MODEL        6USER    Run = 6USERUSER    Estimated Free Energy of Binding    = -10.59 kcal/mol  [=(1)+(2)+(3)-(4)]USERUSER    (1) Final Intermolecular Energy     = -12.09 kcal/molUSER        vdW + Hbond + desolv Energy     = -12.03 kcal/molUSER        Electrostatic Energy            =  -0.06 kcal/molUSER        Moving Ligand-Fixed Receptor    = -12.09 kcal/molUSER        Moving Ligand-Moving Receptor   =  +0.00 kcal/molUSER    (2) Final Total Internal Energy     =  -1.44 kcal/molUSER    (3) Torsional Free Energy           =  +1.49 kcal/molUSER    (4) Unbound System's Energy         =  -1.44 kcal/molUSERUSERREMARK SMILES COc1nc2cc(F)ccc2n1C1CCN(Cc2ccc(N3CCN(C)CC3)cc2Cl)CC1REMARK SMILES IDX 13 1 14 2 15 3 16 4 32 5 33 6 12 7 3 8 4 9 5 10 11 11 6 12REMARK SMILES IDX 10 13 7 14 9 15 8 16 2 17 1 18 17 19 18 20 19 21 30 22 20 23REMARK SMILES IDX 29 24 21 25 31 26 22 27 23 28 28 29 24 30 27 31 25 32 26 33REMARK H PARENTUSER                              x       y       z     vdW  Elec       q    TypeUSER                           _______ _______ _______ _____ _____    ______ ____ROOTATOM      1  C   UNL     1      38.086  43.863  23.116 -0.32 +0.01    +0.095 C  ATOM      2  C   UNL     1      37.780  44.823  21.952 -0.35 +0.00    +0.041 C  ATOM      3  C   UNL     1      38.892  45.819  21.614 -0.22 +0.01    +0.087 C  ATOM      4  N   UNL     1      40.240  45.243  21.614 -0.13 -0.02    -0.299 NA ATOM      5  C   UNL     1      40.520  44.601  22.899 -0.20 +0.00    +0.087 C  ATOM      6  C   UNL     1      39.562  43.461  23.227 -0.27 +0.00    +0.041 C  ENDROOTBRANCH   1   7ATOM      7  N   UNL     1      37.512  44.220  24.413 -0.17 -0.02    -0.291 N  ATOM      8  C   UNL     1      37.502  45.447  25.028 -0.13 +0.03    +0.297 A  ATOM      9  N   UNL     1      36.915  45.409  26.201 -0.29 +0.02    -0.195 NA ATOM     10  C   UNL     1      36.544  44.105  26.380 -0.32 -0.01    +0.095 A  ATOM     11  C   UNL     1      36.909  43.326  25.283 -0.31 -0.00    +0.072 A  ATOM     12  C   UNL     1      35.896  43.515  27.473 -0.44 -0.02    +0.070 A  ATOM     13  C   UNL     1      36.658  41.946  25.228 -0.36 -0.00    +0.032 A  ATOM     14  C   UNL     1      35.637  42.147  27.421 -0.45 -0.04    +0.125 A  ATOM     15  C   UNL     1      36.008  41.372  26.327 -0.40 -0.01    +0.041 A  ATOM     16  F   UNL     1      35.023  41.559  28.457 -0.15 +0.12    -0.207 F  BRANCH   8  17ATOM     17  O   UNL     1      38.036  46.531  24.481 -0.49 -0.09    -0.468 OA ATOM     18  C   UNL     1      37.851  47.725  25.230 -0.26 +0.03    +0.282 C  ENDBRANCH   8  17ENDBRANCH   1   7BRANCH   4  19ATOM     19  C   UNL     1      40.490  44.415  20.424 -0.32 +0.01    +0.121 C  BRANCH  19  20ATOM     20  C   UNL     1      39.994  45.026  19.131 -0.42 +0.00    -0.015 A  ATOM     21  C   UNL     1      38.810  44.545  18.558 -0.36 -0.00    +0.009 A  ATOM     22  C   UNL     1      40.664  46.057  18.463 -0.45 -0.00    +0.047 A  ATOM     23  C   UNL     1      38.322  45.072  17.356 -0.35 -0.01    +0.026 A  ATOM     24  C   UNL     1      40.164  46.576  17.257 -0.45 -0.01    +0.046 A  ATOM     25  C   UNL     1      38.985  46.097  16.668 -0.38 -0.01    +0.038 A  ATOM     26  Cl  UNL     1      42.121  46.752  19.087 -0.71 -0.01    -0.084 Cl BRANCH  25  27ATOM     27  N   UNL     1      38.491  46.611  15.481 -0.13 +0.13    -0.369 N  ATOM     28  C   UNL     1      37.535  45.850  14.656 -0.36 -0.05    +0.132 C  ATOM     29  C   UNL     1      38.989  47.872  14.903 -0.48 -0.05    +0.132 C  ATOM     30  C   UNL     1      37.661  46.222  13.161 -0.42 -0.03    +0.105 C  ATOM     31  C   UNL     1      37.918  48.506  13.984 -0.49 -0.05    +0.105 C  ATOM     32  N   UNL     1      37.503  47.656  12.845 -0.84 +0.07    -0.303 NA ATOM     33  C   UNL     1      36.137  47.976  12.439 -0.59 -0.05    +0.105 C  ENDBRANCH  25  27ENDBRANCH  19  20ENDBRANCH   4  19TORSDOF 5TERENDMDL