MODEL        8USER    Run = 8USERUSER    Estimated Free Energy of Binding    = -11.17 kcal/mol  [=(1)+(2)+(3)-(4)]USERUSER    (1) Final Intermolecular Energy     = -13.26 kcal/molUSER        vdW + Hbond + desolv Energy     = -13.14 kcal/molUSER        Electrostatic Energy            =  -0.12 kcal/molUSER        Moving Ligand-Fixed Receptor    = -13.26 kcal/molUSER        Moving Ligand-Moving Receptor   =  +0.00 kcal/molUSER    (2) Final Total Internal Energy     =  -1.87 kcal/molUSER    (3) Torsional Free Energy           =  +2.09 kcal/molUSER    (4) Unbound System's Energy         =  -1.87 kcal/molUSERUSERREMARK SMILES CC(=O)N1CCN(CCN2CCC(=C[C@@H]3C=c4nc(C)n(CC5=CN=CCC5)c4=C3)CC2)CC1REMARK SMILES IDX 10 1 11 2 12 3 13 4 31 5 32 6 9 7 8 8 7 9 2 10 4 11 5 12REMARK SMILES IDX 34 13 6 14 33 15 1 16 3 17 14 18 15 19 16 20 30 21 17 22REMARK SMILES IDX 29 23 18 24 21 25 19 26 20 27 22 28 23 29 24 30 28 31 25 32REMARK SMILES IDX 27 33 26 34REMARK H PARENTUSER                              x       y       z     vdW  Elec       q    TypeUSER                           _______ _______ _______ _____ _____    ______ ____ROOTATOM      1  N   UNL     1      38.565  43.501  24.050 -0.09 -0.02    -0.301 NA ATOM      2  C   UNL     1      39.939  43.424  23.533 -0.23 +0.00    +0.089 C  ATOM      3  C   UNL     1      40.329  44.563  22.574 -0.24 +0.00    +0.046 C  ATOM      4  C   UNL     1      39.342  44.716  21.435 -0.33 -0.00    -0.071 C  ATOM      5  C   UNL     1      38.099  43.865  21.578 -0.38 +0.00    +0.046 C  ATOM      6  C   UNL     1      37.587  43.929  23.027 -0.35 +0.01    +0.089 C  ENDROOTBRANCH   1   7ATOM      7  C   UNL     1      38.427  44.323  25.267 -0.20 +0.00    +0.100 C  BRANCH   7   8ATOM      8  C   UNL     1      37.294  45.391  25.284 -0.31 +0.01    +0.100 C  BRANCH   8   9ATOM      9  N   UNL     1      37.708  46.799  25.140 -0.66 -0.04    -0.299 NA ATOM     10  C   UNL     1      41.691  48.564  24.824 -0.27 +0.03    +0.219 C  ATOM     11  N   UNL     1      40.421  48.043  24.995 -0.12 -0.04    -0.340 N  ATOM     12  C   UNL     1      39.978  47.299  26.179 -0.18 +0.01    +0.135 C  ATOM     13  C   UNL     1      39.420  48.226  23.942 -0.29 +0.02    +0.135 C  ATOM     14  C   UNL     1      38.445  47.282  26.323 -0.26 +0.00    +0.106 C  ATOM     15  C   UNL     1      38.446  47.035  23.881 -0.27 +0.02    +0.106 C  ATOM     16  C   UNL     1      42.697  48.285  25.912 -0.19 +0.01    +0.114 C  ATOM     17  O   UNL     1      42.010  49.233  23.841 -0.73 -0.08    -0.275 OA ENDBRANCH   8   9ENDBRANCH   7   8ENDBRANCH   1   7BRANCH   4  18ATOM     18  C   UNL     1      39.503  45.574  20.409 -0.38 -0.00    -0.016 C  BRANCH  18  19ATOM     19  C   UNL     1      39.572  45.215  18.948 -0.44 -0.00    +0.061 C  ATOM     20  C   UNL     1      40.822  45.777  18.293 -0.53 -0.00    +0.015 C  ATOM     21  C   UNL     1      38.445  45.866  18.153 -0.42 -0.00    +0.013 C  ATOM     22  C   UNL     1      40.427  46.575  17.307 -0.43 -0.01    +0.085 A  ATOM     23  C   UNL     1      38.994  46.637  17.215 -0.38 -0.02    +0.065 A  ATOM     24  N   UNL     1      41.014  47.356  16.348 -0.28 +0.03    -0.234 NA ATOM     25  N   UNL     1      38.732  47.477  16.183 -0.21 +0.14    -0.324 N  ATOM     26  C   UNL     1      39.982  47.871  15.695 -0.45 -0.03    +0.107 A  ATOM     27  C   UNL     1      40.181  48.815  14.551 -0.52 -0.03    +0.088 C  BRANCH  25  28ATOM     28  C   UNL     1      37.435  47.871  15.690 -0.36 -0.12    +0.156 C  BRANCH  28  29ATOM     29  C   UNL     1      37.182  47.279  14.327 -0.52 +0.02    -0.032 C  ATOM     30  C   UNL     1      37.238  48.018  13.208 -0.49 -0.04    +0.111 C  ATOM     31  C   UNL     1      36.853  45.817  14.244 -0.45 -0.02    +0.040 C  ATOM     32  N   UNL     1      36.972  47.565  11.946 -0.98 +0.07    -0.269 NA ATOM     33  C   UNL     1      37.068  45.251  12.850 -0.53 -0.02    +0.052 C  ATOM     34  C   UNL     1      36.863  46.285  11.778 -0.64 -0.03    +0.084 C  ENDBRANCH  28  29ENDBRANCH  25  28ENDBRANCH  18  19ENDBRANCH   4  18TORSDOF 7TERENDMDL