MODEL        8USER    Run = 8USERUSER    Estimated Free Energy of Binding    = -10.48 kcal/mol  [=(1)+(2)+(3)-(4)]USERUSER    (1) Final Intermolecular Energy     = -11.97 kcal/molUSER        vdW + Hbond + desolv Energy     = -11.90 kcal/molUSER        Electrostatic Energy            =  -0.08 kcal/molUSER        Moving Ligand-Fixed Receptor    = -11.97 kcal/molUSER        Moving Ligand-Moving Receptor   =  +0.00 kcal/molUSER    (2) Final Total Internal Energy     =  -1.05 kcal/molUSER    (3) Torsional Free Energy           =  +1.49 kcal/molUSER    (4) Unbound System's Energy         =  -1.05 kcal/molUSERUSERREMARK SMILES CCOc1cc(-c2n[nH]c3cnc(-c4ccc(F)nc4)cc23)ccc1-n1ccnn1REMARK SMILES IDX 4 1 5 2 6 3 23 4 24 5 25 6 3 7 2 8 1 9 26 10 27 11 30 12REMARK SMILES IDX 28 13 29 14 7 15 8 16 22 17 9 18 21 19 10 20 13 21 11 22REMARK SMILES IDX 12 23 14 25 15 26 20 27 16 28 19 29 17 30 18 31REMARK H PARENT 9 24USER                              x       y       z     vdW  Elec       q    TypeUSER                           _______ _______ _______ _____ _____    ______ ____ROOTATOM      1  C   UNL     1      38.098  47.343  14.797 -0.36 -0.06    +0.145 A  ATOM      2  C   UNL     1      37.209  46.289  15.076 -0.35 -0.03    +0.059 A  ATOM      3  C   UNL     1      37.453  45.366  16.105 -0.35 -0.00    +0.006 A  ATOM      4  C   UNL     1      38.600  45.510  16.881 -0.36 -0.00    +0.013 A  ATOM      5  C   UNL     1      39.500  46.545  16.616 -0.43 -0.01    +0.033 A  ATOM      6  C   UNL     1      39.267  47.467  15.573 -0.41 -0.04    +0.108 A  ENDROOTBRANCH   1   7ATOM      7  O   UNL     1      37.877  48.241  13.791 -0.38 +0.20    -0.492 OA BRANCH   7   8ATOM      8  C   UNL     1      36.689  48.119  13.009 -0.47 -0.09    +0.226 C  ATOM      9  C   UNL     1      36.928  47.042  11.966 -0.72 -0.02    +0.049 C  ENDBRANCH   7   8ENDBRANCH   1   7BRANCH   6  10ATOM     10  N   UNL     1      40.246  48.489  15.372 -0.39 +0.06    -0.217 N  ATOM     11  C   UNL     1      40.700  49.102  14.224 -0.34 -0.04    +0.137 A  ATOM     12  N   UNL     1      40.916  49.024  16.434 -0.81 +0.01    -0.062 NA ATOM     13  C   UNL     1      41.647  50.003  14.644 -0.54 -0.03    +0.157 A  ATOM     14  N   UNL     1      41.765  49.941  15.994 -1.02 -0.01    -0.139 NA ENDBRANCH   6  10BRANCH   3  15ATOM     15  C   UNL     1      36.501  44.284  16.358 -0.29 -0.04    +0.100 A  ATOM     16  N   UNL     1      35.784  43.754  15.352 -0.28 +0.07    -0.174 NA ATOM     17  C   UNL     1      36.196  43.637  17.598 -0.29 -0.01    +0.031 A  ATOM     18  N   UNL     1      35.012  42.830  15.943 -0.25 +0.11    -0.276 N  ATOM     19  C   UNL     1      36.636  43.716  18.931 -0.29 -0.01    +0.041 A  ATOM     20  C   UNL     1      35.220  42.703  17.285 -0.35 -0.03    +0.084 A  ATOM     21  C   UNL     1      36.044  42.861  19.863 -0.38 -0.00    +0.073 A  ATOM     22  C   UNL     1      34.657  41.869  18.232 -0.26 -0.04    +0.140 A  ATOM     23  N   UNL     1      35.084  41.964  19.514 -0.19 +0.01    -0.254 NA ATOM     24  H   UNL     1      34.365  42.306  15.363 -0.18 -0.09    +0.190 HD BRANCH  21  25ATOM     25  C   UNL     1      36.418  42.852  21.290 -0.43 +0.00    +0.019 A  ATOM     26  C   UNL     1      36.273  41.729  22.120 -0.53 +0.00    +0.016 A  ATOM     27  C   UNL     1      36.959  43.988  21.903 -0.30 +0.01    +0.124 A  ATOM     28  C   UNL     1      36.644  41.788  23.464 -0.42 +0.00    +0.061 A  ATOM     29  N   UNL     1      37.324  44.081  23.208 -0.23 -0.03    -0.228 NA ATOM     30  C   UNL     1      37.157  42.975  23.953 -0.24 +0.02    +0.212 A  ATOM     31  F   UNL     1      37.512  43.034  25.245 -0.06 +0.00    -0.185 F  ENDBRANCH  21  25ENDBRANCH   3  15TORSDOF 5TERENDMDL