MODEL        8USER    Run = 8USERUSER    Estimated Free Energy of Binding    =  -6.64 kcal/mol  [=(1)+(2)+(3)-(4)]USERUSER    (1) Final Intermolecular Energy     = -11.11 kcal/molUSER        vdW + Hbond + desolv Energy     = -11.58 kcal/molUSER        Electrostatic Energy            =  -0.09 kcal/molUSER        Moving Ligand-Fixed Receptor    = -11.67 kcal/molUSER        Moving Ligand-Moving Receptor   =  +0.55 kcal/molUSER    (2) Final Total Internal Energy     =  -3.37 kcal/molUSER    (3) Torsional Free Energy           =  +4.47 kcal/molUSER    (4) Unbound System's Energy         =  -3.37 kcal/molUSERUSERREMARK SMILES COc1ccc(O)c(C(=O)c2ccc(CN[C@@H]3CCCNC[C@H]3NC(=O)c3ccncc3)cc2)c1FREMARK SMILES IDX 16 1 15 3 14 4 11 5 12 6 34 7 13 8 33 9 9 10 10 11 8 12 3 13REMARK SMILES IDX 4 14 35 15 5 16 6 17 36 18 2 19 1 20 7 21 17 23 18 24 23 26REMARK SMILES IDX 22 27 21 28 20 30 19 31 24 33 25 34 26 36 27 37 28 38 32 39REMARK SMILES IDX 29 40 31 41 30 42REMARK H PARENT 16 2 7 22 21 29 24 35REMARK Flexibility Score:   99.900USER                              x       y       z     vdW  Elec       q    TypeUSER                           _______ _______ _______ _____ _____    ______ ____ROOTATOM      1  N   UNL     1      39.394  42.494  24.131 -0.04 -0.03    -0.308 NA ATOM      2  H   UNL     1      38.970  42.542  23.202 +0.06 +0.01    +0.123 HD ENDROOTBRANCH   1   3ATOM      3  C   UNL     1      40.522  43.428  24.179 -0.18 +0.00    +0.117 C  BRANCH   3   4ATOM      4  C   UNL     1      40.749  44.170  22.885 -0.20 -0.00    -0.034 A  ATOM      5  C   UNL     1      41.188  45.535  20.465 -0.36 +0.00    +0.023 A  ATOM      6  C   UNL     1      42.068  44.526  20.869 -0.22 +0.00    +0.012 A  ATOM      7  C   UNL     1      40.105  45.878  21.284 -0.24 +0.00    +0.012 A  ATOM      8  C   UNL     1      41.843  43.844  22.067 -0.30 +0.00    +0.006 A  ATOM      9  C   UNL     1      39.884  45.195  22.482 -0.26 +0.00    +0.006 A  BRANCH   5  10ATOM     10  C   UNL     1      41.406  46.316  19.224 -0.39 +0.01    +0.199 C  ATOM     11  O   UNL     1      42.491  46.874  19.053 -0.40 -0.04    -0.288 OA BRANCH  10  12ATOM     12  C   UNL     1      40.406  46.413  18.139 -0.41 -0.01    +0.104 A  ATOM     13  C   UNL     1      38.388  45.637  17.012 -0.28 -0.04    +0.155 A  ATOM     14  C   UNL     1      38.544  46.638  16.050 -0.38 -0.02    +0.053 A  ATOM     15  C   UNL     1      39.321  45.539  18.055 -0.31 -0.02    +0.179 A  ATOM     16  C   UNL     1      39.607  47.540  16.145 -0.46 -0.01    +0.051 A  ATOM     17  C   UNL     1      40.520  47.437  17.191 -0.42 -0.02    +0.130 A  ATOM     18  F   UNL     1      39.139  44.597  18.995 -0.10 +0.01    -0.202 F  BRANCH  13  19ATOM     19  O   UNL     1      37.377  44.713  17.036 -0.07 +0.14    -0.494 OA ATOM     20  C   UNL     1      36.640  44.523  15.836 -0.23 -0.11    +0.278 C  ENDBRANCH  13  19BRANCH  17  21ATOM     21  O   UNL     1      41.510  48.382  17.231 -0.57 +0.01    -0.507 OA ATOM     22  H   UNL     1      42.374  47.910  17.261 -0.28 -0.02    +0.293 HD ENDBRANCH  17  21ENDBRANCH  10  12ENDBRANCH   5  10ENDBRANCH   3   4ENDBRANCH   1   3BRANCH   1  23ATOM     23  C   UNL     1      38.338  42.777  25.141 -0.27 +0.00    +0.077 C  BRANCH  23  24ATOM     24  C   UNL     1      38.856  42.273  26.494 -0.31 -0.00    +0.022 CG0ATOM     25  G   UNL     1      37.941  42.544  27.687 +0.00 +0.00    +0.000 G0 ENDBRANCH  23  24BRANCH  23  26ATOM     26  C   UNL     1      36.994  42.115  24.704 -0.39 -0.00    +0.113 C  BRANCH  26  27ATOM     27  C   UNL     1      35.904  42.247  25.796 -0.35 -0.01    +0.107 C  BRANCH  27  28ATOM     28  N   UNL     1      35.895  41.292  26.899 -0.31 +0.11    -0.315 NA ATOM     29  H   UNL     1      35.951  40.344  26.518 -0.42 -0.07    +0.122 HD BRANCH  28  30ATOM     30  C   UNL     1      36.917  41.437  27.924 -0.42 -0.03    +0.081 C  BRANCH  30  31ATOM     31  C   UNL     1      37.938  42.547  27.690 -0.41 -0.00    +0.017 CG0ATOM     32  G   UNL     1      38.851  42.274  26.496 +0.00 +0.00    +0.000 G0 ENDBRANCH  30  31ENDBRANCH  28  30ENDBRANCH  27  28ENDBRANCH  26  27BRANCH  26  33ATOM     33  N   UNL     1      36.519  42.740  23.453 -0.16 -0.04    -0.346 N  ATOM     34  C   UNL     1      36.848  42.223  22.220 -0.38 +0.02    +0.251 C  ATOM     35  H   UNL     1      35.871  43.510  23.534 +0.14 +0.05    +0.164 HD ATOM     36  O   UNL     1      37.621  41.284  22.068 -0.41 -0.02    -0.269 OA BRANCH  34  37ATOM     37  C   UNL     1      36.240  42.881  21.034 -0.42 +0.00    +0.042 A  ATOM     38  C   UNL     1      35.295  42.164  20.299 -0.39 +0.00    +0.034 A  ATOM     39  C   UNL     1      36.560  44.187  20.661 -0.35 -0.00    +0.034 A  ATOM     40  C   UNL     1      34.728  42.775  19.197 -0.33 -0.01    +0.112 A  ATOM     41  C   UNL     1      35.933  44.709  19.543 -0.20 -0.02    +0.112 A  ATOM     42  N   UNL     1      35.035  44.029  18.800 -0.17 +0.06    -0.265 NA ENDBRANCH  34  37ENDBRANCH  26  33ENDBRANCH  23  26ENDBRANCH   1  23TORSDOF 9TERENDMDL