MODEL        8USER    Run = 8USERUSER    Estimated Free Energy of Binding    =  -6.38 kcal/mol  [=(1)+(2)+(3)-(4)]USERUSER    (1) Final Intermolecular Energy     = -10.86 kcal/molUSER        vdW + Hbond + desolv Energy     = -10.90 kcal/molUSER        Electrostatic Energy            =  -0.08 kcal/molUSER        Moving Ligand-Fixed Receptor    = -10.99 kcal/molUSER        Moving Ligand-Moving Receptor   =  +0.13 kcal/molUSER    (2) Final Total Internal Energy     =  -2.31 kcal/molUSER    (3) Torsional Free Energy           =  +4.47 kcal/molUSER    (4) Unbound System's Energy         =  -2.31 kcal/molUSERUSERREMARK SMILES COc1ccc(O)c(C(=O)c2ccc(NC[C@@H]3CCCNC[C@@H]3NC(=O)c3ccncc3)cc2)c1FREMARK SMILES IDX 16 1 15 2 14 4 11 5 12 6 34 7 13 8 33 9 9 10 10 11 8 12 3 13REMARK SMILES IDX 4 14 35 15 5 16 6 17 36 18 2 19 1 20 7 21 17 23 18 24 23 26REMARK SMILES IDX 22 27 21 28 20 30 19 31 24 33 25 34 26 36 27 37 28 38 32 39REMARK SMILES IDX 29 40 31 41 30 42REMARK H PARENT 15 3 7 22 21 29 24 35REMARK Flexibility Score:   99.900USER                              x       y       z     vdW  Elec       q    TypeUSER                           _______ _______ _______ _____ _____    ______ ____ROOTATOM      1  C   UNL     1      38.783  44.319  27.288 -0.20 -0.01    +0.118 C  ENDROOTBRANCH   1   2ATOM      2  N   UNL     1      39.506  43.637  26.211 -0.02 +0.01    -0.385 N  ATOM      3  H   UNL     1      40.472  43.430  26.445 +0.05 -0.00    +0.160 HD BRANCH   2   4ATOM      4  C   UNL     1      39.308  43.938  24.867 -0.16 +0.00    +0.034 A  ATOM      5  C   UNL     1      38.977  44.709  22.163 -0.30 +0.00    +0.023 A  ATOM      6  C   UNL     1      39.423  43.425  22.484 -0.27 +0.00    +0.014 A  ATOM      7  C   UNL     1      38.750  45.629  23.187 -0.31 +0.00    +0.014 A  ATOM      8  C   UNL     1      39.593  43.050  23.823 -0.22 +0.00    +0.026 A  ATOM      9  C   UNL     1      38.921  45.241  24.522 -0.20 +0.00    +0.026 A  BRANCH   5  10ATOM     10  C   UNL     1      38.844  45.074  20.733 -0.28 +0.00    +0.199 C  ATOM     11  O   UNL     1      39.723  45.757  20.204 -0.25 -0.00    -0.288 OA BRANCH  10  12ATOM     12  C   UNL     1      37.672  44.707  19.907 -0.25 -0.01    +0.104 A  ATOM     13  C   UNL     1      35.421  43.800  19.664 -0.30 -0.02    +0.155 A  ATOM     14  C   UNL     1      35.474  44.043  18.290 -0.29 -0.01    +0.053 A  ATOM     15  C   UNL     1      36.529  44.128  20.461 -0.26 -0.01    +0.179 A  ATOM     16  C   UNL     1      36.626  44.591  17.721 -0.30 -0.01    +0.051 A  ATOM     17  C   UNL     1      37.720  44.905  18.522 -0.28 -0.02    +0.130 A  ATOM     18  F   UNL     1      36.482  43.850  21.774 -0.12 -0.02    -0.202 F  BRANCH  13  19ATOM     19  O   UNL     1      34.358  43.252  20.332 -0.46 -0.04    -0.494 OA ATOM     20  C   UNL     1      33.227  42.873  19.557 -0.20 +0.01    +0.278 C  ENDBRANCH  13  19BRANCH  17  21ATOM     21  O   UNL     1      38.821  45.407  17.880 -0.11 +0.08    -0.507 OA ATOM     22  H   UNL     1      39.423  45.782  18.562 +0.18 -0.03    +0.293 HD ENDBRANCH  17  21ENDBRANCH  10  12ENDBRANCH   5  10ENDBRANCH   2   4ENDBRANCH   1   2BRANCH   1  23ATOM     23  C   UNL     1      37.588  43.480  27.806 -0.38 -0.01    +0.032 C  BRANCH  23  24ATOM     24  C   UNL     1      37.474  42.169  27.003 -0.45 -0.00    +0.009 CG0ATOM     25  G   UNL     1      36.666  41.014  27.595 +0.00 +0.00    +0.000 G0 ENDBRANCH  23  24BRANCH  23  26ATOM     26  C   UNL     1      36.305  44.343  27.852 -0.45 -0.02    +0.101 C  BRANCH  26  27ATOM     27  C   UNL     1      35.080  43.572  27.307 -0.54 -0.02    +0.106 C  BRANCH  27  28ATOM     28  N   UNL     1      34.678  42.401  28.097 -0.28 +0.11    -0.315 NA ATOM     29  H   UNL     1      35.096  42.502  29.025 -0.42 -0.09    +0.122 HD BRANCH  28  30ATOM     30  C   UNL     1      35.148  41.138  27.527 -0.63 -0.04    +0.081 C  BRANCH  30  31ATOM     31  C   UNL     1      36.665  41.014  27.595 -0.61 -0.01    +0.016 CG0ATOM     32  G   UNL     1      37.475  42.168  27.005 +0.00 +0.00    +0.000 G0 ENDBRANCH  30  31ENDBRANCH  28  30ENDBRANCH  27  28ENDBRANCH  26  27BRANCH  26  33ATOM     33  N   UNL     1      36.441  45.611  27.140 -0.03 +0.09    -0.348 N  ATOM     34  C   UNL     1      36.541  46.826  27.775 -0.23 -0.06    +0.251 C  ATOM     35  H   UNL     1      36.335  45.547  26.135 -0.34 -0.04    +0.164 HD ATOM     36  O   UNL     1      36.519  46.946  28.994 -0.06 +0.08    -0.269 OA BRANCH  34  37ATOM     37  C   UNL     1      36.657  48.029  26.908 -0.35 -0.01    +0.042 A  ATOM     38  C   UNL     1      37.480  47.950  25.783 -0.37 +0.00    +0.034 A  ATOM     39  C   UNL     1      35.955  49.208  27.163 -0.34 -0.00    +0.034 A  ATOM     40  C   UNL     1      37.585  49.064  24.973 -0.34 +0.01    +0.112 A  ATOM     41  C   UNL     1      36.129  50.266  26.289 -0.33 +0.00    +0.112 A  ATOM     42  N   UNL     1      36.931  50.223  25.205 -0.20 -0.01    -0.265 NA ENDBRANCH  34  37ENDBRANCH  26  33ENDBRANCH  23  26ENDBRANCH   1  23TORSDOF 9TERENDMDL