MODEL        5USER    Run = 5USERUSER    Estimated Free Energy of Binding    =  -6.72 kcal/mol  [=(1)+(2)+(3)-(4)]USERUSER    (1) Final Intermolecular Energy     = -11.20 kcal/molUSER        vdW + Hbond + desolv Energy     = -11.36 kcal/molUSER        Electrostatic Energy            =  -0.13 kcal/molUSER        Moving Ligand-Fixed Receptor    = -11.50 kcal/molUSER        Moving Ligand-Moving Receptor   =  +0.30 kcal/molUSER    (2) Final Total Internal Energy     =  -2.88 kcal/molUSER    (3) Torsional Free Energy           =  +4.47 kcal/molUSER    (4) Unbound System's Energy         =  -2.88 kcal/molUSERUSERREMARK SMILES COc1ccc(O)c(C(=O)c2ccc(C(=O)O[C@@H]3CCCNC[C@H]3NC(=O)c3ccncc3)cc2)c1FREMARK SMILES IDX 17 1 15 2 16 3 14 4 11 5 12 6 35 7 13 8 34 9 9 10 10 11 8 12REMARK SMILES IDX 3 13 4 14 36 15 5 16 6 17 37 18 2 19 1 20 7 21 18 23 24 25REMARK SMILES IDX 23 26 22 27 21 29 20 30 19 31 25 33 26 34 27 36 28 37 29 38REMARK SMILES IDX 33 39 30 40 32 41 31 42REMARK H PARENT 7 22 22 28 25 35REMARK Flexibility Score:   99.900USER                              x       y       z     vdW  Elec       q    TypeUSER                           _______ _______ _______ _____ _____    ______ ____ROOTATOM      1  O   UNL     1      37.934  46.601  17.442 -0.13 +0.17    -0.457 OA ENDROOTBRANCH   1   2ATOM      2  C   UNL     1      39.005  45.865  17.832 -0.25 -0.06    +0.338 C  ATOM      3  O   UNL     1      40.108  45.839  17.304 -0.29 +0.03    -0.246 OA BRANCH   2   4ATOM      4  C   UNL     1      38.665  45.100  19.058 -0.36 -0.01    +0.060 A  ATOM      5  C   UNL     1      38.100  43.640  21.388 -0.32 +0.00    +0.023 A  ATOM      6  C   UNL     1      37.067  43.983  20.505 -0.39 -0.00    +0.013 A  ATOM      7  C   UNL     1      39.416  44.027  21.096 -0.24 +0.00    +0.013 A  ATOM      8  C   UNL     1      37.350  44.711  19.343 -0.32 -0.00    +0.016 A  ATOM      9  C   UNL     1      39.700  44.746  19.931 -0.38 -0.00    +0.016 A  BRANCH   5  10ATOM     10  C   UNL     1      37.850  42.891  22.650 -0.30 +0.01    +0.199 C  ATOM     11  O   UNL     1      38.023  41.678  22.709 -0.24 -0.04    -0.288 OA BRANCH  10  12ATOM     12  C   UNL     1      37.387  43.589  23.855 -0.28 +0.01    +0.104 A  ATOM     13  C   UNL     1      37.306  45.630  25.163 -0.18 +0.02    +0.155 A  ATOM     14  C   UNL     1      36.584  44.950  26.152 -0.24 -0.01    +0.053 A  ATOM     15  C   UNL     1      37.710  44.934  24.018 -0.20 +0.02    +0.179 A  ATOM     16  C   UNL     1      36.246  43.601  25.981 -0.36 -0.00    +0.051 A  ATOM     17  C   UNL     1      36.641  42.925  24.829 -0.28 +0.00    +0.130 A  ATOM     18  F   UNL     1      38.374  45.584  23.048 -0.10 -0.02    -0.202 F  BRANCH  13  19ATOM     19  O   UNL     1      37.646  46.956  25.199 -0.59 -0.06    -0.494 OA ATOM     20  C   UNL     1      36.918  47.794  26.089 -0.29 -0.01    +0.278 C  ENDBRANCH  13  19BRANCH  17  21ATOM     21  O   UNL     1      36.296  41.617  24.646 -0.15 +0.06    -0.507 OA ATOM     22  H   UNL     1      36.787  41.244  23.896 +0.17 -0.01    +0.293 HD ENDBRANCH  17  21ENDBRANCH  10  12ENDBRANCH   5  10ENDBRANCH   2   4ENDBRANCH   1   2BRANCH   1  23ATOM     23  C   UNL     1      37.658  46.644  16.018 -0.31 -0.10    +0.200 CG0ATOM     24  G   UNL     1      38.614  47.668  15.406 +0.00 +0.00    +0.000 G0 BRANCH  23  25ATOM     25  C   UNL     1      36.164  46.993  15.855 -0.30 -0.14    +0.137 C  BRANCH  25  26ATOM     26  C   UNL     1      35.621  46.834  14.421 -0.31 -0.10    +0.109 C  BRANCH  26  27ATOM     27  N   UNL     1      36.334  47.624  13.415 -0.35 +0.18    -0.315 NA ATOM     28  H   UNL     1      36.428  48.577  13.766 +0.08 -0.08    +0.122 HD BRANCH  27  29ATOM     29  C   UNL     1      37.663  47.133  13.036 -0.54 -0.02    +0.081 C  BRANCH  29  30ATOM     30  C   UNL     1      38.861  47.550  13.899 -0.45 -0.00    +0.019 C  BRANCH  30  31ATOM     31  C   UNL     1      38.611  47.669  15.407 -0.52 -0.02    +0.049 CG0ATOM     32  G   UNL     1      37.657  46.644  16.020 +0.00 +0.00    +0.000 G0 ENDBRANCH  30  31ENDBRANCH  29  30ENDBRANCH  27  29ENDBRANCH  26  27ENDBRANCH  25  26BRANCH  25  33ATOM     33  N   UNL     1      35.375  46.178  16.788 -0.15 +0.31    -0.344 N  ATOM     34  C   UNL     1      35.375  44.806  16.744 -0.20 -0.13    +0.251 C  ATOM     35  H   UNL     1      35.089  46.639  17.641 +0.07 -0.16    +0.164 HD ATOM     36  O   UNL     1      35.981  44.148  15.909 -0.24 +0.11    -0.269 OA BRANCH  34  37ATOM     37  C   UNL     1      34.588  44.125  17.799 -0.28 -0.01    +0.042 A  ATOM     38  C   UNL     1      33.749  44.891  18.606 -0.39 -0.01    +0.034 A  ATOM     39  C   UNL     1      34.705  42.754  18.020 -0.36 -0.01    +0.034 A  ATOM     40  C   UNL     1      33.033  44.241  19.594 -0.35 -0.02    +0.112 A  ATOM     41  C   UNL     1      33.951  42.202  19.038 -0.33 -0.01    +0.112 A  ATOM     42  N   UNL     1      33.113  42.913  19.824 -0.71 -0.03    -0.265 NA ENDBRANCH  34  37ENDBRANCH  25  33ENDBRANCH  23  25ENDBRANCH   1  23TORSDOF 9TERENDMDL