MODEL        8USER    Run = 8USERUSER    Estimated Free Energy of Binding    = -13.51 kcal/mol  [=(1)+(2)+(3)-(4)]USERUSER    (1) Final Intermolecular Energy     = -15.30 kcal/molUSER        vdW + Hbond + desolv Energy     = -15.17 kcal/molUSER        Electrostatic Energy            =  -0.14 kcal/molUSER        Moving Ligand-Fixed Receptor    = -15.30 kcal/molUSER        Moving Ligand-Moving Receptor   =  +0.00 kcal/molUSER    (2) Final Total Internal Energy     =  -2.73 kcal/molUSER    (3) Torsional Free Energy           =  +1.79 kcal/molUSER    (4) Unbound System's Energy         =  -2.73 kcal/molUSERUSERREMARK SMILES Oc1nc2ccccc2n1C1CCN(Cc2ccc(-c3nc4ccccc4nc3-c3ccccc3)cc2)CC1REMARK SMILES IDX 11 1 12 2 13 3 14 4 38 5 39 6 10 7 2 8 3 9 4 10 9 11 5 12REMARK SMILES IDX 8 13 6 14 7 15 1 16 15 18 16 19 17 20 37 21 18 22 36 23REMARK SMILES IDX 19 24 20 25 21 26 29 27 22 28 28 29 23 30 27 31 24 32 26 33REMARK SMILES IDX 25 34 30 35 31 36 35 37 32 38 34 39 33 40REMARK H PARENT 1 17USER                              x       y       z     vdW  Elec       q    TypeUSER                           _______ _______ _______ _____ _____    ______ ____ROOTATOM      1  C   UNL     1      38.508  47.258  15.336 -0.45 -0.04    +0.095 C  ATOM      2  C   UNL     1      37.587  48.450  15.030 -0.57 -0.03    +0.041 C  ATOM      3  C   UNL     1      37.029  48.388  13.608 -0.56 -0.04    +0.087 C  ATOM      4  N   UNL     1      36.569  47.054  13.210 -0.35 +0.15    -0.299 NA ATOM      5  C   UNL     1      37.617  46.028  13.336 -0.43 -0.03    +0.087 C  ATOM      6  C   UNL     1      38.884  46.484  14.067 -0.39 -0.01    +0.041 C  ENDROOTBRANCH   1   7ATOM      7  N   UNL     1      39.664  47.635  16.135 -0.27 +0.09    -0.291 N  ATOM      8  C   UNL     1      40.469  48.722  15.938 -0.33 -0.07    +0.295 A  ATOM      9  N   UNL     1      41.430  48.821  16.812 -0.95 -0.00    -0.195 NA ATOM     10  C   UNL     1      41.246  47.743  17.644 -0.45 -0.01    +0.092 A  ATOM     11  C   UNL     1      40.144  46.979  17.251 -0.45 -0.01    +0.072 A  ATOM     12  C   UNL     1      41.987  47.355  18.771 -0.50 +0.00    +0.031 A  ATOM     13  C   UNL     1      39.739  45.830  17.945 -0.43 -0.00    +0.029 A  ATOM     14  C   UNL     1      41.599  46.209  19.475 -0.45 +0.00    +0.002 A  ATOM     15  C   UNL     1      40.493  45.462  19.067 -0.45 -0.00    +0.002 A  BRANCH   8  16ATOM     16  O   UNL     1      40.311  49.609  14.976 -0.20 +0.22    -0.480 OA ATOM     17  H   UNL     1      39.628  50.189  15.361 -0.20 -0.23    +0.296 HD ENDBRANCH   8  16ENDBRANCH   1   7BRANCH   4  18ATOM     18  C   UNL     1      35.317  46.631  13.862 -0.43 -0.09    +0.120 C  BRANCH  18  19ATOM     19  C   UNL     1      35.521  45.943  15.193 -0.34 +0.03    -0.034 A  ATOM     20  C   UNL     1      35.509  46.675  16.386 -0.20 -0.01    +0.006 A  ATOM     21  C   UNL     1      35.742  44.561  15.253 -0.33 -0.00    +0.006 A  ATOM     22  C   UNL     1      35.694  46.031  17.614 -0.35 -0.01    +0.011 A  ATOM     23  C   UNL     1      35.925  43.921  16.481 -0.36 -0.00    +0.011 A  ATOM     24  C   UNL     1      35.889  44.642  17.686 -0.32 -0.00    +0.002 A  BRANCH  24  25ATOM     25  C   UNL     1      36.063  43.981  18.990 -0.30 -0.02    +0.097 A  ATOM     26  N   UNL     1      37.219  44.322  19.629 -0.22 +0.02    -0.244 NA ATOM     27  C   UNL     1      35.163  43.063  19.556 -0.35 -0.01    +0.097 A  ATOM     28  C   UNL     1      37.480  43.720  20.803 -0.32 -0.00    +0.089 A  ATOM     29  N   UNL     1      35.442  42.448  20.741 -0.31 -0.01    -0.244 NA ATOM     30  C   UNL     1      38.652  44.028  21.484 -0.30 +0.00    +0.030 A  ATOM     31  C   UNL     1      36.589  42.777  21.359 -0.40 +0.00    +0.089 A  ATOM     32  C   UNL     1      38.964  43.424  22.703 -0.28 +0.00    +0.002 A  ATOM     33  C   UNL     1      36.908  42.180  22.573 -0.48 +0.00    +0.030 A  ATOM     34  C   UNL     1      38.087  42.495  23.250 -0.35 +0.00    +0.002 A  BRANCH  27  35ATOM     35  C   UNL     1      33.860  42.683  18.980 -0.40 -0.00    +0.002 A  ATOM     36  C   UNL     1      32.742  43.520  19.141 -0.41 -0.00    +0.010 A  ATOM     37  C   UNL     1      33.691  41.504  18.232 -0.35 -0.00    +0.010 A  ATOM     38  C   UNL     1      31.497  43.182  18.600 -0.28 -0.00    +0.001 A  ATOM     39  C   UNL     1      32.447  41.161  17.694 -0.37 -0.00    +0.001 A  ATOM     40  C   UNL     1      31.350  41.999  17.880 -0.30 -0.00    +0.000 A  ENDBRANCH  27  35ENDBRANCH  24  25ENDBRANCH  18  19ENDBRANCH   4  18TORSDOF 6TERENDMDL