MODEL        4USER    Run = 4USERUSER    Estimated Free Energy of Binding    = -12.85 kcal/mol  [=(1)+(2)+(3)-(4)]USERUSER    (1) Final Intermolecular Energy     = -15.23 kcal/molUSER        vdW + Hbond + desolv Energy     = -15.10 kcal/molUSER        Electrostatic Energy            =  -0.13 kcal/molUSER        Moving Ligand-Fixed Receptor    = -15.23 kcal/molUSER        Moving Ligand-Moving Receptor   =  +0.00 kcal/molUSER    (2) Final Total Internal Energy     =  -2.61 kcal/molUSER    (3) Torsional Free Energy           =  +2.39 kcal/molUSER    (4) Unbound System's Energy         =  -2.61 kcal/molUSERUSERREMARK SMILES N#Cc1cnc(-c2ccc(CNCc3ccc(-c4csnn4)cc3)cc2)c(-c2ccccc2)c1REMARK SMILES IDX 11 1 10 2 7 3 8 4 26 5 9 6 25 7 6 8 3 9 4 10 34 11 5 12REMARK SMILES IDX 27 13 2 14 1 15 28 16 29 17 33 18 30 19 32 20 31 21 12 22REMARK SMILES IDX 13 24 14 25 15 26 24 27 16 28 23 29 17 30 18 31 19 32 22 33REMARK SMILES IDX 20 34 21 35REMARK H PARENT 12 23USER                              x       y       z     vdW  Elec       q    TypeUSER                           _______ _______ _______ _____ _____    ______ ____ROOTATOM      1  C   UNL     1      36.068  43.624  20.509 -0.40 -0.00    +0.117 C  ENDROOTBRANCH   1   2ATOM      2  C   UNL     1      35.214  44.095  19.355 -0.37 +0.01    -0.034 A  ATOM      3  C   UNL     1      33.633  44.958  17.160 -0.33 -0.00    +0.001 A  ATOM      4  C   UNL     1      34.282  45.881  18.000 -0.46 -0.01    +0.011 A  ATOM      5  C   UNL     1      33.781  43.594  17.455 -0.31 -0.00    +0.011 A  ATOM      6  C   UNL     1      35.067  45.459  19.078 -0.18 -0.00    +0.006 A  ATOM      7  C   UNL     1      34.567  43.167  18.531 -0.36 -0.00    +0.006 A  BRANCH   3   8ATOM      8  C   UNL     1      32.812  45.431  16.027 -0.24 -0.06    +0.078 A  ATOM      9  C   UNL     1      31.035  46.232  14.064 -0.52 -0.04    +0.071 A  ATOM     10  C   UNL     1      30.624  45.835  15.322 -0.37 -0.06    +0.131 A  ATOM     11  C   UNL     1      32.402  46.234  13.795 -0.16 -0.03    +0.032 A  ATOM     12  N   UNL     1      31.474  45.445  16.298 -0.72 +0.09    -0.254 NA ATOM     13  C   UNL     1      33.330  45.835  14.778 -0.15 -0.01    +0.009 A  BRANCH   9  14ATOM     14  C   UNL     1      30.081  46.635  13.081 -0.57 -0.06    +0.101 C  ATOM     15  N   UNL     1      29.307  46.961  12.282 -0.72 +0.10    -0.192 NA ENDBRANCH   9  14BRANCH  13  16ATOM     16  C   UNL     1      34.768  45.898  14.462 -0.32 +0.01    -0.016 A  ATOM     17  C   UNL     1      35.280  46.924  13.649 -0.39 -0.01    +0.009 A  ATOM     18  C   UNL     1      35.666  44.949  14.974 -0.33 -0.00    +0.009 A  ATOM     19  C   UNL     1      36.643  46.992  13.350 -0.57 -0.00    +0.001 A  ATOM     20  C   UNL     1      37.029  45.014  14.675 -0.39 -0.00    +0.001 A  ATOM     21  C   UNL     1      37.517  46.035  13.862 -0.45 -0.00    +0.000 A  ENDBRANCH  13  16ENDBRANCH   3   8ENDBRANCH   1   2BRANCH   1  22ATOM     22  N   UNL     1      37.259  44.463  20.641 -0.18 +0.00    -0.309 NA ATOM     23  H   UNL     1      37.558  44.439  21.615 +0.06 +0.01    +0.123 HD BRANCH  22  24ATOM     24  C   UNL     1      38.358  43.997  19.795 -0.26 -0.00    +0.117 C  BRANCH  24  25ATOM     25  C   UNL     1      38.914  45.070  18.888 -0.38 +0.00    -0.034 A  ATOM     26  C   UNL     1      38.126  45.632  17.876 -0.38 -0.00    +0.006 A  ATOM     27  C   UNL     1      40.236  45.507  19.031 -0.45 -0.00    +0.006 A  ATOM     28  C   UNL     1      38.647  46.619  17.031 -0.40 -0.00    +0.011 A  ATOM     29  C   UNL     1      40.757  46.492  18.187 -0.50 -0.00    +0.011 A  ATOM     30  C   UNL     1      39.968  47.066  17.179 -0.49 -0.00    +0.003 A  BRANCH  30  31ATOM     31  C   UNL     1      40.542  48.094  16.316 -0.47 -0.02    +0.105 A  ATOM     32  C   UNL     1      40.302  48.205  14.956 -0.46 -0.03    +0.118 A  ATOM     33  N   UNL     1      41.381  49.080  16.832 -0.99 -0.00    -0.138 NA ATOM     34  S   UNL     1      41.180  49.565  14.387 -0.86 +0.00    -0.020 S  ATOM     35  N   UNL     1      41.794  49.921  15.900 -1.05 -0.00    -0.091 NA ENDBRANCH  30  31ENDBRANCH  24  25ENDBRANCH  22  24ENDBRANCH   1  22TORSDOF 8TERENDMDL