MODEL        10USER    Run = 10USERUSER    Estimated Free Energy of Binding    =  -6.10 kcal/mol  [=(1)+(2)+(3)-(4)]USERUSER    (1) Final Intermolecular Energy     = -10.57 kcal/molUSER        vdW + Hbond + desolv Energy     = -11.06 kcal/molUSER        Electrostatic Energy            =  -0.16 kcal/molUSER        Moving Ligand-Fixed Receptor    = -11.22 kcal/molUSER        Moving Ligand-Moving Receptor   =  +0.65 kcal/molUSER    (2) Final Total Internal Energy     =  -3.77 kcal/molUSER    (3) Torsional Free Energy           =  +4.47 kcal/molUSER    (4) Unbound System's Energy         =  -3.77 kcal/molUSERUSERREMARK SMILES COc1ccc(O)c(C(=O)c2ccc(CO[C@@H]3CCCNC[C@@H]3NC(=O)c3ccncc3)cc2)c1FREMARK SMILES IDX 16 1 15 2 14 3 11 4 12 5 34 6 13 7 33 8 9 9 10 10 8 11 3 12REMARK SMILES IDX 4 13 35 14 5 15 6 16 36 17 2 18 1 19 7 20 17 22 18 23 23 25REMARK SMILES IDX 22 26 21 27 20 29 19 30 24 32 25 33 26 35 27 36 28 37 32 38REMARK SMILES IDX 29 39 31 40 30 41REMARK H PARENT 7 21 21 28 24 34REMARK Flexibility Score:   99.900USER                              x       y       z     vdW  Elec       q    TypeUSER                           _______ _______ _______ _____ _____    ______ ____ROOTATOM      1  O   UNL     1      36.750  45.907  17.970 -0.17 +0.14    -0.371 OA ENDROOTBRANCH   1   2ATOM      2  C   UNL     1      37.919  45.613  17.209 -0.30 -0.06    +0.196 C  BRANCH   2   3ATOM      3  C   UNL     1      39.124  45.898  18.067 -0.41 +0.00    -0.022 A  ATOM      4  C   UNL     1      41.392  46.419  19.643 -0.39 +0.00    +0.023 A  ATOM      5  C   UNL     1      41.306  46.939  18.348 -0.52 -0.00    +0.012 A  ATOM      6  C   UNL     1      40.331  45.668  20.161 -0.36 +0.00    +0.012 A  ATOM      7  C   UNL     1      40.181  46.673  17.565 -0.49 -0.00    +0.007 A  ATOM      8  C   UNL     1      39.207  45.404  19.376 -0.40 -0.00    +0.007 A  BRANCH   4   9ATOM      9  C   UNL     1      42.550  46.703  20.524 -0.33 +0.05    +0.199 C  ATOM     10  O   UNL     1      43.575  47.181  20.030 -0.37 -0.12    -0.288 OA BRANCH   9  11ATOM     11  C   UNL     1      42.569  46.383  21.967 -0.23 +0.02    +0.104 A  ATOM     12  C   UNL     1      42.387  44.801  23.812 -0.06 +0.01    +0.155 A  ATOM     13  C   UNL     1      42.633  45.834  24.720 -0.06 +0.00    +0.053 A  ATOM     14  C   UNL     1      42.350  45.089  22.440 -0.13 +0.03    +0.179 A  ATOM     15  C   UNL     1      42.820  47.139  24.259 -0.15 +0.01    +0.051 A  ATOM     16  C   UNL     1      42.774  47.412  22.894 -0.23 +0.02    +0.130 A  ATOM     17  F   UNL     1      42.078  44.094  21.581 -0.08 -0.03    -0.202 F  BRANCH  12  18ATOM     18  O   UNL     1      42.173  43.490  24.145 -0.03 -0.00    -0.494 OA ATOM     19  C   UNL     1      43.197  42.558  23.818 -0.14 -0.01    +0.278 C  ENDBRANCH  12  18BRANCH  16  20ATOM     20  O   UNL     1      42.937  48.722  22.530 -0.60 -0.11    -0.507 OA ATOM     21  H   UNL     1      43.244  48.739  21.594 -0.39 -0.04    +0.293 HD ENDBRANCH  16  20ENDBRANCH   9  11ENDBRANCH   4   9ENDBRANCH   2   3ENDBRANCH   1   2BRANCH   1  22ATOM     22  C   UNL     1      35.678  44.961  17.764 -0.29 -0.06    +0.142 C  BRANCH  22  23ATOM     23  C   UNL     1      34.412  45.706  18.214 -0.50 -0.02    +0.035 CG0ATOM     24  G   UNL     1      33.191  44.904  18.649 +0.00 +0.00    +0.000 G0 ENDBRANCH  22  23BRANCH  22  25ATOM     25  C   UNL     1      35.998  43.651  18.521 -0.31 -0.03    +0.125 C  BRANCH  25  26ATOM     26  C   UNL     1      34.851  42.622  18.360 -0.38 -0.02    +0.108 C  BRANCH  26  27ATOM     27  N   UNL     1      33.817  42.624  19.392 -0.37 +0.01    -0.315 NA ATOM     28  H   UNL     1      34.156  42.083  20.189 +0.06 +0.02    +0.122 HD BRANCH  27  29ATOM     29  C   UNL     1      33.385  43.949  19.814 -0.43 -0.01    +0.081 C  BRANCH  29  30ATOM     30  C   UNL     1      33.185  44.901  18.645 -0.45 -0.01    +0.018 CG0ATOM     31  G   UNL     1      34.409  45.701  18.214 +0.00 +0.00    +0.000 G0 ENDBRANCH  29  30ENDBRANCH  27  29ENDBRANCH  26  27ENDBRANCH  25  26BRANCH  25  32ATOM     32  N   UNL     1      36.375  43.921  19.916 -0.17 +0.03    -0.345 N  ATOM     33  C   UNL     1      36.538  42.897  20.826 -0.33 +0.00    +0.251 C  ATOM     34  H   UNL     1      36.984  44.721  20.039 +0.10 -0.01    +0.164 HD ATOM     35  O   UNL     1      36.286  41.725  20.583 -0.37 +0.01    -0.269 OA BRANCH  33  36ATOM     36  C   UNL     1      37.092  43.279  22.153 -0.38 +0.00    +0.042 A  ATOM     37  C   UNL     1      37.798  44.478  22.255 -0.34 +0.00    +0.034 A  ATOM     38  C   UNL     1      36.957  42.462  23.275 -0.42 +0.00    +0.034 A  ATOM     39  C   UNL     1      38.325  44.819  23.487 -0.24 +0.01    +0.112 A  ATOM     40  C   UNL     1      37.525  42.892  24.461 -0.28 +0.00    +0.112 A  ATOM     41  N   UNL     1      38.200  44.054  24.592 -0.11 -0.01    -0.265 NA ENDBRANCH  33  36ENDBRANCH  25  32ENDBRANCH  22  25ENDBRANCH   1  22TORSDOF 9TERENDMDL