MODEL        6USER    Run = 6USERUSER    Estimated Free Energy of Binding    =  -8.40 kcal/mol  [=(1)+(2)+(3)-(4)]USERUSER    (1) Final Intermolecular Energy     = -12.58 kcal/molUSER        vdW + Hbond + desolv Energy     = -12.75 kcal/molUSER        Electrostatic Energy            =  -0.03 kcal/molUSER        Moving Ligand-Fixed Receptor    = -12.78 kcal/molUSER        Moving Ligand-Moving Receptor   =  +0.21 kcal/molUSER    (2) Final Total Internal Energy     =  -2.70 kcal/molUSER    (3) Torsional Free Energy           =  +4.18 kcal/molUSER    (4) Unbound System's Energy         =  -2.70 kcal/molUSERUSERREMARK SMILES COc1ccc(O)c(C(=O)c2ccc(C(=O)N[C@@H]3CCCNC[C@H]3NC(=O)c3ccncc3)cc2)c1FREMARK SMILES IDX 15 1 16 2 17 3 14 5 11 6 12 7 35 8 13 9 34 10 9 11 10 12REMARK SMILES IDX 8 13 3 14 4 15 36 16 5 17 6 18 37 19 2 20 1 21 7 22 18 24REMARK SMILES IDX 19 25 24 27 23 28 22 29 21 31 20 32 25 34 26 35 27 37 28 38REMARK SMILES IDX 29 39 33 40 30 41 32 42 31 43REMARK H PARENT 17 4 7 23 22 30 25 36REMARK Flexibility Score:   88.900USER                              x       y       z     vdW  Elec       q    TypeUSER                           _______ _______ _______ _____ _____    ______ ____ROOTATOM      1  C   UNL     1      36.418  44.752  17.121 -0.22 -0.09    +0.251 C  ATOM      2  O   UNL     1      36.139  43.966  16.222 -0.24 +0.10    -0.269 OA ATOM      3  N   UNL     1      36.633  46.099  16.910 -0.14 +0.19    -0.347 N  ATOM      4  H   UNL     1      37.057  46.634  17.656 +0.09 -0.08    +0.164 HD ENDROOTBRANCH   1   5ATOM      5  C   UNL     1      36.615  44.262  18.514 -0.31 -0.01    +0.039 A  ATOM      6  C   UNL     1      36.909  43.227  21.103 -0.41 +0.00    +0.023 A  ATOM      7  C   UNL     1      35.703  43.061  20.415 -0.43 -0.00    +0.013 A  ATOM      8  C   UNL     1      37.969  43.912  20.497 -0.32 -0.00    +0.013 A  ATOM      9  C   UNL     1      35.552  43.587  19.130 -0.37 -0.00    +0.014 A  ATOM     10  C   UNL     1      37.818  44.440  19.207 -0.35 -0.00    +0.014 A  BRANCH   6  11ATOM     11  C   UNL     1      37.047  42.583  22.427 -0.37 +0.01    +0.199 C  ATOM     12  O   UNL     1      37.273  41.372  22.462 -0.41 -0.02    -0.288 OA BRANCH  11  13ATOM     13  C   UNL     1      36.978  43.311  23.716 -0.29 +0.01    +0.104 A  ATOM     14  C   UNL     1      37.280  45.321  25.067 -0.21 +0.02    +0.155 A  ATOM     15  C   UNL     1      36.812  44.637  26.192 -0.32 -0.01    +0.053 A  ATOM     16  C   UNL     1      37.356  44.649  23.835 -0.18 +0.03    +0.179 A  ATOM     17  C   UNL     1      36.406  43.305  26.080 -0.36 -0.00    +0.051 A  ATOM     18  C   UNL     1      36.476  42.656  24.850 -0.26 +0.00    +0.130 A  ATOM     19  F   UNL     1      37.773  45.332  22.756 -0.10 -0.03    -0.202 F  BRANCH  14  20ATOM     20  O   UNL     1      37.691  46.628  25.049 -0.64 -0.08    -0.494 OA ATOM     21  C   UNL     1      36.983  47.543  25.880 -0.27 -0.01    +0.278 C  ENDBRANCH  14  20BRANCH  18  22ATOM     22  O   UNL     1      36.026  41.361  24.829 -0.08 +0.11    -0.507 OA ATOM     23  H   UNL     1      36.413  40.929  24.031 +0.09 -0.05    +0.293 HD ENDBRANCH  18  22ENDBRANCH  11  13ENDBRANCH   6  11ENDBRANCH   1   5BRANCH   3  24ATOM     24  C   UNL     1      36.742  46.640  15.550 -0.38 -0.07    +0.106 C  BRANCH  24  25ATOM     25  C   UNL     1      35.449  46.358  14.774 -0.42 -0.02    +0.028 CG0ATOM     26  G   UNL     1      35.597  46.247  13.248 +0.00 +0.00    +0.000 G0 ENDBRANCH  24  25BRANCH  24  27ATOM     27  C   UNL     1      38.025  46.102  14.854 -0.38 -0.04    +0.118 C  BRANCH  27  28ATOM     28  C   UNL     1      38.429  46.851  13.562 -0.35 -0.03    +0.108 C  BRANCH  28  29ATOM     29  N   UNL     1      37.516  47.891  13.078 -0.79 +0.08    -0.315 NA ATOM     30  H   UNL     1      37.345  48.572  13.815 +0.05 -0.06    +0.122 HD BRANCH  29  31ATOM     31  C   UNL     1      36.246  47.429  12.529 -0.68 -0.04    +0.081 C  BRANCH  31  32ATOM     32  C   UNL     1      35.600  46.247  13.247 -0.56 -0.01    +0.017 CG0ATOM     33  G   UNL     1      35.450  46.358  14.774 +0.00 +0.00    +0.000 G0 ENDBRANCH  31  32ENDBRANCH  29  31ENDBRANCH  28  29ENDBRANCH  27  28BRANCH  27  34ATOM     34  N   UNL     1      39.140  46.062  15.810 -0.15 +0.08    -0.346 N  ATOM     35  C   UNL     1      39.588  47.199  16.442 -0.36 -0.07    +0.251 C  ATOM     36  H   UNL     1      39.379  45.164  16.198 +0.12 -0.03    +0.164 HD ATOM     37  O   UNL     1      39.168  48.323  16.197 -0.34 +0.13    -0.269 OA BRANCH  35  38ATOM     38  C   UNL     1      40.618  47.006  17.492 -0.49 -0.01    +0.042 A  ATOM     39  C   UNL     1      41.609  47.978  17.633 -0.42 -0.00    +0.034 A  ATOM     40  C   UNL     1      40.635  45.878  18.313 -0.46 -0.00    +0.034 A  ATOM     41  C   UNL     1      42.567  47.791  18.609 -0.40 +0.00    +0.112 A  ATOM     42  C   UNL     1      41.639  45.783  19.260 -0.34 +0.01    +0.112 A  ATOM     43  N   UNL     1      42.601  46.718  19.429 -0.31 -0.06    -0.265 NA ENDBRANCH  35  38ENDBRANCH  27  34ENDBRANCH  24  27ENDBRANCH   3  24TORSDOF 8TERENDMDL