MODEL        6USER    Run = 6USERUSER    Estimated Free Energy of Binding    = -12.33 kcal/mol  [=(1)+(2)+(3)-(4)]USERUSER    (1) Final Intermolecular Energy     = -14.12 kcal/molUSER        vdW + Hbond + desolv Energy     = -13.84 kcal/molUSER        Electrostatic Energy            =  -0.28 kcal/molUSER        Moving Ligand-Fixed Receptor    = -14.12 kcal/molUSER        Moving Ligand-Moving Receptor   =  +0.00 kcal/molUSER    (2) Final Total Internal Energy     =  -1.86 kcal/molUSER    (3) Torsional Free Energy           =  +1.79 kcal/molUSER    (4) Unbound System's Energy         =  -1.86 kcal/molUSERUSERREMARK SMILES Oc1nc2ccccc2n1C1CCN(Cc2ccc(-c3cc4ccccc4nc3-c3ccccc3)cc2)CC1REMARK SMILES IDX 11 1 12 2 13 3 14 4 38 5 39 6 10 7 2 8 3 9 4 10 9 11 5 12REMARK SMILES IDX 8 13 6 14 7 15 1 16 15 18 16 19 17 20 37 21 18 22 36 23REMARK SMILES IDX 19 24 20 25 21 26 29 27 22 28 28 29 23 30 27 31 24 32 26 33REMARK SMILES IDX 25 34 30 35 31 36 35 37 32 38 34 39 33 40REMARK H PARENT 1 17USER                              x       y       z     vdW  Elec       q    TypeUSER                           _______ _______ _______ _____ _____    ______ ____ROOTATOM      1  C   UNL     1      28.060  41.567  15.955 -0.28 -0.03    +0.095 C  ATOM      2  C   UNL     1      29.279  40.726  15.546 -0.43 -0.01    +0.041 C  ATOM      3  C   UNL     1      30.478  40.850  16.480 -0.33 -0.02    +0.087 C  ATOM      4  N   UNL     1      30.801  42.226  16.864 -0.12 +0.10    -0.299 NA ATOM      5  C   UNL     1      29.654  42.863  17.518 -0.21 -0.02    +0.087 C  ATOM      6  C   UNL     1      28.380  42.885  16.678 -0.26 -0.01    +0.041 C  ENDROOTBRANCH   1   7ATOM      7  N   UNL     1      26.976  40.795  16.560 -0.12 +0.01    -0.291 N  ATOM      8  C   UNL     1      26.231  39.870  15.868 -0.08 +0.07    +0.295 A  ATOM      9  N   UNL     1      25.295  39.312  16.581 -0.60 -0.02    -0.195 NA ATOM     10  C   UNL     1      25.425  39.888  17.816 -0.26 -0.00    +0.092 A  ATOM     11  C   UNL     1      26.475  40.817  17.846 -0.20 -0.00    +0.072 A  ATOM     12  C   UNL     1      24.662  39.652  18.971 -0.29 -0.01    +0.031 A  ATOM     13  C   UNL     1      26.790  41.513  19.019 -0.18 -0.00    +0.029 A  ATOM     14  C   UNL     1      24.969  40.349  20.142 -0.33 -0.00    +0.002 A  ATOM     15  C   UNL     1      26.018  41.263  20.162 -0.34 -0.00    +0.002 A  BRANCH   8  16ATOM     16  O   UNL     1      26.410  39.548  14.603 -0.68 -0.14    -0.480 OA ATOM     17  H   UNL     1      26.296  40.414  14.172 +0.15 -0.12    +0.296 HD ENDBRANCH   8  16ENDBRANCH   1   7BRANCH   4  18ATOM     18  C   UNL     1      31.354  43.002  15.742 -0.33 -0.06    +0.120 C  BRANCH  18  19ATOM     19  C   UNL     1      32.746  43.531  16.012 -0.31 +0.02    -0.034 A  ATOM     20  C   UNL     1      33.774  42.677  16.430 -0.32 -0.00    +0.006 A  ATOM     21  C   UNL     1      33.027  44.895  15.848 -0.34 -0.00    +0.006 A  ATOM     22  C   UNL     1      35.055  43.176  16.679 -0.40 -0.00    +0.009 A  ATOM     23  C   UNL     1      34.306  45.393  16.106 -0.31 -0.01    +0.009 A  ATOM     24  C   UNL     1      35.337  44.543  16.530 -0.31 +0.01    -0.016 A  BRANCH  24  25ATOM     25  C   UNL     1      36.685  45.068  16.793 -0.33 -0.00    +0.009 A  ATOM     26  C   UNL     1      37.254  44.890  18.063 -0.34 -0.00    +0.021 A  ATOM     27  C   UNL     1      37.474  45.718  15.829 -0.31 -0.03    +0.079 A  ATOM     28  C   UNL     1      38.553  45.333  18.339 -0.40 -0.00    +0.001 A  ATOM     29  N   UNL     1      38.745  46.143  16.080 -0.21 +0.07    -0.247 NA ATOM     30  C   UNL     1      39.142  45.162  19.604 -0.39 -0.00    +0.010 A  ATOM     31  C   UNL     1      39.268  45.959  17.303 -0.38 -0.01    +0.071 A  ATOM     32  C   UNL     1      40.439  45.610  19.844 -0.40 +0.00    +0.001 A  ATOM     33  C   UNL     1      40.560  46.395  17.566 -0.48 -0.00    +0.029 A  ATOM     34  C   UNL     1      41.151  46.228  18.822 -0.49 +0.00    +0.002 A  BRANCH  27  35ATOM     35  C   UNL     1      37.021  46.013  14.456 -0.41 -0.00    +0.001 A  ATOM     36  C   UNL     1      36.597  47.307  14.108 -0.49 -0.01    +0.010 A  ATOM     37  C   UNL     1      36.976  45.018  13.463 -0.45 -0.00    +0.010 A  ATOM     38  C   UNL     1      36.169  47.603  12.811 -0.65 -0.00    +0.001 A  ATOM     39  C   UNL     1      36.546  45.312  12.166 -0.57 -0.00    +0.001 A  ATOM     40  C   UNL     1      36.147  46.606  11.839 -0.65 -0.00    +0.000 A  ENDBRANCH  27  35ENDBRANCH  24  25ENDBRANCH  18  19ENDBRANCH   4  18TORSDOF 6TERENDMDL