MODEL        8USER    Run = 8USERUSER    Estimated Free Energy of Binding    = -12.22 kcal/mol  [=(1)+(2)+(3)-(4)]USERUSER    (1) Final Intermolecular Energy     = -14.01 kcal/molUSER        vdW + Hbond + desolv Energy     = -13.89 kcal/molUSER        Electrostatic Energy            =  -0.13 kcal/molUSER        Moving Ligand-Fixed Receptor    = -14.01 kcal/molUSER        Moving Ligand-Moving Receptor   =  +0.00 kcal/molUSER    (2) Final Total Internal Energy     =  -1.68 kcal/molUSER    (3) Torsional Free Energy           =  +1.79 kcal/molUSER    (4) Unbound System's Energy         =  -1.68 kcal/molUSERUSERREMARK SMILES Cn1ccc2ccc3c4[nH]c5c(CCCN[C@H]6CC[C@H](O)CC6)cccc5c4c4c(c3c21)C(=O)NC4=OREMARK SMILES IDX 15 1 14 2 13 3 12 4 2 5 3 6 32 7 4 8 31 9 5 10 30 11 8 12REMARK SMILES IDX 6 13 29 14 33 15 7 16 9 17 28 18 36 19 35 20 10 21 27 22REMARK SMILES IDX 11 23 26 24 25 25 24 26 1 27 34 28 37 29 16 32 17 34 23 35REMARK SMILES IDX 18 36 22 37 19 38 20 39 21 40REMARK H PARENT 35 30 10 31 16 33 21 41USER                              x       y       z     vdW  Elec       q    TypeUSER                           _______ _______ _______ _____ _____    ______ ____ROOTATOM      1  C   UNL     1      35.962  42.846  20.652 -0.46 +0.00    +0.081 C  ENDROOTBRANCH   1   2ATOM      2  C   UNL     1      36.564  43.112  22.035 -0.41 +0.00    +0.020 C  BRANCH   2   3ATOM      3  C   UNL     1      37.825  42.285  22.309 -0.43 +0.00    +0.039 C  BRANCH   3   4ATOM      4  C   UNL     1      39.114  43.057  22.163 -0.16 -0.00    -0.024 A  ATOM      5  N   UNL     1      39.666  47.928  15.009 -0.23 +0.10    -0.350 N  ATOM      6  C   UNL     1      38.702  48.363  14.129 -0.41 -0.03    +0.086 A  ATOM      7  C   UNL     1      39.080  47.314  16.110 -0.42 -0.02    +0.057 A  ATOM      8  C   UNL     1      37.502  47.845  14.535 -0.50 -0.02    +0.028 A  ATOM      9  C   UNL     1      39.581  46.829  17.376 -0.44 -0.00    +0.022 A  ATOM     10  C   UNL     1      37.738  47.121  15.731 -0.42 -0.00    +0.000 A  ATOM     11  C   UNL     1      40.800  47.123  18.006 -0.46 -0.01    +0.063 A  ATOM     12  C   UNL     1      38.711  45.942  18.083 -0.38 -0.00    +0.009 A  ATOM     13  C   UNL     1      36.893  46.324  16.521 -0.37 -0.01    +0.011 A  ATOM     14  C   UNL     1      41.220  46.477  19.175 -0.41 +0.00    +0.063 A  ATOM     15  C   UNL     1      41.799  48.180  17.769 -0.23 -0.00    +0.259 C  ATOM     16  C   UNL     1      37.396  45.699  17.659 -0.34 -0.00    +0.012 A  ATOM     17  C   UNL     1      39.173  45.295  19.272 -0.37 -0.00    +0.055 A  ATOM     18  C   UNL     1      40.436  45.524  19.831 -0.40 +0.00    +0.022 A  ATOM     19  C   UNL     1      42.515  47.035  19.560 -0.37 +0.04    +0.259 C  ATOM     20  N   UNL     1      42.839  47.944  18.608 -0.34 -0.01    -0.288 N  ATOM     21  N   UNL     1      38.554  44.374  20.090 -0.14 +0.01    -0.354 N  ATOM     22  C   UNL     1      40.557  44.692  20.995 -0.33 +0.00    +0.008 A  ATOM     23  C   UNL     1      39.363  43.982  21.129 -0.20 +0.00    +0.050 A  ATOM     24  C   UNL     1      41.568  44.469  21.953 -0.26 +0.00    +0.011 A  ATOM     25  C   UNL     1      41.354  43.560  22.994 -0.25 +0.00    +0.001 A  ATOM     26  C   UNL     1      40.151  42.871  23.095 -0.27 +0.00    +0.006 A  ATOM     27  C   UNL     1      41.061  47.917  14.621 -0.27 -0.01    +0.149 C  ATOM     28  O   UNL     1      41.686  49.152  17.051 -0.94 -0.04    -0.269 OA ATOM     29  O   UNL     1      43.161  46.797  20.559 -0.32 -0.10    -0.269 OA ATOM     30  H   UNL     1      43.588  48.606  18.738 -0.43 -0.01    +0.173 HD ATOM     31  H   UNL     1      37.628  44.008  19.938 +0.11 -0.01    +0.167 HD ENDBRANCH   3   4ENDBRANCH   2   3ENDBRANCH   1   2BRANCH   1  32ATOM     32  N   UNL     1      35.712  44.124  19.982 -0.20 +0.03    -0.314 NA ATOM     33  H   UNL     1      35.056  44.682  20.527 +0.04 -0.02    +0.122 HD BRANCH  32  34ATOM     34  C   UNL     1      35.212  43.960  18.610 -0.36 -0.01    +0.053 C  ATOM     35  C   UNL     1      34.781  42.512  18.294 -0.44 -0.00    +0.021 C  ATOM     36  C   UNL     1      34.052  44.960  18.430 -0.45 -0.01    +0.021 C  ATOM     37  C   UNL     1      33.288  42.285  18.523 -0.43 -0.01    +0.033 C  ATOM     38  C   UNL     1      33.123  44.530  17.303 -0.35 -0.01    +0.033 C  ATOM     39  C   UNL     1      32.443  43.195  17.622 -0.29 -0.03    +0.114 C  BRANCH  39  40ATOM     40  O   UNL     1      32.178  42.536  16.384 -0.13 +0.20    -0.393 OA ATOM     41  H   UNL     1      32.483  41.617  16.470 -0.42 -0.15    +0.210 HD ENDBRANCH  39  40ENDBRANCH  32  34ENDBRANCH   1  32TORSDOF 6TERENDMDL