MODEL        2USER    Run = 2USERUSER    Estimated Free Energy of Binding    =  -7.09 kcal/mol  [=(1)+(2)+(3)-(4)]USERUSER    (1) Final Intermolecular Energy     = -11.56 kcal/molUSER        vdW + Hbond + desolv Energy     = -11.89 kcal/molUSER        Electrostatic Energy            =  +0.01 kcal/molUSER        Moving Ligand-Fixed Receptor    = -11.88 kcal/molUSER        Moving Ligand-Moving Receptor   =  +0.32 kcal/molUSER    (2) Final Total Internal Energy     =  -2.05 kcal/molUSER    (3) Torsional Free Energy           =  +4.47 kcal/molUSER    (4) Unbound System's Energy         =  -2.05 kcal/molUSERUSERREMARK SMILES COc1ccc(O)c(C(=O)c2ccc(/C=C/[C@@H]3CCCNC[C@H]3NC(=O)c3ccncc3)cc2)c1FREMARK SMILES IDX 16 1 15 2 14 3 11 4 12 5 34 6 13 7 33 8 9 9 10 10 8 11 3 12REMARK SMILES IDX 4 13 35 14 5 15 6 16 36 17 2 18 1 19 7 20 17 22 18 23 23 25REMARK SMILES IDX 22 26 21 27 20 29 19 30 24 32 25 33 26 35 27 36 28 37 32 38REMARK SMILES IDX 29 39 31 40 30 41REMARK H PARENT 7 21 21 28 24 34REMARK Flexibility Score:   99.900USER                              x       y       z     vdW  Elec       q    TypeUSER                           _______ _______ _______ _____ _____    ______ ____ROOTATOM      1  C   UNL     1      35.856  43.706  19.480 -0.44 +0.00    -0.021 C  ENDROOTBRANCH   1   2ATOM      2  C   UNL     1      36.675  42.890  20.162 -0.45 -0.00    +0.004 C  BRANCH   2   3ATOM      3  C   UNL     1      36.777  42.884  21.627 -0.42 -0.00    -0.026 A  ATOM      4  C   UNL     1      36.999  42.796  24.424 -0.38 +0.00    +0.023 A  ATOM      5  C   UNL     1      36.643  41.644  23.715 -0.37 +0.00    +0.013 A  ATOM      6  C   UNL     1      37.282  43.979  23.737 -0.33 +0.00    +0.013 A  ATOM      7  C   UNL     1      36.538  41.692  22.320 -0.55 +0.00    +0.009 A  ATOM      8  C   UNL     1      37.164  44.024  22.346 -0.36 +0.00    +0.009 A  BRANCH   4   9ATOM      9  C   UNL     1      37.150  42.777  25.894 -0.28 -0.01    +0.199 C  ATOM     10  O   UNL     1      36.189  43.097  26.595 -0.26 +0.04    -0.288 OA BRANCH   9  11ATOM     11  C   UNL     1      38.425  42.438  26.567 -0.24 -0.01    +0.104 A  ATOM     12  C   UNL     1      40.855  42.566  26.727 -0.12 -0.01    +0.155 A  ATOM     13  C   UNL     1      40.817  41.772  27.874 -0.19 -0.00    +0.053 A  ATOM     14  C   UNL     1      39.653  42.890  26.080 -0.12 -0.00    +0.179 A  ATOM     15  C   UNL     1      39.595  41.291  28.353 -0.23 +0.00    +0.051 A  ATOM     16  C   UNL     1      38.412  41.611  27.695 -0.34 -0.01    +0.130 A  ATOM     17  F   UNL     1      39.706  43.622  24.955 -0.02 -0.00    -0.202 F  BRANCH  12  18ATOM     18  O   UNL     1      41.989  43.078  26.154 -0.03 +0.03    -0.494 OA ATOM     19  C   UNL     1      42.411  42.508  24.922 -0.08 -0.02    +0.278 C  ENDBRANCH  12  18BRANCH  16  20ATOM     20  O   UNL     1      37.264  41.073  28.214 -0.21 +0.15    -0.507 OA ATOM     21  H   UNL     1      36.632  41.811  28.373 -0.28 -0.15    +0.293 HD ENDBRANCH  16  20ENDBRANCH   9  11ENDBRANCH   4   9ENDBRANCH   2   3ENDBRANCH   1   2BRANCH   1  22ATOM     22  C   UNL     1      36.282  44.769  18.470 -0.38 -0.01    +0.035 C  BRANCH  22  23ATOM     23  C   UNL     1      34.996  45.472  17.994 -0.45 -0.01    +0.011 CG0ATOM     24  G   UNL     1      33.826  44.609  17.535 +0.00 +0.00    +0.000 G0 ENDBRANCH  22  23BRANCH  22  25ATOM     25  C   UNL     1      37.219  44.298  17.316 -0.31 -0.03    +0.103 C  BRANCH  25  26ATOM     26  C   UNL     1      36.427  44.107  15.990 -0.36 -0.04    +0.106 C  BRANCH  26  27ATOM     27  N   UNL     1      35.238  43.263  16.016 -0.22 +0.13    -0.315 NA ATOM     28  H   UNL     1      35.338  42.561  16.750 +0.05 -0.05    +0.122 HD BRANCH  27  29ATOM     29  C   UNL     1      33.977  43.974  16.160 -0.34 -0.04    +0.081 C  BRANCH  29  30ATOM     30  C   UNL     1      33.826  44.610  17.534 -0.37 -0.01    +0.016 CG0ATOM     31  G   UNL     1      34.997  45.475  17.989 +0.00 +0.00    +0.000 G0 ENDBRANCH  29  30ENDBRANCH  27  29ENDBRANCH  26  27ENDBRANCH  25  26BRANCH  25  32ATOM     32  N   UNL     1      38.300  45.266  17.077 -0.14 +0.08    -0.347 N  ATOM     33  C   UNL     1      38.056  46.508  16.533 -0.28 -0.10    +0.251 C  ATOM     34  H   UNL     1      39.201  45.077  17.495 +0.11 -0.02    +0.164 HD ATOM     35  O   UNL     1      36.942  46.898  16.207 -0.28 +0.19    -0.269 OA BRANCH  33  36ATOM     36  C   UNL     1      39.234  47.398  16.384 -0.44 -0.01    +0.042 A  ATOM     37  C   UNL     1      39.302  48.362  15.377 -0.51 -0.01    +0.034 A  ATOM     38  C   UNL     1      40.276  47.279  17.302 -0.48 -0.01    +0.034 A  ATOM     39  C   UNL     1      40.435  49.152  15.319 -0.52 -0.04    +0.112 A  ATOM     40  C   UNL     1      41.366  48.115  17.155 -0.40 -0.01    +0.112 A  ATOM     41  N   UNL     1      41.472  49.042  16.178 -0.91 -0.00    -0.265 NA ENDBRANCH  33  36ENDBRANCH  25  32ENDBRANCH  22  25ENDBRANCH   1  22TORSDOF 9TERENDMDL