MODEL        3USER    Run = 3USERUSER    Estimated Free Energy of Binding    =  -7.64 kcal/mol  [=(1)+(2)+(3)-(4)]USERUSER    (1) Final Intermolecular Energy     = -11.81 kcal/molUSER        vdW + Hbond + desolv Energy     = -11.82 kcal/molUSER        Electrostatic Energy            =  -0.26 kcal/molUSER        Moving Ligand-Fixed Receptor    = -12.08 kcal/molUSER        Moving Ligand-Moving Receptor   =  +0.27 kcal/molUSER    (2) Final Total Internal Energy     =  -3.25 kcal/molUSER    (3) Torsional Free Energy           =  +4.18 kcal/molUSER    (4) Unbound System's Energy         =  -3.25 kcal/molUSERUSERREMARK SMILES COc1ccc(O)c(C(=O)c2ccc(C(=O)N[C@@H]3CC[C@H](C)NC[C@H]3NC(=O)c3ccncc3)cc2)c1FREMARK SMILES IDX 15 1 16 2 17 3 14 5 11 6 12 7 36 8 13 9 35 10 9 11 10 12REMARK SMILES IDX 8 13 3 14 4 15 37 16 5 17 6 18 38 19 2 20 1 21 7 22 18 24REMARK SMILES IDX 19 25 25 27 24 28 23 29 21 31 22 32 20 33 26 35 27 36 28 38REMARK SMILES IDX 29 39 30 40 34 41 31 42 33 43 32 44REMARK H PARENT 17 4 7 23 23 30 26 37REMARK Flexibility Score:   88.900USER                              x       y       z     vdW  Elec       q    TypeUSER                           _______ _______ _______ _____ _____    ______ ____ROOTATOM      1  C   UNL     1      39.605  43.601  23.365 -0.15 +0.01    +0.251 C  ATOM      2  O   UNL     1      40.320  42.788  23.938 -0.16 -0.01    -0.269 OA ATOM      3  N   UNL     1      38.366  43.984  23.839 -0.08 -0.02    -0.347 N  ATOM      4  H   UNL     1      37.846  44.706  23.358 +0.08 +0.02    +0.164 HD ENDROOTBRANCH   1   5ATOM      5  C   UNL     1      40.075  44.255  22.110 -0.24 +0.00    +0.039 A  ATOM      6  C   UNL     1      40.847  45.521  19.728 -0.40 +0.00    +0.023 A  ATOM      7  C   UNL     1      39.587  45.779  20.278 -0.28 +0.00    +0.013 A  ATOM      8  C   UNL     1      41.737  44.670  20.393 -0.28 +0.00    +0.013 A  ATOM      9  C   UNL     1      39.204  45.144  21.463 -0.33 +0.00    +0.014 A  ATOM     10  C   UNL     1      41.353  44.036  21.581 -0.31 +0.00    +0.014 A  BRANCH   6  11ATOM     11  C   UNL     1      41.303  46.183  18.483 -0.42 +0.00    +0.199 C  ATOM     12  O   UNL     1      42.505  46.418  18.339 -0.31 -0.02    -0.288 OA BRANCH  11  13ATOM     13  C   UNL     1      40.378  46.624  17.415 -0.42 -0.01    +0.104 A  ATOM     14  C   UNL     1      38.371  46.317  16.063 -0.29 -0.05    +0.155 A  ATOM     15  C   UNL     1      38.650  47.508  15.386 -0.44 -0.02    +0.053 A  ATOM     16  C   UNL     1      39.246  45.883  17.068 -0.29 -0.03    +0.179 A  ATOM     17  C   UNL     1      39.797  48.240  15.702 -0.51 -0.02    +0.051 A  ATOM     18  C   UNL     1      40.662  47.792  16.699 -0.44 -0.02    +0.130 A  ATOM     19  F   UNL     1      38.991  44.717  17.684 -0.08 +0.03    -0.202 F  BRANCH  14  20ATOM     20  O   UNL     1      37.290  45.508  15.833 -0.05 +0.20    -0.494 OA ATOM     21  C   UNL     1      35.999  46.071  16.026 -0.22 -0.21    +0.278 C  ENDBRANCH  14  20BRANCH  18  22ATOM     22  O   UNL     1      41.778  48.552  16.924 -0.63 -0.04    -0.507 OA ATOM     23  H   UNL     1      42.536  47.936  17.064 -0.33 -0.02    +0.293 HD ENDBRANCH  18  22ENDBRANCH  11  13ENDBRANCH   6  11ENDBRANCH   1   5BRANCH   3  24ATOM     24  C   UNL     1      37.782  43.390  25.050 -0.28 +0.00    +0.106 C  BRANCH  24  25ATOM     25  C   UNL     1      36.718  42.360  24.636 -0.45 +0.00    +0.029 CG0ATOM     26  G   UNL     1      35.783  41.913  25.758 +0.00 +0.00    +0.000 G0 ENDBRANCH  24  25BRANCH  24  27ATOM     27  C   UNL     1      37.328  44.495  26.044 -0.30 -0.01    +0.118 C  BRANCH  27  28ATOM     28  C   UNL     1      36.890  43.955  27.428 -0.38 -0.02    +0.108 C  BRANCH  28  29ATOM     29  N   UNL     1      37.286  42.566  27.688 -0.18 +0.07    -0.312 NA ATOM     30  H   UNL     1      38.256  42.466  27.386 +0.07 -0.01    +0.123 HD BRANCH  29  31ATOM     31  C   UNL     1      36.464  41.526  27.079 -0.56 -0.01    +0.050 C  ATOM     32  C   UNL     1      35.495  40.927  28.104 -0.53 -0.01    +0.024 C  BRANCH  31  33ATOM     33  C   UNL     1      35.782  41.918  25.759 -0.41 -0.00    +0.021 CG0ATOM     34  G   UNL     1      36.719  42.360  24.637 +0.00 +0.00    +0.000 G0 ENDBRANCH  31  33ENDBRANCH  29  31ENDBRANCH  28  29ENDBRANCH  27  28BRANCH  27  35ATOM     35  N   UNL     1      38.352  45.550  26.182 -0.08 +0.01    -0.346 N  ATOM     36  C   UNL     1      38.462  46.565  25.253 -0.20 +0.02    +0.251 C  ATOM     37  H   UNL     1      39.089  45.413  26.859 +0.06 -0.00    +0.164 HD ATOM     38  O   UNL     1      37.727  46.661  24.277 -0.53 -0.08    -0.269 OA BRANCH  36  39ATOM     39  C   UNL     1      39.554  47.552  25.463 -0.23 +0.00    +0.042 A  ATOM     40  C   UNL     1      40.412  47.819  24.395 -0.28 +0.00    +0.034 A  ATOM     41  C   UNL     1      39.725  48.235  26.668 -0.23 +0.00    +0.034 A  ATOM     42  C   UNL     1      41.423  48.742  24.585 -0.30 +0.02    +0.112 A  ATOM     43  C   UNL     1      40.768  49.141  26.757 -0.23 +0.01    +0.112 A  ATOM     44  N   UNL     1      41.623  49.402  25.746 -0.21 -0.04    -0.265 NA ENDBRANCH  36  39ENDBRANCH  27  35ENDBRANCH  24  27ENDBRANCH   3  24TORSDOF 8TERENDMDL