REMARK SMILES COc1ccc(O)c(C(=O)c2ccc(C(=O)N[C@@H]3CC[C@H](C)NC[C@H]3NC(=O)c3ccncc3)cc2)c1F
REMARK SMILES IDX 15 1 16 2 17 3 14 5 11 6 12 7 36 8 13 9 35 10 9 11 10 12
REMARK SMILES IDX 8 13 3 14 4 15 37 16 5 17 6 18 38 19 2 20 1 21 7 22 18 24
REMARK SMILES IDX 19 25 25 27 24 28 23 29 21 31 22 32 20 33 26 35 27 36 28 38
REMARK SMILES IDX 29 39 30 40 34 41 31 42 33 43 32 44
REMARK H PARENT 17 4 7 23 23 30 26 37
REMARK Flexibility Score:   88.900
ROOT
ATOM      1  C   UNL     1       0.103   0.993   1.054  1.00  0.00     0.251 C 
ATOM      2  O   UNL     1      -0.076   2.200   0.938  1.00  0.00    -0.269 OA
ATOM      3  N   UNL     1      -0.920   0.068   0.995  1.00  0.00    -0.347 N 
ATOM      4  H   UNL     1      -0.707  -0.919   1.034  1.00  0.00     0.164 HD
ENDROOT
BRANCH   1   5
ATOM      5  C   UNL     1       1.483   0.458   1.235  1.00  0.00     0.039 A 
ATOM      6  C   UNL     1       4.120  -0.464   1.498  1.00  0.00     0.023 A 
ATOM      7  C   UNL     1       3.871   0.776   0.900  1.00  0.00     0.013 A 
ATOM      8  C   UNL     1       3.056  -1.218   2.007  1.00  0.00     0.013 A 
ATOM      9  C   UNL     1       2.556   1.231   0.767  1.00  0.00     0.014 A 
ATOM     10  C   UNL     1       1.740  -0.761   1.875  1.00  0.00     0.014 A 
BRANCH   6  11
ATOM     11  C   UNL     1       5.498  -0.980   1.676  1.00  0.00     0.199 C 
ATOM     12  O   UNL     1       5.785  -1.564   2.723  1.00  0.00    -0.288 OA
BRANCH  11  13
ATOM     13  C   UNL     1       6.570  -0.787   0.674  1.00  0.00     0.104 A 
ATOM     14  C   UNL     1       7.324  -0.559  -1.635  1.00  0.00     0.155 A 
ATOM     15  C   UNL     1       8.639  -0.410  -1.186  1.00  0.00     0.053 A 
ATOM     16  C   UNL     1       6.301  -0.755  -0.696  1.00  0.00     0.179 A 
ATOM     17  C   UNL     1       8.924  -0.473   0.180  1.00  0.00     0.051 A 
ATOM     18  C   UNL     1       7.898  -0.675   1.101  1.00  0.00     0.130 A 
ATOM     19  F   UNL     1       5.047  -0.938  -1.140  1.00  0.00    -0.202 F 
BRANCH  14  20
ATOM     20  O   UNL     1       6.924  -0.531  -2.944  1.00  0.00    -0.494 OA
ATOM     21  C   UNL     1       7.932  -0.364  -3.933  1.00  0.00     0.278 C 
ENDBRANCH  14  20
BRANCH  18  22
ATOM     22  O   UNL     1       8.267  -0.756   2.417  1.00  0.00    -0.507 OA
ATOM     23  H   UNL     1       7.507  -1.136   2.918  1.00  0.00     0.293 HD
ENDBRANCH  18  22
ENDBRANCH  11  13
ENDBRANCH   6  11
ENDBRANCH   1   5
BRANCH   3  24
ATOM     24  C   UNL     1      -2.325   0.475   0.848  1.00  0.00     0.106 C 
BRANCH  24  25
ATOM     25  C   UNL     1      -2.863   0.915   2.219  1.00  0.00     0.029 CG0
ATOM     26  G   UNL     1      -4.363   1.198   2.262  1.00  0.00     0.000 G0
ENDBRANCH  24  25
BRANCH  24  27
ATOM     27  C   UNL     1      -3.141  -0.617   0.100  1.00  0.00     0.118 C 
BRANCH  27  28
ATOM     28  C   UNL     1      -3.949  -1.550   1.036  1.00  0.00     0.108 C 
BRANCH  28  29
ATOM     29  N   UNL     1      -5.258  -1.020   1.435  1.00  0.00    -0.312 NA
ATOM     30  H   UNL     1      -5.698  -0.637   0.597  1.00  0.00     0.123 HD
BRANCH  29  31
ATOM     31  C   UNL     1      -5.264  -0.024   2.501  1.00  0.00     0.050 C 
ATOM     32  C   UNL     1      -5.035  -0.684   3.865  1.00  0.00     0.024 C 
BRANCH  31  33
ATOM     33  C   UNL     1      -4.363   1.198   2.262  1.00  0.00     0.021 CG0
ATOM     34  G   UNL     1      -2.863   0.915   2.219  1.00  0.00     0.000 G0
ENDBRANCH  31  33
ENDBRANCH  29  31
ENDBRANCH  28  29
ENDBRANCH  27  28
BRANCH  27  35
ATOM     35  N   UNL     1      -4.005  -0.026  -0.941  1.00  0.00    -0.346 N 
ATOM     36  C   UNL     1      -4.452  -0.776  -2.010  1.00  0.00     0.251 C 
ATOM     37  H   UNL     1      -4.108   0.979  -0.960  1.00  0.00     0.164 HD
ATOM     38  O   UNL     1      -4.175  -1.961  -2.158  1.00  0.00    -0.269 OA
BRANCH  36  39
ATOM     39  C   UNL     1      -5.282  -0.073  -3.024  1.00  0.00     0.042 A 
ATOM     40  C   UNL     1      -5.333  -0.605  -4.313  1.00  0.00     0.034 A 
ATOM     41  C   UNL     1      -6.027   1.068  -2.721  1.00  0.00     0.034 A 
ATOM     42  C   UNL     1      -6.110   0.042  -5.255  1.00  0.00     0.112 A 
ATOM     43  C   UNL     1      -6.774   1.641  -3.736  1.00  0.00     0.112 A 
ATOM     44  N   UNL     1      -6.825   1.158  -4.995  1.00  0.00    -0.265 NA
ENDBRANCH  36  39
ENDBRANCH  27  35
ENDBRANCH  24  27
ENDBRANCH   3  24
TORSDOF 8
