caffeine
  ChemDraw01012025

 14 15  0  0  0  0  0  0  0  0999 V2000
    2.3600    0.7500    0.0000 N   0  0  0  0  0  0  0  0  0  0  0  0
    2.3600   -0.7500    0.0000 C   0  0  0  0  0  0  0  0  0  0  0  0
    1.6456   -1.1625    0.0000 N   0  0  0  0  0  0  0  0  0  0  0  0
    0.9311   -0.7500    0.0000 C   0  0  0  0  0  0  0  0  0  0  0  0
    0.9311    0.7500    0.0000 C   0  0  0  0  0  0  0  0  0  0  0  0
    1.6456    1.1625    0.0000 C   0  0  0  0  0  0  0  0  0  0  0  0
    3.0744   -1.1625    0.0000 O   0  0  0  0  0  0  0  0  0  0  0  0
    0.2167   -1.1625    0.0000 N   0  0  0  0  0  0  0  0  0  0  0  0
    0.2167    1.1625    0.0000 N   0  0  0  0  0  0  0  0  0  0  0  0
    1.6456    1.9875    0.0000 O   0  0  0  0  0  0  0  0  0  0  0  0
    3.0744    1.1625    0.0000 C   0  0  0  0  0  0  0  0  0  0  0  0
   -0.4978   -0.7500    0.0000 C   0  0  0  0  0  0  0  0  0  0  0  0
   -0.4978    0.7500    0.0000 C   0  0  0  0  0  0  0  0  0  0  0  0
    1.6456   -1.9875    0.0000 C   0  0  0  0  0  0  0  0  0  0  0  0
  1  2  1  0  0  0  0
  2  3  1  0  0  0  0
  3  4  1  0  0  0  0
  4  5  2  0  0  0  0
  5  6  1  0  0  0  0
  6  1  1  0  0  0  0
  2  7  2  0  0  0  0
  4  8  1  0  0  0  0
  5  9  1  0  0  0  0
  6 10  2  0  0  0  0
  1 11  1  0  0  0  0
  8 12  1  0  0  0  0
  9 13  1  0  0  0  0
 12 13  1  0  0  0  0
  3 14  1  0  0  0  0
M  END
$$$$