REMARK SMILES O=C(CCC[C@@H]1Cc2cc(-c3cccc(-c4ccncc4)c3F)ccc2C[C@H]1O)Nn1cnnn1
REMARK SMILES IDX 4 1 3 2 2 3 30 4 1 5 31 7 32 8 35 9 33 10 34 11 5 12 6 13
REMARK SMILES IDX 7 14 28 15 8 16 27 17 9 18 26 19 10 20 25 21 24 22 29 23
REMARK SMILES IDX 11 25 12 26 22 27 13 28 15 29 14 30 23 31 16 32 17 33 21 34
REMARK SMILES IDX 18 35 20 36 19 37
REMARK H PARENT 30 6 29 24
ROOT
ATOM      1  C   UNL     1       4.441  -0.719  -1.490  1.00  0.00     0.010 C 
ENDROOT
BRANCH   1   2
ATOM      2  C   UNL     1       5.403  -0.686  -0.301  1.00  0.00     0.102 C 
BRANCH   2   3
ATOM      3  C   UNL     1       5.775   0.720   0.141  1.00  0.00     0.240 C 
ATOM      4  N   UNL     1       6.527   0.727   1.292  1.00  0.00    -0.244 N 
ATOM      5  O   UNL     1       5.431   1.732  -0.457  1.00  0.00    -0.273 OA
ATOM      6  H   UNL     1       7.071  -0.092   1.525  1.00  0.00     0.193 HD
BRANCH   4   7
ATOM      7  N   UNL     1       7.210   1.857   1.566  1.00  0.00    -0.138 N 
ATOM      8  C   UNL     1       6.657   2.995   2.071  1.00  0.00     0.272 A 
ATOM      9  N   UNL     1       8.544   1.929   1.637  1.00  0.00    -0.024 NA
ATOM     10  N   UNL     1       7.631   3.808   2.417  1.00  0.00    -0.115 NA
ATOM     11  N   UNL     1       8.798   3.135   2.131  1.00  0.00    -0.022 NA
ENDBRANCH   4   7
ENDBRANCH   2   3
ENDBRANCH   1   2
BRANCH   1  12
ATOM     12  C   UNL     1       3.007  -0.349  -1.087  1.00  0.00     0.007 C 
BRANCH  12  13
ATOM     13  C   UNL     1       2.046  -0.217  -2.292  1.00  0.00     0.022 C 
ATOM     14  C   UNL     1       0.660   0.277  -1.831  1.00  0.00     0.042 C 
ATOM     15  C   UNL     1       1.880  -1.510  -3.106  1.00  0.00     0.122 C 
ATOM     16  C   UNL     1      -0.172  -0.795  -1.172  1.00  0.00    -0.044 A 
ATOM     17  C   UNL     1       1.192  -2.625  -2.306  1.00  0.00     0.067 C 
ATOM     18  C   UNL     1      -1.239  -0.414  -0.339  1.00  0.00     0.012 A 
ATOM     19  C   UNL     1       0.057  -2.156  -1.424  1.00  0.00    -0.042 A 
ATOM     20  C   UNL     1      -2.071  -1.364   0.278  1.00  0.00    -0.015 A 
ATOM     21  C   UNL     1      -0.763  -3.111  -0.808  1.00  0.00     0.005 A 
ATOM     22  C   UNL     1      -1.810  -2.719   0.030  1.00  0.00     0.009 A 
BRANCH  15  23
ATOM     23  O   UNL     1       1.116  -1.248  -4.290  1.00  0.00    -0.392 OA
ATOM     24  H   UNL     1       1.558  -0.532  -4.777  1.00  0.00     0.210 HD
ENDBRANCH  15  23
BRANCH  20  25
ATOM     25  C   UNL     1      -3.177  -0.951   1.160  1.00  0.00     0.018 A 
ATOM     26  C   UNL     1      -3.279  -1.463   2.463  1.00  0.00     0.012 A 
ATOM     27  C   UNL     1      -4.162  -0.039   0.736  1.00  0.00     0.138 A 
ATOM     28  C   UNL     1      -4.323  -1.081   3.305  1.00  0.00     0.001 A 
ATOM     29  C   UNL     1      -5.228   0.365   1.563  1.00  0.00     0.018 A 
ATOM     30  C   UNL     1      -5.288  -0.177   2.858  1.00  0.00     0.012 A 
ATOM     31  F   UNL     1      -4.082   0.467  -0.508  1.00  0.00    -0.206 F 
BRANCH  29  32
ATOM     32  C   UNL     1      -6.257   1.314   1.097  1.00  0.00    -0.012 A 
ATOM     33  C   UNL     1      -6.627   2.422   1.871  1.00  0.00     0.029 A 
ATOM     34  C   UNL     1      -6.907   1.140  -0.130  1.00  0.00     0.029 A 
ATOM     35  C   UNL     1      -7.609   3.280   1.399  1.00  0.00     0.111 A 
ATOM     36  C   UNL     1      -7.878   2.052  -0.518  1.00  0.00     0.111 A 
ATOM     37  N   UNL     1      -8.247   3.116   0.223  1.00  0.00    -0.265 NA
ENDBRANCH  29  32
ENDBRANCH  20  25
ENDBRANCH  12  13
ENDBRANCH   1  12
TORSDOF 8
