MODEL        9USER    Run = 9USERUSER    Estimated Free Energy of Binding    =  -9.70 kcal/mol  [=(1)+(2)+(3)-(4)]USERUSER    (1) Final Intermolecular Energy     = -12.09 kcal/molUSER        vdW + Hbond + desolv Energy     = -12.06 kcal/molUSER        Electrostatic Energy            =  -0.03 kcal/molUSER        Moving Ligand-Fixed Receptor    = -12.09 kcal/molUSER        Moving Ligand-Moving Receptor   =  +0.00 kcal/molUSER    (2) Final Total Internal Energy     =  -0.98 kcal/molUSER    (3) Torsional Free Energy           =  +2.39 kcal/molUSER    (4) Unbound System's Energy         =  -0.98 kcal/molUSERUSERREMARK SMILES CO[C@@H]1Cc2ccc(-c3cccc(-c4ccncc4)c3F)cc2C[C@@H]1CCCC(=O)OREMARK SMILES IDX 27 1 26 2 25 3 3 4 4 5 5 6 24 7 6 8 23 9 7 10 22 11 8 12REMARK SMILES IDX 2 13 1 14 9 15 10 16 20 17 11 18 13 19 12 20 21 21 14 22REMARK SMILES IDX 15 23 19 24 16 25 18 26 17 27 28 28 29 29 30 30 31 31REMARK H PARENT 31 32USER                              x       y       z     vdW  Elec       q    TypeUSER                           _______ _______ _______ _____ _____    ______ ____ROOTATOM      1  C   UNL     1      41.201  49.962  14.908 -0.72 -0.00    +0.012 C  ENDROOTBRANCH   1   2ATOM      2  C   UNL     1      41.350  48.911  16.015 -0.57 -0.00    +0.007 C  BRANCH   2   3ATOM      3  C   UNL     1      40.486  47.651  15.790 -0.58 -0.00    +0.023 C  ATOM      4  C   UNL     1      39.463  47.807  14.648 -0.47 -0.04    +0.125 C  ATOM      5  C   UNL     1      38.678  46.496  14.445 -0.45 -0.02    +0.068 C  ATOM      6  C   UNL     1      38.244  45.813  15.719 -0.34 +0.01    -0.042 A  ATOM      7  C   UNL     1      39.759  47.305  17.102 -0.50 -0.01    +0.042 C  ATOM      8  C   UNL     1      37.321  44.761  15.646 -0.35 -0.00    +0.005 A  ATOM      9  C   UNL     1      38.780  46.166  16.964 -0.38 +0.01    -0.044 A  ATOM     10  C   UNL     1      36.917  44.085  16.801 -0.33 -0.00    +0.009 A  ATOM     11  C   UNL     1      38.356  45.485  18.119 -0.38 -0.00    +0.012 A  ATOM     12  C   UNL     1      37.424  44.436  18.059 -0.33 +0.00    -0.015 A  BRANCH   4  13ATOM     13  O   UNL     1      38.591  48.904  14.954 -0.27 +0.24    -0.381 OA ATOM     14  C   UNL     1      37.304  48.788  14.364 -0.43 -0.14    +0.195 C  ENDBRANCH   4  13BRANCH  12  15ATOM     15  C   UNL     1      36.987  43.735  19.280 -0.31 -0.00    +0.018 A  ATOM     16  C   UNL     1      35.961  42.777  19.224 -0.33 -0.00    +0.012 A  ATOM     17  C   UNL     1      37.569  43.996  20.535 -0.29 -0.00    +0.138 A  ATOM     18  C   UNL     1      35.538  42.109  20.372 -0.45 -0.00    +0.001 A  ATOM     19  C   UNL     1      37.164  43.335  21.711 -0.40 +0.00    +0.018 A  ATOM     20  C   UNL     1      36.134  42.385  21.603 -0.43 +0.00    +0.012 A  ATOM     21  F   UNL     1      38.565  44.898  20.611 -0.10 -0.00    -0.206 F  BRANCH  19  22ATOM     22  C   UNL     1      37.788  43.621  23.016 -0.34 -0.00    -0.012 A  ATOM     23  C   UNL     1      38.100  42.592  23.913 -0.29 +0.00    +0.029 A  ATOM     24  C   UNL     1      38.084  44.932  23.410 -0.30 +0.00    +0.029 A  ATOM     25  C   UNL     1      38.678  42.909  25.133 -0.18 +0.00    +0.111 A  ATOM     26  C   UNL     1      38.663  45.151  24.651 -0.18 +0.01    +0.111 A  ATOM     27  N   UNL     1      38.961  44.168  25.525 -0.06 -0.00    -0.265 NA ENDBRANCH  19  22ENDBRANCH  12  15ENDBRANCH   2   3ENDBRANCH   1   2BRANCH   1  28ATOM     28  C   UNL     1      42.551  50.432  14.368 -0.58 -0.02    +0.122 C  BRANCH  28  29ATOM     29  C   UNL     1      42.751  50.096  12.917 -0.46 -0.09    +0.303 C  ATOM     30  O   UNL     1      42.303  50.717  11.968 -0.51 +0.12    -0.252 OA BRANCH  29  31ATOM     31  O   UNL     1      43.535  49.019  12.724 -0.42 +0.09    -0.481 OA ATOM     32  H   UNL     1      44.104  49.277  11.969 -0.34 -0.18    +0.296 HD ENDBRANCH  29  31ENDBRANCH  28  29ENDBRANCH   1  28TORSDOF 8TERENDMDL