MODEL        5USER    Run = 5USERUSER    Estimated Free Energy of Binding    = -11.86 kcal/mol  [=(1)+(2)+(3)-(4)]USERUSER    (1) Final Intermolecular Energy     = -14.25 kcal/molUSER        vdW + Hbond + desolv Energy     = -14.21 kcal/molUSER        Electrostatic Energy            =  -0.04 kcal/molUSER        Moving Ligand-Fixed Receptor    = -14.25 kcal/molUSER        Moving Ligand-Moving Receptor   =  +0.00 kcal/molUSER    (2) Final Total Internal Energy     =  -1.67 kcal/molUSER    (3) Torsional Free Energy           =  +2.39 kcal/molUSER    (4) Unbound System's Energy         =  -1.67 kcal/molUSERUSERREMARK SMILES O=C(CCC[C@@H]1Cc2cc(-c3cccc(-c4ccncc4)c3F)ccc2C[C@H]1O)Nn1cnnn1REMARK SMILES IDX 4 1 3 2 2 3 30 4 1 5 31 7 32 8 35 9 33 10 34 11 5 12 6 13REMARK SMILES IDX 7 14 28 15 8 16 27 17 9 18 26 19 10 20 25 21 24 22 29 23REMARK SMILES IDX 11 25 12 26 22 27 13 28 15 29 14 30 23 31 16 32 17 33 21 34REMARK SMILES IDX 18 35 20 36 19 37REMARK H PARENT 30 6 29 24USER                              x       y       z     vdW  Elec       q    TypeUSER                           _______ _______ _______ _____ _____    ______ ____ROOTATOM      1  C   UNL     1      36.140  46.759  12.749 -0.70 -0.01    +0.010 C  ENDROOTBRANCH   1   2ATOM      2  C   UNL     1      37.664  46.872  12.694 -0.48 -0.03    +0.102 C  BRANCH   2   3ATOM      3  C   UNL     1      38.238  47.848  13.709 -0.35 -0.07    +0.240 C  ATOM      4  N   UNL     1      39.390  47.379  14.295 -0.28 +0.06    -0.244 N  ATOM      5  O   UNL     1      37.722  48.925  13.982 -0.48 +0.15    -0.273 OA ATOM      6  H   UNL     1      39.949  46.700  13.797 +0.15 -0.02    +0.193 HD BRANCH   4   7ATOM      7  N   UNL     1      40.169  48.287  14.917 -0.44 +0.03    -0.138 N  ATOM      8  C   UNL     1      40.401  48.321  16.259 -0.32 -0.06    +0.272 A  ATOM      9  N   UNL     1      41.026  49.099  14.286 -0.60 +0.00    -0.024 NA ATOM     10  N   UNL     1      41.366  49.185  16.489 -1.08 +0.00    -0.115 NA ATOM     11  N   UNL     1      41.736  49.668  15.253 -1.00 +0.00    -0.022 NA ENDBRANCH   4   7ENDBRANCH   2   3ENDBRANCH   1   2BRANCH   1  12ATOM     12  C   UNL     1      35.618  46.636  14.187 -0.50 -0.01    +0.007 C  BRANCH  12  13ATOM     13  C   UNL     1      36.544  45.806  15.106 -0.42 -0.01    +0.022 C  ATOM     14  C   UNL     1      35.947  44.407  15.359 -0.39 -0.02    +0.042 C  ATOM     15  C   UNL     1      36.855  46.477  16.453 -0.35 -0.08    +0.122 C  ATOM     16  C   UNL     1      34.813  44.407  16.354 -0.29 +0.02    -0.044 A  ATOM     17  C   UNL     1      35.612  46.617  17.343 -0.26 -0.06    +0.067 C  ATOM     18  C   UNL     1      33.913  43.327  16.363 -0.35 -0.01    +0.012 A  ATOM     19  C   UNL     1      34.678  45.428  17.308 -0.33 +0.03    -0.042 A  ATOM     20  C   UNL     1      32.856  43.253  17.286 -0.31 +0.01    -0.015 A  ATOM     21  C   UNL     1      33.623  45.367  18.228 -0.43 -0.00    +0.005 A  ATOM     22  C   UNL     1      32.726  44.295  18.215 -0.33 -0.00    +0.009 A  BRANCH  15  23ATOM     23  O   UNL     1      37.848  45.721  17.158 -0.16 +0.12    -0.392 OA ATOM     24  H   UNL     1      37.391  45.032  17.670 +0.14 -0.06    +0.210 HD ENDBRANCH  15  23BRANCH  20  25ATOM     25  C   UNL     1      31.911  42.122  17.275 -0.30 -0.01    +0.018 A  ATOM     26  C   UNL     1      30.796  42.132  16.422 -0.32 -0.00    +0.012 A  ATOM     27  C   UNL     1      32.088  41.001  18.108 -0.30 -0.02    +0.138 A  ATOM     28  C   UNL     1      29.895  41.068  16.406 -0.38 -0.00    +0.001 A  ATOM     29  C   UNL     1      31.194  39.912  18.114 -0.39 -0.00    +0.018 A  ATOM     30  C   UNL     1      30.092  39.970  17.245 -0.35 +0.00    +0.012 A  ATOM     31  F   UNL     1      33.151  40.968  18.931 -0.06 -0.01    -0.206 F  BRANCH  29  32ATOM     32  C   UNL     1      31.390  38.751  19.002 -0.45 -0.00    -0.012 A  ATOM     33  C   UNL     1      32.229  37.689  18.636 -0.49 +0.00    +0.029 A  ATOM     34  C   UNL     1      30.741  38.661  20.239 -0.40 +0.00    +0.029 A  ATOM     35  C   UNL     1      32.372  36.612  19.497 -0.47 +0.03    +0.111 A  ATOM     36  C   UNL     1      30.947  37.542  21.033 -0.41 +0.01    +0.111 A  ATOM     37  N   UNL     1      31.745  36.512  20.686 -0.30 -0.05    -0.265 NA ENDBRANCH  29  32ENDBRANCH  20  25ENDBRANCH  12  13ENDBRANCH   1  12TORSDOF 8TERENDMDL