REMARK SMILES CO[C@@H]1Cc2ccc(-c3cccc(-c4ccncc4)c3F)cc2C[C@@H]1CCCC(=O)O
REMARK SMILES IDX 27 1 26 2 25 3 3 4 4 5 5 6 24 7 6 8 23 9 7 10 22 11 8 12
REMARK SMILES IDX 2 13 1 14 9 15 10 16 20 17 11 18 13 19 12 20 21 21 14 22
REMARK SMILES IDX 15 23 19 24 16 25 18 26 17 27 28 28 29 29 30 30 31 31
REMARK H PARENT 31 32
ROOT
ATOM      1  C   UNL     1      -5.129   0.421  -1.496  1.00  0.00     0.012 C 
ENDROOT
BRANCH   1   2
ATOM      2  C   UNL     1      -3.807   0.936  -0.915  1.00  0.00     0.007 C 
BRANCH   2   3
ATOM      3  C   UNL     1      -2.816  -0.189  -0.543  1.00  0.00     0.023 C 
ATOM      4  C   UNL     1      -3.348  -1.135   0.551  1.00  0.00     0.125 C 
ATOM      5  C   UNL     1      -2.333  -2.261   0.830  1.00  0.00     0.068 C 
ATOM      6  C   UNL     1      -0.892  -1.815   0.894  1.00  0.00    -0.042 A 
ATOM      7  C   UNL     1      -1.489   0.446  -0.089  1.00  0.00     0.042 C 
ATOM      8  C   UNL     1       0.074  -2.704   1.383  1.00  0.00     0.005 A 
ATOM      9  C   UNL     1      -0.489  -0.558   0.426  1.00  0.00    -0.044 A 
ATOM     10  C   UNL     1       1.422  -2.338   1.431  1.00  0.00     0.009 A 
ATOM     11  C   UNL     1       0.869  -0.198   0.491  1.00  0.00     0.012 A 
ATOM     12  C   UNL     1       1.845  -1.077   0.989  1.00  0.00    -0.015 A 
BRANCH   4  13
ATOM     13  O   UNL     1      -3.625  -0.368   1.731  1.00  0.00    -0.381 OA
ATOM     14  C   UNL     1      -4.611  -0.953   2.570  1.00  0.00     0.195 C 
ENDBRANCH   4  13
BRANCH  12  15
ATOM     15  C   UNL     1       3.264  -0.683   1.054  1.00  0.00     0.018 A 
ATOM     16  C   UNL     1       3.980  -0.793   2.257  1.00  0.00     0.012 A 
ATOM     17  C   UNL     1       3.948  -0.185  -0.071  1.00  0.00     0.138 A 
ATOM     18  C   UNL     1       5.322  -0.422   2.331  1.00  0.00     0.001 A 
ATOM     19  C   UNL     1       5.304   0.195  -0.027  1.00  0.00     0.018 A 
ATOM     20  C   UNL     1       5.977   0.067   1.200  1.00  0.00     0.012 A 
ATOM     21  F   UNL     1       3.287  -0.086  -1.239  1.00  0.00    -0.206 F 
BRANCH  19  22
ATOM     22  C   UNL     1       6.003   0.713  -1.217  1.00  0.00    -0.012 A 
ATOM     23  C   UNL     1       7.240   0.191  -1.617  1.00  0.00     0.029 A 
ATOM     24  C   UNL     1       5.462   1.750  -1.987  1.00  0.00     0.029 A 
ATOM     25  C   UNL     1       7.866   0.716  -2.738  1.00  0.00     0.111 A 
ATOM     26  C   UNL     1       6.162   2.209  -3.092  1.00  0.00     0.111 A 
ATOM     27  N   UNL     1       7.356   1.718  -3.482  1.00  0.00    -0.265 NA
ENDBRANCH  19  22
ENDBRANCH  12  15
ENDBRANCH   2   3
ENDBRANCH   1   2
BRANCH   1  28
ATOM     28  C   UNL     1      -6.022   1.554  -2.000  1.00  0.00     0.122 C 
BRANCH  28  29
ATOM     29  C   UNL     1      -6.513   2.449  -0.897  1.00  0.00     0.303 C 
ATOM     30  O   UNL     1      -6.340   3.654  -0.819  1.00  0.00    -0.252 OA
BRANCH  29  31
ATOM     31  O   UNL     1      -7.230   1.797   0.037  1.00  0.00    -0.481 OA
ATOM     32  H   UNL     1      -7.476   2.499   0.675  1.00  0.00     0.296 HD
ENDBRANCH  29  31
ENDBRANCH  28  29
ENDBRANCH   1  28
TORSDOF 8
