MODEL        6USER    Run = 6USERUSER    Estimated Free Energy of Binding    = -10.86 kcal/mol  [=(1)+(2)+(3)-(4)]USERUSER    (1) Final Intermolecular Energy     = -13.25 kcal/molUSER        vdW + Hbond + desolv Energy     = -13.10 kcal/molUSER        Electrostatic Energy            =  -0.15 kcal/molUSER        Moving Ligand-Fixed Receptor    = -13.25 kcal/molUSER        Moving Ligand-Moving Receptor   =  +0.00 kcal/molUSER    (2) Final Total Internal Energy     =  -0.85 kcal/molUSER    (3) Torsional Free Energy           =  +2.39 kcal/molUSER    (4) Unbound System's Energy         =  -0.85 kcal/molUSERUSERREMARK SMILES O=C(O)CCC[C@@H]1Cc2cc(-c3cccc(-c4ccncc4)c3F)ccc2CN1OREMARK SMILES IDX 5 1 4 2 2 3 1 4 3 5 6 7 7 8 8 9 29 10 9 11 28 12 10 13 27 14REMARK SMILES IDX 11 15 26 16 25 17 30 18 12 20 13 21 23 22 14 23 16 24 15 25REMARK SMILES IDX 24 26 17 27 18 28 22 29 19 30 21 31 20 32REMARK H PARENT 3 6 30 19USER                              x       y       z     vdW  Elec       q    TypeUSER                           _______ _______ _______ _____ _____    ______ ____ROOTATOM      1  C   UNL     1      39.411  47.337  15.417 -0.55 -0.00    +0.013 C  ENDROOTBRANCH   1   2ATOM      2  C   UNL     1      40.888  47.241  15.797 -0.25 -0.01    +0.122 C  BRANCH   2   3ATOM      3  C   UNL     1      41.380  48.513  16.433 -0.24 -0.01    +0.303 C  ATOM      4  O   UNL     1      41.415  49.626  15.938 -1.08 +0.02    -0.252 OA BRANCH   3   5ATOM      5  O   UNL     1      41.833  48.305  17.684 -0.51 -0.00    -0.481 OA ATOM      6  H   UNL     1      42.557  47.654  17.569 -0.35 -0.04    +0.296 HD ENDBRANCH   3   5ENDBRANCH   2   3ENDBRANCH   1   2BRANCH   1   7ATOM      7  C   UNL     1      39.073  48.558  14.551 -0.54 -0.01    +0.022 C  BRANCH   7   8ATOM      8  C   UNL     1      37.594  48.685  14.103 -0.49 -0.05    +0.089 C  ATOM      9  C   UNL     1      36.586  48.106  15.120 -0.22 -0.06    +0.057 C  ATOM     10  N   UNL     1      37.430  48.101  12.749 -0.92 +0.02    -0.185 NA ATOM     11  C   UNL     1      36.495  46.602  15.076 -0.37 +0.03    -0.041 A  ATOM     12  C   UNL     1      37.540  46.627  12.756 -0.44 -0.04    +0.151 C  ATOM     13  C   UNL     1      35.935  45.899  16.154 -0.35 -0.01    +0.013 A  ATOM     14  C   UNL     1      36.901  45.911  13.925 -0.42 +0.01    -0.028 A  ATOM     15  C   UNL     1      35.792  44.501  16.126 -0.33 +0.01    -0.015 A  ATOM     16  C   UNL     1      36.767  44.517  13.890 -0.27 -0.00    +0.006 A  ATOM     17  C   UNL     1      36.218  43.825  14.973 -0.26 -0.00    +0.009 A  BRANCH  10  18ATOM     18  O   UNL     1      36.064  48.403  12.339 -0.72 +0.15    -0.313 OA ATOM     19  H   UNL     1      36.216  48.873  11.497 -0.32 -0.13    +0.238 HD ENDBRANCH  10  18BRANCH  15  20ATOM     20  C   UNL     1      35.221  43.771  17.273 -0.31 -0.01    +0.018 A  ATOM     21  C   UNL     1      33.930  43.226  17.200 -0.34 -0.00    +0.012 A  ATOM     22  C   UNL     1      35.937  43.596  18.473 -0.24 -0.03    +0.138 A  ATOM     23  C   UNL     1      33.379  42.535  18.279 -0.37 -0.00    +0.001 A  ATOM     24  C   UNL     1      35.408  42.901  19.577 -0.42 -0.00    +0.018 A  ATOM     25  C   UNL     1      34.112  42.374  19.455 -0.40 -0.00    +0.012 A  ATOM     26  F   UNL     1      37.183  44.097  18.563 -0.06 +0.03    -0.206 F  BRANCH  24  27ATOM     27  C   UNL     1      36.175  42.726  20.825 -0.46 -0.00    -0.012 A  ATOM     28  C   UNL     1      36.208  41.496  21.494 -0.52 +0.00    +0.029 A  ATOM     29  C   UNL     1      36.902  43.784  21.384 -0.39 +0.00    +0.029 A  ATOM     30  C   UNL     1      36.952  41.379  22.659 -0.42 +0.01    +0.111 A  ATOM     31  C   UNL     1      37.617  43.571  22.554 -0.30 +0.01    +0.111 A  ATOM     32  N   UNL     1      37.661  42.389  23.202 -0.23 -0.02    -0.265 NA ENDBRANCH  24  27ENDBRANCH  15  20ENDBRANCH   7   8ENDBRANCH   1   7TORSDOF 8TERENDMDL