MODEL        8USER    Run = 8USERUSER    Estimated Free Energy of Binding    =  -7.86 kcal/mol  [=(1)+(2)+(3)-(4)]USERUSER    (1) Final Intermolecular Energy     =  -9.64 kcal/molUSER        vdW + Hbond + desolv Energy     =  -9.62 kcal/molUSER        Electrostatic Energy            =  -0.03 kcal/molUSER        Moving Ligand-Fixed Receptor    =  -9.64 kcal/molUSER        Moving Ligand-Moving Receptor   =  +0.00 kcal/molUSER    (2) Final Total Internal Energy     =  -1.56 kcal/molUSER    (3) Torsional Free Energy           =  +1.79 kcal/molUSER    (4) Unbound System's Energy         =  -1.56 kcal/molUSERUSERREMARK SMILES CC[C@]1(Sc2c(O)ccc(N3CCN(C)CC3)c2C#N)CC=CC=C1CREMARK SMILES IDX 4 1 3 2 21 3 25 4 22 5 24 6 23 7 26 8 2 9 1 10 5 11 6 12REMARK SMILES IDX 18 13 8 14 10 15 9 16 7 17 19 19 20 20 11 21 12 22 17 23REMARK SMILES IDX 13 24 16 25 14 26 15 27REMARK H PARENT 7 18USER                              x       y       z     vdW  Elec       q    TypeUSER                           _______ _______ _______ _____ _____    ______ ____ROOTATOM      1  S   UNL     1      35.394  43.157  16.532 -0.52 +0.04    -0.109 SA ENDROOTBRANCH   1   2ATOM      2  C   UNL     1      33.835  44.134  17.009 -0.34 -0.02    +0.045 C  ATOM      3  C   UNL     1      33.614  45.199  15.872 -0.35 -0.04    +0.050 C  ATOM      4  C   UNL     1      32.708  43.074  17.091 -0.34 +0.02    -0.057 C  ATOM      5  C   UNL     1      32.302  45.144  15.142 -0.42 +0.02    -0.025 C  ATOM      6  C   UNL     1      31.608  43.144  16.318 -0.39 -0.00    +0.000 C  ATOM      7  C   UNL     1      31.392  44.189  15.356 -0.43 +0.00    -0.004 C  ATOM      8  C   UNL     1      32.828  41.950  18.094 -0.42 -0.01    +0.041 C  BRANCH   2   9ATOM      9  C   UNL     1      33.991  44.854  18.382 -0.44 -0.01    +0.019 C  ATOM     10  C   UNL     1      33.997  46.380  18.308 -0.60 -0.00    +0.006 C  ENDBRANCH   2   9ENDBRANCH   1   2BRANCH   1  11ATOM     11  C   UNL     1      36.748  44.148  17.194 -0.28 -0.02    +0.070 A  ATOM     12  C   UNL     1      37.084  44.066  18.556 -0.22 -0.02    +0.130 A  ATOM     13  C   UNL     1      37.447  45.070  16.371 -0.29 -0.03    +0.093 A  ATOM     14  C   UNL     1      38.110  44.837  19.090 -0.34 -0.01    +0.049 A  ATOM     15  C   UNL     1      38.482  45.872  16.908 -0.36 -0.02    +0.056 A  ATOM     16  C   UNL     1      38.802  45.720  18.269 -0.38 -0.00    +0.031 A  BRANCH  12  17ATOM     17  O   UNL     1      36.399  43.221  19.387 -0.06 +0.06    -0.507 OA ATOM     18  H   UNL     1      36.067  42.463  18.876 +0.21 -0.04    +0.293 HD ENDBRANCH  12  17BRANCH  13  19ATOM     19  C   UNL     1      37.117  45.166  14.975 -0.36 -0.04    +0.103 C  ATOM     20  N   UNL     1      36.841  45.235  13.847 -0.30 +0.07    -0.192 NA ENDBRANCH  13  19BRANCH  15  21ATOM     21  N   UNL     1      39.253  46.801  16.201 -0.17 +0.10    -0.368 N  ATOM     22  C   UNL     1      40.670  46.998  16.570 -0.44 -0.02    +0.132 C  ATOM     23  C   UNL     1      38.528  48.014  15.779 -0.43 -0.07    +0.132 C  ATOM     24  C   UNL     1      41.045  48.495  16.686 -0.53 -0.01    +0.105 C  ATOM     25  C   UNL     1      39.440  48.869  14.874 -0.43 -0.05    +0.105 C  ATOM     26  N   UNL     1      40.677  49.344  15.533 -0.42 +0.08    -0.303 NA ATOM     27  C   UNL     1      41.769  49.455  14.569 -0.58 -0.01    +0.105 C  ENDBRANCH  15  21ENDBRANCH   1  11TORSDOF 6TERENDMDL