REMARK SMILES O[C](c1cccc(O)c1CCN1CCC[C@@H]1O)C(F)F
REMARK SMILES IDX 10 1 9 2 3 3 4 4 5 5 7 6 6 7 2 8 1 9 18 11 19 12 20 13 8 14
REMARK SMILES IDX 11 16 12 17 13 18 16 19 14 20 15 21 17 22
REMARK H PARENT 1 10 8 15 17 23
ROOT
ATOM      1  C   UNL     1      -0.172   0.764  -0.884  1.00  0.00     0.055 C 
ENDROOT
BRANCH   1   2
ATOM      2  C   UNL     1      -1.449   1.003  -0.095  1.00  0.00     0.002 A 
ATOM      3  C   UNL     1      -2.531   0.096  -0.121  1.00  0.00    -0.000 A 
ATOM      4  C   UNL     1      -3.670   0.355   0.661  1.00  0.00     0.007 A 
ATOM      5  C   UNL     1      -3.742   1.488   1.471  1.00  0.00     0.004 A 
ATOM      6  C   UNL     1      -1.542   2.130   0.740  1.00  0.00     0.119 A 
ATOM      7  C   UNL     1      -2.674   2.378   1.514  1.00  0.00     0.046 A 
BRANCH   3   8
ATOM      8  C   UNL     1      -2.515  -1.117  -0.938  1.00  0.00     0.189 C 
BRANCH   8   9
ATOM      9  O   UNL     1      -2.563  -0.950  -2.310  1.00  0.00    -0.376 OA
ATOM     10  H   UNL     1      -2.571  -1.812  -2.769  1.00  0.00     0.212 HD
ENDBRANCH   8   9
BRANCH   8  11
ATOM     11  C   UNL     1      -2.653  -2.485  -0.359  1.00  0.00     0.381 C 
ATOM     12  F   UNL     1      -1.478  -2.911   0.176  1.00  0.00    -0.207 F 
ATOM     13  F   UNL     1      -2.957  -3.375  -1.347  1.00  0.00    -0.207 F 
ENDBRANCH   8  11
ENDBRANCH   3   8
BRANCH   6  14
ATOM     14  O   UNL     1      -0.484   2.995   0.797  1.00  0.00    -0.508 OA
ATOM     15  H   UNL     1      -0.693   3.720   1.407  1.00  0.00     0.293 HD
ENDBRANCH   6  14
ENDBRANCH   1   2
BRANCH   1  16
ATOM     16  C   UNL     1       0.854  -0.041  -0.068  1.00  0.00     0.092 C 
BRANCH  16  17
ATOM     17  N   UNL     1       2.037  -0.405  -0.885  1.00  0.00    -0.278 NA
ATOM     18  C   UNL     1       2.598  -1.692  -0.423  1.00  0.00     0.087 C 
ATOM     19  C   UNL     1       3.176   0.501  -0.701  1.00  0.00     0.185 C 
ATOM     20  C   UNL     1       3.456  -1.364   0.792  1.00  0.00     0.020 C 
ATOM     21  C   UNL     1       3.844   0.096   0.607  1.00  0.00     0.050 C 
BRANCH  19  22
ATOM     22  O   UNL     1       2.827   1.862  -0.705  1.00  0.00    -0.378 OA
ATOM     23  H   UNL     1       2.308   1.975  -1.518  1.00  0.00     0.212 HD
ENDBRANCH  19  22
ENDBRANCH  16  17
ENDBRANCH   1  16
TORSDOF 8
