MODEL        2USER    Run = 2USERUSER    Estimated Free Energy of Binding    =  -8.31 kcal/mol  [=(1)+(2)+(3)-(4)]USERUSER    (1) Final Intermolecular Energy     =  -9.80 kcal/molUSER        vdW + Hbond + desolv Energy     =  -9.44 kcal/molUSER        Electrostatic Energy            =  -0.36 kcal/molUSER        Moving Ligand-Fixed Receptor    =  -9.80 kcal/molUSER        Moving Ligand-Moving Receptor   =  +0.00 kcal/molUSER    (2) Final Total Internal Energy     =  -1.04 kcal/molUSER    (3) Torsional Free Energy           =  +1.49 kcal/molUSER    (4) Unbound System's Energy         =  -1.04 kcal/molUSERUSERREMARK SMILES Nc1c(NC(=O)c2cccc(Br)c2)cccc1C(=O)OREMARK SMILES IDX 2 1 3 2 14 3 15 4 16 5 17 6 1 7 4 10 5 11 6 13 7 14 8 15REMARK SMILES IDX 13 16 9 17 11 18 10 19 12 20 18 21 19 22 20 23REMARK H PARENT 1 8 1 9 4 12 20 24USER                              x       y       z     vdW  Elec       q    TypeUSER                           _______ _______ _______ _____ _____    ______ ____ROOTATOM      1  C   UNL     1      42.601  46.623  20.236 -0.36 +0.02    +0.070 A  ATOM      2  C   UNL     1      41.579  45.919  19.555 -0.38 +0.01    +0.065 A  ATOM      3  C   UNL     1      41.050  44.748  20.098 -0.36 +0.00    +0.028 A  ATOM      4  C   UNL     1      41.538  44.255  21.308 -0.32 +0.00    +0.003 A  ATOM      5  C   UNL     1      42.563  44.922  21.977 -0.24 +0.00    +0.018 A  ATOM      6  C   UNL     1      43.114  46.097  21.441 -0.23 +0.03    +0.084 A  ENDROOTBRANCH   1   7ATOM      7  N   UNL     1      43.217  47.721  19.545 -0.17 -0.04    -0.396 N  ATOM      8  H   UNL     1      44.191  47.786  19.843 -0.46 +0.05    +0.156 HD ATOM      9  H   UNL     1      42.770  48.600  19.841 -0.42 -0.04    +0.156 HD ENDBRANCH   1   7BRANCH   2  10ATOM     10  N   UNL     1      41.146  46.494  18.340 -0.28 +0.01    -0.320 N  ATOM     11  C   UNL     1      39.859  46.614  17.863 -0.34 -0.04    +0.255 C  ATOM     12  H   UNL     1      41.909  46.941  17.838 -0.16 -0.02    +0.170 HD ATOM     13  O   UNL     1      38.834  46.247  18.426 -0.30 +0.05    -0.269 OA BRANCH  11  14ATOM     14  C   UNL     1      39.734  47.289  16.538 -0.46 -0.01    +0.041 A  ATOM     15  C   UNL     1      38.626  46.981  15.737 -0.43 -0.01    +0.014 A  ATOM     16  C   UNL     1      40.701  48.187  16.070 -0.55 -0.00    +0.029 A  ATOM     17  C   UNL     1      38.469  47.585  14.488 -0.50 -0.00    +0.002 A  ATOM     18  C   UNL     1      40.535  48.784  14.819 -0.58 -0.00    +0.018 A  ATOM     19  C   UNL     1      39.423  48.492  14.029 -0.29 -0.01    +0.016 A  ATOM     20  Br  UNL     1      41.839  49.999  14.185 -1.26 +0.01    -0.051 Br ENDBRANCH  11  14ENDBRANCH   2  10BRANCH   6  21ATOM     21  C   UNL     1      44.221  46.794  22.150 -0.17 +0.18    +0.337 C  ATOM     22  O   UNL     1      44.357  46.864  23.359 -0.12 -0.08    -0.246 OA BRANCH  21  23ATOM     23  O   UNL     1      45.103  47.376  21.319 -0.67 -0.52    -0.478 OA ATOM     24  H   UNL     1      44.857  48.325  21.329 -0.39 +0.05    +0.297 HD ENDBRANCH  21  23ENDBRANCH   6  21TORSDOF 5TERENDMDL