REMARK SMILES CCCNC=C(C(=O)c1cccnc1)c1cc(F)ccc1F
REMARK SMILES IDX 4 1 3 3 2 4 1 5 5 6 6 7 7 8 8 9 9 10 10 11 14 12 11 13 13 14
REMARK SMILES IDX 12 15 15 16 16 17 21 18 17 19 20 20 19 21 22 22 18 23
REMARK H PARENT 4 2
ROOT
ATOM      1  N   UNL     1       2.067   0.592   0.890  1.00  0.00    -0.390 N 
ATOM      2  H   UNL     1       1.850   1.418   0.337  1.00  0.00     0.159 HD
ENDROOT
BRANCH   1   3
ATOM      3  C   UNL     1       3.469   0.417   1.229  1.00  0.00     0.112 C 
BRANCH   3   4
ATOM      4  C   UNL     1       4.258  -0.032   0.001  1.00  0.00     0.018 C 
ATOM      5  C   UNL     1       5.737  -0.187   0.315  1.00  0.00     0.006 C 
ENDBRANCH   3   4
ENDBRANCH   1   3
BRANCH   1   6
ATOM      6  C   UNL     1       1.130  -0.419   0.860  1.00  0.00     0.090 C 
BRANCH   6   7
ATOM      7  C   UNL     1      -0.111  -0.414   0.339  1.00  0.00     0.048 C 
BRANCH   7   8
ATOM      8  C   UNL     1      -0.863  -1.710   0.412  1.00  0.00     0.196 C 
ATOM      9  O   UNL     1      -0.296  -2.799   0.359  1.00  0.00    -0.288 OA
BRANCH   8  10
ATOM     10  C   UNL     1      -2.336  -1.676   0.501  1.00  0.00     0.041 A 
ATOM     11  C   UNL     1      -3.092  -2.593  -0.231  1.00  0.00     0.015 A 
ATOM     12  C   UNL     1      -3.006  -0.789   1.333  1.00  0.00     0.123 A 
ATOM     13  C   UNL     1      -4.481  -2.563  -0.135  1.00  0.00     0.021 A 
ATOM     14  N   UNL     1      -4.356  -0.734   1.438  1.00  0.00    -0.264 NA
ATOM     15  C   UNL     1      -5.061  -1.621   0.701  1.00  0.00     0.111 A 
ENDBRANCH   8  10
ENDBRANCH   7   8
BRANCH   7  16
ATOM     16  C   UNL     1      -0.655   0.758  -0.367  1.00  0.00     0.026 A 
ATOM     17  C   UNL     1      -0.830   0.710  -1.756  1.00  0.00     0.051 A 
ATOM     18  C   UNL     1      -1.006   1.932   0.314  1.00  0.00     0.131 A 
ATOM     19  C   UNL     1      -1.344   1.817  -2.428  1.00  0.00     0.124 A 
ATOM     20  C   UNL     1      -1.521   3.036  -0.363  1.00  0.00     0.043 A 
ATOM     21  C   UNL     1      -1.691   2.978  -1.745  1.00  0.00     0.042 A 
ATOM     22  F   UNL     1      -0.874   2.005   1.646  1.00  0.00    -0.206 F 
ATOM     23  F   UNL     1      -1.506   1.762  -3.756  1.00  0.00    -0.207 F 
ENDBRANCH   7  16
ENDBRANCH   6   7
ENDBRANCH   1   6
TORSDOF 7
