REMARK SMILES Nc1nccc(-c2ccc(-c3ccc4[nH]ncc4c3)cc2)n1
REMARK SMILES IDX 2 1 3 2 4 3 5 4 6 5 22 6 1 7 7 10 8 11 21 12 9 13 20 14
REMARK SMILES IDX 10 15 11 16 12 17 19 18 13 19 18 20 14 21 17 22 15 23 16 24
REMARK H PARENT 1 8 1 9 15 25
ROOT
ATOM      1  C   UNL     1      -5.551  -0.224  -0.063  1.00  0.00     0.220 A 
ATOM      2  N   UNL     1      -6.088  -1.066   0.821  1.00  0.00    -0.222 NA
ATOM      3  C   UNL     1      -5.225  -1.741   1.597  1.00  0.00     0.117 A 
ATOM      4  C   UNL     1      -3.862  -1.584   1.531  1.00  0.00     0.049 A 
ATOM      5  C   UNL     1      -3.397  -0.671   0.604  1.00  0.00     0.076 A 
ATOM      6  N   UNL     1      -4.245   0.014  -0.198  1.00  0.00    -0.213 NA
ENDROOT
BRANCH   1   7
ATOM      7  N   UNL     1      -6.415   0.493  -0.865  1.00  0.00    -0.368 N 
ATOM      8  H   UNL     1      -7.316   0.559  -0.415  1.00  0.00     0.159 HD
ATOM      9  H   UNL     1      -5.973   1.355  -1.151  1.00  0.00     0.159 HD
ENDBRANCH   1   7
BRANCH   5  10
ATOM     10  C   UNL     1      -1.960  -0.384   0.409  1.00  0.00     0.000 A 
ATOM     11  C   UNL     1      -1.464  -0.034  -0.858  1.00  0.00     0.011 A 
ATOM     12  C   UNL     1      -1.034  -0.437   1.465  1.00  0.00     0.011 A 
ATOM     13  C   UNL     1      -0.106   0.239  -1.066  1.00  0.00     0.009 A 
ATOM     14  C   UNL     1       0.325  -0.164   1.259  1.00  0.00     0.009 A 
ATOM     15  C   UNL     1       0.813   0.176  -0.010  1.00  0.00    -0.018 A 
BRANCH  15  16
ATOM     16  C   UNL     1       2.241   0.465  -0.225  1.00  0.00    -0.018 A 
ATOM     17  C   UNL     1       2.649   1.679  -0.805  1.00  0.00     0.011 A 
ATOM     18  C   UNL     1       3.225  -0.473   0.149  1.00  0.00     0.020 A 
ATOM     19  C   UNL     1       3.998   1.990  -1.024  1.00  0.00     0.029 A 
ATOM     20  C   UNL     1       4.585  -0.182  -0.062  1.00  0.00     0.020 A 
ATOM     21  C   UNL     1       4.937   1.032  -0.638  1.00  0.00     0.065 A 
ATOM     22  C   UNL     1       5.815  -0.836   0.165  1.00  0.00     0.143 A 
ATOM     23  N   UNL     1       6.305   1.014  -0.707  1.00  0.00    -0.278 N 
ATOM     24  N   UNL     1       6.866  -0.110  -0.225  1.00  0.00    -0.183 NA
ATOM     25  H   UNL     1       6.915   1.736  -1.073  1.00  0.00     0.190 HD
ENDBRANCH  15  16
ENDBRANCH   5  10
TORSDOF 3
