REMARK SMILES Cc1cc(-c2ccncc2)c2ccccc2n1
REMARK SMILES IDX 1 1 2 2 3 3 4 4 11 5 12 6 13 7 14 8 15 9 16 10 17 11 5 12
REMARK SMILES IDX 6 13 10 14 7 15 9 16 8 17
REMARK H PARENT
ROOT
ATOM      1  C   UNL     1       2.409   3.105  -0.510  1.00  0.00     0.067 C 
ATOM      2  C   UNL     1       1.768   1.762  -0.329  1.00  0.00     0.039 A 
ATOM      3  C   UNL     1       0.393   1.659  -0.184  1.00  0.00     0.033 A 
ATOM      4  C   UNL     1      -0.186   0.395  -0.016  1.00  0.00    -0.007 A 
ATOM      5  C   UNL     1       0.654  -0.748   0.001  1.00  0.00     0.008 A 
ATOM      6  C   UNL     1       0.183  -2.075   0.164  1.00  0.00     0.011 A 
ATOM      7  C   UNL     1       1.061  -3.158   0.172  1.00  0.00     0.001 A 
ATOM      8  C   UNL     1       2.421  -2.935   0.019  1.00  0.00     0.002 A 
ATOM      9  C   UNL     1       2.894  -1.631  -0.142  1.00  0.00     0.029 A 
ATOM     10  C   UNL     1       2.041  -0.535  -0.154  1.00  0.00     0.071 A 
ATOM     11  N   UNL     1       2.581   0.684  -0.315  1.00  0.00    -0.253 NA
ENDROOT
BRANCH   4  12
ATOM     12  C   UNL     1      -1.645   0.308   0.135  1.00  0.00    -0.015 A 
ATOM     13  C   UNL     1      -2.239   0.373   1.399  1.00  0.00     0.029 A 
ATOM     14  C   UNL     1      -2.474   0.164  -0.982  1.00  0.00     0.029 A 
ATOM     15  C   UNL     1      -3.619   0.287   1.491  1.00  0.00     0.111 A 
ATOM     16  C   UNL     1      -3.843   0.087  -0.788  1.00  0.00     0.111 A 
ATOM     17  N   UNL     1      -4.434   0.145   0.425  1.00  0.00    -0.265 NA
ENDBRANCH   4  12
TORSDOF 1
