MODEL        4USER    Run = 4USERUSER    Estimated Free Energy of Binding    =  -9.01 kcal/mol  [=(1)+(2)+(3)-(4)]USERUSER    (1) Final Intermolecular Energy     =  -9.90 kcal/molUSER        vdW + Hbond + desolv Energy     =  -9.88 kcal/molUSER        Electrostatic Energy            =  -0.02 kcal/molUSER        Moving Ligand-Fixed Receptor    =  -9.90 kcal/molUSER        Moving Ligand-Moving Receptor   =  +0.00 kcal/molUSER    (2) Final Total Internal Energy     =  -0.45 kcal/molUSER    (3) Torsional Free Energy           =  +0.89 kcal/molUSER    (4) Unbound System's Energy         =  -0.45 kcal/molUSERUSERREMARK SMILES Nc1nccc(-c2ccc(-c3ccc4[nH]ncc4c3)cc2)n1REMARK SMILES IDX 2 1 3 2 4 3 5 4 6 5 22 6 1 7 7 10 8 11 21 12 9 13 20 14REMARK SMILES IDX 10 15 11 16 12 17 19 18 13 19 18 20 14 21 17 22 15 23 16 24REMARK H PARENT 1 8 1 9 15 25USER                              x       y       z     vdW  Elec       q    TypeUSER                           _______ _______ _______ _____ _____    ______ ____ROOTATOM      1  C   UNL     1      43.538  46.780  21.362 -0.22 +0.10    +0.220 A  ATOM      2  N   UNL     1      43.492  45.683  22.118 -0.15 -0.09    -0.222 NA ATOM      3  C   UNL     1      42.559  44.775  21.790 -0.20 +0.03    +0.117 A  ATOM      4  C   UNL     1      41.698  44.920  20.730 -0.30 +0.01    +0.049 A  ATOM      5  C   UNL     1      41.836  46.077  19.986 -0.35 +0.01    +0.076 A  ATOM      6  N   UNL     1      42.760  47.013  20.303 -0.32 -0.05    -0.213 NA ENDROOTBRANCH   1   7ATOM      7  N   UNL     1      44.496  47.725  21.668 -0.03 -0.16    -0.368 N  ATOM      8  H   UNL     1      45.065  47.903  20.854 -0.35 +0.11    +0.159 HD ATOM      9  H   UNL     1      44.057  48.518  22.113 -0.52 +0.02    +0.159 HD ENDBRANCH   1   7BRANCH   5  10ATOM     10  C   UNL     1      40.989  46.384  18.814 -0.48 -0.00    +0.000 A  ATOM     11  C   UNL     1      39.869  45.592  18.511 -0.44 -0.00    +0.011 A  ATOM     12  C   UNL     1      41.253  47.471  17.963 -0.52 -0.00    +0.011 A  ATOM     13  C   UNL     1      39.056  45.863  17.403 -0.41 -0.00    +0.009 A  ATOM     14  C   UNL     1      40.440  47.744  16.854 -0.53 -0.00    +0.009 A  ATOM     15  C   UNL     1      39.329  46.944  16.554 -0.45 +0.00    -0.018 A  BRANCH  15  16ATOM     16  C   UNL     1      38.474  47.233  15.390 -0.44 +0.01    -0.018 A  ATOM     17  C   UNL     1      38.104  48.554  15.081 -0.52 -0.01    +0.011 A  ATOM     18  C   UNL     1      38.012  46.188  14.564 -0.40 -0.01    +0.020 A  ATOM     19  C   UNL     1      37.293  48.868  13.982 -0.48 -0.02    +0.029 A  ATOM     20  C   UNL     1      37.196  46.481  13.456 -0.49 -0.01    +0.020 A  ATOM     21  C   UNL     1      36.859  47.802  13.193 -0.56 -0.03    +0.065 A  ATOM     22  C   UNL     1      36.559  45.742  12.436 -0.48 -0.06    +0.143 A  ATOM     23  N   UNL     1      36.074  47.756  12.071 -0.43 +0.15    -0.278 N  ATOM     24  N   UNL     1      35.875  46.516  11.588 -0.49 +0.10    -0.183 NA ATOM     25  H   UNL     1      35.642  48.534  11.586 -0.32 -0.13    +0.190 HD ENDBRANCH  15  16ENDBRANCH   5  10TORSDOF 3TERENDMDL