MODEL        4USER    Run = 4USERUSER    Estimated Free Energy of Binding    =  -8.60 kcal/mol  [=(1)+(2)+(3)-(4)]USERUSER    (1) Final Intermolecular Energy     = -10.68 kcal/molUSER        vdW + Hbond + desolv Energy     = -10.70 kcal/molUSER        Electrostatic Energy            =  +0.01 kcal/molUSER        Moving Ligand-Fixed Receptor    = -10.68 kcal/molUSER        Moving Ligand-Moving Receptor   =  +0.00 kcal/molUSER    (2) Final Total Internal Energy     =  -0.88 kcal/molUSER    (3) Torsional Free Energy           =  +2.09 kcal/molUSER    (4) Unbound System's Energy         =  -0.88 kcal/molUSERUSERREMARK SMILES CCCNC=C(C(=O)c1cccnc1)c1cc(F)ccc1FREMARK SMILES IDX 4 1 3 3 2 4 1 5 5 6 6 7 7 8 8 9 9 10 10 11 14 12 11 13 13 14REMARK SMILES IDX 12 15 15 16 16 17 21 18 17 19 20 20 19 21 22 22 18 23REMARK H PARENT 4 2USER                              x       y       z     vdW  Elec       q    TypeUSER                           _______ _______ _______ _____ _____    ______ ____ROOTATOM      1  N   UNL     1      40.475  49.795  15.357 -0.24 +0.16    -0.390 N  ATOM      2  H   UNL     1      39.756  50.484  15.565 -0.36 -0.12    +0.159 HD ENDROOTBRANCH   1   3ATOM      3  C   UNL     1      41.756  50.336  14.934 -0.65 -0.02    +0.112 C  BRANCH   3   4ATOM      4  C   UNL     1      42.167  49.732  13.593 -0.70 -0.00    +0.018 C  ATOM      5  C   UNL     1      42.892  50.747  12.724 -0.75 -0.00    +0.006 C  ENDBRANCH   3   4ENDBRANCH   1   3BRANCH   1   6ATOM      6  C   UNL     1      40.030  48.518  15.089 -0.57 -0.03    +0.090 C  BRANCH   6   7ATOM      7  C   UNL     1      39.515  47.602  15.929 -0.54 -0.01    +0.048 C  BRANCH   7   8ATOM      8  C   UNL     1      38.070  47.256  15.723 -0.35 -0.10    +0.196 C  ATOM      9  O   UNL     1      37.308  47.042  16.664 -0.24 +0.18    -0.288 OA BRANCH   8  10ATOM     10  C   UNL     1      37.558  47.119  14.346 -0.44 -0.02    +0.041 A  ATOM     11  C   UNL     1      37.408  45.848  13.789 -0.44 -0.01    +0.015 A  ATOM     12  C   UNL     1      37.169  48.217  13.590 -0.46 -0.06    +0.123 A  ATOM     13  C   UNL     1      36.915  45.725  12.492 -0.56 -0.01    +0.021 A  ATOM     14  N   UNL     1      36.694  48.125  12.324 -0.96 +0.08    -0.264 NA ATOM     15  C   UNL     1      36.580  46.882  11.805 -0.56 -0.05    +0.111 A  ENDBRANCH   8  10ENDBRANCH   7   8BRANCH   7  16ATOM     16  C   UNL     1      40.288  47.059  17.059 -0.49 -0.00    +0.026 A  ATOM     17  C   UNL     1      41.368  47.788  17.573 -0.48 -0.00    +0.051 A  ATOM     18  C   UNL     1      39.973  45.823  17.641 -0.36 -0.01    +0.131 A  ATOM     19  C   UNL     1      42.102  47.277  18.641 -0.45 +0.00    +0.124 A  ATOM     20  C   UNL     1      40.710  45.318  18.711 -0.43 +0.00    +0.043 A  ATOM     21  C   UNL     1      41.784  46.050  19.214 -0.42 +0.00    +0.042 A  ATOM     22  F   UNL     1      38.932  45.110  17.191 -0.07 +0.04    -0.206 F  ATOM     23  F   UNL     1      43.134  47.980  19.124 -0.20 -0.01    -0.207 F  ENDBRANCH   7  16ENDBRANCH   6   7ENDBRANCH   1   6TORSDOF 7TERENDMDL