MODEL        8USER    Run = 8USERUSER    Estimated Free Energy of Binding    =  -8.58 kcal/mol  [=(1)+(2)+(3)-(4)]USERUSER    (1) Final Intermolecular Energy     =  -9.78 kcal/molUSER        vdW + Hbond + desolv Energy     =  -9.16 kcal/molUSER        Electrostatic Energy            =  -0.62 kcal/molUSER        Moving Ligand-Fixed Receptor    =  -9.78 kcal/molUSER        Moving Ligand-Moving Receptor   =  +0.00 kcal/molUSER    (2) Final Total Internal Energy     =  -0.22 kcal/molUSER    (3) Torsional Free Energy           =  +1.19 kcal/molUSER    (4) Unbound System's Energy         =  -0.22 kcal/molUSERUSERREMARK SMILES C[N+]1CCn2c(cnc2Nc2ccc3ccc(C(=O)O)cc3c2)C1REMARK SMILES IDX 11 1 12 2 13 3 14 4 15 5 16 6 17 7 21 8 22 9 23 10 10 11REMARK SMILES IDX 9 13 2 14 3 15 24 16 4 17 6 18 5 19 7 20 8 21 1 22 18 23REMARK SMILES IDX 19 24 20 25REMARK H PARENT 10 12 20 26USER                              x       y       z     vdW  Elec       q    TypeUSER                           _______ _______ _______ _____ _____    ______ ____ROOTATOM      1  C   UNL     1      40.366  46.604  17.168 -0.46 -0.01    +0.041 A  ATOM      2  C   UNL     1      39.659  45.545  17.740 -0.40 -0.00    +0.027 A  ATOM      3  C   UNL     1      39.974  45.064  19.018 -0.43 -0.00    +0.011 A  ATOM      4  C   UNL     1      41.013  45.634  19.764 -0.41 -0.00    -0.018 A  ATOM      5  C   UNL     1      41.338  45.161  21.045 -0.32 +0.00    +0.009 A  ATOM      6  C   UNL     1      42.379  45.742  21.773 -0.27 +0.00    +0.016 A  ATOM      7  C   UNL     1      43.107  46.804  21.231 -0.33 +0.02    +0.060 A  ATOM      8  C   UNL     1      42.789  47.282  19.952 -0.42 +0.00    +0.024 A  ATOM      9  C   UNL     1      41.744  46.706  19.209 -0.48 -0.00    -0.015 A  ATOM     10  C   UNL     1      41.410  47.172  17.923 -0.49 -0.00    +0.035 A  ENDROOTBRANCH   1  11ATOM     11  N   UNL     1      40.100  47.134  15.886 -0.23 +0.06    -0.326 N  ATOM     12  H   UNL     1      40.897  47.065  15.269 +0.13 -0.01    +0.170 HD BRANCH  11  13ATOM     13  C   UNL     1      38.958  47.706  15.434 -0.34 -0.08    +0.207 A  ATOM     14  N   UNL     1      36.166  46.121  12.745 -0.45 +0.08    -0.165 N  ATOM     15  C   UNL     1      36.851  45.127  13.591 -0.26 -0.13    +0.339 C  ATOM     16  C   UNL     1      35.863  47.336  13.522 -0.23 -0.25    +0.374 C  ATOM     17  C   UNL     1      38.161  45.614  14.226 -0.32 -0.06    +0.192 C  ATOM     18  C   UNL     1      37.014  47.806  14.333 -0.44 -0.06    +0.099 A  ATOM     19  N   UNL     1      38.058  46.985  14.683 -0.19 +0.12    -0.303 N  ATOM     20  C   UNL     1      37.317  49.011  14.916 -0.36 -0.13    +0.143 A  ATOM     21  N   UNL     1      38.508  48.935  15.588 -0.31 +0.15    -0.221 NA ATOM     22  C   UNL     1      36.912  46.429  11.526 -0.31 -0.13    +0.394 C  ENDBRANCH  11  13ENDBRANCH   1  11BRANCH   7  23ATOM     23  C   UNL     1      44.202  47.391  22.039 -0.19 +0.14    +0.335 C  ATOM     24  O   UNL     1      45.356  47.003  22.067 -0.80 -0.24    -0.246 OA BRANCH  23  25ATOM     25  O   UNL     1      43.804  48.440  22.780 -0.45 -0.11    -0.478 OA ATOM     26  H   UNL     1      43.932  49.206  22.182 -0.42 +0.02    +0.297 HD ENDBRANCH  23  25ENDBRANCH   7  23TORSDOF 4TERENDMDL