MODEL        2USER    Run = 2USERUSER    Estimated Free Energy of Binding    =  -8.41 kcal/mol  [=(1)+(2)+(3)-(4)]USERUSER    (1) Final Intermolecular Energy     =  -8.71 kcal/molUSER        vdW + Hbond + desolv Energy     =  -8.68 kcal/molUSER        Electrostatic Energy            =  -0.03 kcal/molUSER        Moving Ligand-Fixed Receptor    =  -8.71 kcal/molUSER        Moving Ligand-Moving Receptor   =  +0.00 kcal/molUSER    (2) Final Total Internal Energy     =  -0.33 kcal/molUSER    (3) Torsional Free Energy           =  +0.30 kcal/molUSER    (4) Unbound System's Energy         =  -0.33 kcal/molUSERUSERREMARK SMILES Cc1cc(-c2ccncc2)c2ccccc2n1REMARK SMILES IDX 1 1 2 2 3 3 4 4 11 5 12 6 13 7 14 8 15 9 16 10 17 11 5 12REMARK SMILES IDX 6 13 10 14 7 15 9 16 8 17REMARK H PARENTUSER                              x       y       z     vdW  Elec       q    TypeUSER                           _______ _______ _______ _____ _____    ______ ____ROOTATOM      1  C   UNL     1      41.928  50.490  14.823 -0.65 -0.01    +0.067 C  ATOM      2  C   UNL     1      41.096  49.338  15.300 -0.62 -0.01    +0.039 A  ATOM      3  C   UNL     1      40.039  48.875  14.531 -0.47 -0.01    +0.033 A  ATOM      4  C   UNL     1      39.273  47.798  14.995 -0.52 +0.00    -0.007 A  ATOM      5  C   UNL     1      39.603  47.209  16.243 -0.48 -0.00    +0.008 A  ATOM      6  C   UNL     1      38.902  46.117  16.813 -0.41 -0.00    +0.011 A  ATOM      7  C   UNL     1      39.275  45.582  18.045 -0.43 -0.00    +0.001 A  ATOM      8  C   UNL     1      40.351  46.128  18.728 -0.46 -0.00    +0.002 A  ATOM      9  C   UNL     1      41.048  47.204  18.174 -0.49 -0.00    +0.029 A  ATOM     10  C   UNL     1      40.697  47.755  16.948 -0.48 -0.01    +0.071 A  ATOM     11  N   UNL     1      41.422  48.788  16.490 -0.91 -0.00    -0.253 NA ENDROOTBRANCH   4  12ATOM     12  C   UNL     1      38.159  47.323  14.164 -0.48 +0.01    -0.015 A  ATOM     13  C   UNL     1      37.209  48.217  13.660 -0.54 -0.01    +0.029 A  ATOM     14  C   UNL     1      38.024  45.966  13.853 -0.39 -0.01    +0.029 A  ATOM     15  C   UNL     1      36.176  47.722  12.881 -0.53 -0.06    +0.111 A  ATOM     16  C   UNL     1      36.957  45.568  13.066 -0.42 -0.04    +0.111 A  ATOM     17  N   UNL     1      36.029  46.416  12.573 -0.40 +0.14    -0.265 NA ENDBRANCH   4  12TORSDOF 1TERENDMDL