REMARK SMILES C[N+]1CCn2c(cnc2Nc2ccc3ccc(C(=O)O)cc3c2)C1
REMARK SMILES IDX 11 1 12 2 13 3 14 4 15 5 16 6 17 7 21 8 22 9 23 10 10 11
REMARK SMILES IDX 9 13 2 14 3 15 24 16 4 17 6 18 5 19 7 20 8 21 1 22 18 23
REMARK SMILES IDX 19 24 20 25
REMARK H PARENT 10 12 20 26
ROOT
ATOM      1  C   UNL     1       0.910   0.495  -0.120  1.00  0.00     0.041 A 
ATOM      2  C   UNL     1       1.267   1.748  -0.621  1.00  0.00     0.027 A 
ATOM      3  C   UNL     1       2.604   2.078  -0.875  1.00  0.00     0.011 A 
ATOM      4  C   UNL     1       3.630   1.156  -0.632  1.00  0.00    -0.018 A 
ATOM      5  C   UNL     1       4.974   1.474  -0.882  1.00  0.00     0.009 A 
ATOM      6  C   UNL     1       5.983   0.541  -0.633  1.00  0.00     0.016 A 
ATOM      7  C   UNL     1       5.661  -0.722  -0.131  1.00  0.00     0.060 A 
ATOM      8  C   UNL     1       4.322  -1.048   0.122  1.00  0.00     0.024 A 
ATOM      9  C   UNL     1       3.297  -0.118  -0.125  1.00  0.00    -0.015 A 
ATOM     10  C   UNL     1       1.946  -0.427   0.123  1.00  0.00     0.035 A 
ENDROOT
BRANCH   1  11
ATOM     11  N   UNL     1      -0.418   0.101   0.158  1.00  0.00    -0.326 N 
ATOM     12  H   UNL     1      -0.471  -0.843   0.516  1.00  0.00     0.170 HD
BRANCH  11  13
ATOM     13  C   UNL     1      -1.558   0.812  -0.012  1.00  0.00     0.207 A 
ATOM     14  N   UNL     1      -5.511  -0.519   0.365  1.00  0.00    -0.165 N 
ATOM     15  C   UNL     1      -4.541  -1.188   1.250  1.00  0.00     0.339 C 
ATOM     16  C   UNL     1      -5.204   0.918   0.258  1.00  0.00     0.374 C 
ATOM     17  C   UNL     1      -3.074  -1.056   0.816  1.00  0.00     0.192 C 
ATOM     18  C   UNL     1      -3.763   1.185   0.018  1.00  0.00     0.099 A 
ATOM     19  N   UNL     1      -2.781   0.272   0.316  1.00  0.00    -0.303 N 
ATOM     20  C   UNL     1      -3.082   2.273  -0.468  1.00  0.00     0.143 A 
ATOM     21  N   UNL     1      -1.734   2.032  -0.479  1.00  0.00    -0.221 NA
ATOM     22  C   UNL     1      -5.602  -1.154  -0.949  1.00  0.00     0.394 C 
ENDBRANCH  11  13
ENDBRANCH   1  11
BRANCH   7  23
ATOM     23  C   UNL     1       6.764  -1.681   0.118  1.00  0.00     0.335 C 
ATOM     24  O   UNL     1       7.948  -1.473  -0.075  1.00  0.00    -0.246 OA
BRANCH  23  25
ATOM     25  O   UNL     1       6.335  -2.861   0.600  1.00  0.00    -0.478 OA
ATOM     26  H   UNL     1       7.160  -3.378   0.713  1.00  0.00     0.297 HD
ENDBRANCH  23  25
ENDBRANCH   7  23
TORSDOF 4
