REMARK SMILES Nc1c(NC(=O)c2cccc(Br)c2)cccc1C(=O)O
REMARK SMILES IDX 2 1 3 2 14 3 15 4 16 5 17 6 1 7 4 10 5 11 6 13 7 14 8 15
REMARK SMILES IDX 13 16 9 17 11 18 10 19 12 20 18 21 19 22 20 23
REMARK H PARENT 1 8 1 9 4 12 20 24
ROOT
ATOM      1  C   UNL     1      -2.024  -0.187   0.176  1.00  0.00     0.070 A 
ATOM      2  C   UNL     1      -1.053   0.699  -0.351  1.00  0.00     0.065 A 
ATOM      3  C   UNL     1      -1.440   1.922  -0.899  1.00  0.00     0.028 A 
ATOM      4  C   UNL     1      -2.789   2.272  -0.945  1.00  0.00     0.003 A 
ATOM      5  C   UNL     1      -3.760   1.399  -0.455  1.00  0.00     0.018 A 
ATOM      6  C   UNL     1      -3.390   0.160   0.091  1.00  0.00     0.084 A 
ENDROOT
BRANCH   1   7
ATOM      7  N   UNL     1      -1.579  -1.494   0.568  1.00  0.00    -0.396 N 
ATOM      8  H   UNL     1      -1.511  -2.078  -0.267  1.00  0.00     0.156 HD
ATOM      9  H   UNL     1      -2.296  -1.932   1.163  1.00  0.00     0.156 HD
ENDBRANCH   1   7
BRANCH   2  10
ATOM     10  N   UNL     1       0.287   0.262  -0.258  1.00  0.00    -0.320 N 
ATOM     11  C   UNL     1       1.431   0.927  -0.643  1.00  0.00     0.255 C 
ATOM     12  H   UNL     1       0.365  -0.617   0.247  1.00  0.00     0.170 HD
ATOM     13  O   UNL     1       1.493   2.048  -1.135  1.00  0.00    -0.269 OA
BRANCH  11  14
ATOM     14  C   UNL     1       2.705   0.192  -0.397  1.00  0.00     0.041 A 
ATOM     15  C   UNL     1       3.858   0.936  -0.111  1.00  0.00     0.014 A 
ATOM     16  C   UNL     1       2.782  -1.205  -0.474  1.00  0.00     0.029 A 
ATOM     17  C   UNL     1       5.074   0.291   0.122  1.00  0.00     0.002 A 
ATOM     18  C   UNL     1       4.003  -1.839  -0.240  1.00  0.00     0.018 A 
ATOM     19  C   UNL     1       5.146  -1.100   0.062  1.00  0.00     0.016 A 
ATOM     20  Br  UNL     1       4.109  -3.725  -0.342  1.00  0.00    -0.051 Br
ENDBRANCH  11  14
ENDBRANCH   2  10
BRANCH   6  21
ATOM     21  C   UNL     1      -4.431  -0.775   0.595  1.00  0.00     0.337 C 
ATOM     22  O   UNL     1      -4.222  -1.854   1.122  1.00  0.00    -0.246 OA
BRANCH  21  23
ATOM     23  O   UNL     1      -5.685  -0.324   0.414  1.00  0.00    -0.478 OA
ATOM     24  H   UNL     1      -6.254  -1.028   0.792  1.00  0.00     0.297 HD
ENDBRANCH  21  23
ENDBRANCH   6  21
TORSDOF 5
