REMARK SMILES Cc1nc2ccccc2nc1C1=CNC=C(c2ccc(C(F)(F)F)cc2)C(=O)N1C
REMARK SMILES IDX 29 1 30 2 12 3 11 4 2 5 3 6 4 7 10 8 5 9 9 10 6 11 8 12 7 13
REMARK SMILES IDX 1 14 13 15 14 16 15 18 27 20 28 21 16 22 17 24 18 25 26 26
REMARK SMILES IDX 19 27 25 28 20 29 21 30 22 31 23 32 24 33
REMARK H PARENT 14 17
REMARK Flexibility Score:   48.900
ROOT
ATOM      1  N   UNL     1      -0.211   0.789   0.075  1.00  0.00    -0.308 N 
ATOM      2  C   UNL     1      -0.876   2.069   0.390  1.00  0.00     0.154 C 
ENDROOT
BRANCH   1   3
ATOM      3  C   UNL     1      -1.031  -0.350   0.051  1.00  0.00     0.088 C 
BRANCH   3   4
ATOM      4  C   UNL     1      -2.502  -0.199   0.234  1.00  0.00     0.110 A 
ATOM      5  C   UNL     1      -3.389  -0.065  -0.839  1.00  0.00     0.066 A 
ATOM      6  N   UNL     1      -4.727   0.058  -0.638  1.00  0.00    -0.249 NA
ATOM      7  C   UNL     1      -5.162   0.046   0.636  1.00  0.00     0.089 A 
ATOM      8  N   UNL     1      -2.937  -0.217   1.520  1.00  0.00    -0.243 NA
ATOM      9  C   UNL     1      -6.521   0.172   0.899  1.00  0.00     0.030 A 
ATOM     10  C   UNL     1      -4.262  -0.091   1.719  1.00  0.00     0.089 A 
ATOM     11  C   UNL     1      -7.012   0.166   2.205  1.00  0.00     0.002 A 
ATOM     12  C   UNL     1      -4.762  -0.097   3.015  1.00  0.00     0.030 A 
ATOM     13  C   UNL     1      -6.128   0.031   3.268  1.00  0.00     0.002 A 
ATOM     14  C   UNL     1      -2.925  -0.047  -2.265  1.00  0.00     0.069 C 
ENDBRANCH   3   4
BRANCH   3  15
ATOM     15  C   UNL     1      -0.660  -1.627  -0.133  1.00  0.00     0.111 C 
BRANCH  15  16
ATOM     16  N   UNL     1       0.553  -2.198  -0.360  1.00  0.00    -0.365 N 
ATOM     17  H   UNL     1       0.568  -3.214  -0.419  1.00  0.00     0.165 HD
BRANCH  16  18
ATOM     18  C   UNL     1       1.754  -1.574  -0.463  1.00  0.00     0.096 CG0
ATOM     19  G   UNL     1       2.081  -0.279  -0.382  1.00  0.00     0.000 G0
ENDBRANCH  16  18
ENDBRANCH  15  16
ENDBRANCH   3  15
ENDBRANCH   1   3
BRANCH   1  20
ATOM     20  C   UNL     1       1.168   0.891  -0.137  1.00  0.00     0.260 C 
ATOM     21  O   UNL     1       1.719   2.003  -0.134  1.00  0.00    -0.269 OA
BRANCH  20  22
ATOM     22  C   UNL     1       2.081  -0.279  -0.382  1.00  0.00     0.063 CG0
ATOM     23  G   UNL     1       1.754  -1.574  -0.463  1.00  0.00     0.000 G0
BRANCH  22  24
ATOM     24  C   UNL     1       3.529  -0.005  -0.554  1.00  0.00    -0.011 A 
ATOM     25  C   UNL     1       4.388  -0.024   0.552  1.00  0.00     0.009 A 
ATOM     26  C   UNL     1       4.052   0.261  -1.826  1.00  0.00     0.009 A 
ATOM     27  C   UNL     1       5.755   0.219   0.387  1.00  0.00     0.014 A 
ATOM     28  C   UNL     1       5.418   0.504  -1.990  1.00  0.00     0.014 A 
ATOM     29  C   UNL     1       6.285   0.478  -0.886  1.00  0.00     0.056 A 
BRANCH  29  30
ATOM     30  C   UNL     1       7.756   0.765  -1.060  1.00  0.00     0.416 C 
ATOM     31  F   UNL     1       8.047   2.090  -0.941  1.00  0.00    -0.166 F 
ATOM     32  F   UNL     1       8.538   0.127  -0.144  1.00  0.00    -0.166 F 
ATOM     33  F   UNL     1       8.234   0.386  -2.279  1.00  0.00    -0.166 F 
ENDBRANCH  29  30
ENDBRANCH  22  24
ENDBRANCH  20  22
ENDBRANCH   1  20
TORSDOF 3
