MODEL        4USER    Run = 4USERUSER    Estimated Free Energy of Binding    =  -7.02 kcal/mol  [=(1)+(2)+(3)-(4)]USERUSER    (1) Final Intermolecular Energy     =  -9.70 kcal/molUSER        vdW + Hbond + desolv Energy     =  -9.85 kcal/molUSER        Electrostatic Energy            =  -0.02 kcal/molUSER        Moving Ligand-Fixed Receptor    =  -9.87 kcal/molUSER        Moving Ligand-Moving Receptor   =  +0.17 kcal/molUSER    (2) Final Total Internal Energy     =  -0.79 kcal/molUSER    (3) Torsional Free Energy           =  +2.68 kcal/molUSER    (4) Unbound System's Energy         =  -0.79 kcal/molUSERUSERREMARK SMILES Cc1nc2ccccc2nc1C1=CNC=C(c2ccc(C(F)(F)F)cc2)C(=O)N1CREMARK SMILES IDX 29 1 30 2 12 3 11 4 2 5 3 6 4 7 10 8 5 9 9 10 6 11 8 12 7 13REMARK SMILES IDX 1 14 13 15 14 16 15 18 27 20 28 21 16 22 17 24 18 25 26 26REMARK SMILES IDX 19 27 25 28 20 29 21 30 22 31 23 32 24 33REMARK H PARENT 14 17REMARK Flexibility Score:   48.900USER                              x       y       z     vdW  Elec       q    TypeUSER                           _______ _______ _______ _____ _____    ______ ____ROOTATOM      1  N   UNL     1      38.785  45.865  18.083 -0.22 +0.06    -0.308 N  ATOM      2  C   UNL     1      37.349  45.647  17.817 -0.29 -0.05    +0.154 C  ENDROOTBRANCH   1   3ATOM      3  C   UNL     1      39.522  46.477  17.057 -0.45 -0.02    +0.088 C  BRANCH   3   4ATOM      4  C   UNL     1      38.843  46.844  15.783 -0.36 -0.04    +0.110 A  ATOM      5  C   UNL     1      38.900  48.130  15.237 -0.47 -0.03    +0.066 A  ATOM      6  N   UNL     1      38.279  48.429  14.066 -0.41 +0.11    -0.249 NA ATOM      7  C   UNL     1      37.606  47.435  13.455 -0.47 -0.03    +0.089 A  ATOM      8  N   UNL     1      38.170  45.838  15.167 -0.21 +0.08    -0.243 NA ATOM      9  C   UNL     1      36.950  47.687  12.256 -0.46 -0.01    +0.030 A  ATOM     10  C   UNL     1      37.551  46.135  14.010 -0.37 -0.03    +0.089 A  ATOM     11  C   UNL     1      36.240  46.685  11.593 -0.59 -0.00    +0.002 A  ATOM     12  C   UNL     1      36.843  45.145  13.340 -0.45 -0.01    +0.030 A  ATOM     13  C   UNL     1      36.187  45.408  12.137 -0.44 -0.00    +0.002 A  ATOM     14  C   UNL     1      39.641  49.251  15.903 -0.42 -0.03    +0.069 C  ENDBRANCH   3   4BRANCH   3  15ATOM     15  C   UNL     1      40.824  46.805  17.063 -0.43 -0.01    +0.111 C  BRANCH  15  16ATOM     16  N   UNL     1      41.798  46.644  17.998 -0.20 +0.02    -0.365 N  ATOM     17  H   UNL     1      42.735  46.934  17.726 -0.47 -0.04    +0.165 HD BRANCH  16  18ATOM     18  C   UNL     1      41.677  46.092  19.232 -0.45 +0.01    +0.096 CG0ATOM     19  G   UNL     1      40.633  45.513  19.836 +0.00 +0.00    +0.000 G0 ENDBRANCH  16  18ENDBRANCH  15  16ENDBRANCH   3  15ENDBRANCH   1   3BRANCH   1  20ATOM     20  C   UNL     1      39.218  45.406  19.331 -0.29 -0.01    +0.260 C  ATOM     21  O   UNL     1      38.417  44.866  20.110 -0.26 +0.01    -0.269 OA BRANCH  20  22ATOM     22  C   UNL     1      40.631  45.515  19.836 -0.43 +0.00    +0.063 CG0ATOM     23  G   UNL     1      41.677  46.091  19.232 +0.00 +0.00    +0.000 G0 BRANCH  22  24ATOM     24  C   UNL     1      40.944  44.919  21.158 -0.31 -0.00    -0.011 A  ATOM     25  C   UNL     1      40.504  45.539  22.334 -0.25 +0.00    +0.009 A  ATOM     26  C   UNL     1      41.669  43.724  21.241 -0.33 +0.00    +0.009 A  ATOM     27  C   UNL     1      40.786  44.968  23.579 -0.15 +0.00    +0.014 A  ATOM     28  C   UNL     1      41.950  43.154  22.485 -0.32 +0.00    +0.014 A  ATOM     29  C   UNL     1      41.505  43.767  23.667 -0.16 +0.00    +0.056 A  BRANCH  29  30ATOM     30  C   UNL     1      41.830  43.165  25.012 -0.05 -0.01    +0.416 C  ATOM     31  F   UNL     1      42.907  42.332  24.964 -0.06 +0.02    -0.166 F  ATOM     32  F   UNL     1      42.122  44.099  25.960 -0.01 -0.00    -0.166 F  ATOM     33  F   UNL     1      40.809  42.424  25.527 -0.06 +0.01    -0.166 F  ENDBRANCH  29  30ENDBRANCH  22  24ENDBRANCH  20  22ENDBRANCH   1  20TORSDOF 3TERENDMDL