REMARK SMILES CC[C@]1(Sc2c(O)ccc(N3CCN(C)CC3)c2C#N)CC=CC=C1C
REMARK SMILES IDX 4 1 3 2 21 3 25 4 22 5 24 6 23 7 26 8 2 9 1 10 5 11 6 12
REMARK SMILES IDX 18 13 8 14 10 15 9 16 7 17 19 19 20 20 11 21 12 22 17 23
REMARK SMILES IDX 13 24 16 25 14 26 15 27
REMARK H PARENT 7 18
ROOT
ATOM      1  S   UNL     1       1.854  -0.311   2.050  1.00  0.00    -0.109 SA
ENDROOT
BRANCH   1   2
ATOM      2  C   UNL     1       3.095  -0.211   0.614  1.00  0.00     0.045 C 
ATOM      3  C   UNL     1       4.114   0.928   0.988  1.00  0.00     0.050 C 
ATOM      4  C   UNL     1       3.740  -1.619   0.544  1.00  0.00    -0.057 C 
ATOM      5  C   UNL     1       5.563   0.538   1.068  1.00  0.00    -0.025 C 
ATOM      6  C   UNL     1       5.065  -1.802   0.692  1.00  0.00     0.000 C 
ATOM      7  C   UNL     1       5.983  -0.723   0.935  1.00  0.00    -0.004 C 
ATOM      8  C   UNL     1       2.861  -2.816   0.264  1.00  0.00     0.041 C 
BRANCH   2   9
ATOM      9  C   UNL     1       2.401   0.126  -0.739  1.00  0.00     0.019 C 
ATOM     10  C   UNL     1       3.314   0.059  -1.962  1.00  0.00     0.006 C 
ENDBRANCH   2   9
ENDBRANCH   1   2
BRANCH   1  11
ATOM     11  C   UNL     1       0.509   0.777   1.539  1.00  0.00     0.070 A 
ATOM     12  C   UNL     1       0.623   2.168   1.705  1.00  0.00     0.130 A 
ATOM     13  C   UNL     1      -0.704   0.246   1.028  1.00  0.00     0.093 A 
ATOM     14  C   UNL     1      -0.411   3.022   1.338  1.00  0.00     0.049 A 
ATOM     15  C   UNL     1      -1.769   1.105   0.666  1.00  0.00     0.056 A 
ATOM     16  C   UNL     1      -1.586   2.491   0.817  1.00  0.00     0.031 A 
BRANCH  12  17
ATOM     17  O   UNL     1       1.761   2.709   2.238  1.00  0.00    -0.507 OA
ATOM     18  H   UNL     1       1.604   3.643   2.458  1.00  0.00     0.293 HD
ENDBRANCH  12  17
BRANCH  13  19
ATOM     19  C   UNL     1      -0.837  -1.175   0.850  1.00  0.00     0.103 C 
ATOM     20  N   UNL     1      -0.955  -2.322   0.699  1.00  0.00    -0.192 NA
ENDBRANCH  13  19
BRANCH  15  21
ATOM     21  N   UNL     1      -3.002   0.708   0.138  1.00  0.00    -0.368 N 
ATOM     22  C   UNL     1      -3.863  -0.209   0.914  1.00  0.00     0.132 C 
ATOM     23  C   UNL     1      -3.016   0.512  -1.324  1.00  0.00     0.132 C 
ATOM     24  C   UNL     1      -4.415  -1.369   0.052  1.00  0.00     0.105 C 
ATOM     25  C   UNL     1      -4.462   0.242  -1.793  1.00  0.00     0.105 C 
ATOM     26  N   UNL     1      -5.070  -0.977  -1.214  1.00  0.00    -0.303 NA
ATOM     27  C   UNL     1      -6.512  -0.810  -1.052  1.00  0.00     0.105 C 
ENDBRANCH  15  21
ENDBRANCH   1  11
TORSDOF 6
