MODEL        2USER    Run = 2USERUSER    Estimated Free Energy of Binding    =  -5.93 kcal/mol  [=(1)+(2)+(3)-(4)]USERUSER    (1) Final Intermolecular Energy     =  -8.32 kcal/molUSER        vdW + Hbond + desolv Energy     =  -7.98 kcal/molUSER        Electrostatic Energy            =  -0.34 kcal/molUSER        Moving Ligand-Fixed Receptor    =  -8.32 kcal/molUSER        Moving Ligand-Moving Receptor   =  +0.00 kcal/molUSER    (2) Final Total Internal Energy     =  -2.41 kcal/molUSER    (3) Torsional Free Energy           =  +2.39 kcal/molUSER    (4) Unbound System's Energy         =  -2.41 kcal/molUSERUSERREMARK SMILES O[C](c1cccc(O)c1CCN1CCC[C@@H]1O)C(F)FREMARK SMILES IDX 10 1 9 2 3 3 4 4 5 5 7 6 6 7 2 8 1 9 18 11 19 12 20 13 8 14REMARK SMILES IDX 11 16 12 17 13 18 16 19 14 20 15 21 17 22REMARK H PARENT 1 10 8 15 17 23USER                              x       y       z     vdW  Elec       q    TypeUSER                           _______ _______ _______ _____ _____    ______ ____ROOTATOM      1  C   UNL     1      37.677  60.439   5.136 -0.54 -0.04    +0.055 C  ENDROOTBRANCH   1   2ATOM      2  C   UNL     1      38.190  59.114   5.675 -0.33 -0.00    +0.002 A  ATOM      3  C   UNL     1      38.868  58.181   4.860 -0.37 +0.00    -0.000 A  ATOM      4  C   UNL     1      39.352  56.990   5.427 -0.34 -0.00    +0.007 A  ATOM      5  C   UNL     1      39.185  56.722   6.785 -0.42 -0.00    +0.004 A  ATOM      6  C   UNL     1      38.047  58.825   7.043 -0.21 -0.07    +0.119 A  ATOM      7  C   UNL     1      38.533  57.643   7.598 -0.20 -0.02    +0.046 A  BRANCH   3   8ATOM      8  C   UNL     1      39.088  58.407   3.432 -0.40 -0.09    +0.189 C  BRANCH   8   9ATOM      9  O   UNL     1      38.515  57.501   2.558 -1.25 +0.08    -0.376 OA ATOM     10  H   UNL     1      39.105  56.738   2.405 -0.33 -0.20    +0.212 HD ENDBRANCH   8   9BRANCH   8  11ATOM     11  C   UNL     1      40.048  59.423   2.911 -0.18 -0.19    +0.381 C  ATOM     12  F   UNL     1      39.549  60.051   1.814 -0.10 +0.03    -0.207 F  ATOM     13  F   UNL     1      41.194  58.807   2.500 -0.08 +0.12    -0.207 F  ENDBRANCH   8  11ENDBRANCH   3   8BRANCH   6  14ATOM     14  O   UNL     1      37.423  59.740   7.847 -0.72 +0.30    -0.508 OA ATOM     15  H   UNL     1      37.386  60.596   7.392 -0.14 -0.25    +0.293 HD ENDBRANCH   6  14ENDBRANCH   1   2BRANCH   1  16ATOM     16  C   UNL     1      38.620  61.600   5.497 -0.39 -0.08    +0.092 C  BRANCH  16  17ATOM     17  N   UNL     1      37.994  62.530   6.469 -0.42 +0.21    -0.278 NA ATOM     18  C   UNL     1      38.076  63.918   5.969 -0.40 -0.05    +0.087 C  ATOM     19  C   UNL     1      38.722  62.625   7.739 -0.39 -0.15    +0.185 C  ATOM     20  C   UNL     1      39.479  64.404   6.308 -0.26 -0.02    +0.020 C  ATOM     21  C   UNL     1      39.910  63.546   7.488 -0.24 -0.06    +0.050 C  BRANCH  19  22ATOM     22  O   UNL     1      39.129  61.384   8.256 -0.21 +0.30    -0.378 OA ATOM     23  H   UNL     1      38.309  60.982   8.589 -0.04 -0.16    +0.212 HD ENDBRANCH  19  22ENDBRANCH  16  17ENDBRANCH   1  16TORSDOF 8TERENDMDL