REMARK SMILES CCOC1=CC(Nc2cc(F)cnc2OCC2CCOCC2)=C(C)N=CC1
REMARK SMILES IDX 6 1 5 2 4 3 3 5 2 6 1 7 7 8 8 10 9 11 14 12 10 13 13 14
REMARK SMILES IDX 12 15 11 16 15 17 16 18 17 19 18 20 22 21 19 22 21 23 20 24
REMARK SMILES IDX 23 25 24 26 25 27 26 28 27 29
REMARK H PARENT 7 9
REMARK Flexibility Score:  144.900
ROOT
ATOM      1  C   UNL     1       1.924  -1.137   0.182  1.00  0.00     0.063 C 
ENDROOT
BRANCH   1   2
ATOM      2  C   UNL     1       2.481  -0.133   1.088  1.00  0.00     0.070 C 
BRANCH   2   3
ATOM      3  C   UNL     1       3.644   0.507   0.891  1.00  0.00     0.103 CG0
ATOM      4  G   UNL     1       4.576   0.158  -0.228  1.00  0.00     0.000 G0
BRANCH   3   5
ATOM      5  O   UNL     1       4.076   1.461   1.795  1.00  0.00    -0.498 OA
BRANCH   5   6
ATOM      6  C   UNL     1       3.936   2.780   1.255  1.00  0.00     0.225 C 
ATOM      7  C   UNL     1       4.315   3.774   2.337  1.00  0.00     0.049 C 
ENDBRANCH   5   6
ENDBRANCH   3   5
ENDBRANCH   2   3
ENDBRANCH   1   2
BRANCH   1   8
ATOM      8  N   UNL     1       0.557  -0.985  -0.034  1.00  0.00    -0.349 N 
ATOM      9  H   UNL     1       0.296  -1.163  -1.006  1.00  0.00     0.167 HD
BRANCH   8  10
ATOM     10  C   UNL     1      -0.444  -1.601   0.777  1.00  0.00     0.105 A 
ATOM     11  C   UNL     1      -0.215  -2.024   2.089  1.00  0.00     0.072 A 
ATOM     12  C   UNL     1      -1.769  -1.700   0.299  1.00  0.00     0.237 A 
ATOM     13  C   UNL     1      -1.268  -2.540   2.832  1.00  0.00     0.143 A 
ATOM     14  N   UNL     1      -2.808  -2.199   1.008  1.00  0.00    -0.217 NA
ATOM     15  C   UNL     1      -2.528  -2.611   2.265  1.00  0.00     0.154 A 
ATOM     16  F   UNL     1      -1.065  -2.959   4.087  1.00  0.00    -0.205 F 
BRANCH  12  17
ATOM     17  O   UNL     1      -1.971  -1.264  -1.000  1.00  0.00    -0.476 OA
BRANCH  17  18
ATOM     18  C   UNL     1      -3.320  -1.273  -1.469  1.00  0.00     0.235 C 
BRANCH  18  19
ATOM     19  C   UNL     1      -3.940   0.132  -1.453  1.00  0.00     0.031 C 
ATOM     20  C   UNL     1      -4.120   0.699  -0.043  1.00  0.00     0.035 C 
ATOM     21  C   UNL     1      -3.136   1.129  -2.308  1.00  0.00     0.035 C 
ATOM     22  C   UNL     1      -4.828   2.053  -0.089  1.00  0.00     0.160 C 
ATOM     23  C   UNL     1      -3.318   2.571  -1.843  1.00  0.00     0.160 C 
ATOM     24  O   UNL     1      -4.627   2.757  -1.317  1.00  0.00    -0.381 OA
ENDBRANCH  18  19
ENDBRANCH  17  18
ENDBRANCH  12  17
ENDBRANCH   8  10
ENDBRANCH   1   8
BRANCH   1  25
ATOM     25  C   UNL     1       2.700  -2.077  -0.429  1.00  0.00     0.060 C 
ATOM     26  C   UNL     1       2.112  -3.111  -1.366  1.00  0.00     0.069 C 
BRANCH  25  27
ATOM     27  N   UNL     1       4.047  -2.301  -0.217  1.00  0.00    -0.263 NA
BRANCH  27  28
ATOM     28  C   UNL     1       4.882  -1.311  -0.125  1.00  0.00     0.092 C 
BRANCH  28  29
ATOM     29  C   UNL     1       4.576   0.158  -0.228  1.00  0.00     0.122 CG0
ATOM     30  G   UNL     1       3.644   0.507   0.891  1.00  0.00     0.000 G0
ENDBRANCH  28  29
ENDBRANCH  27  28
ENDBRANCH  25  27
ENDBRANCH   1  25
TORSDOF 7
