MODEL        6USER    Run = 6USERUSER    Estimated Free Energy of Binding    =  -4.97 kcal/mol  [=(1)+(2)+(3)-(4)]USERUSER    (1) Final Intermolecular Energy     =  -8.85 kcal/molUSER        vdW + Hbond + desolv Energy     =  -9.03 kcal/molUSER        Electrostatic Energy            =  +0.05 kcal/molUSER        Moving Ligand-Fixed Receptor    =  -8.97 kcal/molUSER        Moving Ligand-Moving Receptor   =  +0.13 kcal/molUSER    (2) Final Total Internal Energy     =  -2.27 kcal/molUSER    (3) Torsional Free Energy           =  +3.88 kcal/molUSER    (4) Unbound System's Energy         =  -2.27 kcal/molUSERUSERREMARK SMILES CCOC1=CC(Nc2cc(F)cnc2OCC2CCOCC2)=C(C)N=CC1REMARK SMILES IDX 6 1 5 2 4 3 3 5 2 6 1 7 7 8 8 10 9 11 14 12 10 13 13 14REMARK SMILES IDX 12 15 11 16 15 17 16 18 17 19 18 20 22 21 19 22 21 23 20 24REMARK SMILES IDX 23 25 24 26 25 27 26 28 27 29REMARK H PARENT 7 9REMARK Flexibility Score:  144.900USER                              x       y       z     vdW  Elec       q    TypeUSER                           _______ _______ _______ _____ _____    ______ ____ROOTATOM      1  C   UNL     1      38.510  44.776  19.489 -0.39 -0.00    +0.063 C  ENDROOTBRANCH   1   2ATOM      2  C   UNL     1      39.803  44.652  18.818 -0.42 -0.00    +0.070 C  BRANCH   2   3ATOM      3  C   UNL     1      40.988  44.636  19.448 -0.38 +0.01    +0.103 CG0ATOM      4  G   UNL     1      41.225  43.846  20.698 +0.00 +0.00    +0.000 G0 BRANCH   3   5ATOM      5  O   UNL     1      42.021  45.446  19.011 -0.04 -0.09    -0.498 OA BRANCH   5   6ATOM      6  C   UNL     1      41.972  46.728  19.648 -0.34 +0.03    +0.225 C  ATOM      7  C   UNL     1      43.303  47.419  19.416 -0.46 +0.01    +0.049 C  ENDBRANCH   5   6ENDBRANCH   3   5ENDBRANCH   2   3ENDBRANCH   1   2BRANCH   1   8ATOM      8  N   UNL     1      37.570  45.483  18.744 -0.09 +0.06    -0.349 N  ATOM      9  H   UNL     1      37.949  46.355  18.368 +0.08 -0.04    +0.167 HD BRANCH   8  10ATOM     10  C   UNL     1      36.783  44.899  17.705 -0.27 -0.03    +0.105 A  ATOM     11  C   UNL     1      36.167  43.650  17.820 -0.27 -0.02    +0.072 A  ATOM     12  C   UNL     1      36.504  45.641  16.536 -0.19 -0.12    +0.237 A  ATOM     13  C   UNL     1      35.354  43.194  16.791 -0.30 -0.05    +0.143 A  ATOM     14  N   UNL     1      35.715  45.214  15.523 -0.20 +0.12    -0.217 NA ATOM     15  C   UNL     1      35.158  43.991  15.677 -0.20 -0.07    +0.154 A  ATOM     16  F   UNL     1      34.763  41.997  16.879 -0.14 +0.10    -0.205 F  BRANCH  12  17ATOM     17  O   UNL     1      37.119  46.879  16.452 -0.12 +0.31    -0.476 OA BRANCH  17  18ATOM     18  C   UNL     1      38.042  47.057  15.376 -0.31 -0.11    +0.235 C  BRANCH  18  19ATOM     19  C   UNL     1      39.180  48.017  15.752 -0.55 -0.01    +0.031 C  ATOM     20  C   UNL     1      40.283  47.354  16.580 -0.56 -0.01    +0.035 C  ATOM     21  C   UNL     1      39.801  48.690  14.515 -0.52 -0.01    +0.035 C  ATOM     22  C   UNL     1      41.335  48.380  17.003 -0.40 -0.01    +0.160 C  ATOM     23  C   UNL     1      41.246  49.120  14.752 -0.54 -0.02    +0.160 C  ATOM     24  O   UNL     1      41.432  49.493  16.112 -0.97 +0.01    -0.381 OA ENDBRANCH  18  19ENDBRANCH  17  18ENDBRANCH  12  17ENDBRANCH   8  10ENDBRANCH   1   8BRANCH   1  25ATOM     25  C   UNL     1      38.255  44.192  20.694 -0.37 -0.00    +0.060 C  ATOM     26  C   UNL     1      36.970  43.436  20.959 -0.42 +0.00    +0.069 C  BRANCH  25  27ATOM     27  N   UNL     1      39.026  44.287  21.837 -0.15 -0.01    -0.263 NA BRANCH  27  28ATOM     28  C   UNL     1      40.318  44.397  21.764 -0.27 +0.00    +0.092 C  BRANCH  28  29ATOM     29  C   UNL     1      41.225  43.847  20.698 -0.23 +0.01    +0.122 CG0ATOM     30  G   UNL     1      40.988  44.637  19.448 +0.00 +0.00    +0.000 G0 ENDBRANCH  28  29ENDBRANCH  27  28ENDBRANCH  25  27ENDBRANCH   1  25TORSDOF 7TERENDMDL