REMARK SMILES CCc1cc(O)cc(O)c1-c1c(/C=C/N2C(=O)CC[C@H]2[C@H]2CCCN2C)cccc1C(=O)O
REMARK SMILES IDX 13 1 12 2 11 3 30 4 27 5 29 6 28 7 10 8 3 9 4 10 5 11 8 12
REMARK SMILES IDX 7 13 2 14 1 15 6 16 9 18 31 20 32 21 33 22 14 24 15 25 16 26
REMARK SMILES IDX 20 27 18 28 19 29 17 30 21 31 22 32 25 33 23 34 24 35 26 36
REMARK H PARENT 6 17 9 19 33 23
ROOT
ATOM      1  C   UNL     1      -0.403   0.123  -1.753  1.00  0.00     0.027 C 
ENDROOT
BRANCH   1   2
ATOM      2  C   UNL     1      -1.535   1.045  -1.555  1.00  0.00    -0.015 A 
ATOM      3  C   UNL     1      -2.753   0.616  -0.965  1.00  0.00     0.007 A 
ATOM      4  C   UNL     1      -3.805   1.555  -0.859  1.00  0.00     0.068 A 
ATOM      5  C   UNL     1      -1.381   2.372  -1.991  1.00  0.00     0.009 A 
ATOM      6  C   UNL     1      -3.629   2.879  -1.302  1.00  0.00     0.016 A 
ATOM      7  C   UNL     1      -2.422   3.285  -1.862  1.00  0.00     0.002 A 
BRANCH   3   8
ATOM      8  C   UNL     1      -2.916  -0.792  -0.532  1.00  0.00     0.028 A 
ATOM      9  C   UNL     1      -2.445  -1.260   0.721  1.00  0.00    -0.033 A 
ATOM     10  C   UNL     1      -2.609  -2.621   1.054  1.00  0.00     0.050 A 
ATOM     11  C   UNL     1      -3.226  -3.497   0.168  1.00  0.00     0.119 A 
ATOM     12  C   UNL     1      -3.536  -1.716  -1.402  1.00  0.00     0.127 A 
ATOM     13  C   UNL     1      -3.692  -3.057  -1.060  1.00  0.00     0.093 A 
BRANCH   9  14
ATOM     14  C   UNL     1      -1.772  -0.361   1.737  1.00  0.00     0.033 C 
ATOM     15  C   UNL     1      -2.662  -0.054   2.934  1.00  0.00     0.009 C 
ENDBRANCH   9  14
BRANCH  11  16
ATOM     16  O   UNL     1      -3.395  -4.816   0.475  1.00  0.00    -0.508 OA
ATOM     17  H   UNL     1      -3.042  -4.972   1.366  1.00  0.00     0.293 HD
ENDBRANCH  11  16
BRANCH  12  18
ATOM     18  O   UNL     1      -3.992  -1.276  -2.620  1.00  0.00    -0.507 OA
ATOM     19  H   UNL     1      -4.292  -2.045  -3.132  1.00  0.00     0.293 HD
ENDBRANCH  12  18
ENDBRANCH   3   8
BRANCH   4  20
ATOM     20  C   UNL     1      -5.119   1.184  -0.270  1.00  0.00     0.336 C 
ATOM     21  O   UNL     1      -5.342   0.407   0.637  1.00  0.00    -0.246 OA
BRANCH  20  22
ATOM     22  O   UNL     1      -6.132   1.845  -0.867  1.00  0.00    -0.478 OA
ATOM     23  H   UNL     1      -6.927   1.479  -0.426  1.00  0.00     0.297 HD
ENDBRANCH  20  22
ENDBRANCH   4  20
ENDBRANCH   1   2
BRANCH   1  24
ATOM     24  C   UNL     1       0.713   0.217  -1.017  1.00  0.00     0.090 C 
BRANCH  24  25
ATOM     25  N   UNL     1       1.826  -0.597  -1.101  1.00  0.00    -0.314 N 
ATOM     26  C   UNL     1       1.979  -1.695  -1.976  1.00  0.00     0.226 C 
ATOM     27  C   UNL     1       2.963  -0.532  -0.170  1.00  0.00     0.107 C 
ATOM     28  C   UNL     1       3.311  -2.337  -1.684  1.00  0.00     0.103 C 
ATOM     29  C   UNL     1       4.059  -1.224  -0.979  1.00  0.00     0.037 C 
ATOM     30  O   UNL     1       1.208  -2.119  -2.824  1.00  0.00    -0.275 OA
BRANCH  27  31
ATOM     31  C   UNL     1       3.365   0.874   0.378  1.00  0.00     0.079 C 
ATOM     32  C   UNL     1       2.505   1.240   1.610  1.00  0.00     0.022 C 
ATOM     33  N   UNL     1       4.761   0.922   0.887  1.00  0.00    -0.301 NA
ATOM     34  C   UNL     1       3.446   1.147   2.794  1.00  0.00     0.017 C 
ATOM     35  C   UNL     1       4.755   1.593   2.193  1.00  0.00     0.084 C 
ATOM     36  C   UNL     1       5.676   1.608  -0.024  1.00  0.00     0.105 C 
ENDBRANCH  27  31
ENDBRANCH  24  25
ENDBRANCH   1  24
TORSDOF 10
