REMARK SMILES CC(C)[C@@H]1NC=Nc2c(Nc3ccccc3F)nc(N3CC[C@@H](N)C3)nc21
REMARK SMILES IDX 4 1 5 2 6 3 7 4 8 5 9 6 18 7 19 8 26 9 27 10 2 12 1 13 3 14
REMARK SMILES IDX 20 15 21 16 25 17 22 18 23 19 24 20 10 23 11 25 12 26 16 27
REMARK SMILES IDX 13 28 15 29 14 30 17 31
REMARK H PARENT 5 11 24 21 24 22 10 24
ROOT
ATOM      1  C   UNL     1      -0.437   1.946  -1.701  1.00  0.00     0.134 C 
ATOM      2  N   UNL     1      -1.856   2.232  -1.857  1.00  0.00    -0.367 N 
ATOM      3  C   UNL     1      -2.769   1.725  -0.988  1.00  0.00     0.193 C 
ATOM      4  N   UNL     1      -2.565   0.826  -0.089  1.00  0.00    -0.234 NA
ATOM      5  C   UNL     1      -1.259   0.284  -0.015  1.00  0.00     0.131 A 
ATOM      6  C   UNL     1      -0.924  -0.784   0.815  1.00  0.00     0.162 A 
ATOM      7  N   UNL     1       0.336  -1.260   0.930  1.00  0.00    -0.193 NA
ATOM      8  C   UNL     1       1.297  -0.710   0.175  1.00  0.00     0.227 A 
ATOM      9  N   UNL     1       1.068   0.300  -0.674  1.00  0.00    -0.213 NA
ATOM     10  C   UNL     1      -0.196   0.786  -0.751  1.00  0.00     0.096 A 
ATOM     11  H   UNL     1      -2.117   3.007  -2.453  1.00  0.00     0.162 HD
ENDROOT
BRANCH   1  12
ATOM     12  C   UNL     1       0.351   3.215  -1.276  1.00  0.00     0.011 C 
ATOM     13  C   UNL     1      -0.142   3.835   0.036  1.00  0.00     0.010 C 
ATOM     14  C   UNL     1       0.348   4.276  -2.383  1.00  0.00     0.010 C 
ENDBRANCH   1  12
BRANCH   8  15
ATOM     15  N   UNL     1       2.568  -1.212   0.263  1.00  0.00    -0.339 N 
ATOM     16  C   UNL     1       2.929  -2.096   1.358  1.00  0.00     0.121 C 
ATOM     17  C   UNL     1       3.704  -0.435  -0.209  1.00  0.00     0.138 C 
ATOM     18  C   UNL     1       4.438  -2.254   1.186  1.00  0.00     0.042 C 
ATOM     19  C   UNL     1       4.861  -0.857   0.731  1.00  0.00     0.072 C 
BRANCH  19  20
ATOM     20  N   UNL     1       6.198  -0.851   0.141  1.00  0.00    -0.326 NA
ATOM     21  H   UNL     1       6.222  -1.487  -0.657  1.00  0.00     0.119 HD
ATOM     22  H   UNL     1       6.402   0.075  -0.233  1.00  0.00     0.119 HD
ENDBRANCH  19  20
ENDBRANCH   8  15
BRANCH   6  23
ATOM     23  N   UNL     1      -1.868  -1.425   1.651  1.00  0.00    -0.336 N 
ATOM     24  H   UNL     1      -1.336  -2.173   2.092  1.00  0.00     0.168 HD
BRANCH  23  25
ATOM     25  C   UNL     1      -3.127  -1.930   1.238  1.00  0.00     0.076 A 
ATOM     26  C   UNL     1      -4.133  -2.057   2.206  1.00  0.00     0.029 A 
ATOM     27  C   UNL     1      -3.382  -2.438  -0.045  1.00  0.00     0.146 A 
ATOM     28  C   UNL     1      -5.374  -2.616   1.884  1.00  0.00     0.002 A 
ATOM     29  C   UNL     1      -4.617  -2.998  -0.372  1.00  0.00     0.041 A 
ATOM     30  C   UNL     1      -5.618  -3.081   0.593  1.00  0.00     0.003 A 
ATOM     31  F   UNL     1      -2.427  -2.430  -0.989  1.00  0.00    -0.205 F 
ENDBRANCH  23  25
ENDBRANCH   6  23
TORSDOF 5
