REMARK SMILES O=C1CC=C2C=C(OCCCNCc3ccc(F)cc3)C=C2Cn2nccc2N1
REMARK SMILES IDX 9 1 8 2 7 3 22 4 21 5 5 6 6 7 23 8 24 9 28 10 27 11 26 12
REMARK SMILES IDX 25 13 29 14 2 15 1 16 4 19 3 20 10 22 11 23 12 24 13 26
REMARK SMILES IDX 14 27 15 28 20 29 16 30 19 31 17 32 18 33
REMARK H PARENT 29 17 12 25
REMARK Flexibility Score:  129.900
ROOT
ATOM      1  C   UNL     1       0.893   1.908  -0.505  1.00  0.00     0.231 C 
ENDROOT
BRANCH   1   2
ATOM      2  O   UNL     1      -0.418   2.068  -1.055  1.00  0.00    -0.494 OA
BRANCH   2   3
ATOM      3  C   UNL     1      -1.418   1.454  -0.374  1.00  0.00     0.120 C 
ATOM      4  C   UNL     1      -3.618   0.880  -0.107  1.00  0.00    -0.016 C 
ATOM      5  C   UNL     1      -2.758   1.561  -0.895  1.00  0.00     0.052 C 
ATOM      6  C   UNL     1      -2.816   0.331   0.995  1.00  0.00    -0.020 C 
ATOM      7  C   UNL     1      -1.427   0.714   0.746  1.00  0.00     0.054 C 
BRANCH   4   8
ATOM      8  C   UNL     1      -5.079   0.762  -0.395  1.00  0.00     0.182 C 
BRANCH   8   9
ATOM      9  N   UNL     1      -5.440  -0.524  -0.984  1.00  0.00    -0.245 N 
ATOM     10  C   UNL     1      -5.831  -1.663  -0.320  1.00  0.00     0.131 A 
ATOM     11  C   UNL     1      -5.794  -2.676  -1.247  1.00  0.00     0.069 A 
ATOM     12  C   UNL     1      -5.489  -2.032  -2.461  1.00  0.00     0.137 A 
ATOM     13  N   UNL     1      -5.312  -0.715  -2.316  1.00  0.00    -0.179 NA
BRANCH  10  14
ATOM     14  N   UNL     1      -6.093  -1.696   1.043  1.00  0.00    -0.311 N 
ATOM     15  C   UNL     1      -4.962  -2.040   1.784  1.00  0.00     0.229 CG0
ATOM     16  O   UNL     1      -4.391  -3.125   1.729  1.00  0.00    -0.274 OA
ATOM     17  H   UNL     1      -6.504  -0.832   1.376  1.00  0.00     0.171 HD
ATOM     18  G   UNL     1      -4.443  -0.869   2.612  1.00  0.00     0.000 G0
ENDBRANCH  10  14
ENDBRANCH   8   9
ENDBRANCH   4   8
BRANCH   6  19
ATOM     19  C   UNL     1      -3.123  -0.391   2.087  1.00  0.00    -0.009 C 
BRANCH  19  20
ATOM     20  C   UNL     1      -4.443  -0.869   2.612  1.00  0.00     0.128 CG0
ATOM     21  G   UNL     1      -4.962  -2.040   1.784  1.00  0.00     0.000 G0
ENDBRANCH  19  20
ENDBRANCH   6  19
ENDBRANCH   2   3
ENDBRANCH   1   2
BRANCH   1  22
ATOM     22  C   UNL     1       1.873   2.643  -1.415  1.00  0.00     0.057 C 
BRANCH  22  23
ATOM     23  C   UNL     1       3.300   2.659  -0.870  1.00  0.00     0.085 C 
BRANCH  23  24
ATOM     24  N   UNL     1       3.837   1.305  -0.750  1.00  0.00    -0.313 NA
ATOM     25  H   UNL     1       3.837   0.850  -1.664  1.00  0.00     0.123 HD
BRANCH  24  26
ATOM     26  C   UNL     1       5.206   1.321  -0.237  1.00  0.00     0.116 C 
BRANCH  26  27
ATOM     27  C   UNL     1       5.765  -0.081  -0.162  1.00  0.00    -0.034 A 
ATOM     28  C   UNL     1       6.794  -0.490  -1.024  1.00  0.00     0.008 A 
ATOM     29  C   UNL     1       5.249  -0.999   0.769  1.00  0.00     0.008 A 
ATOM     30  C   UNL     1       7.301  -1.789  -0.951  1.00  0.00     0.039 A 
ATOM     31  C   UNL     1       5.757  -2.297   0.840  1.00  0.00     0.039 A 
ATOM     32  C   UNL     1       6.779  -2.679  -0.019  1.00  0.00     0.123 A 
ATOM     33  F   UNL     1       7.269  -3.924   0.049  1.00  0.00    -0.207 F 
ENDBRANCH  26  27
ENDBRANCH  24  26
ENDBRANCH  23  24
ENDBRANCH  22  23
ENDBRANCH   1  22
TORSDOF 7
