MODEL        2USER    Run = 2USERUSER    Estimated Free Energy of Binding    =  -7.83 kcal/mol  [=(1)+(2)+(3)-(4)]USERUSER    (1) Final Intermolecular Energy     = -11.11 kcal/molUSER        vdW + Hbond + desolv Energy     = -10.73 kcal/molUSER        Electrostatic Energy            =  -0.38 kcal/molUSER        Moving Ligand-Fixed Receptor    = -11.11 kcal/molUSER        Moving Ligand-Moving Receptor   =  +0.00 kcal/molUSER    (2) Final Total Internal Energy     =  -1.76 kcal/molUSER    (3) Torsional Free Energy           =  +3.28 kcal/molUSER    (4) Unbound System's Energy         =  -1.76 kcal/molUSERUSERREMARK SMILES CCC=C(C=Nc1ccc(C(=O)O)cc1F)NCCN1CCOCC1REMARK SMILES IDX 5 1 4 2 3 3 2 4 1 5 17 6 18 8 19 9 20 10 21 11 25 12 22 13REMARK SMILES IDX 24 14 23 15 6 16 7 17 8 18 15 19 9 20 14 21 10 22 16 23REMARK SMILES IDX 11 24 12 25 13 26REMARK H PARENT 17 7 13 27USER                              x       y       z     vdW  Elec       q    TypeUSER                           _______ _______ _______ _____ _____    ______ ____ROOTATOM      1  C   UNL     1      27.094  35.508  21.956 -0.12 -0.10    +0.137 C  ENDROOTBRANCH   1   2ATOM      2  C   UNL     1      27.319  36.931  22.368 -0.36 -0.02    +0.049 C  BRANCH   2   3ATOM      3  C   UNL     1      28.333  37.221  23.203 -0.25 -0.00    -0.000 C  BRANCH   3   4ATOM      4  C   UNL     1      29.750  36.718  23.156 -0.46 +0.00    +0.026 C  ATOM      5  C   UNL     1      30.400  37.043  21.819 -0.50 +0.00    +0.008 C  ENDBRANCH   3   4ENDBRANCH   2   3BRANCH   2   6ATOM      6  N   UNL     1      26.427  37.885  21.898 -0.14 +0.23    -0.383 N  ATOM      7  H   UNL     1      26.151  38.551  22.616 -0.21 -0.09    +0.160 HD BRANCH   6   8ATOM      8  C   UNL     1      26.506  38.484  20.562 -0.27 -0.05    +0.128 C  BRANCH   8   9ATOM      9  C   UNL     1      25.881  39.899  20.548 -0.30 -0.03    +0.106 C  BRANCH   9  10ATOM     10  N   UNL     1      25.269  40.383  21.791 -0.66 +0.05    -0.297 NA ATOM     11  C   UNL     1      23.942  39.818  22.077 -0.37 -0.04    +0.113 C  ATOM     12  C   UNL     1      25.284  41.852  21.931 -0.44 -0.02    +0.113 C  ATOM     13  C   UNL     1      23.246  40.604  23.198 -0.25 -0.05    +0.175 C  ATOM     14  C   UNL     1      23.888  42.492  21.866 -0.58 -0.04    +0.175 C  ATOM     15  O   UNL     1      22.971  41.965  22.835 -0.99 +0.06    -0.379 OA ENDBRANCH   9  10ENDBRANCH   8   9ENDBRANCH   6   8ENDBRANCH   2   6ENDBRANCH   1   2BRANCH   1  16ATOM     16  N   UNL     1      26.792  34.561  22.785 -0.66 +0.04    -0.252 NA BRANCH  16  17ATOM     17  C   UNL     1      27.673  33.469  22.874 -0.35 +0.02    +0.099 A  ATOM     18  C   UNL     1      28.538  33.238  21.801 -0.38 -0.01    +0.032 A  ATOM     19  C   UNL     1      27.695  32.567  23.948 -0.25 +0.12    +0.149 A  ATOM     20  C   UNL     1      29.421  32.151  21.811 -0.28 -0.00    +0.018 A  ATOM     21  C   UNL     1      28.568  31.481  23.972 -0.43 +0.03    +0.057 A  ATOM     22  C   UNL     1      29.437  31.270  22.899 -0.44 +0.00    +0.062 A  ATOM     23  F   UNL     1      26.865  32.738  24.990 -0.07 -0.33    -0.205 F  BRANCH  22  24ATOM     24  C   UNL     1      30.351  30.105  22.956 -0.36 -0.01    +0.335 C  ATOM     25  O   UNL     1      30.543  29.401  23.930 -1.01 -0.06    -0.246 OA BRANCH  24  26ATOM     26  O   UNL     1      30.982  29.878  21.792 -0.30 +0.06    -0.478 OA ATOM     27  H   UNL     1      30.295  29.468  21.225 -0.30 -0.17    +0.297 HD ENDBRANCH  24  26ENDBRANCH  22  24ENDBRANCH  16  17ENDBRANCH   1  16TORSDOF 11TERENDMDL