MODEL        2USER    Run = 2USERUSER    Estimated Free Energy of Binding    =  -8.35 kcal/mol  [=(1)+(2)+(3)-(4)]USERUSER    (1) Final Intermolecular Energy     = -10.73 kcal/molUSER        vdW + Hbond + desolv Energy     = -10.56 kcal/molUSER        Electrostatic Energy            =  -0.17 kcal/molUSER        Moving Ligand-Fixed Receptor    = -10.73 kcal/molUSER        Moving Ligand-Moving Receptor   =  +0.00 kcal/molUSER    (2) Final Total Internal Energy     =  -1.53 kcal/molUSER    (3) Torsional Free Energy           =  +2.39 kcal/molUSER    (4) Unbound System's Energy         =  -1.53 kcal/molUSERUSERREMARK SMILES OCCOc1ccc(Nc2nnc(Sc3ccccc3Cl)s2)cc1FREMARK SMILES IDX 5 1 6 2 7 3 8 4 23 5 24 6 25 7 4 8 3 9 2 10 1 11 9 13 10 15REMARK SMILES IDX 11 16 22 17 12 18 13 19 14 20 15 21 16 22 20 23 17 24 19 25REMARK SMILES IDX 18 26 21 27REMARK H PARENT 1 12 9 14USER                              x       y       z     vdW  Elec       q    TypeUSER                           _______ _______ _______ _____ _____    ______ ____ROOTATOM      1  C   UNL     1      38.727  47.749  14.187 -0.37 -0.05    +0.155 A  ATOM      2  C   UNL     1      39.547  48.592  14.932 -0.49 -0.02    +0.052 A  ATOM      3  C   UNL     1      40.305  48.076  15.993 -0.54 -0.01    +0.030 A  ATOM      4  C   UNL     1      40.265  46.713  16.342 -0.45 -0.01    +0.043 A  ATOM      5  C   UNL     1      39.445  45.880  15.579 -0.26 -0.01    +0.069 A  ATOM      6  C   UNL     1      38.689  46.395  14.524 -0.30 -0.05    +0.167 A  ATOM      7  F   UNL     1      37.909  45.554  13.826 -0.11 +0.06    -0.203 F  ENDROOTBRANCH   1   8ATOM      8  O   UNL     1      37.938  48.123  13.134 -0.60 +0.08    -0.488 OA BRANCH   8   9ATOM      9  C   UNL     1      36.546  47.801  13.205 -0.47 -0.13    +0.258 C  BRANCH   9  10ATOM     10  C   UNL     1      36.208  46.954  11.982 -0.59 -0.10    +0.197 C  BRANCH  10  11ATOM     11  O   UNL     1      37.277  47.002  11.039 -0.61 +0.11    -0.393 OA ATOM     12  H   UNL     1      37.546  47.940  10.986 -0.18 -0.01    +0.210 HD ENDBRANCH  10  11ENDBRANCH   9  10ENDBRANCH   8   9ENDBRANCH   1   8BRANCH   4  13ATOM     13  N   UNL     1      41.068  46.276  17.410 -0.22 +0.02    -0.330 N  ATOM     14  H   UNL     1      42.059  46.444  17.288 -0.33 -0.04    +0.169 HD BRANCH  13  15ATOM     15  C   UNL     1      40.695  45.722  18.591 -0.32 -0.00    +0.210 A  ATOM     16  N   UNL     1      41.434  45.058  19.456 -0.33 -0.01    -0.119 NA ATOM     17  S   UNL     1      39.047  45.874  19.101 -0.46 +0.01    -0.068 S  ATOM     18  N   UNL     1      40.729  44.637  20.565 -0.28 -0.01    -0.129 NA ATOM     19  C   UNL     1      39.469  45.007  20.513 -0.25 +0.00    +0.180 A  BRANCH  19  20ATOM     20  S   UNL     1      38.309  44.621  21.767 -0.46 -0.00    -0.056 SA BRANCH  20  21ATOM     21  C   UNL     1      37.132  43.717  20.762 -0.38 -0.00    +0.033 A  ATOM     22  C   UNL     1      36.587  44.376  19.650 -0.36 -0.00    +0.017 A  ATOM     23  C   UNL     1      36.715  42.405  21.045 -0.43 +0.00    +0.055 A  ATOM     24  C   UNL     1      35.661  43.734  18.824 -0.35 -0.00    +0.001 A  ATOM     25  C   UNL     1      35.786  41.767  20.215 -0.31 -0.00    +0.022 A  ATOM     26  C   UNL     1      35.263  42.430  19.104 -0.42 -0.00    +0.002 A  ATOM     27  Cl  UNL     1      37.298  41.518  22.412 -0.70 -0.01    -0.083 Cl ENDBRANCH  20  21ENDBRANCH  19  20ENDBRANCH  13  15ENDBRANCH   4  13TORSDOF 8TERENDMDL