MODEL        8USER    Run = 8USERUSER    Estimated Free Energy of Binding    =  -7.82 kcal/mol  [=(1)+(2)+(3)-(4)]USERUSER    (1) Final Intermolecular Energy     =  -9.31 kcal/molUSER        vdW + Hbond + desolv Energy     =  -9.26 kcal/molUSER        Electrostatic Energy            =  -0.05 kcal/molUSER        Moving Ligand-Fixed Receptor    =  -9.31 kcal/molUSER        Moving Ligand-Moving Receptor   =  +0.00 kcal/molUSER    (2) Final Total Internal Energy     =  -0.79 kcal/molUSER    (3) Torsional Free Energy           =  +1.49 kcal/molUSER    (4) Unbound System's Energy         =  -0.79 kcal/molUSERUSERREMARK SMILES C#CC[C@@H]1CCCN1c1nc(N)ncc1-c1ccc(F)cc1FREMARK SMILES IDX 4 1 5 2 6 3 7 4 8 5 3 6 2 7 1 8 9 9 10 10 15 11 11 12 14 13REMARK SMILES IDX 13 14 16 15 17 16 22 17 18 18 21 19 19 20 23 21 20 22 12 23REMARK H PARENT 12 24 12 25USER                              x       y       z     vdW  Elec       q    TypeUSER                           _______ _______ _______ _____ _____    ______ ____ROOTATOM      1  C   UNL     1      38.575  45.265  18.388 -0.39 -0.01    +0.095 C  ATOM      2  C   UNL     1      37.142  44.741  18.570 -0.39 -0.01    +0.028 C  ATOM      3  C   UNL     1      36.319  45.860  17.959 -0.31 -0.01    +0.024 C  ATOM      4  C   UNL     1      37.130  46.259  16.728 -0.35 -0.06    +0.118 C  ATOM      5  N   UNL     1      38.518  45.889  17.046 -0.16 +0.09    -0.352 N  ENDROOTBRANCH   1   6ATOM      6  C   UNL     1      39.627  44.150  18.445 -0.24 -0.01    +0.114 C  BRANCH   6   7ATOM      7  C   UNL     1      40.657  44.410  19.467 -0.38 -0.00    -0.105 C  ATOM      8  C   UNL     1      41.491  44.624  20.304 -0.39 +0.00    +0.004 C  ENDBRANCH   6   7ENDBRANCH   1   6BRANCH   5   9ATOM      9  C   UNL     1      39.483  46.863  16.752 -0.36 -0.04    +0.142 A  ATOM     10  N   UNL     1      40.496  47.034  17.630 -0.37 +0.03    -0.195 NA ATOM     11  C   UNL     1      39.404  47.626  15.582 -0.48 -0.01    +0.046 A  ATOM     12  C   UNL     1      41.415  47.965  17.371 -0.30 -0.02    +0.221 A  ATOM     13  C   UNL     1      40.407  48.571  15.435 -0.48 -0.03    +0.127 A  ATOM     14  N   UNL     1      41.403  48.774  16.316 -0.91 +0.00    -0.221 NA BRANCH  11  15ATOM     15  C   UNL     1      38.392  47.448  14.534 -0.47 -0.01    +0.023 A  ATOM     16  C   UNL     1      37.554  48.512  14.154 -0.54 -0.01    +0.015 A  ATOM     17  C   UNL     1      38.237  46.218  13.873 -0.30 -0.04    +0.134 A  ATOM     18  C   UNL     1      36.588  48.337  13.160 -0.50 -0.02    +0.040 A  ATOM     19  C   UNL     1      37.277  46.036  12.882 -0.45 -0.03    +0.079 A  ATOM     20  C   UNL     1      36.459  47.100  12.536 -0.57 -0.06    +0.126 A  ATOM     21  F   UNL     1      39.037  45.184  14.177 -0.07 +0.04    -0.206 F  ATOM     22  F   UNL     1      35.532  46.937  11.584 -0.18 +0.14    -0.207 F  ENDBRANCH  11  15BRANCH  12  23ATOM     23  N   UNL     1      42.425  48.137  18.292 -0.26 -0.00    -0.368 N  ATOM     24  H   UNL     1      42.506  49.115  18.535 -0.07 +0.01    +0.159 HD ATOM     25  H   UNL     1      43.259  47.659  17.983 -0.37 -0.01    +0.159 HD ENDBRANCH  12  23ENDBRANCH   5   9TORSDOF 5TERENDMDL