REMARK SMILES Cc1cc(O)c(O)c(Cl)c1-c1cc(O)c(O)c(C(=O)O)c1C=O
REMARK SMILES IDX 11 1 12 2 13 3 15 4 17 5 21 6 10 7 2 8 3 9 4 10 8 11 6 12
REMARK SMILES IDX 1 13 9 14 5 15 7 17 22 19 23 20 14 21 18 23 19 24 20 25
REMARK SMILES IDX 16 27
REMARK H PARENT 5 16 7 18 14 22 20 26 16 28
ROOT
ATOM      1  C   UNL     1      -0.422  -0.307   0.138  1.00  0.00    -0.001 A 
ATOM      2  C   UNL     1      -1.097  -1.528  -0.075  1.00  0.00     0.059 A 
ATOM      3  C   UNL     1      -2.486  -1.575  -0.064  1.00  0.00     0.158 A 
ATOM      4  C   UNL     1      -3.233  -0.421   0.152  1.00  0.00     0.173 A 
ATOM      5  C   UNL     1      -2.591   0.798   0.360  1.00  0.00     0.116 A 
ATOM      6  C   UNL     1      -1.187   0.865   0.362  1.00  0.00     0.041 A 
ENDROOT
BRANCH   1   7
ATOM      7  C   UNL     1       1.058  -0.331   0.170  1.00  0.00     0.008 A 
ATOM      8  C   UNL     1       1.809  -0.216  -1.034  1.00  0.00    -0.038 A 
ATOM      9  C   UNL     1       3.215  -0.245  -0.991  1.00  0.00     0.054 A 
ATOM     10  C   UNL     1       3.869  -0.393   0.224  1.00  0.00     0.159 A 
ATOM     11  C   UNL     1       1.754  -0.486   1.394  1.00  0.00     0.094 A 
ATOM     12  C   UNL     1       3.149  -0.518   1.409  1.00  0.00     0.177 A 
ATOM     13  C   UNL     1       1.132  -0.039  -2.369  1.00  0.00     0.045 C 
ATOM     14  Cl  UNL     1       0.887  -0.653   2.891  1.00  0.00    -0.079 Cl
BRANCH  10  15
ATOM     15  O   UNL     1       5.235  -0.424   0.306  1.00  0.00    -0.504 OA
ATOM     16  H   UNL     1       5.598  -0.241  -0.578  1.00  0.00     0.293 HD
ENDBRANCH  10  15
BRANCH  12  17
ATOM     17  O   UNL     1       3.849  -0.676   2.578  1.00  0.00    -0.503 OA
ATOM     18  H   UNL     1       4.791  -0.636   2.316  1.00  0.00     0.293 HD
ENDBRANCH  12  17
ENDBRANCH   1   7
BRANCH   6  19
ATOM     19  C   UNL     1      -0.536   2.179   0.589  1.00  0.00     0.261 C 
ATOM     20  O   UNL     1       0.509   2.498   0.034  1.00  0.00    -0.298 OA
ENDBRANCH   6  19
BRANCH   3  21
ATOM     21  O   UNL     1      -3.169  -2.744  -0.254  1.00  0.00    -0.504 OA
ATOM     22  H   UNL     1      -2.527  -3.472  -0.337  1.00  0.00     0.293 HD
ENDBRANCH   3  21
BRANCH   5  23
ATOM     23  C   UNL     1      -3.399   2.002   0.564  1.00  0.00     0.340 C 
ATOM     24  O   UNL     1      -3.504   2.623   1.603  1.00  0.00    -0.246 OA
BRANCH  23  25
ATOM     25  O   UNL     1      -3.945   2.408  -0.594  1.00  0.00    -0.478 OA
ATOM     26  H   UNL     1      -4.479   3.194  -0.357  1.00  0.00     0.297 HD
ENDBRANCH  23  25
ENDBRANCH   5  23
BRANCH   4  27
ATOM     27  O   UNL     1      -4.598  -0.522   0.170  1.00  0.00    -0.504 OA
ATOM     28  H   UNL     1      -4.790  -1.468   0.003  1.00  0.00     0.293 HD
ENDBRANCH   4  27
TORSDOF 8
