MODEL        9USER    Run = 9USERUSER    Estimated Free Energy of Binding    =  -8.78 kcal/mol  [=(1)+(2)+(3)-(4)]USERUSER    (1) Final Intermolecular Energy     = -11.77 kcal/molUSER        vdW + Hbond + desolv Energy     = -11.53 kcal/molUSER        Electrostatic Energy            =  -0.24 kcal/molUSER        Moving Ligand-Fixed Receptor    = -11.77 kcal/molUSER        Moving Ligand-Moving Receptor   =  +0.00 kcal/molUSER    (2) Final Total Internal Energy     =  -1.44 kcal/molUSER    (3) Torsional Free Energy           =  +2.98 kcal/molUSER    (4) Unbound System's Energy         =  -1.44 kcal/molUSERUSERREMARK SMILES COc1ccccc1C#CC[C@H](O)/C(C=O)=C\c1c[nH]c2ccccc12REMARK SMILES IDX 11 1 10 2 9 3 8 4 3 5 4 6 5 7 7 8 6 9 2 10 1 11 12 12 13 13REMARK SMILES IDX 14 15 15 16 16 17 17 18 18 19 19 20 26 21 20 22 25 23 21 24REMARK SMILES IDX 24 25 22 26 23 27REMARK H PARENT 13 14 20 28USER                              x       y       z     vdW  Elec       q    TypeUSER                           _______ _______ _______ _____ _____    ______ ____ROOTATOM      1  C   UNL     1      34.844  42.897  19.344 -0.39 -0.01    +0.126 C  ENDROOTBRANCH   1   2ATOM      2  C   UNL     1      33.695  42.010  19.071 -0.38 +0.00    -0.095 C  BRANCH   2   3ATOM      3  C   UNL     1      32.755  41.299  18.839 -0.39 +0.00    -0.063 C  BRANCH   3   4ATOM      4  C   UNL     1      31.626  40.451  18.580 -0.35 -0.00    +0.067 A  ATOM      5  C   UNL     1      31.278  39.405  19.454 -0.32 +0.02    +0.134 A  ATOM      6  C   UNL     1      30.168  38.609  19.148 -0.36 +0.01    +0.048 A  ATOM      7  C   UNL     1      29.417  38.851  17.993 -0.31 +0.00    +0.004 A  ATOM      8  C   UNL     1      30.870  40.688  17.425 -0.34 -0.00    +0.021 A  ATOM      9  C   UNL     1      29.766  39.888  17.133 -0.36 +0.00    +0.002 A  BRANCH   5  10ATOM     10  O   UNL     1      32.074  39.238  20.559 -1.02 -0.21    -0.495 OA ATOM     11  C   UNL     1      31.628  38.330  21.558 -0.30 +0.04    +0.278 C  ENDBRANCH   5  10ENDBRANCH   3   4ENDBRANCH   2   3ENDBRANCH   1   2BRANCH   1  12ATOM     12  C   UNL     1      34.396  44.370  19.421 -0.35 -0.03    +0.159 C  BRANCH  12  13ATOM     13  O   UNL     1      33.017  44.469  19.802 -0.33 +0.06    -0.387 OA ATOM     14  H   UNL     1      32.886  45.380  20.120 -0.38 -0.09    +0.211 HD ENDBRANCH  12  13BRANCH  12  15ATOM     15  C   UNL     1      34.593  45.136  18.134 -0.43 -0.01    +0.022 C  BRANCH  15  16ATOM     16  C   UNL     1      34.319  46.601  18.202 -0.36 -0.22    +0.258 C  ATOM     17  O   UNL     1      33.568  47.109  19.026 -0.91 +0.19    -0.298 OA ENDBRANCH  15  16BRANCH  15  18ATOM     18  C   UNL     1      35.043  44.705  16.938 -0.35 -0.01    +0.020 C  BRANCH  18  19ATOM     19  C   UNL     1      34.948  45.366  15.679 -0.33 -0.00    +0.000 A  ATOM     20  C   UNL     1      33.789  45.554  14.960 -0.18 -0.08    +0.091 A  ATOM     21  C   UNL     1      36.008  46.008  14.971 -0.38 -0.00    +0.007 A  ATOM     22  N   UNL     1      34.108  46.250  13.824 -0.11 +0.32    -0.361 N  ATOM     23  C   UNL     1      37.390  46.179  15.196 -0.38 -0.01    +0.011 A  ATOM     24  C   UNL     1      35.452  46.546  13.807 -0.44 -0.03    +0.046 A  ATOM     25  C   UNL     1      38.160  46.877  14.259 -0.46 -0.00    +0.001 A  ATOM     26  C   UNL     1      36.210  47.245  12.859 -0.62 -0.01    +0.027 A  ATOM     27  C   UNL     1      37.576  47.399  13.108 -0.55 -0.00    +0.002 A  ATOM     28  H   UNL     1      33.451  46.524  13.107 -0.46 -0.16    +0.166 HD ENDBRANCH  18  19ENDBRANCH  15  18ENDBRANCH  12  15ENDBRANCH   1  12TORSDOF 10TERENDMDL