REMARK SMILES COC=C1Cc2c(-c3cncc(NC(C)=O)c3)c[nH]c2C=C1Br
REMARK SMILES IDX 4 1 5 2 6 3 7 4 18 5 19 6 20 7 21 8 22 9 23 10 3 12 2 13
REMARK SMILES IDX 1 14 8 15 9 16 17 17 10 18 12 19 11 20 13 21 14 22 15 24
REMARK SMILES IDX 16 25
REMARK H PARENT 19 11 13 23
ROOT
ATOM      1  C   UNL     1      -3.707  -0.289  -0.087  1.00  0.00     0.005 C 
ATOM      2  C   UNL     1      -2.238  -0.304   0.381  1.00  0.00     0.078 C 
ATOM      3  C   UNL     1      -1.373  -1.199  -0.445  1.00  0.00    -0.011 A 
ATOM      4  C   UNL     1       0.033  -1.411  -0.471  1.00  0.00     0.005 A 
ATOM      5  C   UNL     1       0.270  -2.358  -1.455  1.00  0.00     0.092 A 
ATOM      6  N   UNL     1      -0.934  -2.724  -2.013  1.00  0.00    -0.361 N 
ATOM      7  C   UNL     1      -1.923  -2.013  -1.405  1.00  0.00     0.043 A 
ATOM      8  C   UNL     1      -3.284  -2.116  -1.738  1.00  0.00     0.042 C 
ATOM      9  C   UNL     1      -4.142  -1.286  -1.103  1.00  0.00     0.026 C 
ATOM     10  Br  UNL     1      -5.973  -1.436  -1.542  1.00  0.00    -0.050 Br
ATOM     11  H   UNL     1      -1.054  -3.404  -2.752  1.00  0.00     0.166 HD
ENDROOT
BRANCH   1  12
ATOM     12  C   UNL     1      -4.526   0.639   0.446  1.00  0.00     0.191 C 
BRANCH  12  13
ATOM     13  O   UNL     1      -4.104   1.536   1.396  1.00  0.00    -0.504 OA
ATOM     14  C   UNL     1      -4.978   2.656   1.516  1.00  0.00     0.277 C 
ENDBRANCH  12  13
ENDBRANCH   1  12
BRANCH   4  15
ATOM     15  C   UNL     1       1.086  -0.819   0.332  1.00  0.00     0.004 A 
ATOM     16  C   UNL     1       0.979  -0.739   1.715  1.00  0.00     0.119 A 
ATOM     17  C   UNL     1       2.245  -0.303  -0.258  1.00  0.00     0.038 A 
ATOM     18  N   UNL     1       1.923  -0.193   2.517  1.00  0.00    -0.262 NA
ATOM     19  C   UNL     1       3.246   0.271   0.534  1.00  0.00     0.060 A 
ATOM     20  C   UNL     1       3.033   0.298   1.910  1.00  0.00     0.137 A 
BRANCH  19  21
ATOM     21  N   UNL     1       4.387   0.780  -0.123  1.00  0.00    -0.325 N 
ATOM     22  C   UNL     1       5.486   1.372   0.470  1.00  0.00     0.221 C 
ATOM     23  H   UNL     1       4.397   0.695  -1.132  1.00  0.00     0.169 HD
ATOM     24  C   UNL     1       6.526   1.802  -0.535  1.00  0.00     0.114 C 
ATOM     25  O   UNL     1       5.667   1.534   1.671  1.00  0.00    -0.275 OA
ENDBRANCH  19  21
ENDBRANCH   4  15
TORSDOF 4
