REMARK SMILES CCC=C(C=Nc1ccc(C(=O)O)cc1F)NCCN1CCOCC1
REMARK SMILES IDX 5 1 4 2 3 3 2 4 1 5 17 6 18 8 19 9 20 10 21 11 25 12 22 13
REMARK SMILES IDX 24 14 23 15 6 16 7 17 8 18 15 19 9 20 14 21 10 22 16 23
REMARK SMILES IDX 11 24 12 25 13 26
REMARK H PARENT 17 7 13 27
ROOT
ATOM      1  C   UNL     1       0.512   1.419   0.379  1.00  0.00     0.137 C 
ENDROOT
BRANCH   1   2
ATOM      2  C   UNL     1      -0.372   2.499  -0.169  1.00  0.00     0.049 C 
BRANCH   2   3
ATOM      3  C   UNL     1       0.186   3.627  -0.642  1.00  0.00    -0.000 C 
BRANCH   3   4
ATOM      4  C   UNL     1       1.645   3.988  -0.706  1.00  0.00     0.026 C 
ATOM      5  C   UNL     1       1.913   5.307   0.004  1.00  0.00     0.008 C 
ENDBRANCH   3   4
ENDBRANCH   2   3
BRANCH   2   6
ATOM      6  N   UNL     1      -1.744   2.295  -0.115  1.00  0.00    -0.383 N 
ATOM      7  H   UNL     1      -2.267   3.015  -0.609  1.00  0.00     0.160 HD
BRANCH   6   8
ATOM      8  C   UNL     1      -2.374   0.974  -0.195  1.00  0.00     0.128 C 
BRANCH   8   9
ATOM      9  C   UNL     1      -2.450   0.480  -1.659  1.00  0.00     0.106 C 
BRANCH   9  10
ATOM     10  N   UNL     1      -2.895  -0.900  -1.887  1.00  0.00    -0.297 NA
ATOM     11  C   UNL     1      -4.266  -1.180  -1.434  1.00  0.00     0.113 C 
ATOM     12  C   UNL     1      -1.940  -1.921  -1.415  1.00  0.00     0.113 C 
ATOM     13  C   UNL     1      -4.532  -2.693  -1.410  1.00  0.00     0.175 C 
ATOM     14  C   UNL     1      -2.452  -2.738  -0.218  1.00  0.00     0.175 C 
ATOM     15  O   UNL     1      -3.707  -3.388  -0.463  1.00  0.00    -0.379 OA
ENDBRANCH   9  10
ENDBRANCH   8   9
ENDBRANCH   6   8
ENDBRANCH   2   6
ENDBRANCH   1   2
BRANCH   1  16
ATOM     16  N   UNL     1       1.403   0.797  -0.325  1.00  0.00    -0.252 NA
BRANCH  16  17
ATOM     17  C   UNL     1       2.134  -0.224   0.308  1.00  0.00     0.099 A 
ATOM     18  C   UNL     1       3.527  -0.194   0.201  1.00  0.00     0.032 A 
ATOM     19  C   UNL     1       1.545  -1.299   0.991  1.00  0.00     0.149 A 
ATOM     20  C   UNL     1       4.314  -1.195   0.783  1.00  0.00     0.018 A 
ATOM     21  C   UNL     1       2.315  -2.303   1.575  1.00  0.00     0.057 A 
ATOM     22  C   UNL     1       3.708  -2.252   1.472  1.00  0.00     0.062 A 
ATOM     23  F   UNL     1       0.209  -1.379   1.099  1.00  0.00    -0.205 F 
BRANCH  22  24
ATOM     24  C   UNL     1       4.496  -3.337   2.103  1.00  0.00     0.335 C 
ATOM     25  O   UNL     1       4.037  -4.289   2.706  1.00  0.00    -0.246 OA
BRANCH  24  26
ATOM     26  O   UNL     1       5.821  -3.176   1.951  1.00  0.00    -0.478 OA
ATOM     27  H   UNL     1       6.209  -3.951   2.409  1.00  0.00     0.297 HD
ENDBRANCH  24  26
ENDBRANCH  22  24
ENDBRANCH  16  17
ENDBRANCH   1  16
TORSDOF 11
