MODEL        1USER    Run = 1USERUSER    Estimated Free Energy of Binding    =  -7.75 kcal/mol  [=(1)+(2)+(3)-(4)]USERUSER    (1) Final Intermolecular Energy     = -10.73 kcal/molUSER        vdW + Hbond + desolv Energy     =  -9.98 kcal/molUSER        Electrostatic Energy            =  -0.75 kcal/molUSER        Moving Ligand-Fixed Receptor    = -10.73 kcal/molUSER        Moving Ligand-Moving Receptor   =  +0.00 kcal/molUSER    (2) Final Total Internal Energy     =  -4.22 kcal/molUSER    (3) Torsional Free Energy           =  +2.98 kcal/molUSER    (4) Unbound System's Energy         =  -4.22 kcal/molUSERUSERREMARK SMILES CCc1cc(O)cc(O)c1-c1c(/C=C/N2C(=O)CC[C@H]2[C@H]2CCCN2C)cccc1C(=O)OREMARK SMILES IDX 13 1 12 2 11 3 30 4 27 5 29 6 28 7 10 8 3 9 4 10 5 11 8 12REMARK SMILES IDX 7 13 2 14 1 15 6 16 9 18 31 20 32 21 33 22 14 24 15 25 16 26REMARK SMILES IDX 20 27 18 28 19 29 17 30 21 31 22 32 25 33 23 34 24 35 26 36REMARK H PARENT 6 17 9 19 33 23USER                              x       y       z     vdW  Elec       q    TypeUSER                           _______ _______ _______ _____ _____    ______ ____ROOTATOM      1  C   UNL     1      28.655  38.657  18.593 -0.29 +0.01    +0.027 C  ENDROOTBRANCH   1   2ATOM      2  C   UNL     1      28.571  39.791  17.657 -0.27 -0.00    -0.015 A  ATOM      3  C   UNL     1      27.328  40.383  17.311 -0.25 +0.00    +0.007 A  ATOM      4  C   UNL     1      27.335  41.435  16.366 -0.22 -0.01    +0.068 A  ATOM      5  C   UNL     1      29.769  40.262  17.092 -0.36 -0.00    +0.009 A  ATOM      6  C   UNL     1      28.546  41.892  15.813 -0.27 -0.01    +0.016 A  ATOM      7  C   UNL     1      29.756  41.310  16.177 -0.38 -0.00    +0.002 A  BRANCH   3   8ATOM      8  C   UNL     1      26.067  39.863  17.890 -0.28 +0.00    +0.028 A  ATOM      9  C   UNL     1      25.642  40.194  19.202 -0.25 +0.01    -0.033 A  ATOM     10  C   UNL     1      24.445  39.637  19.699 -0.30 -0.02    +0.050 A  ATOM     11  C   UNL     1      23.686  38.775  18.915 -0.31 -0.08    +0.119 A  ATOM     12  C   UNL     1      25.268  38.982  17.129 -0.18 +0.02    +0.127 A  ATOM     13  C   UNL     1      24.087  38.440  17.632 -0.16 -0.04    +0.093 A  BRANCH   9  14ATOM     14  C   UNL     1      26.412  41.133  20.107 -0.29 -0.00    +0.033 C  ATOM     15  C   UNL     1      25.690  42.453  20.340 -0.52 -0.00    +0.009 C  ENDBRANCH   9  14BRANCH  11  16ATOM     16  O   UNL     1      22.525  38.229  19.379 -0.27 +0.45    -0.508 OA ATOM     17  H   UNL     1      22.640  37.267  19.440 -0.23 -0.66    +0.293 HD ENDBRANCH  11  16BRANCH  12  18ATOM     18  O   UNL     1      25.672  38.650  15.860 -0.53 -0.28    -0.507 OA ATOM     19  H   UNL     1      25.111  39.125  15.225 -0.01 -0.03    +0.293 HD ENDBRANCH  12  18ENDBRANCH   3   8BRANCH   4  20ATOM     20  C   UNL     1      26.076  42.099  15.935 -0.14 -0.08    +0.336 C  ATOM     21  O   UNL     1      25.680  43.212  16.218 -0.21 +0.03    -0.246 OA BRANCH  20  22ATOM     22  O   UNL     1      25.351  41.302  15.123 -0.13 +0.10    -0.478 OA ATOM     23  H   UNL     1      24.924  40.679  15.746 +0.18 -0.02    +0.297 HD ENDBRANCH  20  22ENDBRANCH   4  20ENDBRANCH   1   2BRANCH   1  24ATOM     24  C   UNL     1      28.951  38.838  19.887 -0.27 +0.01    +0.090 C  BRANCH  24  25ATOM     25  N   UNL     1      29.875  38.127  20.629 -0.15 -0.02    -0.314 N  ATOM     26  C   UNL     1      31.201  38.531  20.899 -0.37 +0.04    +0.226 C  ATOM     27  C   UNL     1      29.656  36.756  21.116 -0.33 +0.00    +0.107 C  ATOM     28  C   UNL     1      31.870  37.428  21.678 -0.18 +0.01    +0.103 C  ATOM     29  C   UNL     1      30.688  36.664  22.239 -0.39 +0.00    +0.037 C  ATOM     30  O   UNL     1      31.775  39.560  20.576 -1.00 -0.09    -0.275 OA BRANCH  27  31ATOM     31  C   UNL     1      28.206  36.369  21.548 -0.34 -0.02    +0.079 C  ATOM     32  C   UNL     1      27.709  37.306  22.674 -0.33 -0.00    +0.022 C  ATOM     33  N   UNL     1      27.208  36.552  20.462 -0.16 +0.16    -0.301 NA ATOM     34  C   UNL     1      26.662  38.188  22.025 -0.35 -0.01    +0.017 C  ATOM     35  C   UNL     1      26.043  37.253  21.017 -0.15 -0.10    +0.084 C  ATOM     36  C   UNL     1      26.789  35.289  19.855 -0.31 -0.09    +0.105 C  ENDBRANCH  27  31ENDBRANCH  24  25ENDBRANCH   1  24TORSDOF 10TERENDMDL