REMARK SMILES COc1ccccc1C#CC[C@H](O)/C(C=O)=C\c1c[nH]c2ccccc12
REMARK SMILES IDX 11 1 10 2 9 3 8 4 3 5 4 6 5 7 7 8 6 9 2 10 1 11 12 12 13 13
REMARK SMILES IDX 14 15 15 16 16 17 17 18 18 19 19 20 26 21 20 22 25 23 21 24
REMARK SMILES IDX 24 25 22 26 23 27
REMARK H PARENT 13 14 20 28
ROOT
ATOM      1  C   UNL     1       0.078   0.930   0.297  1.00  0.00     0.126 C 
ENDROOT
BRANCH   1   2
ATOM      2  C   UNL     1      -1.356   0.580   0.319  1.00  0.00    -0.095 C 
BRANCH   2   3
ATOM      3  C   UNL     1      -2.524   0.298   0.321  1.00  0.00    -0.063 C 
BRANCH   3   4
ATOM      4  C   UNL     1      -3.923  -0.020   0.317  1.00  0.00     0.067 A 
ATOM      5  C   UNL     1      -4.383  -1.308  -0.012  1.00  0.00     0.134 A 
ATOM      6  C   UNL     1      -5.760  -1.558  -0.002  1.00  0.00     0.048 A 
ATOM      7  C   UNL     1      -6.664  -0.544   0.331  1.00  0.00     0.004 A 
ATOM      8  C   UNL     1      -4.834   0.991   0.650  1.00  0.00     0.021 A 
ATOM      9  C   UNL     1      -6.203   0.728   0.657  1.00  0.00     0.002 A 
BRANCH   5  10
ATOM     10  O   UNL     1      -3.426  -2.238  -0.331  1.00  0.00    -0.495 OA
ATOM     11  C   UNL     1      -3.861  -3.567  -0.585  1.00  0.00     0.278 C 
ENDBRANCH   5  10
ENDBRANCH   3   4
ENDBRANCH   2   3
ENDBRANCH   1   2
BRANCH   1  12
ATOM     12  C   UNL     1       0.356   2.052  -0.724  1.00  0.00     0.159 C 
BRANCH  12  13
ATOM     13  O   UNL     1       0.282   1.554  -2.067  1.00  0.00    -0.387 OA
ATOM     14  H   UNL     1      -0.599   1.149  -2.160  1.00  0.00     0.211 HD
ENDBRANCH  12  13
BRANCH  12  15
ATOM     15  C   UNL     1       1.693   2.729  -0.538  1.00  0.00     0.022 C 
BRANCH  15  16
ATOM     16  C   UNL     1       1.651   4.207  -0.344  1.00  0.00     0.258 C 
ATOM     17  O   UNL     1       0.613   4.836  -0.175  1.00  0.00    -0.298 OA
ENDBRANCH  15  16
BRANCH  15  18
ATOM     18  C   UNL     1       2.926   2.188  -0.457  1.00  0.00     0.020 C 
BRANCH  18  19
ATOM     19  C   UNL     1       3.287   0.814  -0.574  1.00  0.00     0.000 A 
ATOM     20  C   UNL     1       2.982  -0.005  -1.637  1.00  0.00     0.091 A 
ATOM     21  C   UNL     1       4.080   0.060   0.342  1.00  0.00     0.007 A 
ATOM     22  N   UNL     1       3.524  -1.238  -1.387  1.00  0.00    -0.361 N 
ATOM     23  C   UNL     1       4.699   0.337   1.579  1.00  0.00     0.011 A 
ATOM     24  C   UNL     1       4.204  -1.226  -0.190  1.00  0.00     0.046 A 
ATOM     25  C   UNL     1       5.415  -0.672   2.233  1.00  0.00     0.001 A 
ATOM     26  C   UNL     1       4.915  -2.247   0.453  1.00  0.00     0.027 A 
ATOM     27  C   UNL     1       5.518  -1.944   1.677  1.00  0.00     0.002 A 
ATOM     28  H   UNL     1       3.451  -2.039  -1.998  1.00  0.00     0.166 HD
ENDBRANCH  18  19
ENDBRANCH  15  18
ENDBRANCH  12  15
ENDBRANCH   1  12
TORSDOF 10
