REMARK SMILES C#CC[C@@H]1CCCN1c1nc(N)ncc1-c1ccc(F)cc1F
REMARK SMILES IDX 4 1 5 2 6 3 7 4 8 5 3 6 2 7 1 8 9 9 10 10 15 11 11 12 14 13
REMARK SMILES IDX 13 14 16 15 17 16 22 17 18 18 21 19 19 20 23 21 20 22 12 23
REMARK H PARENT 12 24 12 25
ROOT
ATOM      1  C   UNL     1      -2.070  -0.250  -0.207  1.00  0.00     0.095 C 
ATOM      2  C   UNL     1      -2.409  -1.498  -1.037  1.00  0.00     0.028 C 
ATOM      3  C   UNL     1      -1.412  -1.397  -2.177  1.00  0.00     0.024 C 
ATOM      4  C   UNL     1      -0.135  -0.927  -1.484  1.00  0.00     0.118 C 
ATOM      5  N   UNL     1      -0.591  -0.209  -0.283  1.00  0.00    -0.352 N 
ENDROOT
BRANCH   1   6
ATOM      6  C   UNL     1      -2.555  -0.352   1.245  1.00  0.00     0.114 C 
BRANCH   6   7
ATOM      7  C   UNL     1      -4.025  -0.395   1.337  1.00  0.00    -0.105 C 
ATOM      8  C   UNL     1      -5.223  -0.429   1.419  1.00  0.00     0.004 C 
ENDBRANCH   6   7
ENDBRANCH   1   6
BRANCH   5   9
ATOM      9  C   UNL     1       0.027   1.028  -0.050  1.00  0.00     0.142 A 
ATOM     10  N   UNL     1      -0.740   2.139  -0.109  1.00  0.00    -0.195 NA
ATOM     11  C   UNL     1       1.393   1.107   0.243  1.00  0.00     0.046 A 
ATOM     12  C   UNL     1      -0.164   3.324   0.099  1.00  0.00     0.221 A 
ATOM     13  C   UNL     1       1.876   2.394   0.420  1.00  0.00     0.127 A 
ATOM     14  N   UNL     1       1.131   3.511   0.334  1.00  0.00    -0.221 NA
BRANCH  11  15
ATOM     15  C   UNL     1       2.281  -0.049   0.412  1.00  0.00     0.023 A 
ATOM     16  C   UNL     1       3.339  -0.282  -0.486  1.00  0.00     0.015 A 
ATOM     17  C   UNL     1       2.109  -0.949   1.477  1.00  0.00     0.134 A 
ATOM     18  C   UNL     1       4.178  -1.387  -0.324  1.00  0.00     0.040 A 
ATOM     19  C   UNL     1       2.941  -2.052   1.644  1.00  0.00     0.079 A 
ATOM     20  C   UNL     1       3.969  -2.261   0.738  1.00  0.00     0.126 A 
ATOM     21  F   UNL     1       1.135  -0.749   2.378  1.00  0.00    -0.206 F 
ATOM     22  F   UNL     1       4.776  -3.319   0.888  1.00  0.00    -0.207 F 
ENDBRANCH  11  15
BRANCH  12  23
ATOM     23  N   UNL     1      -0.962   4.444   0.011  1.00  0.00    -0.368 N 
ATOM     24  H   UNL     1      -1.774   4.244  -0.556  1.00  0.00     0.159 HD
ATOM     25  H   UNL     1      -0.402   5.247  -0.236  1.00  0.00     0.159 HD
ENDBRANCH  12  23
ENDBRANCH   5   9
TORSDOF 5
