MODEL        7USER    Run = 7USERUSER    Estimated Free Energy of Binding    =  -9.22 kcal/mol  [=(1)+(2)+(3)-(4)]USERUSER    (1) Final Intermolecular Energy     = -10.41 kcal/molUSER        vdW + Hbond + desolv Energy     =  -9.89 kcal/molUSER        Electrostatic Energy            =  -0.52 kcal/molUSER        Moving Ligand-Fixed Receptor    = -10.41 kcal/molUSER        Moving Ligand-Moving Receptor   =  +0.00 kcal/molUSER    (2) Final Total Internal Energy     =  -0.64 kcal/molUSER    (3) Torsional Free Energy           =  +1.19 kcal/molUSER    (4) Unbound System's Energy         =  -0.64 kcal/molUSERUSERREMARK SMILES COC=C1Cc2c(-c3cncc(NC(C)=O)c3)c[nH]c2C=C1BrREMARK SMILES IDX 4 1 5 2 6 3 7 4 18 5 19 6 20 7 21 8 22 9 23 10 3 12 2 13REMARK SMILES IDX 1 14 8 15 9 16 17 17 10 18 12 19 11 20 13 21 14 22 15 24REMARK SMILES IDX 16 25REMARK H PARENT 19 11 13 23USER                              x       y       z     vdW  Elec       q    TypeUSER                           _______ _______ _______ _____ _____    ______ ____ROOTATOM      1  C   UNL     1      42.927  46.294  21.012 -0.36 +0.00    +0.005 C  ATOM      2  C   UNL     1      42.415  46.858  19.672 -0.47 +0.01    +0.078 C  ATOM      3  C   UNL     1      41.270  46.080  19.111 -0.47 -0.00    -0.011 A  ATOM      4  C   UNL     1      40.410  46.310  18.002 -0.48 -0.00    +0.005 A  ATOM      5  C   UNL     1      39.519  45.248  17.969 -0.35 -0.01    +0.092 A  ATOM      6  N   UNL     1      39.814  44.393  19.006 -0.16 +0.01    -0.361 N  ATOM      7  C   UNL     1      40.868  44.905  19.699 -0.38 +0.00    +0.043 A  ATOM      8  C   UNL     1      41.427  44.303  20.839 -0.37 +0.00    +0.042 C  ATOM      9  C   UNL     1      42.418  44.972  21.470 -0.28 +0.01    +0.026 C  ATOM     10  Br  UNL     1      43.178  44.154  22.994 -0.40 -0.01    -0.050 Br ATOM     11  H   UNL     1      39.324  43.533  19.213 +0.12 -0.00    +0.166 HD ENDROOTBRANCH   1  12ATOM     12  C   UNL     1      43.810  47.035  21.709 -0.28 +0.08    +0.191 C  BRANCH  12  13ATOM     13  O   UNL     1      45.161  46.994  21.467 -0.64 -0.69    -0.504 OA ATOM     14  C   UNL     1      45.922  47.586  22.517 -0.15 +0.18    +0.277 C  ENDBRANCH  12  13ENDBRANCH   1  12BRANCH   4  15ATOM     15  C   UNL     1      40.392  47.393  17.037 -0.52 -0.00    +0.004 A  ATOM     16  C   UNL     1      41.416  48.331  16.988 -0.35 -0.01    +0.119 A  ATOM     17  C   UNL     1      39.341  47.534  16.125 -0.46 -0.01    +0.038 A  ATOM     18  N   UNL     1      41.453  49.366  16.117 -0.97 +0.00    -0.262 NA ATOM     19  C   UNL     1      39.339  48.590  15.207 -0.49 -0.03    +0.060 A  ATOM     20  C   UNL     1      40.417  49.472  15.247 -0.41 -0.05    +0.137 A  BRANCH  19  21ATOM     21  N   UNL     1      38.246  48.681  14.318 -0.25 +0.18    -0.325 N  ATOM     22  C   UNL     1      37.701  47.654  13.572 -0.42 -0.08    +0.221 C  ATOM     23  H   UNL     1      37.819  49.595  14.226 -0.44 -0.14    +0.169 HD ATOM     24  C   UNL     1      36.536  48.106  12.726 -0.60 -0.05    +0.114 C  ATOM     25  O   UNL     1      38.060  46.482  13.574 -0.31 +0.08    -0.275 OA ENDBRANCH  19  21ENDBRANCH   4  15TORSDOF 4TERENDMDL