MODEL        10USER    Run = 10USERUSER    Estimated Free Energy of Binding    =  -6.52 kcal/mol  [=(1)+(2)+(3)-(4)]USERUSER    (1) Final Intermolecular Energy     =  -8.91 kcal/molUSER        vdW + Hbond + desolv Energy     =  -8.29 kcal/molUSER        Electrostatic Energy            =  -0.62 kcal/molUSER        Moving Ligand-Fixed Receptor    =  -8.91 kcal/molUSER        Moving Ligand-Moving Receptor   =  +0.00 kcal/molUSER    (2) Final Total Internal Energy     =  -3.73 kcal/molUSER    (3) Torsional Free Energy           =  +2.39 kcal/molUSER    (4) Unbound System's Energy         =  -3.73 kcal/molUSERUSERREMARK SMILES Cc1cc(O)c(O)c(Cl)c1-c1cc(O)c(O)c(C(=O)O)c1C=OREMARK SMILES IDX 11 1 12 2 13 3 15 4 17 5 21 6 10 7 2 8 3 9 4 10 8 11 6 12REMARK SMILES IDX 1 13 9 14 5 15 7 17 22 19 23 20 14 21 18 23 19 24 20 25REMARK SMILES IDX 16 27REMARK H PARENT 5 16 7 18 14 22 20 26 16 28USER                              x       y       z     vdW  Elec       q    TypeUSER                           _______ _______ _______ _____ _____    ______ ____ROOTATOM      1  C   UNL     1      37.689  46.302  16.280 -0.38 +0.00    -0.001 A  ATOM      2  C   UNL     1      36.526  46.296  17.080 -0.29 -0.04    +0.059 A  ATOM      3  C   UNL     1      35.270  46.189  16.495 -0.21 -0.16    +0.158 A  ATOM      4  C   UNL     1      35.138  46.083  15.114 -0.20 -0.16    +0.173 A  ATOM      5  C   UNL     1      36.270  46.081  14.302 -0.34 -0.07    +0.116 A  ATOM      6  C   UNL     1      37.549  46.197  14.874 -0.37 -0.02    +0.041 A  ENDROOTBRANCH   1   7ATOM      7  C   UNL     1      38.994  46.473  16.958 -0.42 -0.00    +0.008 A  ATOM      8  C   UNL     1      39.470  45.489  17.870 -0.40 +0.00    -0.038 A  ATOM      9  C   UNL     1      40.710  45.666  18.511 -0.44 -0.00    +0.054 A  ATOM     10  C   UNL     1      41.465  46.803  18.260 -0.40 -0.01    +0.159 A  ATOM     11  C   UNL     1      39.785  47.625  16.726 -0.41 -0.03    +0.094 A  ATOM     12  C   UNL     1      41.008  47.780  17.379 -0.38 -0.02    +0.177 A  ATOM     13  C   UNL     1      38.683  44.236  18.155 -0.27 -0.01    +0.045 C  ATOM     14  Cl  UNL     1      39.242  48.868  15.639 -0.69 +0.04    -0.079 Cl BRANCH  10  15ATOM     15  O   UNL     1      42.676  47.010  18.863 -0.26 -0.06    -0.504 OA ATOM     16  H   UNL     1      43.261  47.458  18.228 -0.14 +0.01    +0.293 HD ENDBRANCH  10  15BRANCH  12  17ATOM     17  O   UNL     1      41.791  48.889  17.181 -0.69 -0.07    -0.503 OA ATOM     18  H   UNL     1      42.333  48.964  17.991 +0.17 +0.05    +0.293 HD ENDBRANCH  12  17ENDBRANCH   1   7BRANCH   6  19ATOM     19  C   UNL     1      38.733  46.194  13.980 -0.16 -0.06    +0.261 C  ATOM     20  O   UNL     1      39.763  45.591  14.257 -0.20 +0.04    -0.298 OA ENDBRANCH   6  19BRANCH   3  21ATOM     21  O   UNL     1      34.124  46.194  17.241 -0.07 +0.57    -0.504 OA ATOM     22  H   UNL     1      33.399  46.553  16.699 -0.26 -0.59    +0.293 HD ENDBRANCH   3  21BRANCH   5  23ATOM     23  C   UNL     1      36.107  45.946  12.853 -0.32 -0.16    +0.340 C  ATOM     24  O   UNL     1      36.452  44.994  12.182 -0.43 +0.09    -0.246 OA BRANCH  23  25ATOM     25  O   UNL     1      35.418  46.986  12.355 -0.28 +0.32    -0.478 OA ATOM     26  H   UNL     1      34.511  46.878  12.709 -0.17 -0.27    +0.297 HD ENDBRANCH  23  25ENDBRANCH   5  23BRANCH   4  27ATOM     27  O   UNL     1      33.879  45.997  14.584 -0.10 +0.53    -0.504 OA ATOM     28  H   UNL     1      33.300  46.475  15.213 -0.20 -0.55    +0.293 HD ENDBRANCH   4  27TORSDOF 8TERENDMDL