REMARK SMILES OCCOc1ccc(Nc2nnc(Sc3ccccc3Cl)s2)cc1F
REMARK SMILES IDX 5 1 6 2 7 3 8 4 23 5 24 6 25 7 4 8 3 9 2 10 1 11 9 13 10 15
REMARK SMILES IDX 11 16 22 17 12 18 13 19 14 20 15 21 16 22 20 23 17 24 19 25
REMARK SMILES IDX 18 26 21 27
REMARK H PARENT 1 12 9 14
ROOT
ATOM      1  C   UNL     1       3.804  -0.306  -0.439  1.00  0.00     0.155 A 
ATOM      2  C   UNL     1       3.565  -1.667  -0.609  1.00  0.00     0.052 A 
ATOM      3  C   UNL     1       2.316  -2.208  -0.269  1.00  0.00     0.030 A 
ATOM      4  C   UNL     1       1.278  -1.413   0.251  1.00  0.00     0.043 A 
ATOM      5  C   UNL     1       1.531  -0.049   0.406  1.00  0.00     0.069 A 
ATOM      6  C   UNL     1       2.775   0.488   0.069  1.00  0.00     0.167 A 
ATOM      7  F   UNL     1       2.973   1.805   0.245  1.00  0.00    -0.203 F 
ENDROOT
BRANCH   1   8
ATOM      8  O   UNL     1       4.972   0.344  -0.728  1.00  0.00    -0.488 OA
BRANCH   8   9
ATOM      9  C   UNL     1       6.045  -0.435  -1.266  1.00  0.00     0.258 C 
BRANCH   9  10
ATOM     10  C   UNL     1       7.214   0.511  -1.526  1.00  0.00     0.197 C 
BRANCH  10  11
ATOM     11  O   UNL     1       6.863   1.463  -2.529  1.00  0.00    -0.393 OA
ATOM     12  H   UNL     1       6.030   1.875  -2.227  1.00  0.00     0.210 HD
ENDBRANCH  10  11
ENDBRANCH   9  10
ENDBRANCH   8   9
ENDBRANCH   1   8
BRANCH   4  13
ATOM     13  N   UNL     1       0.052  -2.033   0.552  1.00  0.00    -0.330 N 
ATOM     14  H   UNL     1       0.066  -3.043   0.491  1.00  0.00     0.169 HD
BRANCH  13  15
ATOM     15  C   UNL     1      -1.112  -1.472   0.965  1.00  0.00     0.210 A 
ATOM     16  N   UNL     1      -1.405  -0.195   1.099  1.00  0.00    -0.119 NA
ATOM     17  S   UNL     1      -2.437  -2.507   1.379  1.00  0.00    -0.068 S 
ATOM     18  N   UNL     1      -2.695   0.025   1.538  1.00  0.00    -0.129 NA
ATOM     19  C   UNL     1      -3.350  -1.100   1.714  1.00  0.00     0.180 A 
BRANCH  19  20
ATOM     20  S   UNL     1      -5.009  -1.161   2.273  1.00  0.00    -0.056 SA
BRANCH  20  21
ATOM     21  C   UNL     1      -5.636   0.260   1.380  1.00  0.00     0.033 A 
ATOM     22  C   UNL     1      -5.867   1.436   2.110  1.00  0.00     0.017 A 
ATOM     23  C   UNL     1      -5.928   0.247   0.005  1.00  0.00     0.055 A 
ATOM     24  C   UNL     1      -6.359   2.581   1.480  1.00  0.00     0.001 A 
ATOM     25  C   UNL     1      -6.422   1.397  -0.621  1.00  0.00     0.022 A 
ATOM     26  C   UNL     1      -6.633   2.563   0.115  1.00  0.00     0.002 A 
ATOM     27  Cl  UNL     1      -5.715  -1.162  -0.978  1.00  0.00    -0.083 Cl
ENDBRANCH  20  21
ENDBRANCH  19  20
ENDBRANCH  13  15
ENDBRANCH   4  13
TORSDOF 8
