MODEL        2USER    Run = 2USERUSER    Estimated Free Energy of Binding    =  -8.89 kcal/mol  [=(1)+(2)+(3)-(4)]USERUSER    (1) Final Intermolecular Energy     = -10.38 kcal/molUSER        vdW + Hbond + desolv Energy     = -10.32 kcal/molUSER        Electrostatic Energy            =  -0.06 kcal/molUSER        Moving Ligand-Fixed Receptor    = -10.38 kcal/molUSER        Moving Ligand-Moving Receptor   =  +0.00 kcal/molUSER    (2) Final Total Internal Energy     =  -1.20 kcal/molUSER    (3) Torsional Free Energy           =  +1.49 kcal/molUSER    (4) Unbound System's Energy         =  -1.20 kcal/molUSERUSERREMARK SMILES CC(C)[C@@H]1NC=Nc2c(Nc3ccccc3F)nc(N3CC[C@@H](N)C3)nc21REMARK SMILES IDX 4 1 5 2 6 3 7 4 8 5 9 6 18 7 19 8 26 9 27 10 2 12 1 13 3 14REMARK SMILES IDX 20 15 21 16 25 17 22 18 23 19 24 20 10 23 11 25 12 26 16 27REMARK SMILES IDX 13 28 15 29 14 30 17 31REMARK H PARENT 5 11 24 21 24 22 10 24USER                              x       y       z     vdW  Elec       q    TypeUSER                           _______ _______ _______ _____ _____    ______ ____ROOTATOM      1  C   UNL     1      37.360  47.938  15.005 -0.45 -0.10    +0.134 C  ATOM      2  N   UNL     1      38.480  48.838  14.777 -0.21 +0.22    -0.367 N  ATOM      3  C   UNL     1      39.742  48.487  15.139 -0.47 -0.07    +0.193 C  ATOM      4  N   UNL     1      40.087  47.479  15.861 -0.31 +0.05    -0.234 NA ATOM      5  C   UNL     1      39.041  46.664  16.358 -0.34 -0.04    +0.131 A  ATOM      6  C   UNL     1      39.251  45.620  17.257 -0.28 -0.03    +0.162 A  ATOM      7  N   UNL     1      38.261  44.804  17.683 -0.25 +0.04    -0.193 NA ATOM      8  C   UNL     1      37.012  45.042  17.258 -0.19 -0.08    +0.227 A  ATOM      9  N   UNL     1      36.706  46.038  16.417 -0.22 +0.12    -0.213 NA ATOM     10  C   UNL     1      37.718  46.825  15.975 -0.33 -0.05    +0.096 A  ATOM     11  H   UNL     1      38.347  49.600  14.124 -0.41 -0.14    +0.162 HD ENDROOTBRANCH   1  12ATOM     12  C   UNL     1      36.801  47.381  13.667 -0.61 -0.01    +0.011 C  ATOM     13  C   UNL     1      35.344  46.915  13.755 -0.46 -0.01    +0.010 C  ATOM     14  C   UNL     1      37.675  46.245  13.122 -0.49 -0.00    +0.010 C  ENDBRANCH   1  12BRANCH   8  15ATOM     15  N   UNL     1      36.000  44.239  17.713 -0.09 +0.11    -0.339 N  ATOM     16  C   UNL     1      36.009  43.764  19.086 -0.34 -0.02    +0.121 C  ATOM     17  C   UNL     1      35.336  43.306  16.816 -0.36 -0.05    +0.138 C  ATOM     18  C   UNL     1      34.846  42.775  19.112 -0.44 -0.01    +0.042 C  ATOM     19  C   UNL     1      34.945  42.121  17.734 -0.42 -0.02    +0.072 C  BRANCH  19  20ATOM     20  N   UNL     1      33.721  41.409  17.372 -0.17 +0.16    -0.326 NA ATOM     21  H   UNL     1      33.413  41.708  16.446 -0.50 -0.08    +0.119 HD ATOM     22  H   UNL     1      33.916  40.412  17.294 -0.50 -0.09    +0.119 HD ENDBRANCH  19  20ENDBRANCH   8  15BRANCH   6  23ATOM     23  N   UNL     1      40.533  45.291  17.758 -0.18 +0.01    -0.336 N  ATOM     24  H   UNL     1      40.495  44.281  17.882 +0.11 -0.00    +0.168 HD BRANCH  23  25ATOM     25  C   UNL     1      41.151  45.877  18.891 -0.42 +0.00    +0.076 A  ATOM     26  C   UNL     1      42.183  46.800  18.672 -0.50 +0.00    +0.029 A  ATOM     27  C   UNL     1      40.888  45.487  20.213 -0.30 +0.01    +0.146 A  ATOM     28  C   UNL     1      42.886  47.361  19.744 -0.48 +0.00    +0.002 A  ATOM     29  C   UNL     1      41.586  46.041  21.286 -0.29 +0.01    +0.041 A  ATOM     30  C   UNL     1      42.583  46.985  21.052 -0.36 +0.00    +0.003 A  ATOM     31  F   UNL     1      39.976  44.539  20.481 -0.07 -0.01    -0.205 F  ENDBRANCH  23  25ENDBRANCH   6  23TORSDOF 5TERENDMDL