MODEL        1USER    Run = 1USERUSER    Estimated Free Energy of Binding    =  -6.67 kcal/mol  [=(1)+(2)+(3)-(4)]USERUSER    (1) Final Intermolecular Energy     = -10.25 kcal/molUSER        vdW + Hbond + desolv Energy     = -10.49 kcal/molUSER        Electrostatic Energy            =  -0.05 kcal/molUSER        Moving Ligand-Fixed Receptor    = -10.53 kcal/molUSER        Moving Ligand-Moving Receptor   =  +0.29 kcal/molUSER    (2) Final Total Internal Energy     =  -2.82 kcal/molUSER    (3) Torsional Free Energy           =  +3.58 kcal/molUSER    (4) Unbound System's Energy         =  -2.82 kcal/molUSERUSERREMARK SMILES O=C1CC=C2C=C(OCCCNCc3ccc(F)cc3)C=C2Cn2nccc2N1REMARK SMILES IDX 9 1 8 2 7 3 22 4 21 5 5 6 6 7 23 8 24 9 28 10 27 11 26 12REMARK SMILES IDX 25 13 29 14 2 15 1 16 4 19 3 20 10 22 11 23 12 24 13 26REMARK SMILES IDX 14 27 15 28 20 29 16 30 19 31 17 32 18 33REMARK H PARENT 29 17 12 25REMARK Flexibility Score:  129.900USER                              x       y       z     vdW  Elec       q    TypeUSER                           _______ _______ _______ _____ _____    ______ ____ROOTATOM      1  C   UNL     1      39.307  45.960  18.109 -0.33 -0.03    +0.231 C  ENDROOTBRANCH   1   2ATOM      2  O   UNL     1      38.476  46.695  17.205 -0.14 +0.17    -0.494 OA BRANCH   2   3ATOM      3  C   UNL     1      37.328  46.077  16.831 -0.34 -0.05    +0.120 C  ATOM      4  C   UNL     1      36.062  44.196  16.515 -0.39 +0.01    -0.016 C  ATOM      5  C   UNL     1      37.277  44.638  16.906 -0.36 -0.02    +0.052 C  ATOM      6  C   UNL     1      35.294  45.390  16.136 -0.37 +0.01    -0.020 C  ATOM      7  C   UNL     1      36.152  46.548  16.386 -0.39 -0.05    +0.054 C  BRANCH   4   8ATOM      8  C   UNL     1      35.673  42.754  16.515 -0.37 -0.07    +0.182 C  BRANCH   8   9ATOM      9  N   UNL     1      34.845  42.389  17.661 -0.25 +0.08    -0.245 N  ATOM     10  C   UNL     1      33.471  42.403  17.733 -0.29 -0.04    +0.131 A  ATOM     11  C   UNL     1      33.158  42.257  19.062 -0.35 -0.00    +0.069 A  ATOM     12  C   UNL     1      34.397  42.041  19.694 -0.14 +0.00    +0.137 A  ATOM     13  N   UNL     1      35.425  42.080  18.841 -0.35 +0.03    -0.179 NA BRANCH  10  14ATOM     14  N   UNL     1      32.655  42.628  16.632 -0.12 +0.15    -0.311 N  ATOM     15  C   UNL     1      32.338  43.979  16.484 -0.22 -0.10    +0.229 CG0ATOM     16  O   UNL     1      31.675  44.635  17.282 -0.46 +0.05    -0.274 OA ATOM     17  H   UNL     1      33.046  42.245  15.780 -0.46 -0.13    +0.171 HD ATOM     18  G   UNL     1      32.999  44.589  15.253 +0.00 +0.00    +0.000 G0 ENDBRANCH  10  14ENDBRANCH   8   9ENDBRANCH   4   8BRANCH   6  19ATOM     19  C   UNL     1      34.056  45.572  15.643 -0.31 +0.01    -0.009 C  BRANCH  19  20ATOM     20  C   UNL     1      32.999  44.585  15.250 -0.11 -0.08    +0.128 CG0ATOM     21  G   UNL     1      32.339  43.979  16.484 +0.00 +0.00    +0.000 G0 ENDBRANCH  19  20ENDBRANCH   6  19ENDBRANCH   2   3ENDBRANCH   1   2BRANCH   1  22ATOM     22  C   UNL     1      40.757  46.335  17.819 -0.52 -0.00    +0.057 C  BRANCH  22  23ATOM     23  C   UNL     1      40.891  47.575  16.937 -0.51 -0.01    +0.085 C  BRANCH  23  24ATOM     24  N   UNL     1      40.548  47.276  15.548 -0.24 +0.04    -0.313 NA ATOM     25  H   UNL     1      40.027  46.400  15.500 +0.09 -0.02    +0.123 HD BRANCH  24  26ATOM     26  C   UNL     1      39.731  48.337  14.963 -0.53 -0.04    +0.116 C  BRANCH  26  27ATOM     27  C   UNL     1      38.572  47.754  14.188 -0.48 +0.01    -0.034 A  ATOM     28  C   UNL     1      38.551  46.393  13.845 -0.35 -0.00    +0.008 A  ATOM     29  C   UNL     1      37.503  48.575  13.789 -0.49 -0.00    +0.008 A  ATOM     30  C   UNL     1      37.478  45.864  13.124 -0.40 -0.01    +0.039 A  ATOM     31  C   UNL     1      36.432  48.044  13.069 -0.56 -0.02    +0.039 A  ATOM     32  C   UNL     1      36.429  46.693  12.745 -0.53 -0.06    +0.123 A  ATOM     33  F   UNL     1      35.401  46.181  12.055 -0.20 +0.12    -0.207 F  ENDBRANCH  26  27ENDBRANCH  24  26ENDBRANCH  23  24ENDBRANCH  22  23ENDBRANCH   1  22TORSDOF 7TERENDMDL