MODEL        6USER    Run = 6USERUSER    Estimated Free Energy of Binding    = -10.03 kcal/mol  [=(1)+(2)+(3)-(4)]USERUSER    (1) Final Intermolecular Energy     = -12.42 kcal/molUSER        vdW + Hbond + desolv Energy     = -12.07 kcal/molUSER        Electrostatic Energy            =  -0.34 kcal/molUSER        Moving Ligand-Fixed Receptor    = -12.42 kcal/molUSER        Moving Ligand-Moving Receptor   =  +0.00 kcal/molUSER    (2) Final Total Internal Energy     =  -2.77 kcal/molUSER    (3) Torsional Free Energy           =  +2.39 kcal/molUSER    (4) Unbound System's Energy         =  -2.77 kcal/molUSERUSERREMARK SMILES CNC(=O)c1cc(-c2nc3ccsc3[nH]2)ccc1CN1CC[C@H](n2c(O)nc3ncccc32)[C@@H](CN2CCOCC2)C1REMARK SMILES IDX 20 1 21 2 22 3 23 4 34 5 42 6 19 7 18 8 5 9 6 10 7 11 17 12REMARK SMILES IDX 16 13 3 14 2 15 1 16 4 18 8 19 9 20 15 21 10 22 14 23 11 24REMARK SMILES IDX 13 25 12 26 35 28 36 29 37 30 41 31 38 32 40 33 39 34 24 35REMARK SMILES IDX 25 36 33 37 27 38 32 39 28 40 31 41 29 42 30 43 26 44REMARK H PARENT 2 17 15 27 26 45USER                              x       y       z     vdW  Elec       q    TypeUSER                           _______ _______ _______ _____ _____    ______ ____ROOTATOM      1  N   UNL     1      41.643  46.099  23.918 -0.03 -0.03    -0.299 NA ATOM      2  C   UNL     1      40.424  46.896  23.879 -0.24 +0.01    +0.087 C  ATOM      3  C   UNL     1      39.203  46.099  24.317 -0.27 +0.00    +0.041 C  ATOM      4  C   UNL     1      39.462  45.292  25.606 -0.14 +0.00    +0.099 C  ATOM      5  C   UNL     1      40.806  45.654  26.305 -0.12 +0.00    +0.040 C  ATOM      6  C   UNL     1      41.950  45.606  25.268 -0.07 +0.01    +0.092 C  ENDROOTBRANCH   1   7ATOM      7  C   UNL     1      41.781  45.065  22.887 -0.16 +0.01    +0.120 C  BRANCH   7   8ATOM      8  C   UNL     1      41.453  45.558  21.491 -0.28 -0.00    -0.021 A  ATOM      9  C   UNL     1      42.224  46.526  20.822 -0.34 +0.01    +0.045 A  ATOM     10  C   UNL     1      41.847  46.986  19.545 -0.37 +0.00    +0.026 A  ATOM     11  C   UNL     1      40.713  46.474  18.906 -0.42 -0.00    +0.018 A  ATOM     12  C   UNL     1      40.336  45.028  20.824 -0.34 +0.00    +0.006 A  ATOM     13  C   UNL     1      39.976  45.475  19.549 -0.41 -0.00    +0.012 A  BRANCH   9  14ATOM     14  C   UNL     1      43.477  47.083  21.404 -0.26 +0.09    +0.251 C  ATOM     15  N   UNL     1      43.309  47.680  22.639 -0.17 -0.08    -0.355 N  ATOM     16  C   UNL     1      44.419  48.324  23.299 -0.23 +0.04    +0.143 C  ATOM     17  H   UNL     1      42.371  47.899  22.950 +0.07 +0.03    +0.163 HD ATOM     18  O   UNL     1      44.550  47.015  20.823 -0.58 -0.30    -0.269 OA ENDBRANCH   9  14BRANCH  11  19ATOM     19  C   UNL     1      40.278  46.953  17.592 -0.39 -0.02    +0.139 A  ATOM     20  N   UNL     1      39.061  46.805  17.069 -0.28 +0.07    -0.228 NA ATOM     21  N   UNL     1      41.094  47.682  16.730 -0.25 +0.04    -0.330 N  ATOM     22  C   UNL     1      39.126  47.450  15.882 -0.40 -0.04    +0.100 A  ATOM     23  C   UNL     1      40.333  47.987  15.659 -0.46 -0.03    +0.120 A  ATOM     24  C   UNL     1      38.213  47.692  14.852 -0.47 -0.02    +0.042 A  ATOM     25  S   UNL     1      40.489  48.822  14.239 -0.51 +0.03    -0.124 S  ATOM     26  C   UNL     1      38.824  48.453  13.861 -0.31 -0.02    +0.069 A  ATOM     27  H   UNL     1      42.045  47.970  16.908 -0.33 -0.01    +0.169 HD ENDBRANCH  11  19ENDBRANCH   7   8ENDBRANCH   1   7BRANCH   5  28ATOM     28  C   UNL     1      41.070  44.708  27.517 +0.05 +0.01    +0.091 C  BRANCH  28  29ATOM     29  N   UNL     1      41.162  43.262  27.218 -0.05 +0.00    -0.298 NA ATOM     30  C   UNL     1      42.136  42.608  28.142 -0.10 -0.00    +0.113 C  ATOM     31  C   UNL     1      39.886  42.532  27.347 -0.23 -0.00    +0.113 C  ATOM     32  C   UNL     1      41.520  41.866  29.351 -0.12 +0.00    +0.175 C  ATOM     33  C   UNL     1      39.313  42.502  28.779 -0.20 +0.00    +0.175 C  ATOM     34  O   UNL     1      40.321  42.504  29.801 -0.51 -0.07    -0.379 OA ENDBRANCH  28  29ENDBRANCH   5  28BRANCH   4  35ATOM     35  N   UNL     1      38.296  45.365  26.485 -0.11 +0.01    -0.289 N  ATOM     36  C   UNL     1      37.987  46.387  27.343 -0.12 -0.04    +0.296 A  ATOM     37  C   UNL     1      37.295  44.428  26.608 -0.27 -0.01    +0.091 A  ATOM     38  N   UNL     1      36.884  46.191  28.009 -0.26 +0.04    -0.175 NA ATOM     39  C   UNL     1      37.031  43.189  26.022 -0.33 -0.00    +0.032 A  ATOM     40  C   UNL     1      36.440  44.976  27.565 -0.27 -0.04    +0.181 A  ATOM     41  C   UNL     1      35.866  42.558  26.457 -0.46 -0.00    +0.022 A  ATOM     42  N   UNL     1      35.309  44.369  27.990 -0.37 +0.07    -0.235 NA ATOM     43  C   UNL     1      35.066  43.173  27.413 -0.48 -0.03    +0.114 A  BRANCH  36  44ATOM     44  O   UNL     1      38.702  47.483  27.488 -0.08 +0.04    -0.480 OA ATOM     45  H   UNL     1      38.647  47.627  28.451 -0.38 -0.12    +0.296 HD ENDBRANCH  36  44ENDBRANCH   4  35TORSDOF 8TERENDMDL