REMARK SMILES CNC(=O)c1cc(-c2nc3ccsc3[nH]2)ccc1CN1CC[C@H](n2c(O)nc3ncccc32)[C@@H](CN2CCOCC2)C1
REMARK SMILES IDX 20 1 21 2 22 3 23 4 34 5 42 6 19 7 18 8 5 9 6 10 7 11 17 12
REMARK SMILES IDX 16 13 3 14 2 15 1 16 4 18 8 19 9 20 15 21 10 22 14 23 11 24
REMARK SMILES IDX 13 25 12 26 35 28 36 29 37 30 41 31 38 32 40 33 39 34 24 35
REMARK SMILES IDX 25 36 33 37 27 38 32 39 28 40 31 41 29 42 30 43 26 44
REMARK H PARENT 2 17 15 27 26 45
ROOT
ATOM      1  N   UNL     1       0.120  -0.204   0.560  1.00  0.00    -0.299 NA
ATOM      2  C   UNL     1       0.036   1.052   1.292  1.00  0.00     0.087 C 
ATOM      3  C   UNL     1      -0.879   2.056   0.606  1.00  0.00     0.041 C 
ATOM      4  C   UNL     1      -2.214   1.423   0.162  1.00  0.00     0.099 C 
ATOM      5  C   UNL     1      -2.436  -0.014   0.722  1.00  0.00     0.040 C 
ATOM      6  C   UNL     1      -1.183  -0.872   0.436  1.00  0.00     0.092 C 
ENDROOT
BRANCH   1   7
ATOM      7  C   UNL     1       0.871  -0.178  -0.700  1.00  0.00     0.120 C 
BRANCH   7   8
ATOM      8  C   UNL     1       2.364   0.001  -0.508  1.00  0.00    -0.021 A 
ATOM      9  C   UNL     1       3.242  -1.078  -0.298  1.00  0.00     0.045 A 
ATOM     10  C   UNL     1       4.615  -0.853  -0.076  1.00  0.00     0.026 A 
ATOM     11  C   UNL     1       5.138   0.444  -0.082  1.00  0.00     0.018 A 
ATOM     12  C   UNL     1       2.908   1.296  -0.546  1.00  0.00     0.006 A 
ATOM     13  C   UNL     1       4.274   1.512  -0.342  1.00  0.00     0.012 A 
BRANCH   9  14
ATOM     14  C   UNL     1       2.781  -2.494  -0.331  1.00  0.00     0.251 C 
ATOM     15  N   UNL     1       3.500  -3.302  -1.191  1.00  0.00    -0.355 N 
ATOM     16  C   UNL     1       3.130  -4.683  -1.381  1.00  0.00     0.143 C 
ATOM     17  H   UNL     1       4.104  -2.867  -1.877  1.00  0.00     0.163 HD
ATOM     18  O   UNL     1       1.842  -2.888   0.345  1.00  0.00    -0.269 OA
ENDBRANCH   9  14
BRANCH  11  19
ATOM     19  C   UNL     1       6.554   0.713   0.175  1.00  0.00     0.139 A 
ATOM     20  N   UNL     1       7.253   1.744  -0.299  1.00  0.00    -0.228 NA
ATOM     21  N   UNL     1       7.348  -0.072   1.008  1.00  0.00    -0.330 N 
ATOM     22  C   UNL     1       8.481   1.596   0.248  1.00  0.00     0.100 A 
ATOM     23  C   UNL     1       8.561   0.517   1.038  1.00  0.00     0.120 A 
ATOM     24  C   UNL     1       9.672   2.325   0.184  1.00  0.00     0.042 A 
ATOM     25  S   UNL     1      10.024   0.280   1.773  1.00  0.00    -0.124 S 
ATOM     26  C   UNL     1      10.630   1.718   0.989  1.00  0.00     0.069 A 
ATOM     27  H   UNL     1       7.048  -0.884   1.528  1.00  0.00     0.169 HD
ENDBRANCH  11  19
ENDBRANCH   7   8
ENDBRANCH   1   7
BRANCH   5  28
ATOM     28  C   UNL     1      -3.730  -0.646   0.124  1.00  0.00     0.091 C 
BRANCH  28  29
ATOM     29  N   UNL     1      -4.272  -1.831   0.826  1.00  0.00    -0.298 NA
ATOM     30  C   UNL     1      -5.720  -2.001   0.502  1.00  0.00     0.113 C 
ATOM     31  C   UNL     1      -3.601  -3.100   0.485  1.00  0.00     0.113 C 
ATOM     32  C   UNL     1      -6.046  -3.049  -0.586  1.00  0.00     0.175 C 
ATOM     33  C   UNL     1      -3.763  -3.529  -0.988  1.00  0.00     0.175 C 
ATOM     34  O   UNL     1      -5.011  -3.121  -1.571  1.00  0.00    -0.379 OA
ENDBRANCH  28  29
ENDBRANCH   5  28
BRANCH   4  35
ATOM     35  N   UNL     1      -3.319   2.342   0.430  1.00  0.00    -0.289 N 
ATOM     36  C   UNL     1      -3.763   2.742   1.662  1.00  0.00     0.296 A 
ATOM     37  C   UNL     1      -4.108   2.978  -0.501  1.00  0.00     0.091 A 
ATOM     38  N   UNL     1      -4.768   3.571   1.609  1.00  0.00    -0.175 NA
ATOM     39  C   UNL     1      -4.166   2.992  -1.896  1.00  0.00     0.032 A 
ATOM     40  C   UNL     1      -4.997   3.729   0.270  1.00  0.00     0.181 A 
ATOM     41  C   UNL     1      -5.159   3.802  -2.445  1.00  0.00     0.022 A 
ATOM     42  N   UNL     1      -5.961   4.516  -0.257  1.00  0.00    -0.235 NA
ATOM     43  C   UNL     1      -6.003   4.521  -1.606  1.00  0.00     0.114 A 
BRANCH  36  44
ATOM     44  O   UNL     1      -3.235   2.361   2.807  1.00  0.00    -0.480 OA
ATOM     45  H   UNL     1      -3.790   2.843   3.449  1.00  0.00     0.296 HD
ENDBRANCH  36  44
ENDBRANCH   4  35
TORSDOF 8
