MODEL        6USER    Run = 6USERUSER    Estimated Free Energy of Binding    = -10.87 kcal/mol  [=(1)+(2)+(3)-(4)]USERUSER    (1) Final Intermolecular Energy     = -12.36 kcal/molUSER        vdW + Hbond + desolv Energy     = -12.12 kcal/molUSER        Electrostatic Energy            =  -0.24 kcal/molUSER        Moving Ligand-Fixed Receptor    = -12.36 kcal/molUSER        Moving Ligand-Moving Receptor   =  +0.00 kcal/molUSER    (2) Final Total Internal Energy     =  -1.57 kcal/molUSER    (3) Torsional Free Energy           =  +1.49 kcal/molUSER    (4) Unbound System's Energy         =  -1.57 kcal/molUSERUSERREMARK SMILES CN1CCN(CC2CCN(c3nc(-c4ccc(F)cc4)cc4[nH]ncc34)CC2)C[C@H]1C(N)=OREMARK SMILES IDX 7 1 8 2 9 3 10 4 27 5 28 6 6 7 5 8 2 9 3 10 30 11 4 12 29 13REMARK SMILES IDX 1 14 31 15 32 16 33 17 11 20 12 21 26 22 13 23 25 24 22 25REMARK SMILES IDX 21 26 24 27 23 28 14 30 15 31 20 32 16 33 19 34 17 35 18 36REMARK H PARENT 32 18 32 19 23 29USER                              x       y       z     vdW  Elec       q    TypeUSER                           _______ _______ _______ _____ _____    ______ ____ROOTATOM      1  C   UNL     1      36.706  45.112  17.906 -0.39 -0.00    +0.006 C  ATOM      2  C   UNL     1      36.076  43.720  17.712 -0.36 -0.01    +0.026 C  ATOM      3  C   UNL     1      35.305  43.587  16.399 -0.36 -0.05    +0.118 C  ATOM      4  N   UNL     1      34.283  44.628  16.269 -0.08 +0.21    -0.356 N  ATOM      5  C   UNL     1      34.395  45.806  17.135 -0.33 -0.10    +0.118 C  ATOM      6  C   UNL     1      35.861  46.214  17.241 -0.40 -0.02    +0.026 C  ENDROOTBRANCH   1   7ATOM      7  C   UNL     1      38.167  45.141  17.399 -0.37 -0.02    +0.088 C  BRANCH   7   8ATOM      8  N   UNL     1      38.500  46.359  16.636 -0.20 +0.10    -0.300 NA ATOM      9  N   UNL     1      40.451  47.985  15.104 -0.29 +0.05    -0.293 NA ATOM     10  C   UNL     1      40.037  48.358  16.461 -0.46 -0.03    +0.100 C  ATOM     11  C   UNL     1      39.387  47.212  14.403 -0.37 -0.04    +0.160 C  ATOM     12  C   UNL     1      39.589  47.127  17.285 -0.43 -0.02    +0.100 C  ATOM     13  C   UNL     1      38.928  45.996  15.255 -0.37 -0.03    +0.113 C  ATOM     14  C   UNL     1      40.926  49.134  14.341 -0.53 -0.02    +0.106 C  BRANCH  11  15ATOM     15  C   UNL     1      38.195  48.093  13.950 -0.39 -0.09    +0.236 C  ATOM     16  N   UNL     1      37.974  49.249  14.643 +0.06 +0.28    -0.368 N  ATOM     17  O   UNL     1      37.490  47.818  12.979 -0.94 +0.07    -0.273 OA ATOM     18  H   UNL     1      38.631  49.551  15.360 -0.29 -0.13    +0.159 HD ATOM     19  H   UNL     1      37.258  49.881  14.318 -0.41 -0.14    +0.159 HD ENDBRANCH  11  15ENDBRANCH   7   8ENDBRANCH   1   7BRANCH   4  20ATOM     20  C   UNL     1      32.975  44.231  15.979 -0.23 -0.07    +0.140 A  ATOM     21  N   UNL     1      32.509  43.056  16.505 -0.19 +0.10    -0.230 NA ATOM     22  C   UNL     1      32.060  44.988  15.209 -0.34 -0.04    +0.062 A  ATOM     23  C   UNL     1      31.245  42.608  16.288 -0.27 -0.03    +0.075 A  ATOM     24  C   UNL     1      32.061  46.245  14.556 -0.23 -0.13    +0.147 A  ATOM     25  C   UNL     1      30.778  44.501  14.979 -0.33 -0.05    +0.071 A  ATOM     26  C   UNL     1      30.328  43.293  15.500 -0.26 -0.03    +0.057 A  ATOM     27  N   UNL     1      30.914  46.513  13.924 -0.51 +0.10    -0.183 NA ATOM     28  N   UNL     1      30.157  45.437  14.196 -0.24 +0.24    -0.278 N  ATOM     29  H   UNL     1      29.213  45.409  13.827 -0.41 -0.28    +0.190 HD BRANCH  23  30ATOM     30  C   UNL     1      30.914  41.328  16.949 -0.31 -0.00    +0.000 A  ATOM     31  C   UNL     1      31.855  40.686  17.780 -0.38 -0.00    +0.013 A  ATOM     32  C   UNL     1      29.657  40.712  16.791 -0.35 -0.00    +0.013 A  ATOM     33  C   UNL     1      31.560  39.475  18.412 -0.42 +0.00    +0.040 A  ATOM     34  C   UNL     1      29.358  39.503  17.425 -0.31 +0.01    +0.040 A  ATOM     35  C   UNL     1      30.314  38.895  18.228 -0.31 +0.03    +0.123 A  ATOM     36  F   UNL     1      30.026  37.737  18.837 -0.12 -0.08    -0.207 F  ENDBRANCH  23  30ENDBRANCH   4  20TORSDOF 5TERENDMDL