REMARK SMILES CN1CCN(CC2CCN(c3nc(-c4ccc(F)cc4)cc4[nH]ncc34)CC2)C[C@H]1C(N)=O
REMARK SMILES IDX 7 1 8 2 9 3 10 4 27 5 28 6 6 7 5 8 2 9 3 10 30 11 4 12 29 13
REMARK SMILES IDX 1 14 31 15 32 16 33 17 11 20 12 21 26 22 13 23 25 24 22 25
REMARK SMILES IDX 21 26 24 27 23 28 14 30 15 31 20 32 16 33 19 34 17 35 18 36
REMARK H PARENT 32 18 32 19 23 29
ROOT
ATOM      1  C   UNL     1      -1.182   0.404  -1.074  1.00  0.00     0.006 C 
ATOM      2  C   UNL     1      -0.245  -0.026  -2.219  1.00  0.00     0.026 C 
ATOM      3  C   UNL     1       0.617  -1.238  -1.866  1.00  0.00     0.118 C 
ATOM      4  N   UNL     1       1.386  -1.011  -0.640  1.00  0.00    -0.356 N 
ATOM      5  C   UNL     1       0.959   0.080   0.241  1.00  0.00     0.118 C 
ATOM      6  C   UNL     1      -0.565   0.107   0.305  1.00  0.00     0.026 C 
ENDROOT
BRANCH   1   7
ATOM      7  C   UNL     1      -2.577  -0.247  -1.218  1.00  0.00     0.088 C 
BRANCH   7   8
ATOM      8  N   UNL     1      -3.535   0.181  -0.180  1.00  0.00    -0.300 NA
ATOM      9  N   UNL     1      -6.223   1.165   0.594  1.00  0.00    -0.293 NA
ATOM     10  C   UNL     1      -5.045   2.039   0.629  1.00  0.00     0.100 C 
ATOM     11  C   UNL     1      -5.848  -0.263   0.795  1.00  0.00     0.160 C 
ATOM     12  C   UNL     1      -3.963   1.586  -0.380  1.00  0.00     0.100 C 
ATOM     13  C   UNL     1      -4.741  -0.695  -0.206  1.00  0.00     0.113 C 
ATOM     14  C   UNL     1      -7.269   1.620   1.504  1.00  0.00     0.106 C 
BRANCH  11  15
ATOM     15  C   UNL     1      -5.472  -0.591   2.262  1.00  0.00     0.236 C 
ATOM     16  N   UNL     1      -4.147  -0.552   2.591  1.00  0.00    -0.368 N 
ATOM     17  O   UNL     1      -6.311  -0.831   3.131  1.00  0.00    -0.273 OA
ATOM     18  H   UNL     1      -3.460  -0.225   1.915  1.00  0.00     0.159 HD
ATOM     19  H   UNL     1      -3.882  -0.679   3.556  1.00  0.00     0.159 HD
ENDBRANCH  11  15
ENDBRANCH   7   8
ENDBRANCH   1   7
BRANCH   4  20
ATOM     20  C   UNL     1       2.765  -1.232  -0.680  1.00  0.00     0.140 A 
ATOM     21  N   UNL     1       3.595  -0.341  -0.054  1.00  0.00    -0.230 NA
ATOM     22  C   UNL     1       3.380  -2.353  -1.287  1.00  0.00     0.062 A 
ATOM     23  C   UNL     1       4.945  -0.492  -0.029  1.00  0.00     0.075 A 
ATOM     24  C   UNL     1       2.948  -3.525  -1.955  1.00  0.00     0.147 A 
ATOM     25  C   UNL     1       4.765  -2.478  -1.270  1.00  0.00     0.071 A 
ATOM     26  C   UNL     1       5.596  -1.551  -0.651  1.00  0.00     0.057 A 
ATOM     27  N   UNL     1       3.956  -4.296  -2.374  1.00  0.00    -0.183 NA
ATOM     28  N   UNL     1       5.044  -3.635  -1.947  1.00  0.00    -0.278 N 
ATOM     29  H   UNL     1       5.955  -4.037  -2.138  1.00  0.00     0.190 HD
BRANCH  23  30
ATOM     30  C   UNL     1       5.678   0.559   0.708  1.00  0.00     0.000 A 
ATOM     31  C   UNL     1       5.251   1.902   0.655  1.00  0.00     0.013 A 
ATOM     32  C   UNL     1       6.809   0.265   1.495  1.00  0.00     0.013 A 
ATOM     33  C   UNL     1       5.933   2.909   1.344  1.00  0.00     0.040 A 
ATOM     34  C   UNL     1       7.490   1.270   2.188  1.00  0.00     0.040 A 
ATOM     35  C   UNL     1       7.046   2.583   2.104  1.00  0.00     0.123 A 
ATOM     36  F   UNL     1       7.698   3.545   2.769  1.00  0.00    -0.207 F 
ENDBRANCH  23  30
ENDBRANCH   4  20
TORSDOF 5
