MODEL        4USER    Run = 4USERUSER    Estimated Free Energy of Binding    = -10.18 kcal/mol  [=(1)+(2)+(3)-(4)]USERUSER    (1) Final Intermolecular Energy     = -11.97 kcal/molUSER        vdW + Hbond + desolv Energy     = -11.62 kcal/molUSER        Electrostatic Energy            =  -0.34 kcal/molUSER        Moving Ligand-Fixed Receptor    = -11.97 kcal/molUSER        Moving Ligand-Moving Receptor   =  +0.00 kcal/molUSER    (2) Final Total Internal Energy     =  -1.13 kcal/molUSER    (3) Torsional Free Energy           =  +1.79 kcal/molUSER    (4) Unbound System's Energy         =  -1.13 kcal/molUSERUSERREMARK SMILES N#CC[C@@H]1CCN(c2nc(-c3ccc(F)cc3)cc3[nH]ncc23)C[C@H]1OC(N)=OREMARK SMILES IDX 4 1 5 2 6 3 7 4 24 5 25 6 3 7 2 8 1 9 26 10 27 11 28 12REMARK SMILES IDX 29 13 8 16 9 17 23 18 10 19 22 20 19 21 18 22 21 23 20 24REMARK SMILES IDX 11 26 12 27 17 28 13 29 16 30 14 31 15 32REMARK H PARENT 28 14 28 15 20 25USER                              x       y       z     vdW  Elec       q    TypeUSER                           _______ _______ _______ _____ _____    ______ ____ROOTATOM      1  C   UNL     1      34.188  43.355  17.002 -0.38 -0.02    +0.048 C  ATOM      2  C   UNL     1      35.265  42.900  15.983 -0.43 -0.01    +0.030 C  ATOM      3  C   UNL     1      36.052  44.060  15.357 -0.35 -0.05    +0.118 C  ATOM      4  N   UNL     1      36.108  45.157  16.322 -0.09 +0.18    -0.352 N  ATOM      5  C   UNL     1      34.799  45.809  16.558 -0.26 -0.15    +0.163 C  ATOM      6  C   UNL     1      33.660  44.758  16.636 -0.24 -0.12    +0.202 C  ENDROOTBRANCH   1   7ATOM      7  C   UNL     1      34.709  43.327  18.454 -0.32 -0.03    +0.127 C  BRANCH   7   8ATOM      8  C   UNL     1      33.612  43.480  19.424 -0.44 -0.01    +0.063 C  ATOM      9  N   UNL     1      32.742  43.609  20.180 -0.87 -0.02    -0.198 NA ENDBRANCH   7   8ENDBRANCH   1   7BRANCH   6  10ATOM     10  O   UNL     1      33.005  44.625  15.349 -0.10 +0.27    -0.444 OA BRANCH  10  11ATOM     11  C   UNL     1      31.680  44.889  15.345 -0.16 -0.23    +0.404 C  ATOM     12  N   UNL     1      31.111  44.376  14.234 -0.16 +0.26    -0.335 N  ATOM     13  O   UNL     1      31.065  45.496  16.205 -0.84 +0.06    -0.225 OA ATOM     14  H   UNL     1      30.115  44.474  14.104 -0.30 -0.22    +0.163 HD ATOM     15  H   UNL     1      31.665  43.857  13.572 +0.13 -0.11    +0.163 HD ENDBRANCH  10  11ENDBRANCH   6  10BRANCH   4  16ATOM     16  C   UNL     1      37.156  46.064  16.104 -0.27 -0.07    +0.140 A  ATOM     17  N   UNL     1      38.223  46.085  16.955 -0.24 +0.07    -0.230 NA ATOM     18  C   UNL     1      37.204  46.938  14.995 -0.37 -0.04    +0.062 A  ATOM     19  C   UNL     1      39.274  46.932  16.791 -0.40 -0.02    +0.075 A  ATOM     20  C   UNL     1      36.399  47.195  13.860 -0.39 -0.09    +0.147 A  ATOM     21  C   UNL     1      38.280  47.805  14.844 -0.45 -0.03    +0.071 A  ATOM     22  C   UNL     1      39.344  47.842  15.740 -0.47 -0.02    +0.057 A  ATOM     23  N   UNL     1      36.886  48.164  13.081 -0.89 +0.07    -0.183 NA ATOM     24  N   UNL     1      38.024  48.516  13.702 -0.28 +0.10    -0.278 N  ATOM     25  H   UNL     1      38.592  49.244  13.284 -0.23 -0.07    +0.190 HD BRANCH  19  26ATOM     26  C   UNL     1      40.333  46.822  17.821 -0.49 -0.00    +0.000 A  ATOM     27  C   UNL     1      41.446  47.687  17.797 -0.50 -0.00    +0.013 A  ATOM     28  C   UNL     1      40.271  45.876  18.864 -0.45 -0.00    +0.013 A  ATOM     29  C   UNL     1      42.459  47.603  18.757 -0.50 +0.00    +0.040 A  ATOM     30  C   UNL     1      41.283  45.789  19.826 -0.39 +0.00    +0.040 A  ATOM     31  C   UNL     1      42.368  46.651  19.762 -0.37 +0.02    +0.123 A  ATOM     32  F   UNL     1      43.336  46.566  20.684 -0.11 -0.10    -0.207 F  ENDBRANCH  19  26ENDBRANCH   4  16TORSDOF 6TERENDMDL