REMARK SMILES N#CC[C@@H]1CCN(c2nc(-c3ccc(F)cc3)cc3[nH]ncc23)C[C@H]1OC(N)=O
REMARK SMILES IDX 4 1 5 2 6 3 7 4 24 5 25 6 3 7 2 8 1 9 26 10 27 11 28 12
REMARK SMILES IDX 29 13 8 16 9 17 23 18 10 19 22 20 19 21 18 22 21 23 20 24
REMARK SMILES IDX 11 26 12 27 17 28 13 29 16 30 14 31 15 32
REMARK H PARENT 28 14 28 15 20 25
ROOT
ATOM      1  C   UNL     1      -3.622  -0.495   0.271  1.00  0.00     0.048 C 
ATOM      2  C   UNL     1      -3.361  -0.050  -1.191  1.00  0.00     0.030 C 
ATOM      3  C   UNL     1      -1.896   0.313  -1.474  1.00  0.00     0.118 C 
ATOM      4  N   UNL     1      -1.042  -0.480  -0.590  1.00  0.00    -0.352 N 
ATOM      5  C   UNL     1      -1.149  -0.099   0.838  1.00  0.00     0.163 C 
ATOM      6  C   UNL     1      -2.623   0.189   1.228  1.00  0.00     0.202 C 
ENDROOT
BRANCH   1   7
ATOM      7  C   UNL     1      -3.573  -2.028   0.433  1.00  0.00     0.127 C 
BRANCH   7   8
ATOM      8  C   UNL     1      -4.750  -2.673  -0.172  1.00  0.00     0.063 C 
ATOM      9  N   UNL     1      -5.683  -3.170  -0.650  1.00  0.00    -0.198 NA
ENDBRANCH   7   8
ENDBRANCH   1   7
BRANCH   6  10
ATOM     10  O   UNL     1      -2.896   1.611   1.156  1.00  0.00    -0.444 OA
BRANCH  10  11
ATOM     11  C   UNL     1      -2.438   2.341   2.197  1.00  0.00     0.404 C 
ATOM     12  N   UNL     1      -2.752   3.642   2.022  1.00  0.00    -0.335 N 
ATOM     13  O   UNL     1      -1.829   1.913   3.163  1.00  0.00    -0.225 OA
ATOM     14  H   UNL     1      -2.494   4.308   2.735  1.00  0.00     0.163 HD
ATOM     15  H   UNL     1      -3.284   3.933   1.217  1.00  0.00     0.163 HD
ENDBRANCH  10  11
ENDBRANCH   6  10
BRANCH   4  16
ATOM     16  C   UNL     1       0.280  -0.618  -1.037  1.00  0.00     0.140 A 
ATOM     17  N   UNL     1       1.308  -0.150  -0.270  1.00  0.00    -0.230 NA
ATOM     18  C   UNL     1       0.626  -1.282  -2.235  1.00  0.00     0.062 A 
ATOM     19  C   UNL     1       2.610  -0.264  -0.643  1.00  0.00     0.075 A 
ATOM     20  C   UNL     1      -0.066  -1.968  -3.261  1.00  0.00     0.147 A 
ATOM     21  C   UNL     1       1.961  -1.383  -2.609  1.00  0.00     0.071 A 
ATOM     22  C   UNL     1       2.997  -0.869  -1.836  1.00  0.00     0.057 A 
ATOM     23  N   UNL     1       0.740  -2.425  -4.223  1.00  0.00    -0.183 NA
ATOM     24  N   UNL     1       1.961  -2.055  -3.802  1.00  0.00    -0.278 N 
ATOM     25  H   UNL     1       2.760  -2.305  -4.374  1.00  0.00     0.190 HD
BRANCH  19  26
ATOM     26  C   UNL     1       3.586   0.315   0.309  1.00  0.00     0.000 A 
ATOM     27  C   UNL     1       3.232   1.417   1.115  1.00  0.00     0.013 A 
ATOM     28  C   UNL     1       4.886  -0.208   0.464  1.00  0.00     0.013 A 
ATOM     29  C   UNL     1       4.135   1.982   2.020  1.00  0.00     0.040 A 
ATOM     30  C   UNL     1       5.792   0.355   1.369  1.00  0.00     0.040 A 
ATOM     31  C   UNL     1       5.409   1.446   2.136  1.00  0.00     0.123 A 
ATOM     32  F   UNL     1       6.278   1.983   3.002  1.00  0.00    -0.207 F 
ENDBRANCH  19  26
ENDBRANCH   4  16
TORSDOF 6
