MODEL        9USER    Run = 9USERUSER    Estimated Free Energy of Binding    = -11.77 kcal/mol  [=(1)+(2)+(3)-(4)]USERUSER    (1) Final Intermolecular Energy     = -12.67 kcal/molUSER        vdW + Hbond + desolv Energy     = -12.61 kcal/molUSER        Electrostatic Energy            =  -0.06 kcal/molUSER        Moving Ligand-Fixed Receptor    = -12.67 kcal/molUSER        Moving Ligand-Moving Receptor   =  +0.00 kcal/molUSER    (2) Final Total Internal Energy     =  -0.92 kcal/molUSER    (3) Torsional Free Energy           =  +0.89 kcal/molUSER    (4) Unbound System's Energy         =  -0.92 kcal/molUSERUSERREMARK SMILES Cc1cc(-c2n[nH]c3cnc(-c4ccc5[nH]ncc5c4)cc23)ccc1-n1ccnn1REMARK SMILES IDX 5 1 6 2 7 3 8 4 9 5 10 6 11 7 21 8 22 9 4 11 2 12 3 13 25 14REMARK SMILES IDX 24 15 23 16 1 17 26 18 27 19 30 20 28 21 29 22 12 23 13 24REMARK SMILES IDX 20 25 14 26 19 27 15 28 18 29 16 30 17 31REMARK H PARENT 7 10 16 32USER                              x       y       z     vdW  Elec       q    TypeUSER                           _______ _______ _______ _____ _____    ______ ____ROOTATOM      1  C   UNL     1      41.251  47.183  18.080 -0.45 -0.01    +0.100 A  ATOM      2  N   UNL     1      42.389  47.898  18.022 -0.42 +0.00    -0.174 NA ATOM      3  N   UNL     1      42.950  47.730  19.229 -0.38 -0.02    -0.276 N  ATOM      4  C   UNL     1      42.249  46.910  20.062 -0.34 +0.01    +0.084 A  ATOM      5  C   UNL     1      42.495  46.475  21.352 -0.26 +0.03    +0.140 A  ATOM      6  N   UNL     1      41.608  45.633  21.931 -0.13 -0.03    -0.254 NA ATOM      7  C   UNL     1      40.497  45.226  21.259 -0.28 +0.00    +0.071 A  ATOM      8  C   UNL     1      40.221  45.640  19.954 -0.36 +0.00    +0.041 A  ATOM      9  C   UNL     1      41.128  46.523  19.344 -0.38 +0.00    +0.031 A  ATOM     10  H   UNL     1      43.827  48.202  19.416 -0.49 -0.01    +0.190 HD ENDROOTBRANCH   1  11ATOM     11  C   UNL     1      40.337  47.142  16.939 -0.51 -0.00    +0.003 A  ATOM     12  C   UNL     1      38.404  46.104  15.806 -0.37 +0.01    -0.025 A  ATOM     13  C   UNL     1      39.321  46.179  16.882 -0.42 -0.00    +0.016 A  ATOM     14  C   UNL     1      38.543  47.016  14.738 -0.40 -0.02    +0.069 A  ATOM     15  C   UNL     1      39.571  47.985  14.806 -0.51 -0.01    +0.029 A  ATOM     16  C   UNL     1      40.456  48.045  15.886 -0.55 -0.00    +0.013 A  ATOM     17  C   UNL     1      37.344  45.045  15.925 -0.37 -0.02    +0.047 C  BRANCH  14  18ATOM     18  N   UNL     1      37.720  47.040  13.567 -0.32 +0.08    -0.221 N  ATOM     19  C   UNL     1      37.232  46.025  12.774 -0.40 -0.05    +0.137 A  ATOM     20  N   UNL     1      37.300  48.227  13.042 -1.01 +0.02    -0.062 NA ATOM     21  C   UNL     1      36.493  46.649  11.799 -0.52 -0.07    +0.157 A  ATOM     22  N   UNL     1      36.543  47.992  11.981 -1.00 +0.05    -0.139 NA ENDBRANCH  14  18ENDBRANCH   1  11BRANCH   7  23ATOM     23  C   UNL     1      39.612  44.300  22.001 -0.28 +0.00    +0.001 A  ATOM     24  C   UNL     1      39.826  43.992  23.359 -0.21 +0.00    +0.012 A  ATOM     25  C   UNL     1      38.519  43.687  21.346 -0.26 +0.00    +0.022 A  ATOM     26  C   UNL     1      38.993  43.120  24.079 -0.23 +0.00    +0.029 A  ATOM     27  C   UNL     1      37.671  42.812  22.048 -0.38 +0.00    +0.020 A  ATOM     28  C   UNL     1      37.923  42.553  23.387 -0.32 +0.01    +0.065 A  ATOM     29  C   UNL     1      36.523  42.045  21.749 -0.43 +0.01    +0.143 A  ATOM     30  N   UNL     1      36.942  41.679  23.777 -0.27 -0.01    -0.278 N  ATOM     31  N   UNL     1      36.074  41.356  22.801 -0.39 -0.00    -0.183 NA ATOM     32  H   UNL     1      36.810  41.267  24.693 +0.03 -0.03    +0.190 HD ENDBRANCH   7  23TORSDOF 3TERENDMDL