REMARK SMILES Cc1cc(-c2n[nH]c3cnc(-c4ccc5[nH]ncc5c4)cc23)ccc1-n1ccnn1
REMARK SMILES IDX 5 1 6 2 7 3 8 4 9 5 10 6 11 7 21 8 22 9 4 11 2 12 3 13 25 14
REMARK SMILES IDX 24 15 23 16 1 17 26 18 27 19 30 20 28 21 29 22 12 23 13 24
REMARK SMILES IDX 20 25 14 26 19 27 15 28 18 29 16 30 17 31
REMARK H PARENT 7 10 16 32
ROOT
ATOM      1  C   UNL     1      -0.920  -1.881  -1.097  1.00  0.00     0.100 A 
ATOM      2  N   UNL     1      -1.236  -3.089  -1.597  1.00  0.00    -0.174 NA
ATOM      3  N   UNL     1      -0.052  -3.688  -1.795  1.00  0.00    -0.276 N 
ATOM      4  C   UNL     1       1.023  -2.941  -1.414  1.00  0.00     0.084 A 
ATOM      5  C   UNL     1       2.381  -3.200  -1.433  1.00  0.00     0.140 A 
ATOM      6  N   UNL     1       3.228  -2.253  -0.967  1.00  0.00    -0.254 NA
ATOM      7  C   UNL     1       2.752  -1.070  -0.492  1.00  0.00     0.071 A 
ATOM      8  C   UNL     1       1.386  -0.777  -0.453  1.00  0.00     0.041 A 
ATOM      9  C   UNL     1       0.497  -1.747  -0.944  1.00  0.00     0.031 A 
ATOM     10  H   UNL     1      -0.050  -4.622  -2.188  1.00  0.00     0.190 HD
ENDROOT
BRANCH   1  11
ATOM     11  C   UNL     1      -1.966  -0.911  -0.773  1.00  0.00     0.003 A 
ATOM     12  C   UNL     1      -4.197  -0.434   0.172  1.00  0.00    -0.025 A 
ATOM     13  C   UNL     1      -3.159  -1.333  -0.172  1.00  0.00     0.016 A 
ATOM     14  C   UNL     1      -4.032   0.934  -0.135  1.00  0.00     0.069 A 
ATOM     15  C   UNL     1      -2.823   1.350  -0.741  1.00  0.00     0.029 A 
ATOM     16  C   UNL     1      -1.809   0.442  -1.059  1.00  0.00     0.013 A 
ATOM     17  C   UNL     1      -5.388  -1.043   0.857  1.00  0.00     0.047 C 
BRANCH  14  18
ATOM     18  N   UNL     1      -5.004   1.955   0.115  1.00  0.00    -0.221 N 
ATOM     19  C   UNL     1      -6.321   1.882   0.510  1.00  0.00     0.137 A 
ATOM     20  N   UNL     1      -4.684   3.270  -0.054  1.00  0.00    -0.062 NA
ATOM     21  C   UNL     1      -6.747   3.185   0.598  1.00  0.00     0.157 A 
ATOM     22  N   UNL     1      -5.733   4.017   0.254  1.00  0.00    -0.139 NA
ENDBRANCH  14  18
ENDBRANCH   1  11
BRANCH   7  23
ATOM     23  C   UNL     1       3.780  -0.123  -0.005  1.00  0.00     0.001 A 
ATOM     24  C   UNL     1       3.625   1.272  -0.126  1.00  0.00     0.012 A 
ATOM     25  C   UNL     1       4.965  -0.609   0.593  1.00  0.00     0.022 A 
ATOM     26  C   UNL     1       4.587   2.185   0.335  1.00  0.00     0.029 A 
ATOM     27  C   UNL     1       5.942   0.286   1.063  1.00  0.00     0.020 A 
ATOM     28  C   UNL     1       5.732   1.651   0.927  1.00  0.00     0.065 A 
ATOM     29  C   UNL     1       7.201   0.183   1.695  1.00  0.00     0.143 A 
ATOM     30  N   UNL     1       6.843   2.243   1.468  1.00  0.00    -0.278 N 
ATOM     31  N   UNL     1       7.752   1.374   1.947  1.00  0.00    -0.183 NA
ATOM     32  H   UNL     1       7.041   3.234   1.542  1.00  0.00     0.190 HD
ENDBRANCH   7  23
TORSDOF 3
