MODEL        8USER    Run = 8USERUSER    Estimated Free Energy of Binding    =  -9.67 kcal/mol  [=(1)+(2)+(3)-(4)]USERUSER    (1) Final Intermolecular Energy     = -11.17 kcal/molUSER        vdW + Hbond + desolv Energy     = -11.10 kcal/molUSER        Electrostatic Energy            =  -0.07 kcal/molUSER        Moving Ligand-Fixed Receptor    = -11.17 kcal/molUSER        Moving Ligand-Moving Receptor   =  +0.00 kcal/molUSER    (2) Final Total Internal Energy     =  -1.55 kcal/molUSER    (3) Torsional Free Energy           =  +1.49 kcal/molUSER    (4) Unbound System's Energy         =  -1.55 kcal/molUSERUSERREMARK SMILES CC[C@@H]1c2ccc(CN3CCNC3)cc2CN(S(=O)(=O)c2ccc(F)cc2)c2ccccc21REMARK SMILES IDX 3 1 4 2 5 3 6 4 7 5 14 6 15 7 16 8 17 9 28 10 29 11 30 12REMARK SMILES IDX 31 13 32 14 33 15 2 16 1 17 18 18 19 19 20 20 21 21 22 22REMARK SMILES IDX 27 23 23 24 26 25 24 26 25 27 8 28 9 29 10 30 13 31 11 32REMARK SMILES IDX 12 33REMARK H PARENT 12 34USER                              x       y       z     vdW  Elec       q    TypeUSER                           _______ _______ _______ _____ _____    ______ ____ROOTATOM      1  C   UNL     1      42.843  46.379  21.283 -0.36 +0.02    +0.051 C  ATOM      2  C   UNL     1      42.126  46.685  19.964 -0.40 -0.01    -0.035 A  ATOM      3  C   UNL     1      42.695  47.721  19.181 -0.45 +0.00    +0.005 A  ATOM      4  C   UNL     1      42.157  48.119  17.956 -0.33 +0.00    +0.005 A  ATOM      5  C   UNL     1      41.017  47.493  17.460 -0.50 +0.00    -0.034 A  ATOM      6  C   UNL     1      40.448  46.460  18.217 -0.48 -0.00    +0.011 A  ATOM      7  C   UNL     1      40.968  46.055  19.472 -0.42 -0.00    -0.023 A  ATOM      8  C   UNL     1      40.229  44.918  20.146 -0.33 +0.00    +0.171 C  ATOM      9  N   UNL     1      40.368  44.851  21.604 -0.14 -0.01    -0.262 N  ATOM     10  C   UNL     1      41.586  44.261  22.065 -0.24 +0.00    +0.056 A  ATOM     11  C   UNL     1      41.638  42.946  22.544 -0.32 +0.00    +0.027 A  ATOM     12  C   UNL     1      42.850  42.361  22.915 -0.05 -0.00    +0.002 A  ATOM     13  C   UNL     1      44.030  43.074  22.778 -0.29 +0.00    +0.000 A  ATOM     14  C   UNL     1      43.997  44.363  22.251 -0.15 +0.00    +0.006 A  ATOM     15  C   UNL     1      42.781  44.969  21.860 -0.23 -0.00    -0.016 A  ENDROOTBRANCH   1  16ATOM     16  C   UNL     1      42.682  47.492  22.350 -0.35 +0.00    +0.010 C  ATOM     17  C   UNL     1      41.478  47.377  23.269 -0.30 +0.00    +0.005 C  ENDBRANCH   1  16BRANCH   9  18ATOM     18  S   UNL     1      38.961  44.836  22.547 -0.29 +0.02    +0.264 S  ATOM     19  O   UNL     1      38.429  46.184  22.596 -0.32 -0.03    -0.201 OA ATOM     20  O   UNL     1      39.216  44.109  23.774 -0.14 -0.01    -0.201 OA BRANCH  18  21ATOM     21  C   UNL     1      37.759  43.878  21.626 -0.32 +0.00    +0.088 A  ATOM     22  C   UNL     1      37.169  44.421  20.477 -0.32 -0.00    +0.025 A  ATOM     23  C   UNL     1      37.323  42.643  22.127 -0.42 +0.00    +0.025 A  ATOM     24  C   UNL     1      36.196  43.690  19.790 -0.38 -0.00    +0.040 A  ATOM     25  C   UNL     1      36.350  41.919  21.436 -0.51 +0.00    +0.040 A  ATOM     26  C   UNL     1      35.802  42.446  20.271 -0.38 -0.00    +0.123 A  ATOM     27  F   UNL     1      34.867  41.751  19.611 -0.09 +0.01    -0.207 F  ENDBRANCH  18  21ENDBRANCH   9  18BRANCH   5  28ATOM     28  C   UNL     1      40.433  47.896  16.122 -0.52 -0.02    +0.121 C  BRANCH  28  29ATOM     29  N   UNL     1      39.374  46.989  15.654 -0.23 +0.08    -0.285 NA ATOM     30  C   UNL     1      38.057  47.297  16.232 -0.38 -0.05    +0.101 C  ATOM     31  C   UNL     1      39.134  47.140  14.224 -0.37 -0.04    +0.168 C  ATOM     32  C   UNL     1      37.486  48.379  15.329 -0.48 -0.08    +0.098 C  ATOM     33  N   UNL     1      38.191  48.239  14.046 -0.37 +0.13    -0.303 NA ATOM     34  H   UNL     1      38.723  49.090  13.879 -0.27 -0.07    +0.124 HD ENDBRANCH  28  29ENDBRANCH   5  28TORSDOF 5TERENDMDL