MODEL        7USER    Run = 7USERUSER    Estimated Free Energy of Binding    =  -8.83 kcal/mol  [=(1)+(2)+(3)-(4)]USERUSER    (1) Final Intermolecular Energy     = -11.51 kcal/molUSER        vdW + Hbond + desolv Energy     = -11.36 kcal/molUSER        Electrostatic Energy            =  -0.15 kcal/molUSER        Moving Ligand-Fixed Receptor    = -11.51 kcal/molUSER        Moving Ligand-Moving Receptor   =  +0.00 kcal/molUSER    (2) Final Total Internal Energy     =  -1.89 kcal/molUSER    (3) Torsional Free Energy           =  +2.68 kcal/molUSER    (4) Unbound System's Energy         =  -1.89 kcal/molUSERUSERREMARK SMILES CCC(=O)NCCCC[C@H]1OCN=C2C(c3cccc(O)c3CC)=CC=C21REMARK SMILES IDX 8 1 7 2 6 3 5 4 3 5 4 6 2 8 1 9 9 10 10 11 11 12 27 13 12 14REMARK SMILES IDX 26 15 14 16 13 17 25 18 15 19 16 20 17 21 22 22 18 23 20 24REMARK SMILES IDX 19 25 23 26 24 27 21 28REMARK H PARENT 5 7 21 29USER                              x       y       z     vdW  Elec       q    TypeUSER                           _______ _______ _______ _____ _____    ______ ____ROOTATOM      1  C   UNL     1      39.131  48.498  15.536 -0.59 -0.00    +0.005 C  ENDROOTBRANCH   1   2ATOM      2  C   UNL     1      37.662  48.851  15.303 -0.54 -0.02    +0.021 C  BRANCH   2   3ATOM      3  C   UNL     1      37.280  48.850  13.822 -0.45 -0.06    +0.116 C  BRANCH   3   4ATOM      4  N   UNL     1      36.619  47.621  13.426 -0.28 +0.19    -0.356 N  ATOM      5  C   UNL     1      36.871  46.996  12.222 -0.56 -0.08    +0.219 C  ATOM      6  O   UNL     1      37.667  47.416  11.391 -0.90 +0.02    -0.275 OA ATOM      7  H   UNL     1      35.950  47.209  14.063 +0.12 -0.13    +0.163 HD BRANCH   5   8ATOM      8  C   UNL     1      36.058  45.729  12.044 -0.48 -0.04    +0.096 C  ATOM      9  C   UNL     1      36.917  44.541  11.649 -0.57 -0.00    +0.014 C  ENDBRANCH   5   8ENDBRANCH   3   4ENDBRANCH   2   3ENDBRANCH   1   2BRANCH   1  10ATOM     10  C   UNL     1      39.514  47.049  15.194 -0.51 -0.01    +0.037 C  BRANCH  10  11ATOM     11  C   UNL     1      39.154  45.965  16.226 -0.33 -0.03    +0.153 C  ATOM     12  O   UNL     1      39.107  46.553  17.527 -0.26 +0.08    -0.351 OA ATOM     13  C   UNL     1      37.881  45.249  15.985 -0.39 -0.00    +0.007 C  ATOM     14  C   UNL     1      38.796  45.581  18.528 -0.26 -0.04    +0.304 C  ATOM     15  C   UNL     1      37.120  44.950  14.930 -0.43 -0.00    +0.009 C  ATOM     16  C   UNL     1      37.164  44.723  17.163 -0.35 -0.02    +0.074 C  ATOM     17  N   UNL     1      37.546  44.832  18.381 -0.20 +0.05    -0.256 NA ATOM     18  C   UNL     1      35.948  44.235  15.345 -0.41 -0.00    +0.011 C  ATOM     19  C   UNL     1      35.934  44.054  16.673 -0.40 -0.00    +0.008 C  BRANCH  19  20ATOM     20  C   UNL     1      34.901  43.416  17.483 -0.33 +0.00    -0.009 A  ATOM     21  C   UNL     1      34.503  42.124  17.097 -0.41 -0.00    +0.009 A  ATOM     22  C   UNL     1      34.315  44.028  18.618 -0.36 -0.00    +0.001 A  ATOM     23  C   UNL     1      33.551  41.419  17.828 -0.40 -0.00    +0.004 A  ATOM     24  C   UNL     1      33.358  43.288  19.341 -0.33 -0.01    +0.119 A  ATOM     25  C   UNL     1      32.984  42.002  18.953 -0.36 -0.00    +0.046 A  BRANCH  22  26ATOM     26  C   UNL     1      34.695  45.433  19.036 -0.37 -0.01    +0.036 C  ATOM     27  C   UNL     1      33.978  46.499  18.219 -0.58 -0.01    +0.009 C  ENDBRANCH  22  26BRANCH  24  28ATOM     28  O   UNL     1      32.724  43.760  20.458 -0.62 -0.05    -0.508 OA ATOM     29  H   UNL     1      31.905  43.267  20.608 +0.18 +0.05    +0.293 HD ENDBRANCH  24  28ENDBRANCH  19  20ENDBRANCH  10  11ENDBRANCH   1  10TORSDOF 9TERENDMDL