REMARK SMILES CC[C@@H]1c2ccc(CN3CCNC3)cc2CN(S(=O)(=O)c2ccc(F)cc2)c2ccccc21
REMARK SMILES IDX 3 1 4 2 5 3 6 4 7 5 14 6 15 7 16 8 17 9 28 10 29 11 30 12
REMARK SMILES IDX 31 13 32 14 33 15 2 16 1 17 18 18 19 19 20 20 21 21 22 22
REMARK SMILES IDX 27 23 23 24 26 25 24 26 25 27 8 28 9 29 10 30 13 31 11 32
REMARK SMILES IDX 12 33
REMARK H PARENT 12 34
ROOT
ATOM      1  C   UNL     1      -0.145  -2.211  -1.975  1.00  0.00     0.051 C 
ATOM      2  C   UNL     1       0.911  -1.246  -1.427  1.00  0.00    -0.035 A 
ATOM      3  C   UNL     1       2.260  -1.633  -1.626  1.00  0.00     0.005 A 
ATOM      4  C   UNL     1       3.336  -0.862  -1.183  1.00  0.00     0.005 A 
ATOM      5  C   UNL     1       3.105   0.337  -0.516  1.00  0.00    -0.034 A 
ATOM      6  C   UNL     1       1.777   0.739  -0.320  1.00  0.00     0.011 A 
ATOM      7  C   UNL     1       0.671  -0.039  -0.745  1.00  0.00    -0.023 A 
ATOM      8  C   UNL     1      -0.691   0.555  -0.456  1.00  0.00     0.171 C 
ATOM      9  N   UNL     1      -1.793  -0.408  -0.364  1.00  0.00    -0.262 N 
ATOM     10  C   UNL     1      -2.312  -0.849  -1.622  1.00  0.00     0.056 A 
ATOM     11  C   UNL     1      -3.511  -0.350  -2.145  1.00  0.00     0.027 A 
ATOM     12  C   UNL     1      -3.961  -0.732  -3.410  1.00  0.00     0.002 A 
ATOM     13  C   UNL     1      -3.197  -1.593  -4.182  1.00  0.00     0.000 A 
ATOM     14  C   UNL     1      -1.975  -2.052  -3.695  1.00  0.00     0.006 A 
ATOM     15  C   UNL     1      -1.498  -1.668  -2.421  1.00  0.00    -0.016 A 
ENDROOT
BRANCH   1  16
ATOM     16  C   UNL     1      -0.242  -3.540  -1.183  1.00  0.00     0.010 C 
ATOM     17  C   UNL     1      -0.759  -3.440   0.242  1.00  0.00     0.005 C 
ENDBRANCH   1  16
BRANCH   9  18
ATOM     18  S   UNL     1      -2.741  -0.417   1.040  1.00  0.00     0.264 S 
ATOM     19  O   UNL     1      -1.862  -0.285   2.185  1.00  0.00    -0.201 OA
ATOM     20  O   UNL     1      -3.688  -1.511   0.970  1.00  0.00    -0.201 OA
BRANCH  18  21
ATOM     21  C   UNL     1      -3.703   1.094   0.995  1.00  0.00     0.088 A 
ATOM     22  C   UNL     1      -3.102   2.313   1.337  1.00  0.00     0.025 A 
ATOM     23  C   UNL     1      -5.081   1.034   0.741  1.00  0.00     0.025 A 
ATOM     24  C   UNL     1      -3.868   3.481   1.349  1.00  0.00     0.040 A 
ATOM     25  C   UNL     1      -5.840   2.205   0.755  1.00  0.00     0.040 A 
ATOM     26  C   UNL     1      -5.225   3.417   1.052  1.00  0.00     0.123 A 
ATOM     27  F   UNL     1      -5.956   4.539   1.067  1.00  0.00    -0.207 F 
ENDBRANCH  18  21
ENDBRANCH   9  18
BRANCH   5  28
ATOM     28  C   UNL     1       4.261   1.198  -0.048  1.00  0.00     0.121 C 
BRANCH  28  29
ATOM     29  N   UNL     1       4.121   1.651   1.344  1.00  0.00    -0.285 NA
ATOM     30  C   UNL     1       4.279   0.564   2.321  1.00  0.00     0.101 C 
ATOM     31  C   UNL     1       5.190   2.569   1.717  1.00  0.00     0.168 C 
ATOM     32  C   UNL     1       5.780   0.460   2.539  1.00  0.00     0.098 C 
ATOM     33  N   UNL     1       6.329   1.769   2.154  1.00  0.00    -0.303 NA
ATOM     34  H   UNL     1       6.947   1.635   1.357  1.00  0.00     0.124 HD
ENDBRANCH  28  29
ENDBRANCH   5  28
TORSDOF 5
