REMARK SMILES CCC(=O)NCCCC[C@H]1OCN=C2C(c3cccc(O)c3CC)=CC=C21
REMARK SMILES IDX 8 1 7 2 6 3 5 4 3 5 4 6 2 8 1 9 9 10 10 11 11 12 27 13 12 14
REMARK SMILES IDX 26 15 14 16 13 17 25 18 15 19 16 20 17 21 22 22 18 23 20 24
REMARK SMILES IDX 19 25 23 26 24 27 21 28
REMARK H PARENT 5 7 21 29
ROOT
ATOM      1  C   UNL     1       2.879   0.932  -0.637  1.00  0.00     0.005 C 
ENDROOT
BRANCH   1   2
ATOM      2  C   UNL     1       2.353  -0.321   0.064  1.00  0.00     0.021 C 
BRANCH   2   3
ATOM      3  C   UNL     1       3.358  -1.474   0.048  1.00  0.00     0.116 C 
BRANCH   3   4
ATOM      4  N   UNL     1       4.466  -1.249   0.956  1.00  0.00    -0.356 N 
ATOM      5  C   UNL     1       5.714  -0.852   0.522  1.00  0.00     0.219 C 
ATOM      6  O   UNL     1       5.994  -0.654  -0.654  1.00  0.00    -0.275 OA
ATOM      7  H   UNL     1       4.311  -1.387   1.946  1.00  0.00     0.163 HD
BRANCH   5   8
ATOM      8  C   UNL     1       6.699  -0.682   1.661  1.00  0.00     0.096 C 
ATOM      9  C   UNL     1       8.072  -0.246   1.180  1.00  0.00     0.014 C 
ENDBRANCH   5   8
ENDBRANCH   3   4
ENDBRANCH   2   3
ENDBRANCH   1   2
BRANCH   1  10
ATOM     10  C   UNL     1       1.942   2.150  -0.581  1.00  0.00     0.037 C 
BRANCH  10  11
ATOM     11  C   UNL     1       0.554   1.998  -1.229  1.00  0.00     0.153 C 
ATOM     12  O   UNL     1       0.683   1.265  -2.448  1.00  0.00    -0.351 OA
ATOM     13  C   UNL     1      -0.476   1.345  -0.391  1.00  0.00     0.007 C 
ATOM     14  C   UNL     1      -0.580   1.114  -3.102  1.00  0.00     0.304 C 
ATOM     15  C   UNL     1      -0.716   1.197   0.914  1.00  0.00     0.009 C 
ATOM     16  C   UNL     1      -1.543   0.598  -1.085  1.00  0.00     0.074 C 
ATOM     17  N   UNL     1      -1.658   0.463  -2.354  1.00  0.00    -0.256 NA
ATOM     18  C   UNL     1      -1.897   0.410   1.120  1.00  0.00     0.011 C 
ATOM     19  C   UNL     1      -2.444   0.041  -0.046  1.00  0.00     0.008 C 
BRANCH  19  20
ATOM     20  C   UNL     1      -3.620  -0.796  -0.263  1.00  0.00    -0.009 A 
ATOM     21  C   UNL     1      -3.389  -2.100  -0.737  1.00  0.00     0.009 A 
ATOM     22  C   UNL     1      -4.943  -0.360  -0.006  1.00  0.00     0.001 A 
ATOM     23  C   UNL     1      -4.444  -2.985  -0.941  1.00  0.00     0.004 A 
ATOM     24  C   UNL     1      -5.989  -1.280  -0.216  1.00  0.00     0.119 A 
ATOM     25  C   UNL     1      -5.743  -2.574  -0.674  1.00  0.00     0.046 A 
BRANCH  22  26
ATOM     26  C   UNL     1      -5.226   1.050   0.469  1.00  0.00     0.036 C 
ATOM     27  C   UNL     1      -5.495   1.118   1.966  1.00  0.00     0.009 C 
ENDBRANCH  22  26
BRANCH  24  28
ATOM     28  O   UNL     1      -7.308  -0.988   0.002  1.00  0.00    -0.508 OA
ATOM     29  H   UNL     1      -7.404  -0.061   0.262  1.00  0.00     0.293 HD
ENDBRANCH  24  28
ENDBRANCH  19  20
ENDBRANCH  10  11
ENDBRANCH   1  10
TORSDOF 9
