REMARK SMILES NC1=Cc2sc(NC(=O)c3ccc(Cl)cc3)cc2C1=O
REMARK SMILES IDX 2 1 3 2 4 3 5 4 6 5 17 6 18 7 19 8 20 9 1 10 7 13 8 14 9 16
REMARK SMILES IDX 10 17 11 18 16 19 12 20 15 21 13 22 14 23
REMARK H PARENT 1 11 1 12 7 15
ROOT
ATOM      1  C   UNL     1       5.181  -0.129  -0.278  1.00  0.00     0.082 C 
ATOM      2  C   UNL     1       4.345  -1.101  -0.700  1.00  0.00     0.049 C 
ATOM      3  C   UNL     1       3.029  -0.670  -0.462  1.00  0.00     0.043 A 
ATOM      4  S   UNL     1       1.521  -1.335  -0.734  1.00  0.00    -0.118 S 
ATOM      5  C   UNL     1       0.752   0.044  -0.056  1.00  0.00     0.096 A 
ATOM      6  C   UNL     1       1.664   1.003   0.361  1.00  0.00     0.051 A 
ATOM      7  C   UNL     1       2.979   0.563   0.118  1.00  0.00     0.044 A 
ATOM      8  C   UNL     1       4.332   1.015   0.296  1.00  0.00     0.210 C 
ATOM      9  O   UNL     1       4.732   2.045   0.808  1.00  0.00    -0.287 OA
ENDROOT
BRANCH   1  10
ATOM     10  N   UNL     1       6.554  -0.070  -0.285  1.00  0.00    -0.396 N 
ATOM     11  H   UNL     1       7.007  -0.978  -0.241  1.00  0.00     0.156 HD
ATOM     12  H   UNL     1       6.912   0.596   0.401  1.00  0.00     0.156 HD
ENDBRANCH   1  10
BRANCH   5  13
ATOM     13  N   UNL     1      -0.624   0.159   0.024  1.00  0.00    -0.314 N 
ATOM     14  C   UNL     1      -1.554  -0.814  -0.293  1.00  0.00     0.256 C 
ATOM     15  H   UNL     1      -0.962   1.023   0.428  1.00  0.00     0.171 HD
ATOM     16  O   UNL     1      -1.347  -1.974  -0.625  1.00  0.00    -0.269 OA
BRANCH  14  17
ATOM     17  C   UNL     1      -2.974  -0.377  -0.160  1.00  0.00     0.040 A 
ATOM     18  C   UNL     1      -3.384   0.918  -0.510  1.00  0.00     0.015 A 
ATOM     19  C   UNL     1      -3.919  -1.305   0.299  1.00  0.00     0.015 A 
ATOM     20  C   UNL     1      -4.726   1.285  -0.373  1.00  0.00     0.021 A 
ATOM     21  C   UNL     1      -5.259  -0.934   0.435  1.00  0.00     0.021 A 
ATOM     22  C   UNL     1      -5.656   0.360   0.102  1.00  0.00     0.041 A 
ATOM     23  Cl  UNL     1      -7.306   0.818   0.268  1.00  0.00    -0.084 Cl
ENDBRANCH  14  17
ENDBRANCH   5  13
TORSDOF 3
