MODEL        10USER    Run = 10USERUSER    Estimated Free Energy of Binding    =  -8.00 kcal/mol  [=(1)+(2)+(3)-(4)]USERUSER    (1) Final Intermolecular Energy     =  -8.89 kcal/molUSER        vdW + Hbond + desolv Energy     =  -8.78 kcal/molUSER        Electrostatic Energy            =  -0.11 kcal/molUSER        Moving Ligand-Fixed Receptor    =  -8.89 kcal/molUSER        Moving Ligand-Moving Receptor   =  +0.00 kcal/molUSER    (2) Final Total Internal Energy     =  -0.52 kcal/molUSER    (3) Torsional Free Energy           =  +0.89 kcal/molUSER    (4) Unbound System's Energy         =  -0.52 kcal/molUSERUSERREMARK SMILES NC1=Cc2sc(NC(=O)c3ccc(Cl)cc3)cc2C1=OREMARK SMILES IDX 2 1 3 2 4 3 5 4 6 5 17 6 18 7 19 8 20 9 1 10 7 13 8 14 9 16REMARK SMILES IDX 10 17 11 18 16 19 12 20 15 21 13 22 14 23REMARK H PARENT 1 11 1 12 7 15USER                              x       y       z     vdW  Elec       q    TypeUSER                           _______ _______ _______ _____ _____    ______ ____ROOTATOM      1  C   UNL     1      41.416  49.592  15.123 -0.67 -0.01    +0.082 C  ATOM      2  C   UNL     1      40.530  49.095  14.234 -0.44 -0.01    +0.049 C  ATOM      3  C   UNL     1      39.718  48.167  14.908 -0.51 -0.01    +0.043 A  ATOM      4  S   UNL     1      38.436  47.198  14.453 -0.58 +0.04    -0.118 S  ATOM      5  C   UNL     1      38.310  46.558  16.042 -0.34 -0.04    +0.096 A  ATOM      6  C   UNL     1      39.249  47.105  16.906 -0.41 -0.02    +0.051 A  ATOM      7  C   UNL     1      40.056  48.034  16.222 -0.50 -0.01    +0.044 A  ATOM      8  C   UNL     1      41.164  48.914  16.477 -0.38 -0.01    +0.210 C  ATOM      9  O   UNL     1      41.790  49.074  17.510 -0.71 -0.03    -0.287 OA ENDROOTBRANCH   1  10ATOM     10  N   UNL     1      42.419  50.517  14.959 -0.28 +0.03    -0.396 N  ATOM     11  H   UNL     1      43.299  50.121  14.644 -0.28 -0.02    +0.156 HD ATOM     12  H   UNL     1      42.515  51.125  15.773 -0.34 -0.01    +0.156 HD ENDBRANCH   1  10BRANCH   5  13ATOM     13  N   UNL     1      37.352  45.623  16.389 -0.14 +0.13    -0.314 N  ATOM     14  C   UNL     1      37.282  44.912  17.574 -0.24 -0.07    +0.256 C  ATOM     15  H   UNL     1      36.593  45.517  15.729 +0.13 -0.09    +0.171 HD ATOM     16  O   UNL     1      37.995  45.025  18.563 -0.26 +0.04    -0.269 OA BRANCH  14  17ATOM     17  C   UNL     1      36.163  43.928  17.638 -0.29 -0.01    +0.040 A  ATOM     18  C   UNL     1      35.528  43.456  16.480 -0.39 -0.01    +0.015 A  ATOM     19  C   UNL     1      35.766  43.448  18.893 -0.35 -0.00    +0.015 A  ATOM     20  C   UNL     1      34.485  42.531  16.585 -0.41 -0.01    +0.021 A  ATOM     21  C   UNL     1      34.723  42.524  18.994 -0.40 -0.00    +0.021 A  ATOM     22  C   UNL     1      34.085  42.072  17.840 -0.39 -0.01    +0.041 A  ATOM     23  Cl  UNL     1      32.801  40.934  17.963 -0.59 +0.02    -0.084 Cl ENDBRANCH  14  17ENDBRANCH   5  13TORSDOF 3TERENDMDL