REMARK SMILES O=Cc1c2c(c3cc(O)cc(O)c3c1O)O[C](O)O2
REMARK SMILES IDX 3 1 4 2 5 3 6 4 7 5 8 6 10 7 11 8 13 9 14 10 16 11 17 12
REMARK SMILES IDX 19 13 2 14 1 15 15 16 18 18 12 20 9 22
REMARK H PARENT 15 17 18 19 12 21 9 23
ROOT
ATOM      1  C   UNL     1      -1.812  -1.079  -0.229  1.00  0.00     0.103 A 
ATOM      2  C   UNL     1      -1.967   0.281  -0.085  1.00  0.00     0.184 A 
ATOM      3  C   UNL     1      -0.873   1.133   0.071  1.00  0.00     0.178 A 
ATOM      4  C   UNL     1       0.439   0.680   0.093  1.00  0.00     0.039 A 
ATOM      5  C   UNL     1       1.525   1.562   0.247  1.00  0.00     0.059 A 
ATOM      6  C   UNL     1       2.826   1.077   0.267  1.00  0.00     0.120 A 
ATOM      7  C   UNL     1       3.080  -0.280   0.135  1.00  0.00     0.093 A 
ATOM      8  C   UNL     1       2.002  -1.156  -0.022  1.00  0.00     0.130 A 
ATOM      9  C   UNL     1       0.651  -0.716  -0.048  1.00  0.00     0.070 A 
ATOM     10  C   UNL     1      -0.498  -1.574  -0.211  1.00  0.00     0.141 A 
ATOM     11  O   UNL     1      -1.309   2.432   0.199  1.00  0.00    -0.417 OA
ATOM     12  C   UNL     1      -2.684   2.305   0.112  1.00  0.00     0.484 C 
ATOM     13  O   UNL     1      -3.134   1.006  -0.061  1.00  0.00    -0.417 OA
ENDROOT
BRANCH   1  14
ATOM     14  C   UNL     1      -3.028  -1.908  -0.392  1.00  0.00     0.267 C 
ATOM     15  O   UNL     1      -3.048  -3.131  -0.422  1.00  0.00    -0.298 OA
ENDBRANCH   1  14
BRANCH  10  16
ATOM     16  O   UNL     1      -0.309  -2.925  -0.368  1.00  0.00    -0.506 OA
ATOM     17  H   UNL     1       0.651  -3.106  -0.315  1.00  0.00     0.293 HD
ENDBRANCH  10  16
BRANCH  12  18
ATOM     18  O   UNL     1      -3.535   3.361   0.251  1.00  0.00    -0.314 OA
ATOM     19  H   UNL     1      -4.455   3.055   0.189  1.00  0.00     0.219 HD
ENDBRANCH  12  18
BRANCH   8  20
ATOM     20  O   UNL     1       2.255  -2.503  -0.156  1.00  0.00    -0.507 OA
ATOM     21  H   UNL     1       3.218  -2.646  -0.165  1.00  0.00     0.293 HD
ENDBRANCH   8  20
BRANCH   6  22
ATOM     22  O   UNL     1       3.836   1.982   0.416  1.00  0.00    -0.508 OA
ATOM     23  H   UNL     1       4.685   1.514   0.476  1.00  0.00     0.293 HD
ENDBRANCH   6  22
TORSDOF 5
