MODEL        5USER    Run = 5USERUSER    Estimated Free Energy of Binding    =  -8.46 kcal/mol  [=(1)+(2)+(3)-(4)]USERUSER    (1) Final Intermolecular Energy     = -12.04 kcal/molUSER        vdW + Hbond + desolv Energy     = -11.94 kcal/molUSER        Electrostatic Energy            =  -0.10 kcal/molUSER        Moving Ligand-Fixed Receptor    = -12.04 kcal/molUSER        Moving Ligand-Moving Receptor   =  +0.00 kcal/molUSER    (2) Final Total Internal Energy     =  -1.46 kcal/molUSER    (3) Torsional Free Energy           =  +3.58 kcal/molUSER    (4) Unbound System's Energy         =  -1.46 kcal/molUSERUSERREMARK SMILES CNCCCCCCCCCCn1cnnc1-c1cccc(C)c1REMARK SMILES IDX 8 1 7 2 6 3 5 4 4 5 3 6 2 7 1 8 9 10 10 11 11 12 12 13 13 14REMARK SMILES IDX 14 15 17 16 15 17 16 18 18 19 19 20 24 21 20 22 22 23 21 24REMARK SMILES IDX 23 25REMARK H PARENT 2 9USER                              x       y       z     vdW  Elec       q    TypeUSER                           _______ _______ _______ _____ _____    ______ ____ROOTATOM      1  C   UNL     1      35.168  46.539  13.712 -0.53 -0.00    +0.000 C  ENDROOTBRANCH   1   2ATOM      2  C   UNL     1      34.426  45.800  14.830 -0.36 -0.00    +0.000 C  BRANCH   2   3ATOM      3  C   UNL     1      35.358  45.173  15.866 -0.39 -0.00    +0.000 C  BRANCH   3   4ATOM      4  C   UNL     1      36.028  43.873  15.400 -0.43 -0.00    +0.001 C  BRANCH   4   5ATOM      5  C   UNL     1      35.801  42.671  16.327 -0.49 -0.01    +0.015 C  BRANCH   5   6ATOM      6  C   UNL     1      34.363  42.515  16.838 -0.43 -0.03    +0.080 C  BRANCH   6   7ATOM      7  N   UNL     1      34.298  41.556  17.942 -0.24 +0.11    -0.320 NA ATOM      8  C   UNL     1      33.095  41.752  18.738 -0.39 -0.01    +0.101 C  ATOM      9  H   UNL     1      34.306  40.607  17.569 -0.51 -0.08    +0.122 HD ENDBRANCH   6   7ENDBRANCH   5   6ENDBRANCH   4   5ENDBRANCH   3   4ENDBRANCH   2   3ENDBRANCH   1   2BRANCH   1  10ATOM     10  C   UNL     1      36.691  46.489  13.857 -0.54 -0.00    +0.000 C  BRANCH  10  11ATOM     11  C   UNL     1      37.212  47.690  14.649 -0.56 -0.00    +0.002 C  BRANCH  11  12ATOM     12  C   UNL     1      38.417  48.332  13.954 -0.53 -0.01    +0.022 C  BRANCH  12  13ATOM     13  C   UNL     1      39.752  47.737  14.406 -0.36 -0.03    +0.125 C  BRANCH  13  14ATOM     14  N   UNL     1      40.557  48.627  15.214 -0.32 +0.07    -0.314 N  ATOM     15  C   UNL     1      41.085  49.810  14.791 -0.41 -0.07    +0.226 A  ATOM     16  C   UNL     1      40.978  48.460  16.513 -0.42 -0.02    +0.163 A  ATOM     17  N   UNL     1      41.819  50.331  15.744 -0.94 +0.01    -0.139 NA ATOM     18  N   UNL     1      41.765  49.475  16.819 -0.95 -0.03    -0.130 NA BRANCH  16  19ATOM     19  C   UNL     1      40.668  47.332  17.384 -0.51 -0.00    +0.020 A  ATOM     20  C   UNL     1      41.637  46.863  18.277 -0.50 -0.00    +0.012 A  ATOM     21  C   UNL     1      39.405  46.722  17.364 -0.44 -0.00    +0.015 A  ATOM     22  C   UNL     1      41.362  45.783  19.117 -0.46 +0.00    +0.001 A  ATOM     23  C   UNL     1      39.123  45.627  18.195 -0.39 +0.01    -0.050 A  ATOM     24  C   UNL     1      40.109  45.168  19.076 -0.44 -0.00    +0.003 A  ATOM     25  C   UNL     1      37.759  45.002  18.194 -0.40 -0.01    +0.044 C  ENDBRANCH  16  19ENDBRANCH  13  14ENDBRANCH  12  13ENDBRANCH  11  12ENDBRANCH  10  11ENDBRANCH   1  10TORSDOF 12TERENDMDL