MODEL        2USER    Run = 2USERUSER    Estimated Free Energy of Binding    =  -9.69 kcal/mol  [=(1)+(2)+(3)-(4)]USERUSER    (1) Final Intermolecular Energy     = -12.08 kcal/molUSER        vdW + Hbond + desolv Energy     = -12.14 kcal/molUSER        Electrostatic Energy            =  +0.06 kcal/molUSER        Moving Ligand-Fixed Receptor    = -12.08 kcal/molUSER        Moving Ligand-Moving Receptor   =  +0.00 kcal/molUSER    (2) Final Total Internal Energy     =  -0.95 kcal/molUSER    (3) Torsional Free Energy           =  +2.39 kcal/molUSER    (4) Unbound System's Energy         =  -0.95 kcal/molUSERUSERREMARK SMILES C=c1c(Nc2cccc(C(F)(F)F)c2)nccc1=CNC(=O)Nc1ccc(C(C)(C)C)c(O)c1REMARK SMILES IDX 1 1 2 2 3 3 15 4 16 5 17 6 18 7 4 8 5 10 6 11 14 12 7 13REMARK SMILES IDX 9 14 8 15 10 16 11 17 12 18 13 19 19 20 20 21 21 22 23 23REMARK SMILES IDX 22 25 24 27 25 28 34 29 26 30 32 31 27 32 33 33 28 35 29 36REMARK SMILES IDX 30 37 31 38REMARK H PARENT 4 9 20 24 23 26 33 34USER                              x       y       z     vdW  Elec       q    TypeUSER                           _______ _______ _______ _____ _____    ______ ____ROOTATOM      1  C   UNL     1      41.770  47.540  22.884 -0.25 +0.00    +0.022 C  ATOM      2  C   UNL     1      41.270  46.608  22.053 -0.17 +0.00    +0.019 A  ATOM      3  C   UNL     1      40.032  45.809  22.489 -0.21 +0.01    +0.137 A  ATOM      4  N   UNL     1      39.858  44.581  22.061 -0.13 -0.01    -0.239 NA ATOM      5  C   UNL     1      40.770  44.028  21.195 -0.24 +0.01    +0.114 A  ATOM      6  C   UNL     1      41.752  44.692  20.572 -0.29 +0.00    +0.030 A  ATOM      7  C   UNL     1      41.924  46.115  20.838 -0.35 +0.00    +0.002 A  ENDROOTBRANCH   3   8ATOM      8  N   UNL     1      39.105  46.420  23.324 -0.16 -0.04    -0.340 N  ATOM      9  H   UNL     1      38.894  47.388  23.132 +0.07 +0.03    +0.168 HD BRANCH   8  10ATOM     10  C   UNL     1      38.380  45.884  24.404 -0.27 +0.00    +0.040 A  ATOM     11  C   UNL     1      38.095  46.715  25.501 -0.30 +0.00    +0.026 A  ATOM     12  C   UNL     1      37.896  44.572  24.441 -0.27 +0.00    +0.039 A  ATOM     13  C   UNL     1      37.368  46.250  26.599 -0.34 -0.00    +0.003 A  ATOM     14  C   UNL     1      37.157  44.086  25.537 -0.29 -0.00    +0.058 A  ATOM     15  C   UNL     1      36.902  44.939  26.619 -0.35 -0.00    +0.013 A  BRANCH  14  16ATOM     16  C   UNL     1      36.677  42.657  25.542 -0.16 -0.02    +0.416 C  ATOM     17  F   UNL     1      35.458  42.502  26.126 -0.14 +0.02    -0.166 F  ATOM     18  F   UNL     1      37.512  41.810  26.208 -0.11 +0.02    -0.166 F  ATOM     19  F   UNL     1      36.560  42.146  24.285 -0.16 -0.00    -0.166 F  ENDBRANCH  14  16ENDBRANCH   8  10ENDBRANCH   3   8BRANCH   7  20ATOM     20  C   UNL     1      42.634  46.841  19.951 -0.44 +0.02    +0.096 C  BRANCH  20  21ATOM     21  N   UNL     1      42.329  47.031  18.621 -0.34 -0.01    -0.314 N  ATOM     22  C   UNL     1      41.046  46.893  18.109 -0.34 -0.02    +0.323 C  ATOM     23  N   UNL     1      41.004  47.242  16.771 -0.25 +0.04    -0.308 N  ATOM     24  H   UNL     1      43.076  47.246  17.981 -0.47 -0.01    +0.171 HD ATOM     25  O   UNL     1      40.100  46.508  18.785 -0.34 +0.02    -0.248 OA ATOM     26  H   UNL     1      41.781  47.786  16.434 -0.36 -0.02    +0.171 HD BRANCH  23  27ATOM     27  C   UNL     1      39.914  47.094  15.887 -0.46 -0.01    +0.046 A  ATOM     28  C   UNL     1      39.662  45.938  15.158 -0.29 -0.00    +0.027 A  ATOM     29  C   UNL     1      39.060  48.186  15.718 -0.45 -0.03    +0.072 A  ATOM     30  C   UNL     1      38.576  45.874  14.271 -0.38 -0.00    +0.010 A  ATOM     31  C   UNL     1      37.972  48.112  14.836 -0.43 -0.07    +0.121 A  ATOM     32  C   UNL     1      37.701  46.958  14.080 -0.47 +0.00    -0.001 A  BRANCH  31  33ATOM     33  O   UNL     1      37.156  49.206  14.719 -0.22 +0.47    -0.508 OA ATOM     34  H   UNL     1      37.692  50.010  14.642 -0.34 -0.31    +0.293 HD ENDBRANCH  31  33BRANCH  32  35ATOM     35  C   UNL     1      36.514  46.867  13.095 -0.67 +0.00    -0.010 C  ATOM     36  C   UNL     1      35.212  46.517  13.848 -0.51 -0.01    +0.016 C  ATOM     37  C   UNL     1      36.795  45.801  12.015 -0.67 -0.01    +0.016 C  ATOM     38  C   UNL     1      36.232  48.192  12.340 -0.60 -0.01    +0.016 C  ENDBRANCH  32  35ENDBRANCH  23  27ENDBRANCH  20  21ENDBRANCH   7  20TORSDOF 8TERENDMDL