REMARK SMILES CNCCCCCCCCCCn1cnnc1-c1cccc(C)c1
REMARK SMILES IDX 8 1 7 2 6 3 5 4 4 5 3 6 2 7 1 8 9 10 10 11 11 12 12 13 13 14
REMARK SMILES IDX 14 15 17 16 15 17 16 18 18 19 19 20 24 21 20 22 22 23 21 24
REMARK SMILES IDX 23 25
REMARK H PARENT 2 9
ROOT
ATOM      1  C   UNL     1       1.839   0.258   1.480  1.00  0.00     0.000 C 
ENDROOT
BRANCH   1   2
ATOM      2  C   UNL     1       3.050   0.191   0.543  1.00  0.00     0.000 C 
BRANCH   2   3
ATOM      3  C   UNL     1       3.450   1.551  -0.028  1.00  0.00     0.000 C 
BRANCH   3   4
ATOM      4  C   UNL     1       4.803   1.554  -0.751  1.00  0.00     0.001 C 
BRANCH   4   5
ATOM      5  C   UNL     1       4.858   0.674  -2.007  1.00  0.00     0.015 C 
BRANCH   5   6
ATOM      6  C   UNL     1       5.447  -0.725  -1.787  1.00  0.00     0.080 C 
BRANCH   6   7
ATOM      7  N   UNL     1       6.857  -0.648  -1.401  1.00  0.00    -0.320 NA
ATOM      8  C   UNL     1       7.425  -1.976  -1.220  1.00  0.00     0.101 C 
ATOM      9  H   UNL     1       7.380  -0.152  -2.122  1.00  0.00     0.122 HD
ENDBRANCH   6   7
ENDBRANCH   5   6
ENDBRANCH   4   5
ENDBRANCH   3   4
ENDBRANCH   2   3
ENDBRANCH   1   2
BRANCH   1  10
ATOM     10  C   UNL     1       0.562   0.740   0.789  1.00  0.00     0.000 C 
BRANCH  10  11
ATOM     11  C   UNL     1      -0.646   0.639   1.724  1.00  0.00     0.002 C 
BRANCH  11  12
ATOM     12  C   UNL     1      -1.920   1.143   1.039  1.00  0.00     0.022 C 
BRANCH  12  13
ATOM     13  C   UNL     1      -3.149   1.084   1.949  1.00  0.00     0.125 C 
BRANCH  13  14
ATOM     14  N   UNL     1      -3.560  -0.255   2.309  1.00  0.00    -0.314 N 
ATOM     15  C   UNL     1      -3.379  -0.830   3.531  1.00  0.00     0.226 A 
ATOM     16  C   UNL     1      -4.160  -1.209   1.520  1.00  0.00     0.163 A 
ATOM     17  N   UNL     1      -3.799  -2.071   3.501  1.00  0.00    -0.139 NA
ATOM     18  N   UNL     1      -4.274  -2.314   2.234  1.00  0.00    -0.130 NA
BRANCH  16  19
ATOM     19  C   UNL     1      -4.546  -1.056   0.122  1.00  0.00     0.020 A 
ATOM     20  C   UNL     1      -3.991  -1.903  -0.844  1.00  0.00     0.012 A 
ATOM     21  C   UNL     1      -5.484  -0.091  -0.274  1.00  0.00     0.015 A 
ATOM     22  C   UNL     1      -4.344  -1.771  -2.187  1.00  0.00     0.001 A 
ATOM     23  C   UNL     1      -5.835   0.058  -1.624  1.00  0.00    -0.050 A 
ATOM     24  C   UNL     1      -5.263  -0.795  -2.575  1.00  0.00     0.003 A 
ATOM     25  C   UNL     1      -6.866   1.067  -2.035  1.00  0.00     0.044 C 
ENDBRANCH  16  19
ENDBRANCH  13  14
ENDBRANCH  12  13
ENDBRANCH  11  12
ENDBRANCH  10  11
ENDBRANCH   1  10
TORSDOF 12
