REMARK SMILES CSc1[nH]nccc(N2CCC(C(F)(F)F)CC2)ccc1C=CS(N)(=O)=O
REMARK SMILES IDX 22 1 21 2 3 3 4 4 5 5 20 6 6 7 19 8 7 9 8 10 2 12 1 13 9 14
REMARK SMILES IDX 10 15 18 16 11 17 17 18 12 19 13 20 14 21 15 22 16 23 23 24
REMARK SMILES IDX 24 25 26 26 27 27 25 28
REMARK H PARENT 4 11 25 29 25 30
ROOT
ATOM      1  C   UNL     1       3.744  -0.850  -0.109  1.00  0.00     0.024 C 
ENDROOT
BRANCH   1   2
ATOM      2  C   UNL     1       2.528  -0.157   0.353  1.00  0.00     0.007 A 
ATOM      3  C   UNL     1       2.669   0.985   1.074  1.00  0.00     0.096 A 
ATOM      4  N   UNL     1       1.609   1.677   1.613  1.00  0.00    -0.271 N 
ATOM      5  N   UNL     1       1.060   2.749   0.803  1.00  0.00    -0.183 NA
ATOM      6  C   UNL     1       1.383  -0.799   0.043  1.00  0.00     0.013 A 
ATOM      7  C   UNL     1      -0.244   2.535   0.606  1.00  0.00     0.135 A 
ATOM      8  C   UNL     1       0.052  -0.674   0.094  1.00  0.00     0.026 A 
ATOM      9  C   UNL     1      -1.080   1.495   0.476  1.00  0.00     0.048 A 
ATOM     10  C   UNL     1      -0.986   0.161   0.303  1.00  0.00     0.038 A 
ATOM     11  H   UNL     1       1.912   2.105   2.484  1.00  0.00     0.191 HD
BRANCH   3  12
ATOM     12  S   UNL     1       4.318   1.560   1.506  1.00  0.00    -0.110 SA
ATOM     13  C   UNL     1       4.240   3.202   0.748  1.00  0.00     0.092 C 
ENDBRANCH   3  12
BRANCH  10  14
ATOM     14  N   UNL     1      -2.261  -0.516   0.219  1.00  0.00    -0.371 N 
ATOM     15  C   UNL     1      -2.878  -0.984   1.467  1.00  0.00     0.117 C 
ATOM     16  C   UNL     1      -3.134  -0.287  -0.936  1.00  0.00     0.117 C 
ATOM     17  C   UNL     1      -4.385  -0.771   1.447  1.00  0.00     0.034 C 
ATOM     18  C   UNL     1      -4.166  -1.406  -1.016  1.00  0.00     0.034 C 
ATOM     19  C   UNL     1      -5.042  -1.471   0.247  1.00  0.00     0.098 C 
BRANCH  19  20
ATOM     20  C   UNL     1      -6.415  -0.880  -0.012  1.00  0.00     0.391 C 
ATOM     21  F   UNL     1      -7.197  -0.963   1.089  1.00  0.00    -0.171 F 
ATOM     22  F   UNL     1      -7.051  -1.549  -1.002  1.00  0.00    -0.171 F 
ATOM     23  F   UNL     1      -6.351   0.419  -0.372  1.00  0.00    -0.171 F 
ENDBRANCH  19  20
ENDBRANCH  10  14
ENDBRANCH   1   2
BRANCH   1  24
ATOM     24  C   UNL     1       4.188  -0.770  -1.374  1.00  0.00     0.123 C 
BRANCH  24  25
ATOM     25  S   UNL     1       5.721  -1.438  -1.767  1.00  0.00     0.231 S 
ATOM     26  O   UNL     1       5.966  -2.652  -1.016  1.00  0.00    -0.208 OA
ATOM     27  O   UNL     1       5.912  -1.422  -3.200  1.00  0.00    -0.208 OA
BRANCH  25  28
ATOM     28  N   UNL     1       6.835  -0.332  -1.146  1.00  0.00    -0.225 NA
ATOM     29  H   UNL     1       6.575  -0.048  -0.198  1.00  0.00     0.137 HD
ATOM     30  H   UNL     1       7.768  -0.739  -1.188  1.00  0.00     0.137 HD
ENDBRANCH  25  28
ENDBRANCH  24  25
ENDBRANCH   1  24
TORSDOF 7
