MODEL        5USER    Run = 5USERUSER    Estimated Free Energy of Binding    =  -9.75 kcal/mol  [=(1)+(2)+(3)-(4)]USERUSER    (1) Final Intermolecular Energy     = -11.84 kcal/molUSER        vdW + Hbond + desolv Energy     = -11.62 kcal/molUSER        Electrostatic Energy            =  -0.23 kcal/molUSER        Moving Ligand-Fixed Receptor    = -11.84 kcal/molUSER        Moving Ligand-Moving Receptor   =  +0.00 kcal/molUSER    (2) Final Total Internal Energy     =  -0.81 kcal/molUSER    (3) Torsional Free Energy           =  +2.09 kcal/molUSER    (4) Unbound System's Energy         =  -0.81 kcal/molUSERUSERREMARK SMILES CSc1[nH]nccc(N2CCC(C(F)(F)F)CC2)ccc1C=CS(N)(=O)=OREMARK SMILES IDX 22 1 21 2 3 3 4 4 5 5 20 6 6 7 19 8 7 9 8 10 2 12 1 13 9 14REMARK SMILES IDX 10 15 18 16 11 17 17 18 12 19 13 20 14 21 15 22 16 23 23 24REMARK SMILES IDX 24 25 26 26 27 27 25 28REMARK H PARENT 4 11 25 29 25 30USER                              x       y       z     vdW  Elec       q    TypeUSER                           _______ _______ _______ _____ _____    ______ ____ROOTATOM      1  C   UNL     1      38.767  47.937  14.940 -0.57 -0.01    +0.024 C  ENDROOTBRANCH   1   2ATOM      2  C   UNL     1      37.662  47.097  15.436 -0.42 -0.00    +0.007 A  ATOM      3  C   UNL     1      36.545  46.982  14.673 -0.35 -0.07    +0.096 A  ATOM      4  N   UNL     1      35.428  46.282  15.066 -0.20 +0.25    -0.271 N  ATOM      5  N   UNL     1      35.355  44.895  14.644 -0.14 +0.10    -0.183 NA ATOM      6  C   UNL     1      37.881  46.575  16.660 -0.37 -0.01    +0.013 A  ATOM      7  C   UNL     1      35.214  44.110  15.716 -0.24 -0.06    +0.135 A  ATOM      8  C   UNL     1      37.360  45.735  17.561 -0.34 -0.01    +0.026 A  ATOM      9  C   UNL     1      35.589  44.096  17.003 -0.29 -0.02    +0.048 A  ATOM     10  C   UNL     1      36.440  44.777  17.797 -0.30 -0.01    +0.038 A  ATOM     11  H   UNL     1      34.607  46.741  14.680 +0.04 -0.25    +0.191 HD BRANCH   3  12ATOM     12  S   UNL     1      36.421  47.916  13.141 -0.81 +0.06    -0.110 SA ATOM     13  C   UNL     1      36.508  46.535  11.974 -0.68 -0.04    +0.092 C  ENDBRANCH   3  12BRANCH  10  14ATOM     14  N   UNL     1      36.455  44.327  19.171 -0.12 +0.06    -0.371 N  ATOM     15  C   UNL     1      35.271  43.622  19.680 -0.39 -0.01    +0.117 C  ATOM     16  C   UNL     1      37.734  44.104  19.852 -0.33 -0.01    +0.117 C  ATOM     17  C   UNL     1      35.669  42.472  20.594 -0.50 +0.00    +0.034 C  ATOM     18  C   UNL     1      37.503  44.075  21.359 -0.42 +0.00    +0.034 C  ATOM     19  C   UNL     1      36.534  42.953  21.770 -0.40 +0.01    +0.098 C  BRANCH  19  20ATOM     20  C   UNL     1      37.284  41.782  22.377 -0.28 +0.03    +0.391 C  ATOM     21  F   UNL     1      38.592  42.079  22.552 -0.10 -0.02    -0.171 F  ATOM     22  F   UNL     1      37.228  40.699  21.567 -0.25 -0.00    -0.171 F  ATOM     23  F   UNL     1      36.781  41.422  23.577 -0.19 -0.00    -0.171 F  ENDBRANCH  19  20ENDBRANCH  10  14ENDBRANCH   1   2BRANCH   1  24ATOM     24  C   UNL     1      39.329  48.907  15.680 -0.48 -0.06    +0.123 C  BRANCH  24  25ATOM     25  S   UNL     1      41.022  49.177  15.562 -0.68 -0.04    +0.231 S  ATOM     26  O   UNL     1      41.677  48.928  16.829 -1.02 -0.03    -0.208 OA ATOM     27  O   UNL     1      41.532  48.573  14.351 -0.44 +0.01    -0.208 OA BRANCH  25  28ATOM     28  N   UNL     1      41.169  50.843  15.337 -0.42 +0.09    -0.225 NA ATOM     29  H   UNL     1      40.248  51.289  15.311 -0.44 -0.10    +0.137 HD ATOM     30  H   UNL     1      41.766  51.227  16.068 -0.46 -0.06    +0.137 HD ENDBRANCH  25  28ENDBRANCH  24  25ENDBRANCH   1  24TORSDOF 7TERENDMDL