MODEL        2USER    Run = 2USERUSER    Estimated Free Energy of Binding    =  -6.17 kcal/mol  [=(1)+(2)+(3)-(4)]USERUSER    (1) Final Intermolecular Energy     =  -7.66 kcal/molUSER        vdW + Hbond + desolv Energy     =  -7.50 kcal/molUSER        Electrostatic Energy            =  -0.16 kcal/molUSER        Moving Ligand-Fixed Receptor    =  -7.66 kcal/molUSER        Moving Ligand-Moving Receptor   =  +0.00 kcal/molUSER    (2) Final Total Internal Energy     =  -1.12 kcal/molUSER    (3) Torsional Free Energy           =  +1.49 kcal/molUSER    (4) Unbound System's Energy         =  -1.12 kcal/molUSERUSERREMARK SMILES O=Cc1c2c(c3cc(O)cc(O)c3c1O)O[C](O)O2REMARK SMILES IDX 3 1 4 2 5 3 6 4 7 5 8 6 10 7 11 8 13 9 14 10 16 11 17 12REMARK SMILES IDX 19 13 2 14 1 15 15 16 18 18 12 20 9 22REMARK H PARENT 15 17 18 19 12 21 9 23USER                              x       y       z     vdW  Elec       q    TypeUSER                           _______ _______ _______ _____ _____    ______ ____ROOTATOM      1  C   UNL     1      39.986  46.759  17.179 -0.41 -0.02    +0.103 A  ATOM      2  C   UNL     1      40.389  47.864  16.465 -0.39 -0.04    +0.184 A  ATOM      3  C   UNL     1      39.829  48.183  15.227 -0.41 -0.05    +0.178 A  ATOM      4  C   UNL     1      38.837  47.419  14.628 -0.46 -0.01    +0.039 A  ATOM      5  C   UNL     1      38.286  47.766  13.380 -0.32 -0.01    +0.059 A  ATOM      6  C   UNL     1      37.296  46.979  12.806 -0.50 -0.04    +0.120 A  ATOM      7  C   UNL     1      36.831  45.842  13.450 -0.41 -0.04    +0.093 A  ATOM      8  C   UNL     1      37.374  45.500  14.691 -0.30 -0.05    +0.130 A  ATOM      9  C   UNL     1      38.390  46.266  15.324 -0.35 -0.02    +0.070 A  ATOM     10  C   UNL     1      38.983  45.961  16.604 -0.30 -0.03    +0.141 A  ATOM     11  O   UNL     1      40.414  49.326  14.732 -0.28 +0.15    -0.417 OA ATOM     12  C   UNL     1      41.325  49.658  15.719 -0.24 -0.06    +0.484 C  ATOM     13  O   UNL     1      41.347  48.791  16.800 -0.80 +0.01    -0.417 OA ENDROOTBRANCH   1  14ATOM     14  C   UNL     1      40.631  46.498  18.486 -0.35 -0.02    +0.267 C  ATOM     15  O   UNL     1      41.820  46.659  18.730 -0.37 -0.01    -0.298 OA ENDBRANCH   1  14BRANCH  10  16ATOM     16  O   UNL     1      38.549  44.860  17.299 -0.07 +0.10    -0.506 OA ATOM     17  H   UNL     1      37.583  44.780  17.169 +0.19 -0.08    +0.293 HD ENDBRANCH  10  16BRANCH  12  18ATOM     18  O   UNL     1      42.182  50.713  15.612 -0.66 +0.02    -0.314 OA ATOM     19  H   UNL     1      41.812  51.487  16.069 -0.35 -0.12    +0.219 HD ENDBRANCH  12  18BRANCH   8  20ATOM     20  O   UNL     1      36.910  44.372  15.331 -0.09 +0.18    -0.507 OA ATOM     21  H   UNL     1      37.669  43.837  15.622 +0.20 -0.08    +0.293 HD ENDBRANCH   8  20BRANCH   6  22ATOM     22  O   UNL     1      36.800  47.369  11.597 -0.72 +0.19    -0.508 OA ATOM     23  H   UNL     1      36.556  48.309  11.634 -0.12 -0.12    +0.293 HD ENDBRANCH   6  22TORSDOF 5TERENDMDL