REMARK SMILES C=c1c(Nc2cccc(C(F)(F)F)c2)nccc1=CNC(=O)Nc1ccc(C(C)(C)C)c(O)c1
REMARK SMILES IDX 1 1 2 2 3 3 15 4 16 5 17 6 18 7 4 8 5 10 6 11 14 12 7 13
REMARK SMILES IDX 9 14 8 15 10 16 11 17 12 18 13 19 19 20 20 21 21 22 23 23
REMARK SMILES IDX 22 25 24 27 25 28 34 29 26 30 32 31 27 32 33 33 28 35 29 36
REMARK SMILES IDX 30 37 31 38
REMARK H PARENT 4 9 20 24 23 26 33 34
ROOT
ATOM      1  C   UNL     1       2.510   1.534  -0.130  1.00  0.00     0.022 C 
ATOM      2  C   UNL     1       3.082   0.430  -0.642  1.00  0.00     0.019 A 
ATOM      3  C   UNL     1       4.529   0.092  -0.250  1.00  0.00     0.137 A 
ATOM      4  N   UNL     1       5.303  -0.556  -1.088  1.00  0.00    -0.239 NA
ATOM      5  C   UNL     1       4.802  -0.958  -2.303  1.00  0.00     0.114 A 
ATOM      6  C   UNL     1       3.512  -0.925  -2.661  1.00  0.00     0.030 A 
ATOM      7  C   UNL     1       2.531  -0.387  -1.726  1.00  0.00     0.002 A 
ENDROOT
BRANCH   3   8
ATOM      8  N   UNL     1       4.984   0.469   1.007  1.00  0.00    -0.340 N 
ATOM      9  H   UNL     1       4.279   0.709   1.689  1.00  0.00     0.168 HD
BRANCH   8  10
ATOM     10  C   UNL     1       6.300   0.549   1.499  1.00  0.00     0.040 A 
ATOM     11  C   UNL     1       6.495   0.629   2.888  1.00  0.00     0.026 A 
ATOM     12  C   UNL     1       7.437   0.525   0.684  1.00  0.00     0.039 A 
ATOM     13  C   UNL     1       7.775   0.698   3.442  1.00  0.00     0.003 A 
ATOM     14  C   UNL     1       8.736   0.589   1.224  1.00  0.00     0.058 A 
ATOM     15  C   UNL     1       8.893   0.680   2.613  1.00  0.00     0.013 A 
BRANCH  14  16
ATOM     16  C   UNL     1       9.930   0.584   0.304  1.00  0.00     0.416 C 
ATOM     17  F   UNL     1       9.888  -0.410  -0.625  1.00  0.00    -0.166 F 
ATOM     18  F   UNL     1      11.115   0.423   0.959  1.00  0.00    -0.166 F 
ATOM     19  F   UNL     1      10.050   1.747  -0.395  1.00  0.00    -0.166 F 
ENDBRANCH  14  16
ENDBRANCH   8  10
ENDBRANCH   3   8
BRANCH   7  20
ATOM     20  C   UNL     1       1.235  -0.702  -1.923  1.00  0.00     0.096 C 
BRANCH  20  21
ATOM     21  N   UNL     1       0.185  -0.403  -1.083  1.00  0.00    -0.314 N 
ATOM     22  C   UNL     1      -1.140  -0.672  -1.397  1.00  0.00     0.323 C 
ATOM     23  N   UNL     1      -1.975  -0.367  -0.337  1.00  0.00    -0.308 N 
ATOM     24  H   UNL     1       0.382   0.066  -0.214  1.00  0.00     0.171 HD
ATOM     25  O   UNL     1      -1.486  -1.120  -2.484  1.00  0.00    -0.248 OA
ATOM     26  H   UNL     1      -1.529  -0.270   0.560  1.00  0.00     0.171 HD
BRANCH  23  27
ATOM     27  C   UNL     1      -3.386  -0.373  -0.337  1.00  0.00     0.046 A 
ATOM     28  C   UNL     1      -4.159  -0.482  -1.486  1.00  0.00     0.027 A 
ATOM     29  C   UNL     1      -4.037  -0.231   0.891  1.00  0.00     0.072 A 
ATOM     30  C   UNL     1      -5.560  -0.447  -1.413  1.00  0.00     0.010 A 
ATOM     31  C   UNL     1      -5.438  -0.205   0.958  1.00  0.00     0.121 A 
ATOM     32  C   UNL     1      -6.242  -0.303  -0.191  1.00  0.00    -0.001 A 
BRANCH  31  33
ATOM     33  O   UNL     1      -6.026  -0.080   2.188  1.00  0.00    -0.508 OA
ATOM     34  H   UNL     1      -5.364  -0.206   2.885  1.00  0.00     0.293 HD
ENDBRANCH  31  33
BRANCH  32  35
ATOM     35  C   UNL     1      -7.785  -0.263  -0.134  1.00  0.00    -0.010 C 
ATOM     36  C   UNL     1      -8.270   1.064   0.491  1.00  0.00     0.016 C 
ATOM     37  C   UNL     1      -8.322  -1.454   0.688  1.00  0.00     0.016 C 
ATOM     38  C   UNL     1      -8.459  -0.354  -1.528  1.00  0.00     0.016 C 
ENDBRANCH  32  35
ENDBRANCH  23  27
ENDBRANCH  20  21
ENDBRANCH   7  20
TORSDOF 8
