MODEL        4USER    Run = 4USERUSER    Estimated Free Energy of Binding    =  -7.60 kcal/mol  [=(1)+(2)+(3)-(4)]USERUSER    (1) Final Intermolecular Energy     =  -9.99 kcal/molUSER        vdW + Hbond + desolv Energy     =  -9.67 kcal/molUSER        Electrostatic Energy            =  -0.32 kcal/molUSER        Moving Ligand-Fixed Receptor    =  -9.99 kcal/molUSER        Moving Ligand-Moving Receptor   =  +0.00 kcal/molUSER    (2) Final Total Internal Energy     =  -1.51 kcal/molUSER    (3) Torsional Free Energy           =  +2.39 kcal/molUSER    (4) Unbound System's Energy         =  -1.51 kcal/molUSERUSERREMARK SMILES CCCCOC[C@@H](N)Cc1cc2ccccc2c(=O)o1REMARK SMILES IDX 5 1 4 2 3 3 2 4 1 5 6 6 7 7 8 8 9 11 10 12 11 13 20 14 12 15REMARK SMILES IDX 18 16 13 17 17 18 14 19 16 20 15 21 19 22REMARK H PARENT 8 9 8 10USER                              x       y       z     vdW  Elec       q    TypeUSER                           _______ _______ _______ _____ _____    ______ ____ROOTATOM      1  O   UNL     1      44.727  47.008  21.297 -0.68 -0.41    -0.380 OA ENDROOTBRANCH   1   2ATOM      2  C   UNL     1      45.085  47.237  22.657 -0.23 +0.09    +0.160 C  BRANCH   2   3ATOM      3  C   UNL     1      44.423  48.471  23.272 -0.27 +0.01    +0.028 C  BRANCH   3   4ATOM      4  C   UNL     1      43.200  48.115  24.119 -0.33 -0.00    -0.001 C  ATOM      5  C   UNL     1      41.965  48.872  23.656 -0.44 +0.00    +0.004 C  ENDBRANCH   3   4ENDBRANCH   2   3ENDBRANCH   1   2BRANCH   1   6ATOM      6  C   UNL     1      43.394  46.552  21.065 -0.25 +0.08    +0.179 C  BRANCH   6   7ATOM      7  C   UNL     1      42.663  47.214  19.870 -0.44 +0.01    +0.084 C  BRANCH   7   8ATOM      8  N   UNL     1      43.616  47.739  18.868 -0.22 -0.05    -0.325 NA ATOM      9  H   UNL     1      43.483  47.234  17.991 -0.51 -0.00    +0.119 HD ATOM     10  H   UNL     1      43.389  48.712  18.666 -0.42 -0.01    +0.119 HD ENDBRANCH   7   8BRANCH   7  11ATOM     11  C   UNL     1      41.646  46.244  19.234 -0.46 +0.01    +0.096 C  BRANCH  11  12ATOM     12  C   UNL     1      40.990  46.791  17.991 -0.44 -0.01    +0.110 A  ATOM     13  C   UNL     1      39.979  46.182  17.358 -0.43 -0.01    +0.051 A  ATOM     14  O   UNL     1      41.518  48.028  17.551 -0.45 +0.03    -0.427 OA ATOM     15  C   UNL     1      39.413  46.808  16.173 -0.45 +0.00    -0.008 A  ATOM     16  C   UNL     1      41.044  48.678  16.445 -0.27 -0.04    +0.343 A  ATOM     17  C   UNL     1      38.358  46.206  15.477 -0.39 -0.00    +0.009 A  ATOM     18  C   UNL     1      39.926  48.026  15.722 -0.49 -0.02    +0.067 A  ATOM     19  C   UNL     1      37.824  46.818  14.341 -0.45 -0.00    +0.001 A  ATOM     20  C   UNL     1      39.389  48.640  14.582 -0.45 -0.01    +0.016 A  ATOM     21  C   UNL     1      38.339  48.034  13.894 -0.51 -0.00    +0.001 A  ATOM     22  O   UNL     1      41.519  49.740  16.064 -1.09 +0.00    -0.246 OA ENDBRANCH  11  12ENDBRANCH   7  11ENDBRANCH   6   7ENDBRANCH   1   6TORSDOF 8TERENDMDL