REMARK SMILES CCCCOC[C@@H](N)Cc1cc2ccccc2c(=O)o1
REMARK SMILES IDX 5 1 4 2 3 3 2 4 1 5 6 6 7 7 8 8 9 11 10 12 11 13 20 14 12 15
REMARK SMILES IDX 18 16 13 17 17 18 14 19 16 20 15 21 19 22
REMARK H PARENT 8 9 8 10
ROOT
ATOM      1  O   UNL     1       2.442   0.954   1.049  1.00  0.00    -0.380 OA
ENDROOT
BRANCH   1   2
ATOM      2  C   UNL     1       2.833  -0.407   1.208  1.00  0.00     0.160 C 
BRANCH   2   3
ATOM      3  C   UNL     1       4.106  -0.778   0.446  1.00  0.00     0.028 C 
BRANCH   3   4
ATOM      4  C   UNL     1       5.282   0.136   0.795  1.00  0.00    -0.001 C 
ATOM      5  C   UNL     1       6.547  -0.284   0.063  1.00  0.00     0.004 C 
ENDBRANCH   3   4
ENDBRANCH   2   3
ENDBRANCH   1   2
BRANCH   1   6
ATOM      6  C   UNL     1       1.983   1.330  -0.249  1.00  0.00     0.179 C 
BRANCH   6   7
ATOM      7  C   UNL     1       0.569   0.821  -0.628  1.00  0.00     0.084 C 
BRANCH   7   8
ATOM      8  N   UNL     1       0.604  -0.572  -1.124  1.00  0.00    -0.325 NA
ATOM      9  H   UNL     1      -0.331  -0.833  -1.440  1.00  0.00     0.119 HD
ATOM     10  H   UNL     1       1.200  -0.619  -1.950  1.00  0.00     0.119 HD
ENDBRANCH   7   8
BRANCH   7  11
ATOM     11  C   UNL     1      -0.414   0.981   0.551  1.00  0.00     0.096 C 
BRANCH  11  12
ATOM     12  C   UNL     1      -1.853   0.744   0.169  1.00  0.00     0.110 A 
ATOM     13  C   UNL     1      -2.589  -0.268   0.646  1.00  0.00     0.051 A 
ATOM     14  O   UNL     1      -2.382   1.701  -0.729  1.00  0.00    -0.427 OA
ATOM     15  C   UNL     1      -3.974  -0.393   0.219  1.00  0.00    -0.008 A 
ATOM     16  C   UNL     1      -3.672   1.651  -1.181  1.00  0.00     0.343 A 
ATOM     17  C   UNL     1      -4.779  -1.437   0.689  1.00  0.00     0.009 A 
ATOM     18  C   UNL     1      -4.510   0.540  -0.672  1.00  0.00     0.067 A 
ATOM     19  C   UNL     1      -6.107  -1.545   0.270  1.00  0.00     0.001 A 
ATOM     20  C   UNL     1      -5.843   0.431  -1.091  1.00  0.00     0.016 A 
ATOM     21  C   UNL     1      -6.639  -0.612  -0.619  1.00  0.00     0.001 A 
ATOM     22  O   UNL     1      -4.115   2.476  -1.971  1.00  0.00    -0.246 OA
ENDBRANCH  11  12
ENDBRANCH   7  11
ENDBRANCH   6   7
ENDBRANCH   1   6
TORSDOF 8
