
     RDKit          3D

 50 53  0  0  0  0  0  0  0  0999 V2000
    6.5917    2.5628   -0.9388 C   0  0  0  0  0  0  0  0  0  0  0  0
    5.3295    3.0359   -1.3880 O   0  0  0  0  0  0  0  0  0  0  0  0
    4.2444    2.2825   -0.8214 C   0  0  0  0  0  0  0  0  0  0  0  0
    2.9491    2.9306   -1.3223 C   0  0  0  0  0  0  0  0  0  0  0  0
    1.7745    2.0952   -0.9408 C   0  0  0  0  0  0  0  0  0  0  0  0
    1.9505    0.7778   -0.7207 C   0  0  0  0  0  0  0  0  0  0  0  0
    0.8026   -0.0930   -0.3160 C   0  0  0  0  0  0  0  0  0  0  0  0
   -0.4154    0.4987   -0.1910 N   0  0  0  0  0  0  0  0  0  0  0  0
   -1.4894   -0.2409    0.1878 C   0  0  0  0  0  0  0  0  0  0  0  0
   -2.7476    0.3502    0.3450 N   0  0  0  0  0  0  0  0  0  0  0  0
   -3.0182    1.4504   -0.5624 C   0  0  0  0  0  0  0  0  0  0  0  0
   -4.4267    1.9430   -0.3639 C   0  0  0  0  0  0  0  0  0  0  0  0
   -4.8954    2.3475    0.8908 C   0  0  0  0  0  0  0  0  0  0  0  0
   -6.1981    2.8175    1.0258 C   0  0  0  0  0  0  0  0  0  0  0  0
   -6.9934    2.8757   -0.1060 C   0  0  0  0  0  0  0  0  0  0  0  0
   -6.5775    2.5042   -1.3357 N   0  0  0  0  0  0  0  0  0  0  0  0
   -5.3072    2.0492   -1.4357 C   0  0  0  0  0  0  0  0  0  0  0  0
   -1.2887   -1.6121    0.4241 C   0  0  0  0  0  0  0  0  0  0  0  0
   -2.1524   -2.6234    0.7903 N   0  0  0  0  0  0  0  0  0  0  0  0
   -1.3973   -3.6999    0.8563 C   0  0  0  0  0  0  0  0  0  0  0  0
   -0.0887   -3.4315    0.5430 N   0  0  0  0  0  0  0  0  0  0  0  0
    0.9893   -4.4100    0.5225 C   0  0  0  0  0  0  0  0  0  0  0  0
    1.5801   -4.5875   -0.8763 C   0  0  0  0  0  0  0  0  0  0  0  0
    2.0721   -4.0964    1.5552 C   0  0  0  0  0  0  0  0  0  0  0  0
   -0.0036   -2.0952    0.2581 C   0  0  0  0  0  0  0  0  0  0  0  0
    1.0812   -1.3980   -0.1044 N   0  0  0  0  0  0  0  0  0  0  0  0
    3.1775    0.1725   -0.9214 N   0  0  0  0  0  0  0  0  0  0  0  0
    4.2306    0.8300   -1.1101 N   0  0  0  0  0  0  0  0  0  0  0  0
    7.3671    3.2142   -1.3512 H   0  0  0  0  0  0  0  0  0  0  0  0
    6.6527    2.5992    0.1532 H   0  0  0  0  0  0  0  0  0  0  0  0
    6.7740    1.5447   -1.2949 H   0  0  0  0  0  0  0  0  0  0  0  0
    4.2962    2.4063    0.2697 H   0  0  0  0  0  0  0  0  0  0  0  0
    2.8572    3.9336   -0.8891 H   0  0  0  0  0  0  0  0  0  0  0  0
    2.9694    3.0642   -2.4107 H   0  0  0  0  0  0  0  0  0  0  0  0
    0.8073    2.5762   -0.8399 H   0  0  0  0  0  0  0  0  0  0  0  0
   -3.4649   -0.3740    0.3682 H   0  0  0  0  0  0  0  0  0  0  0  0
   -2.8807    1.1234   -1.6011 H   0  0  0  0  0  0  0  0  0  0  0  0
   -2.3361    2.2908   -0.3815 H   0  0  0  0  0  0  0  0  0  0  0  0
   -4.2455    2.2901    1.7615 H   0  0  0  0  0  0  0  0  0  0  0  0
   -6.5822    3.1300    1.9901 H   0  0  0  0  0  0  0  0  0  0  0  0
   -8.0171    3.2347   -0.0523 H   0  0  0  0  0  0  0  0  0  0  0  0
   -5.0123    1.7631   -2.4421 H   0  0  0  0  0  0  0  0  0  0  0  0
   -1.7433   -4.6910    1.1227 H   0  0  0  0  0  0  0  0  0  0  0  0
    0.5332   -5.3672    0.8083 H   0  0  0  0  0  0  0  0  0  0  0  0
    0.7951   -4.8122   -1.6068 H   0  0  0  0  0  0  0  0  0  0  0  0
    2.2981   -5.4144   -0.8883 H   0  0  0  0  0  0  0  0  0  0  0  0
    2.1034   -3.6878   -1.2162 H   0  0  0  0  0  0  0  0  0  0  0  0
    2.8026   -4.9108    1.6057 H   0  0  0  0  0  0  0  0  0  0  0  0
    2.6153   -3.1774    1.3118 H   0  0  0  0  0  0  0  0  0  0  0  0
    1.6369   -3.9718    2.5528 H   0  0  0  0  0  0  0  0  0  0  0  0
  1  2  1  0
  2  3  1  0
  3  4  1  0
  4  5  1  0
  5  6  2  0
  6  7  1  0
  7  8  2  0
  8  9  1  0
  9 10  1  0
 10 11  1  0
 11 12  1  0
 12 13  2  0
 13 14  1  0
 14 15  2  0
 15 16  1  0
 16 17  2  0
  9 18  2  0
 18 19  1  0
 19 20  2  0
 20 21  1  0
 21 22  1  0
 22 23  1  0
 22 24  1  0
 21 25  1  0
 25 26  2  0
  6 27  1  0
 27 28  2  0
 28  3  1  0
 26  7  1  0
 17 12  1  0
 25 18  1  0
  1 29  1  0
  1 30  1  0
  1 31  1  0
  3 32  1  0
  4 33  1  0
  4 34  1  0
  5 35  1  0
 10 36  1  0
 11 37  1  0
 11 38  1  0
 13 39  1  0
 14 40  1  0
 15 41  1  0
 17 42  1  0
 20 43  1  0
 22 44  1  0
 23 45  1  0
 23 46  1  0
 23 47  1  0
 24 48  1  0
 24 49  1  0
 24 50  1  0
M  END
$$$$
