
     RDKit          3D

 55 58  0  0  0  0  0  0  0  0999 V2000
    2.3938   -2.3137   -0.4554 C   0  0  0  0  0  0  0  0  0  0  0  0
    2.9943   -0.9947   -0.0428 C   0  0  0  0  0  0  0  0  0  0  0  0
    4.3878   -0.9021    0.1244 C   0  0  0  0  0  0  0  0  0  0  0  0
    4.9899    0.3058    0.4917 C   0  0  0  0  0  0  0  0  0  0  0  0
    6.4432    0.3797    0.6505 C   0  0  0  0  0  0  0  0  0  0  0  0
    7.2943    0.8302   -0.2799 C   0  0  0  0  0  0  0  0  0  0  0  0
    6.9332    1.4183   -1.8605 S   0  0  0  0  0  0  0  0  0  0  0  0
    8.6220    1.7113   -2.2224 C   0  0  0  0  0  0  0  0  0  0  0  0
    9.0321    2.1567   -3.2805 O   0  0  0  0  0  0  0  0  0  0  0  0
    9.3866    1.3682   -1.1552 N   0  0  0  0  0  0  0  0  0  0  0  0
    8.7620    0.8726   -0.0501 C   0  0  0  0  0  0  0  0  0  0  0  0
    9.3292    0.5179    0.9705 O   0  0  0  0  0  0  0  0  0  0  0  0
    4.1974    1.4348    0.6973 C   0  0  0  0  0  0  0  0  0  0  0  0
    2.8130    1.3554    0.5346 C   0  0  0  0  0  0  0  0  0  0  0  0
    2.1911    0.1486    0.1665 C   0  0  0  0  0  0  0  0  0  0  0  0
    0.7311    0.1225   -0.0016 C   0  0  0  0  0  0  0  0  0  0  0  0
    0.1696    0.3801   -1.2557 C   0  0  0  0  0  0  0  0  0  0  0  0
   -1.2131    0.3554   -1.4219 C   0  0  0  0  0  0  0  0  0  0  0  0
   -2.0293    0.0823   -0.3308 C   0  0  0  0  0  0  0  0  0  0  0  0
   -3.4192    0.0388   -0.5425 N   0  0  0  0  0  0  0  0  0  0  0  0
   -4.2040   -0.2346    0.6585 C   0  0  0  0  0  0  0  0  0  0  0  0
   -5.7059   -0.3439    0.3436 C   0  0  0  0  0  0  0  0  0  0  0  0
   -6.3259    0.9903   -0.0950 C   0  0  0  0  0  0  0  0  0  0  0  0
   -7.8051    0.8076   -0.4137 C   0  0  0  0  0  0  0  0  0  0  0  0
   -7.9855   -0.1941   -1.4132 O   0  0  0  0  0  0  0  0  0  0  0  0
   -7.5142   -1.4731   -0.9882 C   0  0  0  0  0  0  0  0  0  0  0  0
   -6.0195   -1.4310   -0.6944 C   0  0  0  0  0  0  0  0  0  0  0  0
   -1.5105   -0.1747    0.8852 N   0  0  0  0  0  0  0  0  0  0  0  0
   -0.1588   -0.1510    1.0457 C   0  0  0  0  0  0  0  0  0  0  0  0
    0.3307   -0.4401    2.4368 C   0  0  0  0  0  0  0  0  0  0  0  0
    1.6603   -2.6510    0.2836 H   0  0  0  0  0  0  0  0  0  0  0  0
    1.9140   -2.2235   -1.4350 H   0  0  0  0  0  0  0  0  0  0  0  0
    3.1578   -3.0943   -0.5342 H   0  0  0  0  0  0  0  0  0  0  0  0
    5.0084   -1.7813   -0.0409 H   0  0  0  0  0  0  0  0  0  0  0  0
    6.8180    0.0247    1.6091 H   0  0  0  0  0  0  0  0  0  0  0  0
   10.3876    1.4671   -1.1868 H   0  0  0  0  0  0  0  0  0  0  0  0
    4.6456    2.3842    0.9807 H   0  0  0  0  0  0  0  0  0  0  0  0
    2.2121    2.2494    0.6947 H   0  0  0  0  0  0  0  0  0  0  0  0
    0.8072    0.5933   -2.1102 H   0  0  0  0  0  0  0  0  0  0  0  0
   -1.6452    0.5345   -2.4006 H   0  0  0  0  0  0  0  0  0  0  0  0
   -3.6978    0.8990   -1.0047 H   0  0  0  0  0  0  0  0  0  0  0  0
   -3.8841   -1.1843    1.1069 H   0  0  0  0  0  0  0  0  0  0  0  0
   -4.0518    0.5587    1.4015 H   0  0  0  0  0  0  0  0  0  0  0  0
   -6.1990   -0.6344    1.2827 H   0  0  0  0  0  0  0  0  0  0  0  0
   -5.8205    1.3579   -0.9958 H   0  0  0  0  0  0  0  0  0  0  0  0
   -6.2022    1.7472    0.6875 H   0  0  0  0  0  0  0  0  0  0  0  0
   -8.3772    0.5379    0.4819 H   0  0  0  0  0  0  0  0  0  0  0  0
   -8.2203    1.7438   -0.8006 H   0  0  0  0  0  0  0  0  0  0  0  0
   -7.7151   -2.1868   -1.7935 H   0  0  0  0  0  0  0  0  0  0  0  0
   -8.0844   -1.7975   -0.1097 H   0  0  0  0  0  0  0  0  0  0  0  0
   -5.4889   -1.2132   -1.6294 H   0  0  0  0  0  0  0  0  0  0  0  0
   -5.6793   -2.4103   -0.3403 H   0  0  0  0  0  0  0  0  0  0  0  0
    0.9775   -1.3224    2.4435 H   0  0  0  0  0  0  0  0  0  0  0  0
   -0.5110   -0.6407    3.1085 H   0  0  0  0  0  0  0  0  0  0  0  0
    0.8780    0.4184    2.8377 H   0  0  0  0  0  0  0  0  0  0  0  0
  1  2  1  0
  2  3  2  0
  3  4  1  0
  4  5  1  0
  5  6  2  0
  6  7  1  0
  7  8  1  0
  8  9  2  0
  8 10  1  0
 10 11  1  0
 11 12  2  0
  4 13  2  0
 13 14  1  0
 14 15  2  0
 15 16  1  0
 16 17  2  0
 17 18  1  0
 18 19  2  0
 19 20  1  0
 20 21  1  0
 21 22  1  0
 22 23  1  0
 23 24  1  0
 24 25  1  0
 25 26  1  0
 26 27  1  0
 19 28  1  0
 28 29  2  0
 29 30  1  0
 15  2  1  0
 29 16  1  0
 11  6  1  0
 27 22  1  0
  1 31  1  0
  1 32  1  0
  1 33  1  0
  3 34  1  0
  5 35  1  0
 10 36  1  0
 13 37  1  0
 14 38  1  0
 17 39  1  0
 18 40  1  0
 20 41  1  0
 21 42  1  0
 21 43  1  0
 22 44  1  0
 23 45  1  0
 23 46  1  0
 24 47  1  0
 24 48  1  0
 26 49  1  0
 26 50  1  0
 27 51  1  0
 27 52  1  0
 30 53  1  0
 30 54  1  0
 30 55  1  0
M  END
$$$$
