
     RDKit          3D

 36 38  0  0  0  0  0  0  0  0999 V2000
   -5.9314    1.6719    0.4757 O   0  0  0  0  0  0  0  0  0  0  0  0
   -4.7972    1.7333   -0.0204 N   0  0  0  0  0  0  0  0  0  0  0  0
   -4.2686    2.7721   -0.4414 O   0  0  0  0  0  0  0  0  0  0  0  0
   -4.0489    0.4901   -0.1264 C   0  0  0  0  0  0  0  0  0  0  0  0
   -4.7369   -0.7073   -0.3636 C   0  0  0  0  0  0  0  0  0  0  0  0
   -4.0180   -1.8891   -0.4574 C   0  0  0  0  0  0  0  0  0  0  0  0
   -4.7258   -3.0325   -0.6930 O   0  0  0  0  0  0  0  0  0  0  0  0
   -2.6281   -1.9247   -0.3193 C   0  0  0  0  0  0  0  0  0  0  0  0
   -1.9704   -0.7087   -0.0762 C   0  0  0  0  0  0  0  0  0  0  0  0
   -0.6324   -0.4523    0.1041 N   0  0  0  0  0  0  0  0  0  0  0  0
   -0.4063    0.8868    0.3283 C   0  0  0  0  0  0  0  0  0  0  0  0
    0.9415    1.3990    0.5549 C   0  0  0  0  0  0  0  0  0  0  0  0
    1.1879    2.6881    0.9631 C   0  0  0  0  0  0  0  0  0  0  0  0
    2.5104    2.9963    1.1518 C   0  0  0  0  0  0  0  0  0  0  0  0
    3.5126    2.1204    0.9548 N   0  0  0  0  0  0  0  0  0  0  0  0
    3.1736    0.8916    0.5511 C   0  0  0  0  0  0  0  0  0  0  0  0
    4.2357    0.0130    0.3643 N   0  0  0  0  0  0  0  0  0  0  0  0
    4.1600   -0.7612   -0.8761 C   0  0  0  0  0  0  0  0  0  0  0  0
    3.4155   -2.0823   -0.6537 C   0  0  0  0  0  0  0  0  0  0  0  0
    3.9627   -2.7687    0.4718 O   0  0  0  0  0  0  0  0  0  0  0  0
    1.9160    0.4904    0.3382 N   0  0  0  0  0  0  0  0  0  0  0  0
   -1.6453    1.5009    0.2903 C   0  0  0  0  0  0  0  0  0  0  0  0
   -2.6431    0.5128    0.0274 C   0  0  0  0  0  0  0  0  0  0  0  0
   -5.8183   -0.7238   -0.4752 H   0  0  0  0  0  0  0  0  0  0  0  0
   -4.1136   -3.7870   -0.7156 H   0  0  0  0  0  0  0  0  0  0  0  0
   -2.0693   -2.8518   -0.3921 H   0  0  0  0  0  0  0  0  0  0  0  0
    0.1096   -1.1401    0.0897 H   0  0  0  0  0  0  0  0  0  0  0  0
    0.4073    3.4139    1.1380 H   0  0  0  0  0  0  0  0  0  0  0  0
    2.8160    3.9855    1.4803 H   0  0  0  0  0  0  0  0  0  0  0  0
    5.0546    0.6164    0.4074 H   0  0  0  0  0  0  0  0  0  0  0  0
    5.1912   -1.0000   -1.1632 H   0  0  0  0  0  0  0  0  0  0  0  0
    3.7212   -0.1905   -1.7035 H   0  0  0  0  0  0  0  0  0  0  0  0
    3.5135   -2.7281   -1.5314 H   0  0  0  0  0  0  0  0  0  0  0  0
    2.3500   -1.9275   -0.4669 H   0  0  0  0  0  0  0  0  0  0  0  0
    4.0968   -2.0676    1.1428 H   0  0  0  0  0  0  0  0  0  0  0  0
   -1.8226    2.5608    0.4283 H   0  0  0  0  0  0  0  0  0  0  0  0
  1  2  2  0
  2  3  1  0
  2  4  1  0
  4  5  2  0
  5  6  1  0
  6  7  1  0
  6  8  2  0
  8  9  1  0
  9 10  1  0
 10 11  1  0
 11 12  1  0
 12 13  2  0
 13 14  1  0
 14 15  2  0
 15 16  1  0
 16 17  1  0
 17 18  1  0
 18 19  1  0
 19 20  1  0
 16 21  2  0
 11 22  2  0
 22 23  1  0
 23  4  1  0
 23  9  2  0
 21 12  1  0
  5 24  1  0
  7 25  1  0
  8 26  1  0
 10 27  1  0
 13 28  1  0
 14 29  1  0
 17 30  1  0
 18 31  1  0
 18 32  1  0
 19 33  1  0
 19 34  1  0
 20 35  1  0
 22 36  1  0
M  CHG  2   2   1   3  -1
M  END
$$$$
