MODEL        8USER    Run = 8USERUSER    Estimated Free Energy of Binding    =  -8.75 kcal/mol  [=(1)+(2)+(3)-(4)]USERUSER    (1) Final Intermolecular Energy     = -12.03 kcal/molUSER        vdW + Hbond + desolv Energy     = -11.47 kcal/molUSER        Electrostatic Energy            =  -0.55 kcal/molUSER        Moving Ligand-Fixed Receptor    = -12.03 kcal/molUSER        Moving Ligand-Moving Receptor   =  +0.00 kcal/molUSER    (2) Final Total Internal Energy     =  -1.47 kcal/molUSER    (3) Torsional Free Energy           =  +3.28 kcal/molUSER    (4) Unbound System's Energy         =  -1.47 kcal/molUSERUSERREMARK SMILES O=C(O)CCCC(=O)C=Cc1ccc2cnn(CS)c2cnncc1OREMARK SMILES IDX 7 1 8 2 6 3 5 4 4 5 2 6 1 7 3 8 9 10 10 11 11 12 12 13 25 14REMARK SMILES IDX 13 15 24 16 14 17 23 18 15 19 20 20 22 21 16 22 17 23 21 24REMARK SMILES IDX 26 25 18 27 19 28REMARK H PARENT 3 9 26 26 19 29USER                              x       y       z     vdW  Elec       q    TypeUSER                           _______ _______ _______ _____ _____    ______ ____ROOTATOM      1  C   UNL     1      37.486  47.096  13.548 -0.47 -0.06    +0.155 C  ATOM      2  O   UNL     1      37.483  47.632  12.434 -1.02 +0.04    -0.295 OA ENDROOTBRANCH   1   3ATOM      3  C   UNL     1      38.710  47.107  14.454 -0.47 -0.02    +0.081 C  BRANCH   3   4ATOM      4  C   UNL     1      39.040  48.503  14.977 -0.60 -0.01    +0.020 C  BRANCH   4   5ATOM      5  C   UNL     1      40.457  48.913  14.590 -0.53 -0.03    +0.123 C  BRANCH   5   6ATOM      6  C   UNL     1      41.237  49.333  15.804 -0.39 -0.03    +0.303 C  ATOM      7  O   UNL     1      41.388  48.707  16.841 -0.96 +0.00    -0.252 OA BRANCH   6   8ATOM      8  O   UNL     1      41.822  50.541  15.664 -0.63 +0.06    -0.481 OA ATOM      9  H   UNL     1      41.412  51.066  16.380 -0.34 -0.13    +0.296 HD ENDBRANCH   6   8ENDBRANCH   5   6ENDBRANCH   4   5ENDBRANCH   3   4ENDBRANCH   1   3BRANCH   1  10ATOM     10  C   UNL     1      36.240  46.428  14.011 -0.49 -0.03    +0.048 C  BRANCH  10  11ATOM     11  C   UNL     1      36.253  45.487  14.964 -0.43 -0.01    +0.015 C  BRANCH  11  12ATOM     12  C   UNL     1      36.008  45.626  16.408 -0.34 -0.01    +0.018 A  ATOM     13  C   UNL     1      37.047  45.507  17.275 -0.34 -0.00    +0.013 A  ATOM     14  C   UNL     1      34.728  45.718  16.851 -0.24 -0.12    +0.142 A  ATOM     15  C   UNL     1      37.014  44.893  18.479 -0.33 -0.00    +0.013 A  ATOM     16  C   UNL     1      33.692  44.940  16.440 -0.19 -0.12    +0.182 A  ATOM     17  C   UNL     1      35.828  43.997  18.963 -0.35 -0.00    +0.022 A  ATOM     18  N   UNL     1      33.529  43.715  15.859 -0.24 +0.08    -0.155 NA ATOM     19  C   UNL     1      35.159  44.081  20.194 -0.22 -0.01    +0.144 A  ATOM     20  C   UNL     1      35.177  43.005  18.265 -0.30 -0.02    +0.089 A  ATOM     21  N   UNL     1      34.727  42.874  15.697 -0.23 +0.07    -0.157 NA ATOM     22  N   UNL     1      34.107  43.250  20.278 -0.65 -0.02    -0.179 NA ATOM     23  N   UNL     1      34.095  42.669  19.025 -0.22 +0.03    -0.253 N  ATOM     24  C   UNL     1      35.435  42.504  16.795 -0.32 -0.06    +0.164 A  BRANCH  14  25ATOM     25  O   UNL     1      34.456  46.534  17.968 -0.27 +0.46    -0.506 OA ATOM     26  H   UNL     1      33.831  47.162  17.563 -0.32 -0.55    +0.293 HD ENDBRANCH  14  25BRANCH  23  27ATOM     27  C   UNL     1      32.953  41.899  18.554 -0.31 -0.03    +0.210 C  BRANCH  27  28ATOM     28  S   UNL     1      31.558  42.975  18.027 -0.34 +0.03    -0.156 SA ATOM     29  H   UNL     1      32.046  43.111  16.783 +0.06 -0.04    +0.104 HD ENDBRANCH  27  28ENDBRANCH  23  27ENDBRANCH  11  12ENDBRANCH  10  11ENDBRANCH   1  10TORSDOF 11TERENDMDL