REMARK SMILES Cc1cc(CN2C=C(Br)[C@@H]3NC(C4CC4)=C[C@@H]32)ccc1C(=O)O
REMARK SMILES IDX 1 1 2 2 3 3 4 4 18 5 19 6 20 7 21 8 22 9 23 10 5 12 6 13
REMARK SMILES IDX 7 14 17 15 8 16 16 17 10 18 12 19 11 20 9 21 13 23 14 24
REMARK SMILES IDX 15 25
REMARK H PARENT 23 11 11 22
ROOT
ATOM      1  C   UNL     1       4.916   0.922   0.087  1.00  0.00     0.045 C 
ATOM      2  C   UNL     1       3.781   0.147   0.697  1.00  0.00    -0.036 A 
ATOM      3  C   UNL     1       2.527   0.778   0.810  1.00  0.00     0.009 A 
ATOM      4  C   UNL     1       1.423   0.129   1.388  1.00  0.00    -0.028 A 
ATOM      5  C   UNL     1       1.579  -1.179   1.857  1.00  0.00     0.006 A 
ATOM      6  C   UNL     1       2.811  -1.825   1.742  1.00  0.00     0.016 A 
ATOM      7  C   UNL     1       3.910  -1.179   1.150  1.00  0.00     0.062 A 
ENDROOT
BRANCH   7   8
ATOM      8  C   UNL     1       5.161  -1.977   1.077  1.00  0.00     0.335 C 
ATOM      9  O   UNL     1       5.478  -2.863   1.849  1.00  0.00    -0.246 OA
BRANCH   8  10
ATOM     10  O   UNL     1       5.916  -1.692   0.003  1.00  0.00    -0.478 OA
ATOM     11  H   UNL     1       6.663  -2.322   0.070  1.00  0.00     0.297 HD
ENDBRANCH   8  10
ENDBRANCH   7   8
BRANCH   4  12
ATOM     12  C   UNL     1       0.088   0.833   1.499  1.00  0.00     0.152 C 
BRANCH  12  13
ATOM     13  N   UNL     1      -0.522   1.023   0.200  1.00  0.00    -0.363 N 
ATOM     14  C   UNL     1      -0.503   2.168  -0.571  1.00  0.00     0.095 C 
ATOM     15  C   UNL     1      -1.000  -0.116  -0.595  1.00  0.00     0.134 C 
ATOM     16  C   UNL     1      -0.992   1.963  -1.800  1.00  0.00     0.036 C 
ATOM     17  C   UNL     1      -2.313  -0.636  -0.091  1.00  0.00     0.021 C 
ATOM     18  C   UNL     1      -1.403   0.528  -1.985  1.00  0.00     0.144 C 
ATOM     19  C   UNL     1      -3.309  -0.361  -0.947  1.00  0.00     0.012 C 
ATOM     20  N   UNL     1      -2.863   0.389  -2.021  1.00  0.00    -0.379 N 
ATOM     21  Br  UNL     1      -1.124   3.173  -3.176  1.00  0.00    -0.052 Br
ATOM     22  H   UNL     1      -3.305   0.190  -2.911  1.00  0.00     0.161 HD
BRANCH  19  23
ATOM     23  C   UNL     1      -4.707  -0.767  -0.861  1.00  0.00     0.035 C 
ATOM     24  C   UNL     1      -5.553  -0.228   0.266  1.00  0.00     0.010 C 
ATOM     25  C   UNL     1      -5.794   0.241  -1.138  1.00  0.00     0.010 C 
ENDBRANCH  19  23
ENDBRANCH  12  13
ENDBRANCH   4  12
TORSDOF 5
