MODEL        8USER    Run = 8USERUSER    Estimated Free Energy of Binding    =  -9.75 kcal/mol  [=(1)+(2)+(3)-(4)]USERUSER    (1) Final Intermolecular Energy     = -11.24 kcal/molUSER        vdW + Hbond + desolv Energy     = -11.02 kcal/molUSER        Electrostatic Energy            =  -0.22 kcal/molUSER        Moving Ligand-Fixed Receptor    = -11.24 kcal/molUSER        Moving Ligand-Moving Receptor   =  +0.00 kcal/molUSER    (2) Final Total Internal Energy     =  -0.80 kcal/molUSER    (3) Torsional Free Energy           =  +1.49 kcal/molUSER    (4) Unbound System's Energy         =  -0.80 kcal/molUSERUSERREMARK SMILES Cc1cc(CN2C=C(Br)[C@@H]3NC(C4CC4)=C[C@@H]32)ccc1C(=O)OREMARK SMILES IDX 1 1 2 2 3 3 4 4 18 5 19 6 20 7 21 8 22 9 23 10 5 12 6 13REMARK SMILES IDX 7 14 17 15 8 16 16 17 10 18 12 19 11 20 9 21 13 23 14 24REMARK SMILES IDX 15 25REMARK H PARENT 23 11 11 22USER                              x       y       z     vdW  Elec       q    TypeUSER                           _______ _______ _______ _____ _____    ______ ____ROOTATOM      1  C   UNL     1      33.724  41.592  17.573 -0.41 -0.02    +0.045 C  ATOM      2  C   UNL     1      34.361  42.930  17.829 -0.34 +0.01    -0.036 A  ATOM      3  C   UNL     1      35.623  43.188  17.259 -0.36 -0.00    +0.009 A  ATOM      4  C   UNL     1      36.293  44.404  17.470 -0.30 +0.01    -0.028 A  ATOM      5  C   UNL     1      35.685  45.381  18.264 -0.33 -0.00    +0.006 A  ATOM      6  C   UNL     1      34.430  45.148  18.827 -0.41 -0.01    +0.016 A  ATOM      7  C   UNL     1      33.754  43.936  18.603 -0.32 -0.01    +0.062 A  ENDROOTBRANCH   7   8ATOM      8  C   UNL     1      32.421  43.815  19.248 -0.23 -0.03    +0.335 C  ATOM      9  O   UNL     1      31.374  43.597  18.667 -0.24 +0.02    -0.246 OA BRANCH   8  10ATOM     10  O   UNL     1      32.466  43.888  20.588 -0.64 -0.04    -0.478 OA ATOM     11  H   UNL     1      32.804  44.792  20.761 -0.31 -0.07    +0.297 HD ENDBRANCH   8  10ENDBRANCH   7   8BRANCH   4  12ATOM     12  C   UNL     1      37.650  44.653  16.846 -0.29 -0.04    +0.152 C  BRANCH  12  13ATOM     13  N   UNL     1      37.603  45.737  15.887 -0.11 +0.14    -0.363 N  ATOM     14  C   UNL     1      37.123  45.685  14.594 -0.39 -0.04    +0.095 C  ATOM     15  C   UNL     1      37.804  47.132  16.299 -0.33 -0.07    +0.134 C  ATOM     16  C   UNL     1      37.042  46.898  14.032 -0.51 -0.02    +0.036 C  ATOM     17  C   UNL     1      39.253  47.443  16.529 -0.51 -0.01    +0.021 C  ATOM     18  C   UNL     1      37.483  47.968  14.992 -0.45 -0.10    +0.144 C  ATOM     19  C   UNL     1      39.735  48.258  15.579 -0.61 -0.00    +0.012 C  ATOM     20  N   UNL     1      38.785  48.527  14.610 -0.22 +0.18    -0.379 N  ATOM     21  Br  UNL     1      36.424  47.323  12.355 -1.24 +0.02    -0.052 Br ATOM     22  H   UNL     1      38.810  49.461  14.216 -0.35 -0.13    +0.161 HD BRANCH  19  23ATOM     23  C   UNL     1      41.064  48.853  15.494 -0.65 -0.00    +0.035 C  ATOM     24  C   UNL     1      41.426  49.653  14.267 -0.74 -0.00    +0.010 C  ATOM     25  C   UNL     1      41.217  50.351  15.578 -0.71 -0.00    +0.010 C  ENDBRANCH  19  23ENDBRANCH  12  13ENDBRANCH   4  12TORSDOF 5TERENDMDL