REMARK SMILES CCCN(Cc1ccncn1)C(=O)N1CCN(c2nccn2CC)CC1
REMARK SMILES IDX 12 1 13 2 14 3 15 4 16 5 17 6 25 7 26 8 4 9 3 10 2 11 1 12
REMARK SMILES IDX 5 13 6 14 7 15 11 16 8 17 10 18 9 19 18 20 19 21 22 22 20 23
REMARK SMILES IDX 21 24 23 25 24 26
REMARK H PARENT
ROOT
ATOM      1  C   UNL     1      -0.899   0.631   1.641  1.00  0.00     0.320 C 
ATOM      2  O   UNL     1      -0.648   1.711   2.171  1.00  0.00    -0.248 OA
ATOM      3  N   UNL     1       0.097  -0.299   1.370  1.00  0.00    -0.321 N 
ATOM      4  C   UNL     1       0.185  -0.863   0.011  1.00  0.00     0.143 C 
ATOM      5  C   UNL     1       1.016   0.051  -0.919  1.00  0.00     0.141 C 
ATOM      6  N   UNL     1       2.356   0.382  -0.359  1.00  0.00    -0.339 N 
ATOM      7  C   UNL     1       2.248   0.906   1.031  1.00  0.00     0.141 C 
ATOM      8  C   UNL     1       1.422  -0.035   1.933  1.00  0.00     0.143 C 
ENDROOT
BRANCH   1   9
ATOM      9  N   UNL     1      -2.191   0.249   1.294  1.00  0.00    -0.319 N 
BRANCH   9  10
ATOM     10  C   UNL     1      -2.648  -1.128   1.517  1.00  0.00     0.121 C 
BRANCH  10  11
ATOM     11  C   UNL     1      -3.560  -1.683   0.422  1.00  0.00     0.018 C 
ATOM     12  C   UNL     1      -3.816  -3.173   0.616  1.00  0.00     0.006 C 
ENDBRANCH  10  11
ENDBRANCH   9  10
BRANCH   9  13
ATOM     13  C   UNL     1      -3.207   1.306   1.245  1.00  0.00     0.177 C 
BRANCH  13  14
ATOM     14  C   UNL     1      -3.780   1.520  -0.144  1.00  0.00     0.063 A 
ATOM     15  C   UNL     1      -5.149   1.649  -0.313  1.00  0.00     0.046 A 
ATOM     16  N   UNL     1      -2.917   1.631  -1.184  1.00  0.00    -0.240 NA
ATOM     17  C   UNL     1      -5.588   1.881  -1.599  1.00  0.00     0.115 A 
ATOM     18  C   UNL     1      -3.458   1.867  -2.390  1.00  0.00     0.221 A 
ATOM     19  N   UNL     1      -4.767   1.995  -2.657  1.00  0.00    -0.245 NA
ENDBRANCH  13  14
ENDBRANCH   9  13
ENDBRANCH   1   9
BRANCH   6  20
ATOM     20  C   UNL     1       3.307  -0.575  -0.543  1.00  0.00     0.205 A 
ATOM     21  N   UNL     1       3.136  -1.878  -0.579  1.00  0.00    -0.221 NA
ATOM     22  N   UNL     1       4.629  -0.255  -0.760  1.00  0.00    -0.318 N 
ATOM     23  C   UNL     1       4.381  -2.419  -0.776  1.00  0.00     0.133 A 
ATOM     24  C   UNL     1       5.327  -1.431  -0.893  1.00  0.00     0.109 A 
BRANCH  22  25
ATOM     25  C   UNL     1       5.200   1.065  -0.937  1.00  0.00     0.122 C 
ATOM     26  C   UNL     1       6.038   1.510   0.249  1.00  0.00     0.028 C 
ENDBRANCH  22  25
ENDBRANCH   6  20
TORSDOF 7
