MODEL        2USER    Run = 2USERUSER    Estimated Free Energy of Binding    =  -8.40 kcal/mol  [=(1)+(2)+(3)-(4)]USERUSER    (1) Final Intermolecular Energy     =  -9.89 kcal/molUSER        vdW + Hbond + desolv Energy     =  -9.47 kcal/molUSER        Electrostatic Energy            =  -0.42 kcal/molUSER        Moving Ligand-Fixed Receptor    =  -9.89 kcal/molUSER        Moving Ligand-Moving Receptor   =  +0.00 kcal/molUSER    (2) Final Total Internal Energy     =  -1.54 kcal/molUSER    (3) Torsional Free Energy           =  +1.49 kcal/molUSER    (4) Unbound System's Energy         =  -1.54 kcal/molUSERUSERREMARK SMILES NOc1ccc(Cl)cc1C(=O)NCc1cccc(Br)c1REMARK SMILES IDX 3 1 4 2 5 3 6 4 7 5 8 6 9 7 2 8 1 9 10 12 12 13 11 14 13 16REMARK SMILES IDX 14 17 15 18 20 19 16 20 18 21 17 22 19 23REMARK H PARENT 1 10 1 11 12 15USER                              x       y       z     vdW  Elec       q    TypeUSER                           _______ _______ _______ _____ _____    ______ ____ROOTATOM      1  C   UNL     1      34.432  45.389  18.178 -0.31 -0.08    +0.159 A  ATOM      2  C   UNL     1      33.671  44.829  19.208 -0.32 -0.02    +0.051 A  ATOM      3  C   UNL     1      33.110  43.561  19.049 -0.39 -0.00    +0.024 A  ATOM      4  C   UNL     1      33.325  42.853  17.866 -0.32 -0.01    +0.042 A  ATOM      5  Cl  UNL     1      32.640  41.286  17.677 -0.51 +0.03    -0.084 Cl ATOM      6  C   UNL     1      34.095  43.398  16.839 -0.32 -0.02    +0.038 A  ATOM      7  C   UNL     1      34.653  44.675  16.992 -0.25 -0.04    +0.085 A  ENDROOTBRANCH   1   8ATOM      8  O   UNL     1      34.970  46.632  18.399 -0.34 +0.26    -0.411 OA BRANCH   8   9ATOM      9  N   UNL     1      33.891  47.612  18.316 -0.89 +0.21    -0.170 NA ATOM     10  H   UNL     1      33.388  47.235  17.508 -0.46 -0.34    +0.164 HD ATOM     11  H   UNL     1      34.406  48.421  17.965 -0.40 -0.35    +0.164 HD ENDBRANCH   8   9ENDBRANCH   1   8BRANCH   7  12ATOM     12  C   UNL     1      35.501  45.242  15.913 -0.22 -0.16    +0.255 C  ATOM     13  N   UNL     1      35.507  46.619  15.827 -0.10 +0.40    -0.348 N  ATOM     14  O   UNL     1      36.149  44.519  15.166 -0.25 +0.11    -0.269 OA ATOM     15  H   UNL     1      35.166  47.153  16.616 -0.06 -0.28    +0.164 HD BRANCH  13  16ATOM     16  C   UNL     1      36.397  47.286  14.907 -0.31 -0.13    +0.152 C  BRANCH  16  17ATOM     17  C   UNL     1      37.762  47.450  15.516 -0.43 +0.02    -0.028 A  ATOM     18  C   UNL     1      38.121  46.720  16.659 -0.38 -0.00    +0.005 A  ATOM     19  C   UNL     1      38.711  48.297  14.924 -0.52 -0.01    +0.021 A  ATOM     20  C   UNL     1      39.396  46.849  17.213 -0.45 -0.00    +0.002 A  ATOM     21  C   UNL     1      39.984  48.420  15.482 -0.56 -0.01    +0.018 A  ATOM     22  C   UNL     1      40.330  47.700  16.624 -0.52 -0.00    +0.016 A  ATOM     23  Br  UNL     1      41.252  49.569  14.678 -1.18 +0.01    -0.051 Br ENDBRANCH  16  17ENDBRANCH  13  16ENDBRANCH   7  12TORSDOF 5TERENDMDL