MODEL        1USER    Run = 1USERUSER    Estimated Free Energy of Binding    =  -7.63 kcal/mol  [=(1)+(2)+(3)-(4)]USERUSER    (1) Final Intermolecular Energy     =  -9.72 kcal/molUSER        vdW + Hbond + desolv Energy     =  -9.65 kcal/molUSER        Electrostatic Energy            =  -0.07 kcal/molUSER        Moving Ligand-Fixed Receptor    =  -9.72 kcal/molUSER        Moving Ligand-Moving Receptor   =  +0.00 kcal/molUSER    (2) Final Total Internal Energy     =  -1.23 kcal/molUSER    (3) Torsional Free Energy           =  +2.09 kcal/molUSER    (4) Unbound System's Energy         =  -1.23 kcal/molUSERUSERREMARK SMILES CCCN(Cc1ccncn1)C(=O)N1CCN(c2nccn2CC)CC1REMARK SMILES IDX 12 1 13 2 14 3 15 4 16 5 17 6 25 7 26 8 4 9 3 10 2 11 1 12REMARK SMILES IDX 5 13 6 14 7 15 11 16 8 17 10 18 9 19 18 20 19 21 22 22 20 23REMARK SMILES IDX 21 24 23 25 24 26REMARK H PARENTUSER                              x       y       z     vdW  Elec       q    TypeUSER                           _______ _______ _______ _____ _____    ______ ____ROOTATOM      1  C   UNL     1      40.252  46.312  16.467 -0.27 -0.04    +0.320 C  ATOM      2  O   UNL     1      41.226  45.605  16.218 -0.11 -0.03    -0.248 OA ATOM      3  N   UNL     1      39.774  46.466  17.763 -0.24 +0.05    -0.321 N  ATOM      4  C   UNL     1      38.338  46.248  18.015 -0.22 -0.04    +0.143 C  ATOM      5  C   UNL     1      38.036  44.752  18.260 -0.34 -0.02    +0.141 C  ATOM      6  N   UNL     1      38.892  44.155  19.323 -0.12 +0.02    -0.339 N  ATOM      7  C   UNL     1      40.335  44.426  19.073 -0.36 +0.00    +0.141 C  ATOM      8  C   UNL     1      40.601  45.929  18.844 -0.43 -0.00    +0.143 C  ENDROOTBRANCH   1   9ATOM      9  N   UNL     1      39.572  47.023  15.484 -0.22 +0.08    -0.319 N  BRANCH   9  10ATOM     10  C   UNL     1      39.639  48.489  15.442 -0.52 -0.05    +0.121 C  BRANCH  10  11ATOM     11  C   UNL     1      41.017  49.074  15.755 -0.70 -0.00    +0.018 C  ATOM     12  C   UNL     1      41.535  49.923  14.600 -0.77 -0.00    +0.006 C  ENDBRANCH  10  11ENDBRANCH   9  10BRANCH   9  13ATOM     13  C   UNL     1      39.281  46.317  14.232 -0.27 -0.03    +0.177 C  BRANCH  13  14ATOM     14  C   UNL     1      37.879  46.575  13.712 -0.41 -0.02    +0.063 A  ATOM     15  C   UNL     1      36.796  45.953  14.311 -0.38 -0.02    +0.046 A  ATOM     16  N   UNL     1      37.724  47.460  12.696 -0.91 +0.04    -0.240 NA ATOM     17  C   UNL     1      35.552  46.270  13.807 -0.38 -0.08    +0.115 A  ATOM     18  C   UNL     1      36.465  47.698  12.294 -0.45 -0.09    +0.221 A  ATOM     19  N   UNL     1      35.356  47.138  12.801 -0.34 +0.17    -0.245 NA ENDBRANCH  13  14ENDBRANCH   9  13ENDBRANCH   1   9BRANCH   6  20ATOM     20  C   UNL     1      38.472  44.389  20.596 -0.23 -0.00    +0.205 A  ATOM     21  N   UNL     1      38.846  45.363  21.397 -0.24 -0.01    -0.221 NA ATOM     22  N   UNL     1      37.522  43.600  21.207 -0.18 -0.01    -0.318 N  ATOM     23  C   UNL     1      38.161  45.174  22.570 -0.25 +0.01    +0.133 A  ATOM     24  C   UNL     1      37.330  44.086  22.478 -0.30 +0.01    +0.109 A  BRANCH  22  25ATOM     25  C   UNL     1      36.759  42.520  20.615 -0.39 -0.00    +0.122 C  ATOM     26  C   UNL     1      36.531  41.364  21.573 -0.62 +0.00    +0.028 C  ENDBRANCH  22  25ENDBRANCH   6  20TORSDOF 7TERENDMDL