REMARK SMILES NOc1ccc(Cl)cc1C(=O)NCc1cccc(Br)c1
REMARK SMILES IDX 3 1 4 2 5 3 6 4 7 5 8 6 9 7 2 8 1 9 10 12 12 13 11 14 13 16
REMARK SMILES IDX 14 17 15 18 20 19 16 20 18 21 17 22 19 23
REMARK H PARENT 1 10 1 11 12 15
ROOT
ATOM      1  C   UNL     1      -3.331   0.728  -0.283  1.00  0.00     0.159 A 
ATOM      2  C   UNL     1      -4.420   0.004  -0.777  1.00  0.00     0.051 A 
ATOM      3  C   UNL     1      -4.376  -1.391  -0.798  1.00  0.00     0.024 A 
ATOM      4  C   UNL     1      -3.250  -2.055  -0.311  1.00  0.00     0.042 A 
ATOM      5  Cl  UNL     1      -3.203  -3.775  -0.329  1.00  0.00    -0.084 Cl
ATOM      6  C   UNL     1      -2.165  -1.341   0.197  1.00  0.00     0.038 A 
ATOM      7  C   UNL     1      -2.202   0.061   0.212  1.00  0.00     0.085 A 
ENDROOT
BRANCH   1   8
ATOM      8  O   UNL     1      -3.439   2.096  -0.275  1.00  0.00    -0.411 OA
BRANCH   8   9
ATOM      9  N   UNL     1      -2.561   2.625  -1.315  1.00  0.00    -0.170 NA
ATOM     10  H   UNL     1      -1.905   3.146  -0.727  1.00  0.00     0.164 HD
ATOM     11  H   UNL     1      -3.174   3.327  -1.731  1.00  0.00     0.164 HD
ENDBRANCH   8   9
ENDBRANCH   1   8
BRANCH   7  12
ATOM     12  C   UNL     1      -1.062   0.821   0.784  1.00  0.00     0.255 C 
ATOM     13  N   UNL     1       0.190   0.334   0.470  1.00  0.00    -0.348 N 
ATOM     14  O   UNL     1      -1.243   1.814   1.477  1.00  0.00    -0.269 OA
ATOM     15  H   UNL     1       0.276  -0.318  -0.299  1.00  0.00     0.164 HD
BRANCH  13  16
ATOM     16  C   UNL     1       1.372   1.066   0.856  1.00  0.00     0.152 C 
BRANCH  16  17
ATOM     17  C   UNL     1       2.609   0.255   0.585  1.00  0.00    -0.028 A 
ATOM     18  C   UNL     1       3.039  -0.711   1.507  1.00  0.00     0.005 A 
ATOM     19  C   UNL     1       3.322   0.418  -0.612  1.00  0.00     0.021 A 
ATOM     20  C   UNL     1       4.171  -1.486   1.248  1.00  0.00     0.002 A 
ATOM     21  C   UNL     1       4.452  -0.361  -0.865  1.00  0.00     0.018 A 
ATOM     22  C   UNL     1       4.880  -1.311   0.060  1.00  0.00     0.016 A 
ATOM     23  Br  UNL     1       5.407  -0.128  -2.480  1.00  0.00    -0.051 Br
ENDBRANCH  16  17
ENDBRANCH  13  16
ENDBRANCH   7  12
TORSDOF 5
