MODEL        4USER    Run = 4USERUSER    Estimated Free Energy of Binding    =  -8.37 kcal/mol  [=(1)+(2)+(3)-(4)]USERUSER    (1) Final Intermolecular Energy     = -10.46 kcal/molUSER        vdW + Hbond + desolv Energy     = -10.35 kcal/molUSER        Electrostatic Energy            =  -0.12 kcal/molUSER        Moving Ligand-Fixed Receptor    = -10.46 kcal/molUSER        Moving Ligand-Moving Receptor   =  +0.00 kcal/molUSER    (2) Final Total Internal Energy     =  -1.35 kcal/molUSER    (3) Torsional Free Energy           =  +2.09 kcal/molUSER    (4) Unbound System's Energy         =  -1.35 kcal/molUSERUSERREMARK SMILES CCNC(=O)NC=NNc1cccc(OCc2ccncc2Cl)c1REMARK SMILES IDX 10 1 11 2 12 3 13 4 14 5 24 6 9 7 8 9 7 10 3 11 4 12 6 13REMARK SMILES IDX 5 15 2 17 1 18 15 19 16 20 17 21 18 22 22 23 19 24 21 25REMARK SMILES IDX 20 26 23 27REMARK H PARENT 9 8 3 14 6 16USER                              x       y       z     vdW  Elec       q    TypeUSER                           _______ _______ _______ _____ _____    ______ ____ROOTATOM      1  C   UNL     1      38.001  47.823  14.763 -0.46 -0.03    +0.060 A  ATOM      2  C   UNL     1      38.055  47.453  13.414 -0.48 -0.01    +0.028 A  ATOM      3  C   UNL     1      37.235  46.440  12.914 -0.55 -0.00    +0.006 A  ATOM      4  C   UNL     1      36.358  45.762  13.763 -0.42 -0.02    +0.046 A  ATOM      5  C   UNL     1      36.311  46.090  15.117 -0.30 -0.08    +0.121 A  ATOM      6  C   UNL     1      37.137  47.111  15.607 -0.36 -0.05    +0.074 A  ENDROOTBRANCH   1   7ATOM      7  N   UNL     1      38.881  48.780  15.323 -0.31 +0.16    -0.277 N  ATOM      8  H   UNL     1      38.994  49.584  14.707 -0.30 -0.16    +0.190 HD BRANCH   7   9ATOM      9  N   UNL     1      40.016  48.315  15.921 -0.41 +0.05    -0.165 NA BRANCH   9  10ATOM     10  C   UNL     1      40.765  49.249  16.396 -0.27 -0.04    +0.223 C  ATOM     11  N   UNL     1      42.897  50.630  13.867 -0.36 +0.09    -0.338 N  ATOM     12  C   UNL     1      41.688  50.080  14.266 -0.44 -0.07    +0.319 C  ATOM     13  N   UNL     1      41.627  50.012  15.646 -0.39 +0.02    -0.297 N  ATOM     14  H   UNL     1      43.686  50.340  14.429 -0.47 -0.06    +0.165 HD ATOM     15  O   UNL     1      40.787  49.796  13.487 -0.23 +0.09    -0.248 OA ATOM     16  H   UNL     1      42.209  50.675  16.136 -0.26 +0.01    +0.172 HD BRANCH  11  17ATOM     17  C   UNL     1      43.178  50.815  12.454 -0.56 -0.05    +0.114 C  ATOM     18  C   UNL     1      44.230  51.887  12.215 -0.48 -0.01    +0.027 C  ENDBRANCH  11  17ENDBRANCH   9  10ENDBRANCH   7   9ENDBRANCH   1   7BRANCH   5  19ATOM     19  O   UNL     1      35.517  45.500  16.064 -0.05 +0.33    -0.489 OA BRANCH  19  20ATOM     20  C   UNL     1      35.400  46.167  17.319 -0.25 -0.21    +0.267 C  BRANCH  20  21ATOM     21  C   UNL     1      34.820  45.183  18.303 -0.39 -0.00    +0.011 A  ATOM     22  C   UNL     1      33.426  45.098  18.444 -0.39 -0.01    +0.029 A  ATOM     23  C   UNL     1      35.612  44.379  19.127 -0.33 -0.01    +0.065 A  ATOM     24  C   UNL     1      32.890  44.211  19.366 -0.36 -0.02    +0.111 A  ATOM     25  C   UNL     1      34.980  43.520  20.020 -0.30 -0.01    +0.131 A  ATOM     26  N   UNL     1      33.635  43.412  20.155 -0.73 -0.02    -0.263 NA ATOM     27  Cl  UNL     1      37.335  44.404  19.085 -0.50 +0.01    -0.082 Cl ENDBRANCH  20  21ENDBRANCH  19  20ENDBRANCH   5  19TORSDOF 7TERENDMDL