MODEL        10USER    Run = 10USERUSER    Estimated Free Energy of Binding    =  -9.67 kcal/mol  [=(1)+(2)+(3)-(4)]USERUSER    (1) Final Intermolecular Energy     = -12.06 kcal/molUSER        vdW + Hbond + desolv Energy     = -11.81 kcal/molUSER        Electrostatic Energy            =  -0.25 kcal/molUSER        Moving Ligand-Fixed Receptor    = -12.06 kcal/molUSER        Moving Ligand-Moving Receptor   =  +0.00 kcal/molUSER    (2) Final Total Internal Energy     =  -3.50 kcal/molUSER    (3) Torsional Free Energy           =  +2.39 kcal/molUSER    (4) Unbound System's Energy         =  -3.50 kcal/molUSERUSERREMARK SMILES Nc1ncncc1-c1nc(-c2ccc(Oc3ccccc3)cc2)c2ncn(CCO)c2n1REMARK SMILES IDX 8 1 9 2 10 3 24 4 25 5 26 6 27 7 31 8 32 9 7 10 2 11 3 12REMARK SMILES IDX 4 13 6 14 5 15 1 16 11 19 12 20 23 21 13 22 22 23 14 24REMARK SMILES IDX 15 25 16 26 17 27 21 28 18 29 20 30 19 31 28 32 29 33 30 34REMARK H PARENT 1 17 1 18 30 35USER                              x       y       z     vdW  Elec       q    TypeUSER                           _______ _______ _______ _____ _____    ______ ____ROOTATOM      1  C   UNL     1      40.320  46.313  18.724 -0.33 -0.01    +0.167 A  ATOM      2  N   UNL     1      39.136  45.752  19.067 -0.27 +0.02    -0.225 NA ATOM      3  C   UNL     1      38.089  45.746  18.181 -0.27 -0.02    +0.102 A  ATOM      4  C   UNL     1      38.296  46.321  16.919 -0.30 -0.05    +0.134 A  ATOM      5  N   UNL     1      37.509  46.481  15.796 -0.21 +0.12    -0.233 NA ATOM      6  C   UNL     1      38.269  47.095  14.916 -0.30 -0.08    +0.202 A  ATOM      7  N   UNL     1      39.518  47.335  15.413 -0.23 +0.08    -0.313 N  ATOM      8  C   UNL     1      39.557  46.854  16.693 -0.35 -0.04    +0.164 A  ATOM      9  N   UNL     1      40.601  46.887  17.534 -0.35 +0.03    -0.208 NA ENDROOTBRANCH   1  10ATOM     10  C   UNL     1      41.386  46.270  19.732 -0.37 +0.01    +0.080 A  ATOM     11  C   UNL     1      42.606  46.946  19.654 -0.39 +0.03    +0.137 A  ATOM     12  N   UNL     1      43.555  46.865  20.606 -0.31 -0.11    -0.219 NA ATOM     13  C   UNL     1      43.298  46.083  21.660 -0.16 +0.09    +0.224 A  ATOM     14  C   UNL     1      41.251  45.503  20.883 -0.26 +0.01    +0.128 A  ATOM     15  N   UNL     1      42.178  45.386  21.858 -0.14 -0.04    -0.244 NA BRANCH  11  16ATOM     16  N   UNL     1      42.909  47.834  18.607 -0.27 -0.01    -0.383 N  ATOM     17  H   UNL     1      42.705  47.371  17.721 -0.46 -0.03    +0.158 HD ATOM     18  H   UNL     1      42.276  48.627  18.656 +0.01 -0.00    +0.158 HD ENDBRANCH  11  16ENDBRANCH   1  10BRANCH   3  19ATOM     19  C   UNL     1      36.828  45.120  18.617 -0.29 -0.00    +0.003 A  ATOM     20  C   UNL     1      35.565  45.551  18.167 -0.33 -0.01    +0.014 A  ATOM     21  C   UNL     1      36.843  44.043  19.528 -0.37 -0.00    +0.014 A  ATOM     22  C   UNL     1      34.382  44.941  18.601 -0.37 -0.02    +0.048 A  ATOM     23  C   UNL     1      35.666  43.429  19.966 -0.39 -0.00    +0.048 A  ATOM     24  C   UNL     1      34.434  43.891  19.516 -0.32 -0.02    +0.127 A  BRANCH  24  25ATOM     25  O   UNL     1      33.314  43.225  19.956 -0.71 -0.04    -0.457 OA BRANCH  25  26ATOM     26  C   UNL     1      32.531  42.608  19.007 -0.29 -0.01    +0.127 A  ATOM     27  C   UNL     1      32.762  41.252  18.779 -0.34 -0.00    +0.047 A  ATOM     28  C   UNL     1      31.493  43.267  18.341 -0.27 -0.01    +0.047 A  ATOM     29  C   UNL     1      31.977  40.559  17.855 -0.40 -0.00    +0.004 A  ATOM     30  C   UNL     1      30.712  42.573  17.417 -0.27 -0.00    +0.004 A  ATOM     31  C   UNL     1      30.957  41.221  17.172 -0.32 -0.00    +0.000 A  ENDBRANCH  25  26ENDBRANCH  24  25ENDBRANCH   3  19BRANCH   7  32ATOM     32  C   UNL     1      40.601  47.984  14.714 -0.42 -0.02    +0.153 C  BRANCH  32  33ATOM     33  C   UNL     1      41.042  49.275  15.390 -0.57 -0.03    +0.178 C  BRANCH  33  34ATOM     34  O   UNL     1      41.786  48.985  16.568 -0.84 -0.07    -0.395 OA ATOM     35  H   UNL     1      42.102  48.067  16.512 -0.34 -0.00    +0.210 HD ENDBRANCH  33  34ENDBRANCH  32  33ENDBRANCH   7  32TORSDOF 8TERENDMDL