MODEL        2USER    Run = 2USERUSER    Estimated Free Energy of Binding    =  -7.69 kcal/mol  [=(1)+(2)+(3)-(4)]USERUSER    (1) Final Intermolecular Energy     =  -7.98 kcal/molUSER        vdW + Hbond + desolv Energy     =  -7.92 kcal/molUSER        Electrostatic Energy            =  -0.06 kcal/molUSER        Moving Ligand-Fixed Receptor    =  -7.98 kcal/molUSER        Moving Ligand-Moving Receptor   =  +0.00 kcal/molUSER    (2) Final Total Internal Energy     =  -0.25 kcal/molUSER    (3) Torsional Free Energy           =  +0.30 kcal/molUSER    (4) Unbound System's Energy         =  -0.25 kcal/molUSERUSERREMARK SMILES C[C@@H]1CNc2cc(-c3ccncc3)ccc21REMARK SMILES IDX 1 1 2 2 3 3 4 4 5 5 6 6 7 7 14 8 15 9 16 10 8 12 9 13 13 14REMARK SMILES IDX 10 15 12 16 11 17REMARK H PARENT 4 11USER                              x       y       z     vdW  Elec       q    TypeUSER                           _______ _______ _______ _____ _____    ______ ____ROOTATOM      1  C   UNL     1      40.870  45.538  20.930 -0.38 +0.00    +0.015 C  ATOM      2  C   UNL     1      41.496  45.761  19.563 -0.46 +0.00    +0.037 C  ATOM      3  C   UNL     1      42.359  47.042  19.507 -0.46 +0.02    +0.121 C  ATOM      4  N   UNL     1      42.176  47.694  18.192 -0.29 +0.01    -0.384 N  ATOM      5  C   UNL     1      40.960  47.130  17.723 -0.49 -0.00    +0.038 A  ATOM      6  C   UNL     1      40.285  47.537  16.584 -0.50 -0.01    +0.034 A  ATOM      7  C   UNL     1      39.111  46.867  16.197 -0.43 +0.00    -0.016 A  ATOM      8  C   UNL     1      38.669  45.775  16.979 -0.39 -0.00    +0.009 A  ATOM      9  C   UNL     1      39.372  45.350  18.111 -0.42 -0.00    +0.007 A  ATOM     10  C   UNL     1      40.517  46.041  18.469 -0.47 +0.00    -0.020 A  ATOM     11  H   UNL     1      42.913  47.438  17.536 -0.50 -0.05    +0.160 HD ENDROOTBRANCH   7  12ATOM     12  C   UNL     1      38.360  47.291  15.004 -0.45 +0.01    -0.015 A  ATOM     13  C   UNL     1      38.301  46.484  13.861 -0.40 -0.01    +0.029 A  ATOM     14  C   UNL     1      37.677  48.513  14.972 -0.52 -0.02    +0.029 A  ATOM     15  C   UNL     1      37.582  46.926  12.761 -0.44 -0.03    +0.111 A  ATOM     16  C   UNL     1      36.982  48.867  13.826 -0.38 -0.07    +0.111 A  ATOM     17  N   UNL     1      36.919  48.100  12.718 -0.95 +0.08    -0.265 NA ENDBRANCH   7  12TORSDOF 1TERENDMDL