REMARK SMILES O=C(O)CCC[C@@H]1OC=c2ccoc2=C1c1cc(O)c(O)c([N+](=O)[O-])c1
REMARK SMILES IDX 5 1 4 2 2 3 1 4 3 5 6 7 7 8 8 9 15 10 9 11 14 12 10 13 13 14
REMARK SMILES IDX 11 15 12 16 16 17 17 18 26 19 18 20 22 21 20 22 19 23 23 25
REMARK SMILES IDX 24 26 25 27 21 28
REMARK H PARENT 3 6 19 24 21 29
ROOT
ATOM      1  C   UNL     1       2.244   0.886  -0.013  1.00  0.00     0.016 C 
ENDROOT
BRANCH   1   2
ATOM      2  C   UNL     1       3.221  -0.227  -0.387  1.00  0.00     0.122 C 
BRANCH   2   3
ATOM      3  C   UNL     1       4.277  -0.529   0.642  1.00  0.00     0.303 C 
ATOM      4  O   UNL     1       4.755  -1.628   0.872  1.00  0.00    -0.252 OA
BRANCH   3   5
ATOM      5  O   UNL     1       4.754   0.562   1.268  1.00  0.00    -0.481 OA
ATOM      6  H   UNL     1       5.446   0.205   1.864  1.00  0.00     0.296 HD
ENDBRANCH   3   5
ENDBRANCH   2   3
ENDBRANCH   1   2
BRANCH   1   7
ATOM      7  C   UNL     1       1.459   0.714   1.298  1.00  0.00     0.051 C 
BRANCH   7   8
ATOM      8  C   UNL     1       0.549  -0.527   1.426  1.00  0.00     0.207 C 
ATOM      9  O   UNL     1       1.422  -1.660   1.708  1.00  0.00    -0.492 OA
ATOM     10  C   UNL     1      -0.456  -0.705   0.285  1.00  0.00     0.043 C 
ATOM     11  C   UNL     1       1.195  -2.853   1.069  1.00  0.00     0.199 C 
ATOM     12  C   UNL     1      -0.538  -1.912  -0.289  1.00  0.00     0.144 A 
ATOM     13  C   UNL     1       0.281  -3.017   0.116  1.00  0.00     0.055 A 
ATOM     14  O   UNL     1      -1.377  -2.375  -1.287  1.00  0.00    -0.464 OA
ATOM     15  C   UNL     1      -0.075  -4.165  -0.667  1.00  0.00     0.054 A 
ATOM     16  C   UNL     1      -1.052  -3.727  -1.470  1.00  0.00     0.196 A 
BRANCH  10  17
ATOM     17  C   UNL     1      -1.362   0.398  -0.094  1.00  0.00    -0.004 A 
ATOM     18  C   UNL     1      -1.530   0.752  -1.441  1.00  0.00     0.059 A 
ATOM     19  C   UNL     1      -2.059   1.122   0.882  1.00  0.00     0.098 A 
ATOM     20  C   UNL     1      -2.377   1.803  -1.799  1.00  0.00     0.165 A 
ATOM     21  C   UNL     1      -2.910   2.183   0.514  1.00  0.00     0.315 A 
ATOM     22  C   UNL     1      -3.075   2.530  -0.832  1.00  0.00     0.237 A 
BRANCH  20  23
ATOM     23  O   UNL     1      -2.528   2.134  -3.119  1.00  0.00    -0.504 OA
ATOM     24  H   UNL     1      -2.039   1.506  -3.673  1.00  0.00     0.293 HD
ENDBRANCH  20  23
BRANCH  21  25
ATOM     25  N   UNL     1      -3.612   2.912   1.574  1.00  0.00     0.066 N 
ATOM     26  O   UNL     1      -4.442   3.768   1.230  1.00  0.00    -0.258 OA
ATOM     27  O   UNL     1      -3.335   2.637   2.750  1.00  0.00    -0.258 OA
ENDBRANCH  21  25
BRANCH  22  28
ATOM     28  O   UNL     1      -3.880   3.546  -1.279  1.00  0.00    -0.500 OA
ATOM     29  H   UNL     1      -4.369   3.951  -0.534  1.00  0.00     0.294 HD
ENDBRANCH  22  28
ENDBRANCH  10  17
ENDBRANCH   7   8
ENDBRANCH   1   7
TORSDOF 9
