REMARK SMILES CCNC(=O)NC=NNc1cccc(OCc2ccncc2Cl)c1
REMARK SMILES IDX 10 1 11 2 12 3 13 4 14 5 24 6 9 7 8 9 7 10 3 11 4 12 6 13
REMARK SMILES IDX 5 15 2 17 1 18 15 19 16 20 17 21 18 22 22 23 19 24 21 25
REMARK SMILES IDX 20 26 23 27
REMARK H PARENT 9 8 3 14 6 16
ROOT
ATOM      1  C   UNL     1      -0.007   0.193   0.164  1.00  0.00     0.060 A 
ATOM      2  C   UNL     1       0.359  -0.838   1.037  1.00  0.00     0.028 A 
ATOM      3  C   UNL     1      -0.575  -1.785   1.461  1.00  0.00     0.006 A 
ATOM      4  C   UNL     1      -1.902  -1.704   1.034  1.00  0.00     0.046 A 
ATOM      5  C   UNL     1      -2.297  -0.666   0.191  1.00  0.00     0.121 A 
ATOM      6  C   UNL     1      -1.350   0.277  -0.231  1.00  0.00     0.074 A 
ENDROOT
BRANCH   1   7
ATOM      7  N   UNL     1       0.890   1.222  -0.213  1.00  0.00    -0.277 N 
ATOM      8  H   UNL     1       0.618   1.643  -1.101  1.00  0.00     0.190 HD
BRANCH   7   9
ATOM      9  N   UNL     1       2.223   0.987  -0.040  1.00  0.00    -0.165 NA
BRANCH   9  10
ATOM     10  C   UNL     1       2.948   2.046  -0.147  1.00  0.00     0.223 C 
ATOM     11  N   UNL     1       6.392   1.352   0.566  1.00  0.00    -0.338 N 
ATOM     12  C   UNL     1       5.163   0.979   0.042  1.00  0.00     0.319 C 
ATOM     13  N   UNL     1       4.315   2.070  -0.008  1.00  0.00    -0.297 N 
ATOM     14  H   UNL     1       6.331   2.023   1.319  1.00  0.00     0.165 HD
ATOM     15  O   UNL     1       4.928  -0.141  -0.394  1.00  0.00    -0.248 OA
ATOM     16  H   UNL     1       4.772   2.969  -0.053  1.00  0.00     0.172 HD
BRANCH  11  17
ATOM     17  C   UNL     1       7.452   0.368   0.698  1.00  0.00     0.114 C 
ATOM     18  C   UNL     1       8.146   0.092  -0.627  1.00  0.00     0.027 C 
ENDBRANCH  11  17
ENDBRANCH   9  10
ENDBRANCH   7   9
ENDBRANCH   1   7
BRANCH   5  19
ATOM     19  O   UNL     1      -3.561  -0.454  -0.291  1.00  0.00    -0.489 OA
BRANCH  19  20
ATOM     20  C   UNL     1      -4.587  -1.328   0.174  1.00  0.00     0.267 C 
BRANCH  20  21
ATOM     21  C   UNL     1      -5.886  -0.871  -0.441  1.00  0.00     0.011 A 
ATOM     22  C   UNL     1      -6.265  -1.376  -1.694  1.00  0.00     0.029 A 
ATOM     23  C   UNL     1      -6.716   0.080   0.160  1.00  0.00     0.065 A 
ATOM     24  C   UNL     1      -7.447  -0.939  -2.273  1.00  0.00     0.111 A 
ATOM     25  C   UNL     1      -7.882   0.453  -0.500  1.00  0.00     0.131 A 
ATOM     26  N   UNL     1      -8.271  -0.040  -1.701  1.00  0.00    -0.263 NA
ATOM     27  Cl  UNL     1      -6.358   0.808   1.681  1.00  0.00    -0.082 Cl
ENDBRANCH  20  21
ENDBRANCH  19  20
ENDBRANCH   5  19
TORSDOF 7
