REMARK SMILES C[C@@H]1CNc2cc(-c3ccncc3)ccc21
REMARK SMILES IDX 1 1 2 2 3 3 4 4 5 5 6 6 7 7 14 8 15 9 16 10 8 12 9 13 13 14
REMARK SMILES IDX 10 15 12 16 11 17
REMARK H PARENT 4 11
ROOT
ATOM      1  C   UNL     1      -4.115   0.281   0.647  1.00  0.00     0.015 C 
ATOM      2  C   UNL     1      -3.171  -0.021  -0.506  1.00  0.00     0.037 C 
ATOM      3  C   UNL     1      -3.139  -1.523  -0.869  1.00  0.00     0.121 C 
ATOM      4  N   UNL     1      -1.754  -1.908  -1.221  1.00  0.00    -0.384 N 
ATOM      5  C   UNL     1      -0.978  -0.868  -0.644  1.00  0.00     0.038 A 
ATOM      6  C   UNL     1       0.405  -0.856  -0.578  1.00  0.00     0.034 A 
ATOM      7  C   UNL     1       1.063   0.256  -0.023  1.00  0.00    -0.016 A 
ATOM      8  C   UNL     1       0.282   1.344   0.432  1.00  0.00     0.009 A 
ATOM      9  C   UNL     1      -1.113   1.337   0.334  1.00  0.00     0.007 A 
ATOM     10  C   UNL     1      -1.727   0.221  -0.207  1.00  0.00    -0.020 A 
ATOM     11  H   UNL     1      -1.601  -1.891  -2.229  1.00  0.00     0.160 HD
ENDROOT
BRANCH   7  12
ATOM     12  C   UNL     1       2.531   0.288   0.082  1.00  0.00    -0.015 A 
ATOM     13  C   UNL     1       3.236  -0.757   0.692  1.00  0.00     0.029 A 
ATOM     14  C   UNL     1       3.273   1.361  -0.426  1.00  0.00     0.029 A 
ATOM     15  C   UNL     1       4.618  -0.683   0.769  1.00  0.00     0.111 A 
ATOM     16  C   UNL     1       4.654   1.344  -0.304  1.00  0.00     0.111 A 
ATOM     17  N   UNL     1       5.344   0.345   0.283  1.00  0.00    -0.265 NA
ENDBRANCH   7  12
TORSDOF 1
