REMARK SMILES Cc1cc(O)cc(C(=O)c2cccc(OCc3ccccc3)c2N)c1
REMARK SMILES IDX 10 1 11 2 12 3 13 4 14 5 23 6 8 7 9 8 7 9 2 10 3 11 25 12
REMARK SMILES IDX 4 13 6 14 1 15 5 16 24 18 15 21 16 22 17 23 18 24 22 25
REMARK SMILES IDX 19 26 21 27 20 28
REMARK H PARENT 5 17 24 19 24 20
ROOT
ATOM      1  C   UNL     1       0.691  -0.589  -0.002  1.00  0.00     0.049 A 
ATOM      2  C   UNL     1       0.712   0.741   0.460  1.00  0.00     0.014 A 
ATOM      3  C   UNL     1      -0.448   1.345   0.951  1.00  0.00     0.005 A 
ATOM      4  C   UNL     1      -1.644   0.637   0.961  1.00  0.00     0.049 A 
ATOM      5  C   UNL     1      -1.680  -0.662   0.453  1.00  0.00     0.143 A 
ATOM      6  C   UNL     1      -0.519  -1.314  -0.006  1.00  0.00     0.085 A 
ENDROOT
BRANCH   1   7
ATOM      7  C   UNL     1       1.961  -1.234  -0.457  1.00  0.00     0.195 C 
ATOM      8  O   UNL     1       1.949  -2.105  -1.324  1.00  0.00    -0.289 OA
BRANCH   7   9
ATOM      9  C   UNL     1       3.271  -0.872   0.140  1.00  0.00     0.026 A 
ATOM     10  C   UNL     1       5.655  -0.496  -0.175  1.00  0.00    -0.047 A 
ATOM     11  C   UNL     1       5.779  -0.234   1.196  1.00  0.00     0.049 A 
ATOM     12  C   UNL     1       4.393  -0.809  -0.698  1.00  0.00     0.016 A 
ATOM     13  C   UNL     1       4.661  -0.322   2.023  1.00  0.00     0.116 A 
ATOM     14  C   UNL     1       3.411  -0.648   1.512  1.00  0.00     0.058 A 
ATOM     15  C   UNL     1       6.846  -0.392  -1.081  1.00  0.00     0.044 C 
BRANCH  13  16
ATOM     16  O   UNL     1       4.753  -0.092   3.365  1.00  0.00    -0.508 OA
ATOM     17  H   UNL     1       5.684   0.071   3.592  1.00  0.00     0.293 HD
ENDBRANCH  13  16
ENDBRANCH   7   9
ENDBRANCH   1   7
BRANCH   6  18
ATOM     18  N   UNL     1      -0.645  -2.583  -0.605  1.00  0.00    -0.395 N 
ATOM     19  H   UNL     1       0.253  -3.031  -0.806  1.00  0.00     0.156 HD
ATOM     20  H   UNL     1      -1.323  -3.180  -0.141  1.00  0.00     0.156 HD
ENDBRANCH   6  18
BRANCH   5  21
ATOM     21  O   UNL     1      -2.887  -1.319   0.454  1.00  0.00    -0.487 OA
BRANCH  21  22
ATOM     22  C   UNL     1      -3.526  -1.206  -0.827  1.00  0.00     0.265 C 
BRANCH  22  23
ATOM     23  C   UNL     1      -4.640  -0.188  -0.761  1.00  0.00    -0.011 A 
ATOM     24  C   UNL     1      -5.746  -0.400   0.074  1.00  0.00     0.007 A 
ATOM     25  C   UNL     1      -4.580   0.987  -1.523  1.00  0.00     0.007 A 
ATOM     26  C   UNL     1      -6.774   0.541   0.141  1.00  0.00     0.000 A 
ATOM     27  C   UNL     1      -5.609   1.927  -1.455  1.00  0.00     0.000 A 
ATOM     28  C   UNL     1      -6.706   1.704  -0.625  1.00  0.00     0.000 A 
ENDBRANCH  22  23
ENDBRANCH  21  22
ENDBRANCH   5  21
TORSDOF 7
