MODEL        2USER    Run = 2USERUSER    Estimated Free Energy of Binding    =  -9.87 kcal/mol  [=(1)+(2)+(3)-(4)]USERUSER    (1) Final Intermolecular Energy     = -12.55 kcal/molUSER        vdW + Hbond + desolv Energy     = -12.39 kcal/molUSER        Electrostatic Energy            =  -0.16 kcal/molUSER        Moving Ligand-Fixed Receptor    = -12.55 kcal/molUSER        Moving Ligand-Moving Receptor   =  +0.00 kcal/molUSER    (2) Final Total Internal Energy     =  -2.68 kcal/molUSER    (3) Torsional Free Energy           =  +2.68 kcal/molUSER    (4) Unbound System's Energy         =  -2.68 kcal/molUSERUSERREMARK SMILES CC[C@H](O)[C@@H](N)c1ccc(C(=O)Nc2nc(-c3cccc(C)c3)cs2)cc1NREMARK SMILES IDX 7 1 8 2 9 3 10 4 26 5 27 6 5 7 3 8 2 9 1 10 4 11 6 13 28 16REMARK SMILES IDX 11 19 13 20 12 21 14 23 15 24 25 25 16 26 24 27 17 28 18 29REMARK SMILES IDX 23 30 19 31 21 32 20 33 22 34REMARK H PARENT 4 12 6 14 6 15 28 17 28 18 13 22USER                              x       y       z     vdW  Elec       q    TypeUSER                           _______ _______ _______ _____ _____    ______ ____ROOTATOM      1  C   UNL     1      38.810  47.015  16.319 -0.43 +0.00    -0.006 A  ATOM      2  C   UNL     1      37.688  46.228  16.644 -0.38 -0.00    +0.008 A  ATOM      3  C   UNL     1      37.651  45.461  17.811 -0.36 -0.00    +0.014 A  ATOM      4  C   UNL     1      38.733  45.475  18.691 -0.38 -0.01    +0.042 A  ATOM      5  C   UNL     1      39.848  46.263  18.393 -0.42 -0.00    +0.039 A  ATOM      6  C   UNL     1      39.872  47.077  17.251 -0.45 -0.01    +0.037 A  ENDROOTBRANCH   1   7ATOM      7  C   UNL     1      38.852  47.818  15.015 -0.49 -0.04    +0.112 C  BRANCH   7   8ATOM      8  C   UNL     1      37.562  47.710  14.129 -0.49 -0.07    +0.135 C  BRANCH   8   9ATOM      9  C   UNL     1      37.623  46.597  13.065 -0.54 -0.01    +0.030 C  ATOM     10  C   UNL     1      36.561  46.670  11.977 -0.77 -0.00    +0.007 C  ENDBRANCH   8   9BRANCH   8  11ATOM     11  O   UNL     1      37.294  48.967  13.483 -0.51 +0.17    -0.391 OA ATOM     12  H   UNL     1      37.911  49.621  13.855 -0.39 -0.15    +0.211 HD ENDBRANCH   8  11ENDBRANCH   7   8BRANCH   7  13ATOM     13  N   UNL     1      39.181  49.223  15.308 -0.17 +0.20    -0.322 NA ATOM     14  H   UNL     1      38.335  49.787  15.253 -0.44 -0.11    +0.119 HD ATOM     15  H   UNL     1      39.773  49.541  14.534 -0.19 -0.07    +0.119 HD ENDBRANCH   7  13ENDBRANCH   1   7BRANCH   6  16ATOM     16  N   UNL     1      41.054  47.801  17.010 -0.24 +0.05    -0.398 N  ATOM     17  H   UNL     1      40.961  48.493  16.268 +0.10 -0.02    +0.156 HD ATOM     18  H   UNL     1      41.838  47.183  16.813 -0.41 -0.03    +0.156 HD ENDBRANCH   6  16BRANCH   4  19ATOM     19  C   UNL     1      38.670  44.625  19.913 -0.25 -0.01    +0.257 C  ATOM     20  N   UNL     1      37.477  43.966  20.094 -0.18 +0.01    -0.298 N  ATOM     21  O   UNL     1      39.671  44.563  20.618 -0.21 -0.01    -0.269 OA ATOM     22  H   UNL     1      36.764  44.002  19.379 +0.12 -0.02    +0.172 HD BRANCH  20  23ATOM     23  C   UNL     1      37.132  43.148  21.138 -0.27 +0.00    +0.190 A  ATOM     24  N   UNL     1      37.085  43.613  22.364 -0.25 -0.02    -0.220 NA ATOM     25  S   UNL     1      36.768  41.497  20.953 -0.60 +0.00    -0.105 S  ATOM     26  C   UNL     1      36.735  42.597  23.246 -0.34 +0.01    +0.084 A  ATOM     27  C   UNL     1      36.511  41.373  22.643 -0.45 +0.00    +0.097 A  BRANCH  26  28ATOM     28  C   UNL     1      36.604  42.855  24.678 -0.37 +0.00    +0.001 A  ATOM     29  C   UNL     1      36.950  44.116  25.183 -0.34 +0.00    +0.010 A  ATOM     30  C   UNL     1      36.148  41.877  25.577 -0.40 -0.00    +0.013 A  ATOM     31  C   UNL     1      36.827  44.402  26.544 -0.36 -0.00    +0.001 A  ATOM     32  C   UNL     1      36.037  42.149  26.951 -0.47 +0.01    -0.050 A  ATOM     33  C   UNL     1      36.366  43.424  27.423 -0.43 -0.00    +0.003 A  ATOM     34  C   UNL     1      35.519  41.104  27.894 -0.64 -0.02    +0.044 C  ENDBRANCH  26  28ENDBRANCH  20  23ENDBRANCH   4  19TORSDOF 9TERENDMDL