REMARK SMILES O=C(O)CCCC(=O)C=Cc1ccc2cnn(CS)c2cnncc1O
REMARK SMILES IDX 7 1 8 2 6 3 5 4 4 5 2 6 1 7 3 8 9 10 10 11 11 12 12 13 25 14
REMARK SMILES IDX 13 15 24 16 14 17 23 18 15 19 20 20 22 21 16 22 17 23 21 24
REMARK SMILES IDX 26 25 18 27 19 28
REMARK H PARENT 3 9 26 26 19 29
ROOT
ATOM      1  C   UNL     1      -3.160  -0.837   0.999  1.00  0.00     0.155 C 
ATOM      2  O   UNL     1      -4.141  -1.344   1.555  1.00  0.00    -0.295 OA
ENDROOT
BRANCH   1   3
ATOM      3  C   UNL     1      -2.903   0.663   1.010  1.00  0.00     0.081 C 
BRANCH   3   4
ATOM      4  C   UNL     1      -3.904   1.423   1.878  1.00  0.00     0.020 C 
BRANCH   4   5
ATOM      5  C   UNL     1      -3.653   2.926   1.815  1.00  0.00     0.123 C 
BRANCH   5   6
ATOM      6  C   UNL     1      -4.708   3.672   2.583  1.00  0.00     0.303 C 
ATOM      7  O   UNL     1      -5.085   3.456   3.724  1.00  0.00    -0.252 OA
BRANCH   6   8
ATOM      8  O   UNL     1      -5.251   4.690   1.883  1.00  0.00    -0.481 OA
ATOM      9  H   UNL     1      -5.886   5.077   2.519  1.00  0.00     0.296 HD
ENDBRANCH   6   8
ENDBRANCH   5   6
ENDBRANCH   4   5
ENDBRANCH   3   4
ENDBRANCH   1   3
BRANCH   1  10
ATOM     10  C   UNL     1      -2.201  -1.738   0.305  1.00  0.00     0.048 C 
BRANCH  10  11
ATOM     11  C   UNL     1      -1.186  -1.263  -0.428  1.00  0.00     0.015 C 
BRANCH  11  12
ATOM     12  C   UNL     1      -0.081  -1.994  -1.067  1.00  0.00     0.018 A 
ATOM     13  C   UNL     1       0.334  -3.173  -0.536  1.00  0.00     0.013 A 
ATOM     14  C   UNL     1       0.598  -1.400  -2.082  1.00  0.00     0.142 A 
ATOM     15  C   UNL     1       1.615  -3.596  -0.438  1.00  0.00     0.013 A 
ATOM     16  C   UNL     1       1.038  -0.114  -2.093  1.00  0.00     0.182 A 
ATOM     17  C   UNL     1       2.853  -2.679  -0.699  1.00  0.00     0.022 A 
ATOM     18  N   UNL     1       1.331   0.851  -1.173  1.00  0.00    -0.155 NA
ATOM     19  C   UNL     1       3.955  -2.967  -1.519  1.00  0.00     0.144 A 
ATOM     20  C   UNL     1       3.075  -1.403  -0.231  1.00  0.00     0.089 A 
ATOM     21  N   UNL     1       1.315   0.464   0.248  1.00  0.00    -0.157 NA
ATOM     22  N   UNL     1       4.809  -1.937  -1.633  1.00  0.00    -0.179 NA
ATOM     23  N   UNL     1       4.178  -0.953  -0.896  1.00  0.00    -0.253 N 
ATOM     24  C   UNL     1       2.150  -0.514   0.682  1.00  0.00     0.164 A 
BRANCH  14  25
ATOM     25  O   UNL     1       1.079  -2.205  -3.135  1.00  0.00    -0.506 OA
ATOM     26  H   UNL     1       1.975  -1.833  -3.229  1.00  0.00     0.293 HD
ENDBRANCH  14  25
BRANCH  23  27
ATOM     27  C   UNL     1       4.599   0.438  -0.966  1.00  0.00     0.210 C 
BRANCH  27  28
ATOM     28  S   UNL     1       6.424   0.621  -0.833  1.00  0.00    -0.156 SA
ATOM     29  H   UNL     1       6.654  -0.432  -1.634  1.00  0.00     0.104 HD
ENDBRANCH  27  28
ENDBRANCH  23  27
ENDBRANCH  11  12
ENDBRANCH  10  11
ENDBRANCH   1  10
TORSDOF 11
