MODEL        6USER    Run = 6USERUSER    Estimated Free Energy of Binding    =  -8.21 kcal/mol  [=(1)+(2)+(3)-(4)]USERUSER    (1) Final Intermolecular Energy     = -10.90 kcal/molUSER        vdW + Hbond + desolv Energy     = -10.54 kcal/molUSER        Electrostatic Energy            =  -0.35 kcal/molUSER        Moving Ligand-Fixed Receptor    = -10.90 kcal/molUSER        Moving Ligand-Moving Receptor   =  +0.00 kcal/molUSER    (2) Final Total Internal Energy     =  -2.66 kcal/molUSER    (3) Torsional Free Energy           =  +2.68 kcal/molUSER    (4) Unbound System's Energy         =  -2.66 kcal/molUSERUSERREMARK SMILES O=C(O)CCC[C@@H]1OC=c2ccoc2=C1c1cc(O)c(O)c([N+](=O)[O-])c1REMARK SMILES IDX 5 1 4 2 2 3 1 4 3 5 6 7 7 8 8 9 15 10 9 11 14 12 10 13 13 14REMARK SMILES IDX 11 15 12 16 16 17 17 18 26 19 18 20 22 21 20 22 19 23 23 25REMARK SMILES IDX 24 26 25 27 21 28REMARK H PARENT 3 6 19 24 21 29USER                              x       y       z     vdW  Elec       q    TypeUSER                           _______ _______ _______ _____ _____    ______ ____ROOTATOM      1  C   UNL     1      40.241  47.568  14.592 -0.49 -0.00    +0.016 C  ENDROOTBRANCH   1   2ATOM      2  C   UNL     1      40.128  48.959  15.211 -0.54 -0.04    +0.122 C  BRANCH   2   3ATOM      3  C   UNL     1      41.363  49.453  15.915 -0.34 -0.02    +0.303 C  ATOM      4  O   UNL     1      42.019  50.433  15.600 -0.84 +0.01    -0.252 OA BRANCH   3   5ATOM      5  O   UNL     1      41.668  48.762  17.028 -0.71 -0.04    -0.481 OA ATOM      6  H   UNL     1      41.811  47.848  16.703 -0.21 -0.03    +0.296 HD ENDBRANCH   3   5ENDBRANCH   2   3ENDBRANCH   1   2BRANCH   1   7ATOM      7  C   UNL     1      40.102  46.367  15.542 -0.46 -0.01    +0.051 C  BRANCH   7   8ATOM      8  C   UNL     1      39.547  46.639  16.957 -0.37 -0.05    +0.207 C  ATOM      9  O   UNL     1      40.651  46.435  17.887 -0.17 +0.04    -0.492 OA ATOM     10  C   UNL     1      38.237  45.917  17.281 -0.42 -0.01    +0.043 C  ATOM     11  C   UNL     1      40.420  45.761  19.060 -0.37 -0.00    +0.199 C  ATOM     12  C   UNL     1      38.164  45.250  18.440 -0.28 -0.02    +0.144 A  ATOM     13  C   UNL     1      39.260  45.183  19.362 -0.37 -0.00    +0.055 A  ATOM     14  O   UNL     1      37.110  44.563  19.014 -0.10 +0.07    -0.464 OA ATOM     15  C   UNL     1      38.849  44.428  20.511 -0.31 -0.00    +0.054 A  ATOM     16  C   UNL     1      37.580  44.093  20.249 -0.24 -0.01    +0.196 A  BRANCH  10  17ATOM     17  C   UNL     1      37.072  46.040  16.382 -0.37 +0.00    -0.004 A  ATOM     18  C   UNL     1      35.776  45.784  16.854 -0.31 -0.04    +0.059 A  ATOM     19  C   UNL     1      37.237  46.398  15.038 -0.32 -0.05    +0.098 A  ATOM     20  C   UNL     1      34.675  45.887  16.001 -0.14 -0.17    +0.165 A  ATOM     21  C   UNL     1      36.123  46.498  14.181 -0.20 -0.20    +0.315 A  ATOM     22  C   UNL     1      34.832  46.243  14.660 -0.13 -0.23    +0.237 A  BRANCH  20  23ATOM     23  O   UNL     1      33.418  45.633  16.480 -0.04 +0.49    -0.504 OA ATOM     24  H   UNL     1      32.764  46.129  15.965 -0.20 -0.41    +0.293 HD ENDBRANCH  20  23BRANCH  21  25ATOM     25  N   UNL     1      36.351  46.871  12.783 -0.58 -0.03    +0.066 N  ATOM     26  O   UNL     1      37.194  47.752  12.553 -1.08 +0.06    -0.258 OA ATOM     27  O   UNL     1      35.688  46.291  11.911 -0.52 +0.14    -0.258 OA ENDBRANCH  21  25BRANCH  22  28ATOM     28  O   UNL     1      33.694  46.316  13.899 -0.12 +0.49    -0.500 OA ATOM     29  H   UNL     1      33.897  46.665  13.007 -0.31 -0.29    +0.294 HD ENDBRANCH  22  28ENDBRANCH  10  17ENDBRANCH   7   8ENDBRANCH   1   7TORSDOF 9TERENDMDL