REMARK SMILES Nc1ncncc1-c1nc(-c2ccc(Oc3ccccc3)cc2)c2ncn(CCO)c2n1
REMARK SMILES IDX 8 1 9 2 10 3 24 4 25 5 26 6 27 7 31 8 32 9 7 10 2 11 3 12
REMARK SMILES IDX 4 13 6 14 5 15 1 16 11 19 12 20 23 21 13 22 22 23 14 24
REMARK SMILES IDX 15 25 16 26 17 27 21 28 18 29 20 30 19 31 28 32 29 33 30 34
REMARK H PARENT 1 17 1 18 30 35
ROOT
ATOM      1  C   UNL     1      -2.540  -1.202   0.348  1.00  0.00     0.167 A 
ATOM      2  N   UNL     1      -1.220  -1.099   0.634  1.00  0.00    -0.225 NA
ATOM      3  C   UNL     1      -0.535   0.052   0.342  1.00  0.00     0.102 A 
ATOM      4  C   UNL     1      -1.249   1.109  -0.241  1.00  0.00     0.134 A 
ATOM      5  N   UNL     1      -0.914   2.386  -0.647  1.00  0.00    -0.233 NA
ATOM      6  C   UNL     1      -2.025   2.911  -1.115  1.00  0.00     0.202 A 
ATOM      7  N   UNL     1      -3.070   2.037  -1.024  1.00  0.00    -0.313 N 
ATOM      8  C   UNL     1      -2.597   0.877  -0.474  1.00  0.00     0.164 A 
ATOM      9  N   UNL     1      -3.299  -0.235  -0.211  1.00  0.00    -0.208 NA
ENDROOT
BRANCH   1  10
ATOM     10  C   UNL     1      -3.194  -2.468   0.700  1.00  0.00     0.080 A 
ATOM     11  C   UNL     1      -4.449  -2.886   0.252  1.00  0.00     0.137 A 
ATOM     12  N   UNL     1      -5.007  -4.057   0.613  1.00  0.00    -0.219 NA
ATOM     13  C   UNL     1      -4.312  -4.833   1.451  1.00  0.00     0.224 A 
ATOM     14  C   UNL     1      -2.582  -3.375   1.557  1.00  0.00     0.128 A 
ATOM     15  N   UNL     1      -3.107  -4.554   1.952  1.00  0.00    -0.244 NA
BRANCH  11  16
ATOM     16  N   UNL     1      -5.200  -2.149  -0.681  1.00  0.00    -0.383 N 
ATOM     17  H   UNL     1      -5.242  -1.179  -0.368  1.00  0.00     0.158 HD
ATOM     18  H   UNL     1      -4.699  -2.133  -1.565  1.00  0.00     0.158 HD
ENDBRANCH  11  16
ENDBRANCH   1  10
BRANCH   3  19
ATOM     19  C   UNL     1       0.899   0.098   0.677  1.00  0.00     0.003 A 
ATOM     20  C   UNL     1       1.791   1.021   0.097  1.00  0.00     0.014 A 
ATOM     21  C   UNL     1       1.443  -0.808   1.611  1.00  0.00     0.014 A 
ATOM     22  C   UNL     1       3.151   1.040   0.431  1.00  0.00     0.048 A 
ATOM     23  C   UNL     1       2.800  -0.796   1.949  1.00  0.00     0.048 A 
ATOM     24  C   UNL     1       3.657   0.117   1.344  1.00  0.00     0.127 A 
BRANCH  24  25
ATOM     25  O   UNL     1       4.973   0.103   1.743  1.00  0.00    -0.457 OA
BRANCH  25  26
ATOM     26  C   UNL     1       5.933   0.181   0.760  1.00  0.00     0.127 A 
ATOM     27  C   UNL     1       6.995   1.058   0.980  1.00  0.00     0.047 A 
ATOM     28  C   UNL     1       5.912  -0.626  -0.381  1.00  0.00     0.047 A 
ATOM     29  C   UNL     1       8.021   1.157   0.038  1.00  0.00     0.004 A 
ATOM     30  C   UNL     1       6.937  -0.524  -1.321  1.00  0.00     0.004 A 
ATOM     31  C   UNL     1       7.989   0.370  -1.113  1.00  0.00     0.000 A 
ENDBRANCH  25  26
ENDBRANCH  24  25
ENDBRANCH   3  19
BRANCH   7  32
ATOM     32  C   UNL     1      -4.429   2.290  -1.439  1.00  0.00     0.153 C 
BRANCH  32  33
ATOM     33  C   UNL     1      -5.344   2.627  -0.269  1.00  0.00     0.178 C 
BRANCH  33  34
ATOM     34  O   UNL     1      -6.650   2.941  -0.740  1.00  0.00    -0.395 OA
ATOM     35  H   UNL     1      -6.646   3.857  -1.066  1.00  0.00     0.210 HD
ENDBRANCH  33  34
ENDBRANCH  32  33
ENDBRANCH   7  32
TORSDOF 8
