MODEL        8USER    Run = 8USERUSER    Estimated Free Energy of Binding    =  -8.82 kcal/mol  [=(1)+(2)+(3)-(4)]USERUSER    (1) Final Intermolecular Energy     = -10.90 kcal/molUSER        vdW + Hbond + desolv Energy     = -10.66 kcal/molUSER        Electrostatic Energy            =  -0.24 kcal/molUSER        Moving Ligand-Fixed Receptor    = -10.90 kcal/molUSER        Moving Ligand-Moving Receptor   =  +0.00 kcal/molUSER    (2) Final Total Internal Energy     =  -1.49 kcal/molUSER    (3) Torsional Free Energy           =  +2.09 kcal/molUSER    (4) Unbound System's Energy         =  -1.49 kcal/molUSERUSERREMARK SMILES Cc1cc(O)cc(C(=O)c2cccc(OCc3ccccc3)c2N)c1REMARK SMILES IDX 10 1 11 2 12 3 13 4 14 5 23 6 8 7 9 8 7 9 2 10 3 11 25 12REMARK SMILES IDX 4 13 6 14 1 15 5 16 24 18 15 21 16 22 17 23 18 24 22 25REMARK SMILES IDX 19 26 21 27 20 28REMARK H PARENT 5 17 24 19 24 20USER                              x       y       z     vdW  Elec       q    TypeUSER                           _______ _______ _______ _____ _____    ______ ____ROOTATOM      1  C   UNL     1      42.187  46.481  20.618 -0.35 +0.01    +0.049 A  ATOM      2  C   UNL     1      41.276  45.537  21.128 -0.31 +0.00    +0.014 A  ATOM      3  C   UNL     1      40.358  44.903  20.288 -0.38 +0.00    +0.005 A  ATOM      4  C   UNL     1      40.323  45.225  18.936 -0.41 -0.00    +0.049 A  ATOM      5  C   UNL     1      41.188  46.200  18.437 -0.40 -0.00    +0.143 A  ATOM      6  C   UNL     1      42.155  46.823  19.249 -0.45 +0.01    +0.085 A  ENDROOTBRANCH   1   7ATOM      7  C   UNL     1      43.205  47.093  21.526 -0.30 +0.05    +0.195 C  ATOM      8  O   UNL     1      44.403  47.044  21.253 -0.67 -0.23    -0.289 OA BRANCH   7   9ATOM      9  C   UNL     1      42.813  47.750  22.798 -0.32 +0.00    +0.026 A  ATOM     10  C   UNL     1      41.058  48.274  24.401 -0.30 -0.01    -0.047 A  ATOM     11  C   UNL     1      41.990  48.991  25.164 -0.32 +0.01    +0.049 A  ATOM     12  C   UNL     1      41.480  47.649  23.220 -0.24 +0.00    +0.016 A  ATOM     13  C   UNL     1      43.307  49.104  24.723 -0.29 +0.03    +0.116 A  ATOM     14  C   UNL     1      43.726  48.500  23.544 -0.29 +0.02    +0.058 A  ATOM     15  C   UNL     1      39.640  48.131  24.869 -0.35 +0.00    +0.044 C  BRANCH  13  16ATOM     16  O   UNL     1      44.233  49.812  25.433 -0.18 -0.05    -0.508 OA ATOM     17  H   UNL     1      43.772  50.470  25.980 -0.49 -0.04    +0.293 HD ENDBRANCH  13  16ENDBRANCH   7   9ENDBRANCH   1   7BRANCH   6  18ATOM     18  N   UNL     1      42.921  47.874  18.708 -0.29 -0.01    -0.395 N  ATOM     19  H   UNL     1      43.732  48.125  19.280 -0.49 +0.00    +0.156 HD ATOM     20  H   UNL     1      43.118  47.758  17.719 -0.43 -0.02    +0.156 HD ENDBRANCH   6  18BRANCH   5  21ATOM     21  O   UNL     1      41.103  46.510  17.101 -0.12 +0.04    -0.487 OA BRANCH  21  22ATOM     22  C   UNL     1      40.372  47.731  16.910 -0.37 -0.05    +0.265 C  BRANCH  22  23ATOM     23  C   UNL     1      39.351  47.555  15.811 -0.49 +0.00    -0.011 A  ATOM     24  C   UNL     1      38.620  48.655  15.339 -0.51 -0.00    +0.007 A  ATOM     25  C   UNL     1      39.127  46.295  15.239 -0.42 -0.00    +0.007 A  ATOM     26  C   UNL     1      37.680  48.497  14.321 -0.55 -0.00    +0.000 A  ATOM     27  C   UNL     1      38.186  46.139  14.220 -0.43 -0.00    +0.000 A  ATOM     28  C   UNL     1      37.462  47.238  13.762 -0.52 -0.00    +0.000 A  ENDBRANCH  22  23ENDBRANCH  21  22ENDBRANCH   5  21TORSDOF 7TERENDMDL