MODEL        6USER    Run = 6USERUSER    Estimated Free Energy of Binding    =  -9.65 kcal/mol  [=(1)+(2)+(3)-(4)]USERUSER    (1) Final Intermolecular Energy     = -11.73 kcal/molUSER        vdW + Hbond + desolv Energy     = -11.70 kcal/molUSER        Electrostatic Energy            =  -0.04 kcal/molUSER        Moving Ligand-Fixed Receptor    = -11.73 kcal/molUSER        Moving Ligand-Moving Receptor   =  +0.00 kcal/molUSER    (2) Final Total Internal Energy     =  -1.78 kcal/molUSER    (3) Torsional Free Energy           =  +2.09 kcal/molUSER    (4) Unbound System's Energy         =  -1.78 kcal/molUSERUSERREMARK SMILES C[C@H]1[C@@H](CO)CCN1Cc1nc(-c2ccc(-c3cccnc3)cc2)c(C#N)c(=O)[nH]1REMARK SMILES IDX 1 1 2 2 3 3 6 4 7 5 8 6 4 7 5 8 9 10 10 11 11 12 30 13 12 14REMARK SMILES IDX 28 15 25 16 29 18 13 19 14 20 24 21 15 22 23 23 16 24 17 25REMARK SMILES IDX 18 26 22 27 19 28 21 29 20 30 26 31 27 32REMARK H PARENT 5 9 30 17USER                              x       y       z     vdW  Elec       q    TypeUSER                           _______ _______ _______ _____ _____    ______ ____ROOTATOM      1  C   UNL     1      37.741  45.055  14.234 -0.35 -0.01    +0.025 C  ATOM      2  C   UNL     1      38.656  46.207  14.638 -0.44 -0.02    +0.059 C  ATOM      3  C   UNL     1      38.502  47.469  13.775 -0.50 -0.01    +0.033 C  ATOM      4  C   UNL     1      39.184  48.537  14.636 -0.56 -0.01    +0.023 C  ATOM      5  C   UNL     1      39.135  47.999  16.064 -0.48 -0.04    +0.086 C  ATOM      6  N   UNL     1      38.385  46.727  15.992 -0.19 +0.11    -0.293 NA ENDROOTBRANCH   3   7ATOM      7  C   UNL     1      37.056  47.861  13.453 -0.52 -0.07    +0.161 C  BRANCH   7   8ATOM      8  O   UNL     1      36.846  47.765  12.046 -0.98 +0.12    -0.396 OA ATOM      9  H   UNL     1      36.532  48.636  11.745 -0.20 -0.07    +0.210 HD ENDBRANCH   7   8ENDBRANCH   3   7BRANCH   6  10ATOM     10  C   UNL     1      38.809  45.794  17.058 -0.35 -0.04    +0.160 C  BRANCH  10  11ATOM     11  C   UNL     1      37.591  45.292  17.823 -0.28 -0.03    +0.123 A  ATOM     12  N   UNL     1      37.689  44.846  19.033 -0.22 +0.03    -0.232 NA ATOM     13  N   UNL     1      36.413  45.311  17.134 -0.13 +0.13    -0.308 N  ATOM     14  C   UNL     1      36.534  44.395  19.642 -0.30 -0.01    +0.096 A  ATOM     15  C   UNL     1      35.227  44.945  17.697 -0.15 -0.12    +0.269 A  ATOM     16  C   UNL     1      35.315  44.394  19.066 -0.28 -0.03    +0.143 A  ATOM     17  H   UNL     1      36.398  45.759  16.226 +0.13 -0.10    +0.171 HD ATOM     18  O   UNL     1      34.166  45.082  17.098 -0.19 +0.16    -0.268 OA BRANCH  14  19ATOM     19  C   UNL     1      36.725  43.865  21.012 -0.41 +0.00    +0.002 A  ATOM     20  C   UNL     1      37.293  44.649  22.022 -0.28 +0.00    +0.011 A  ATOM     21  C   UNL     1      36.354  42.548  21.305 -0.47 +0.00    +0.011 A  ATOM     22  C   UNL     1      37.463  44.131  23.311 -0.33 +0.00    +0.009 A  ATOM     23  C   UNL     1      36.528  42.032  22.595 -0.50 +0.00    +0.009 A  ATOM     24  C   UNL     1      37.082  42.815  23.621 -0.39 -0.00    -0.017 A  BRANCH  24  25ATOM     25  C   UNL     1      37.262  42.272  24.974 -0.38 +0.00    -0.000 A  ATOM     26  C   UNL     1      36.177  41.838  25.748 -0.42 -0.00    +0.012 A  ATOM     27  C   UNL     1      38.523  42.158  25.562 -0.14 +0.00    +0.119 A  ATOM     28  C   UNL     1      36.385  41.325  27.027 -0.53 -0.01    +0.021 A  ATOM     29  N   UNL     1      38.759  41.661  26.803 -0.20 +0.01    -0.264 NA ATOM     30  C   UNL     1      37.682  41.257  27.505 -0.39 -0.02    +0.111 A  ENDBRANCH  24  25ENDBRANCH  14  19BRANCH  16  31ATOM     31  C   UNL     1      34.131  43.907  19.681 -0.39 -0.01    +0.107 C  ATOM     32  N   UNL     1      33.180  43.494  20.203 -0.86 -0.02    -0.192 NA ENDBRANCH  16  31ENDBRANCH  10  11ENDBRANCH   6  10TORSDOF 7TERENDMDL