REMARK SMILES CN1CCN(S(=O)(=O)Nc2nccc3ccc(Cl)cc23)CC1
REMARK SMILES IDX 6 1 7 2 8 3 5 4 2 5 3 6 22 7 4 8 21 9 1 10 9 11 10 13 11 14
REMARK SMILES IDX 20 15 12 16 19 17 14 18 13 19 17 20 15 21 16 22 18 23
REMARK H PARENT 9 12
ROOT
ATOM      1  S   UNL     1       0.220  -0.057  -1.814  1.00  0.00     0.302 S 
ATOM      2  O   UNL     1       1.124   1.061  -1.690  1.00  0.00    -0.189 OA
ATOM      3  O   UNL     1       0.286  -0.979  -2.922  1.00  0.00    -0.189 OA
ENDROOT
BRANCH   1   4
ATOM      4  N   UNL     1      -1.347   0.542  -1.738  1.00  0.00    -0.182 NA
ATOM      5  N   UNL     1      -3.978   0.829  -0.317  1.00  0.00    -0.304 NA
ATOM      6  C   UNL     1      -3.103   1.964  -0.679  1.00  0.00     0.101 C 
ATOM      7  C   UNL     1      -3.371  -0.468  -0.681  1.00  0.00     0.101 C 
ATOM      8  C   UNL     1      -1.603   1.624  -0.750  1.00  0.00     0.119 C 
ATOM      9  C   UNL     1      -2.481  -0.399  -1.936  1.00  0.00     0.119 C 
ATOM     10  C   UNL     1      -4.344   0.849   1.097  1.00  0.00     0.105 C 
ENDBRANCH   1   4
BRANCH   1  11
ATOM     11  N   UNL     1       0.228  -0.964  -0.392  1.00  0.00    -0.254 N 
ATOM     12  H   UNL     1      -0.241  -1.839  -0.626  1.00  0.00     0.183 HD
BRANCH  11  13
ATOM     13  C   UNL     1       1.535  -1.359   0.003  1.00  0.00     0.148 A 
ATOM     14  N   UNL     1       1.803  -2.608  -0.424  1.00  0.00    -0.238 NA
ATOM     15  C   UNL     1       2.410  -0.546   0.746  1.00  0.00     0.027 A 
ATOM     16  C   UNL     1       3.034  -3.081  -0.150  1.00  0.00     0.114 A 
ATOM     17  C   UNL     1       2.095   0.737   1.248  1.00  0.00     0.033 A 
ATOM     18  C   UNL     1       3.685  -1.088   1.016  1.00  0.00    -0.013 A 
ATOM     19  C   UNL     1       3.996  -2.371   0.550  1.00  0.00     0.029 A 
ATOM     20  C   UNL     1       3.033   1.465   1.977  1.00  0.00     0.041 A 
ATOM     21  C   UNL     1       4.618  -0.336   1.751  1.00  0.00     0.010 A 
ATOM     22  C   UNL     1       4.294   0.935   2.228  1.00  0.00     0.021 A 
ATOM     23  Cl  UNL     1       2.625   3.024   2.579  1.00  0.00    -0.084 Cl
ENDBRANCH  11  13
ENDBRANCH   1  11
TORSDOF 3
