REMARK SMILES Cc1noc(-c2cc(-c3cccnc3)cc(O)c2C)n1
REMARK SMILES IDX 6 1 7 2 8 3 15 4 16 5 18 6 19 7 5 8 2 9 3 10 20 11 4 12 1 13
REMARK SMILES IDX 9 14 10 15 14 16 11 17 13 18 12 19 17 20
REMARK H PARENT 17 21
ROOT
ATOM      1  C   UNL     1      -1.001  -0.512   0.023  1.00  0.00     0.047 A 
ATOM      2  C   UNL     1       0.239   0.164  -0.002  1.00  0.00     0.023 A 
ATOM      3  C   UNL     1       1.446  -0.467   0.336  1.00  0.00    -0.012 A 
ATOM      4  C   UNL     1       1.389  -1.817   0.692  1.00  0.00     0.055 A 
ATOM      5  C   UNL     1       0.172  -2.500   0.731  1.00  0.00     0.119 A 
ATOM      6  C   UNL     1      -1.045  -1.862   0.443  1.00  0.00     0.004 A 
ATOM      7  C   UNL     1      -2.349  -2.604   0.588  1.00  0.00     0.049 C 
ENDROOT
BRANCH   1   8
ATOM      8  C   UNL     1      -2.176   0.253  -0.392  1.00  0.00     0.258 A 
ATOM      9  C   UNL     1      -3.633   1.663  -0.907  1.00  0.00     0.169 A 
ATOM     10  N   UNL     1      -4.139   0.522  -1.389  1.00  0.00    -0.062 NA
ATOM     11  N   UNL     1      -2.412   1.545  -0.297  1.00  0.00    -0.192 NA
ATOM     12  O   UNL     1      -3.160  -0.419  -1.062  1.00  0.00    -0.334 OA
ATOM     13  C   UNL     1      -4.336   2.953  -1.034  1.00  0.00     0.093 C 
ENDBRANCH   1   8
BRANCH   3  14
ATOM     14  C   UNL     1       2.724   0.261   0.302  1.00  0.00     0.000 A 
ATOM     15  C   UNL     1       3.109   1.034  -0.802  1.00  0.00     0.012 A 
ATOM     16  C   UNL     1       3.625   0.222   1.368  1.00  0.00     0.119 A 
ATOM     17  C   UNL     1       4.329   1.709  -0.800  1.00  0.00     0.021 A 
ATOM     18  N   UNL     1       4.819   0.866   1.401  1.00  0.00    -0.264 NA
ATOM     19  C   UNL     1       5.141   1.595   0.315  1.00  0.00     0.111 A 
ENDBRANCH   3  14
BRANCH   5  20
ATOM     20  O   UNL     1       0.258  -3.823   1.067  1.00  0.00    -0.508 OA
ATOM     21  H   UNL     1      -0.532  -4.290   0.754  1.00  0.00     0.293 HD
ENDBRANCH   5  20
TORSDOF 3
