MODEL        2USER    Run = 2USERUSER    Estimated Free Energy of Binding    =  -8.05 kcal/mol  [=(1)+(2)+(3)-(4)]USERUSER    (1) Final Intermolecular Energy     =  -8.94 kcal/molUSER        vdW + Hbond + desolv Energy     =  -8.80 kcal/molUSER        Electrostatic Energy            =  -0.15 kcal/molUSER        Moving Ligand-Fixed Receptor    =  -8.94 kcal/molUSER        Moving Ligand-Moving Receptor   =  +0.00 kcal/molUSER    (2) Final Total Internal Energy     =  -0.08 kcal/molUSER    (3) Torsional Free Energy           =  +0.89 kcal/molUSER    (4) Unbound System's Energy         =  -0.08 kcal/molUSERUSERREMARK SMILES Cc1c(O)cc(C(=O)N(C)C)cc1-c1cccnc1REMARK SMILES IDX 1 1 2 2 3 3 5 4 6 5 12 6 13 7 4 8 14 10 15 11 19 12 16 13REMARK SMILES IDX 18 14 17 15 7 16 9 17 8 18 10 19 11 20REMARK H PARENT 4 9USER                              x       y       z     vdW  Elec       q    TypeUSER                           _______ _______ _______ _____ _____    ______ ____ROOTATOM      1  C   UNL     1      40.314  48.751  14.581 -0.59 -0.01    +0.049 C  ATOM      2  C   UNL     1      39.905  47.768  15.651 -0.54 +0.00    -0.001 A  ATOM      3  C   UNL     1      40.649  47.687  16.843 -0.45 -0.02    +0.119 A  ATOM      4  C   UNL     1      40.311  46.792  17.855 -0.44 -0.01    +0.060 A  ATOM      5  C   UNL     1      39.221  45.943  17.670 -0.40 -0.01    +0.044 A  ATOM      6  C   UNL     1      38.462  46.005  16.499 -0.38 -0.01    +0.023 A  ATOM      7  C   UNL     1      38.800  46.900  15.468 -0.44 +0.00    -0.009 A  ENDROOTBRANCH   3   8ATOM      8  O   UNL     1      41.730  48.509  17.005 -0.62 -0.03    -0.508 OA ATOM      9  H   UNL     1      42.530  47.972  17.118 -0.32 -0.01    +0.293 HD ENDBRANCH   3   8BRANCH   7  10ATOM     10  C   UNL     1      37.991  46.895  14.242 -0.46 -0.00    +0.000 A  ATOM     11  C   UNL     1      37.685  45.704  13.572 -0.42 -0.00    +0.012 A  ATOM     12  C   UNL     1      37.501  48.073  13.677 -0.44 -0.05    +0.119 A  ATOM     13  C   UNL     1      36.922  45.734  12.408 -0.57 -0.01    +0.021 A  ATOM     14  N   UNL     1      36.756  48.135  12.547 -0.93 +0.08    -0.264 NA ATOM     15  C   UNL     1      36.485  46.962  11.939 -0.59 -0.05    +0.111 A  ENDBRANCH   7  10BRANCH   5  16ATOM     16  C   UNL     1      38.816  45.004  18.737 -0.29 -0.03    +0.253 C  ATOM     17  N   UNL     1      37.472  44.653  18.853 -0.14 +0.05    -0.345 N  ATOM     18  O   UNL     1      39.703  44.559  19.462 -0.26 +0.00    -0.269 OA ATOM     19  C   UNL     1      37.119  43.649  19.842 -0.31 -0.01    +0.146 C  ATOM     20  C   UNL     1      36.368  45.454  18.338 -0.21 -0.04    +0.146 C  ENDBRANCH   5  16TORSDOF 3TERENDMDL