MODEL        8USER    Run = 8USERUSER    Estimated Free Energy of Binding    =  -8.46 kcal/mol  [=(1)+(2)+(3)-(4)]USERUSER    (1) Final Intermolecular Energy     =  -9.35 kcal/molUSER        vdW + Hbond + desolv Energy     =  -9.11 kcal/molUSER        Electrostatic Energy            =  -0.25 kcal/molUSER        Moving Ligand-Fixed Receptor    =  -9.35 kcal/molUSER        Moving Ligand-Moving Receptor   =  +0.00 kcal/molUSER    (2) Final Total Internal Energy     =  -0.45 kcal/molUSER    (3) Torsional Free Energy           =  +0.89 kcal/molUSER    (4) Unbound System's Energy         =  -0.45 kcal/molUSERUSERREMARK SMILES Cc1noc(-c2cc(-c3cccnc3)cc(O)c2C)n1REMARK SMILES IDX 6 1 7 2 8 3 15 4 16 5 18 6 19 7 5 8 2 9 3 10 20 11 4 12 1 13REMARK SMILES IDX 9 14 10 15 14 16 11 17 13 18 12 19 17 20REMARK H PARENT 17 21USER                              x       y       z     vdW  Elec       q    TypeUSER                           _______ _______ _______ _____ _____    ______ ____ROOTATOM      1  C   UNL     1      39.356  47.330  15.247 -0.46 -0.01    +0.047 A  ATOM      2  C   UNL     1      39.222  46.525  16.400 -0.42 -0.01    +0.023 A  ATOM      3  C   UNL     1      39.939  46.777  17.580 -0.47 +0.00    -0.012 A  ATOM      4  C   UNL     1      40.797  47.880  17.589 -0.38 -0.01    +0.055 A  ATOM      5  C   UNL     1      40.949  48.683  16.457 -0.46 -0.02    +0.119 A  ATOM      6  C   UNL     1      40.273  48.407  15.258 -0.58 -0.00    +0.004 A  ATOM      7  C   UNL     1      40.534  49.236  14.026 -0.25 -0.02    +0.049 C  ENDROOTBRANCH   1   8ATOM      8  C   UNL     1      38.520  46.980  14.100 -0.25 -0.08    +0.258 A  ATOM      9  C   UNL     1      37.287  46.130  12.639 -0.37 -0.05    +0.169 A  ATOM     10  N   UNL     1      37.278  47.429  12.318 -1.20 +0.01    -0.062 NA ATOM     11  N   UNL     1      38.030  45.810  13.745 -0.29 +0.06    -0.192 NA ATOM     12  O   UNL     1      38.087  48.002  13.302 -0.68 +0.07    -0.334 OA ATOM     13  C   UNL     1      36.543  45.121  11.863 -0.50 -0.03    +0.093 C  ENDBRANCH   1   8BRANCH   3  14ATOM     14  C   UNL     1      39.781  45.922  18.767 -0.44 -0.00    +0.000 A  ATOM     15  C   UNL     1      38.583  45.249  19.044 -0.38 -0.00    +0.012 A  ATOM     16  C   UNL     1      40.817  45.733  19.684 -0.34 +0.01    +0.119 A  ATOM     17  C   UNL     1      38.469  44.449  20.179 -0.35 -0.00    +0.021 A  ATOM     18  N   UNL     1      40.738  44.961  20.798 -0.18 -0.02    -0.264 NA ATOM     19  C   UNL     1      39.565  44.337  21.017 -0.24 +0.00    +0.111 A  ENDBRANCH   3  14BRANCH   5  20ATOM     20  O   UNL     1      41.796  49.746  16.607 -0.75 -0.09    -0.508 OA ATOM     21  H   UNL     1      41.282  50.549  16.782 -0.13 -0.07    +0.293 HD ENDBRANCH   5  20TORSDOF 3TERENDMDL