REMARK SMILES C[C@H]1[C@@H](CO)CCN1Cc1nc(-c2ccc(-c3cccnc3)cc2)c(C#N)c(=O)[nH]1
REMARK SMILES IDX 1 1 2 2 3 3 6 4 7 5 8 6 4 7 5 8 9 10 10 11 11 12 30 13 12 14
REMARK SMILES IDX 28 15 25 16 29 18 13 19 14 20 24 21 15 22 23 23 16 24 17 25
REMARK SMILES IDX 18 26 22 27 19 28 21 29 20 30 26 31 27 32
REMARK H PARENT 5 9 30 17
ROOT
ATOM      1  C   UNL     1       5.235  -1.782  -0.981  1.00  0.00     0.025 C 
ATOM      2  C   UNL     1       4.698  -1.206   0.326  1.00  0.00     0.059 C 
ATOM      3  C   UNL     1       5.710  -0.348   1.101  1.00  0.00     0.033 C 
ATOM      4  C   UNL     1       4.810   0.409   2.083  1.00  0.00     0.023 C 
ATOM      5  C   UNL     1       3.421   0.400   1.450  1.00  0.00     0.086 C 
ATOM      6  N   UNL     1       3.577  -0.265   0.139  1.00  0.00    -0.293 NA
ENDROOT
BRANCH   3   7
ATOM      7  C   UNL     1       6.527   0.624   0.242  1.00  0.00     0.161 C 
BRANCH   7   8
ATOM      8  O   UNL     1       7.436   1.337   1.077  1.00  0.00    -0.396 OA
ATOM      9  H   UNL     1       7.922   1.956   0.505  1.00  0.00     0.210 HD
ENDBRANCH   7   8
ENDBRANCH   3   7
BRANCH   6  10
ATOM     10  C   UNL     1       2.328  -0.939  -0.273  1.00  0.00     0.160 C 
BRANCH  10  11
ATOM     11  C   UNL     1       1.282   0.098  -0.663  1.00  0.00     0.123 A 
ATOM     12  N   UNL     1       0.025  -0.084  -0.420  1.00  0.00    -0.232 NA
ATOM     13  N   UNL     1       1.758   1.199  -1.314  1.00  0.00    -0.308 N 
ATOM     14  C   UNL     1      -0.853   0.902  -0.826  1.00  0.00     0.096 A 
ATOM     15  C   UNL     1       0.958   2.239  -1.680  1.00  0.00     0.269 A 
ATOM     16  C   UNL     1      -0.489   2.041  -1.450  1.00  0.00     0.143 A 
ATOM     17  H   UNL     1       2.762   1.315  -1.386  1.00  0.00     0.171 HD
ATOM     18  O   UNL     1       1.424   3.268  -2.156  1.00  0.00    -0.268 OA
BRANCH  14  19
ATOM     19  C   UNL     1      -2.279   0.612  -0.549  1.00  0.00     0.002 A 
ATOM     20  C   UNL     1      -2.996   1.341   0.406  1.00  0.00     0.011 A 
ATOM     21  C   UNL     1      -2.923  -0.423  -1.235  1.00  0.00     0.011 A 
ATOM     22  C   UNL     1      -4.343   1.053   0.652  1.00  0.00     0.009 A 
ATOM     23  C   UNL     1      -4.270  -0.710  -0.985  1.00  0.00     0.009 A 
ATOM     24  C   UNL     1      -5.005   0.025  -0.040  1.00  0.00    -0.017 A 
BRANCH  24  25
ATOM     25  C   UNL     1      -6.419  -0.276   0.220  1.00  0.00    -0.000 A 
ATOM     26  C   UNL     1      -6.856  -1.572   0.523  1.00  0.00     0.012 A 
ATOM     27  C   UNL     1      -7.404   0.713   0.180  1.00  0.00     0.119 A 
ATOM     28  C   UNL     1      -8.206  -1.821   0.768  1.00  0.00     0.021 A 
ATOM     29  N   UNL     1      -8.724   0.504   0.416  1.00  0.00    -0.264 NA
ATOM     30  C   UNL     1      -9.092  -0.760   0.704  1.00  0.00     0.111 A 
ENDBRANCH  24  25
ENDBRANCH  14  19
BRANCH  16  31
ATOM     31  C   UNL     1      -1.392   3.044  -1.891  1.00  0.00     0.107 C 
ATOM     32  N   UNL     1      -2.152   3.851  -2.236  1.00  0.00    -0.192 NA
ENDBRANCH  16  31
ENDBRANCH  10  11
ENDBRANCH   6  10
TORSDOF 7
