REMARK SMILES Cc1c(O)cc(C(=O)N(C)C)cc1-c1cccnc1
REMARK SMILES IDX 1 1 2 2 3 3 5 4 6 5 12 6 13 7 4 8 14 10 15 11 19 12 16 13
REMARK SMILES IDX 18 14 17 15 7 16 9 17 8 18 10 19 11 20
REMARK H PARENT 4 9
ROOT
ATOM      1  C   UNL     1       2.271  -2.305   0.827  1.00  0.00     0.049 C 
ATOM      2  C   UNL     1       1.039  -1.438   0.736  1.00  0.00    -0.001 A 
ATOM      3  C   UNL     1      -0.222  -1.985   1.037  1.00  0.00     0.119 A 
ATOM      4  C   UNL     1      -1.385  -1.223   0.962  1.00  0.00     0.060 A 
ATOM      5  C   UNL     1      -1.296   0.108   0.558  1.00  0.00     0.044 A 
ATOM      6  C   UNL     1      -0.057   0.679   0.258  1.00  0.00     0.023 A 
ATOM      7  C   UNL     1       1.123  -0.085   0.323  1.00  0.00    -0.009 A 
ENDROOT
BRANCH   3   8
ATOM      8  O   UNL     1      -0.300  -3.298   1.411  1.00  0.00    -0.508 OA
ATOM      9  H   UNL     1      -1.212  -3.506   1.672  1.00  0.00     0.293 HD
ENDBRANCH   3   8
BRANCH   7  10
ATOM     10  C   UNL     1       2.393   0.556  -0.042  1.00  0.00     0.000 A 
ATOM     11  C   UNL     1       2.978   1.536   0.769  1.00  0.00     0.012 A 
ATOM     12  C   UNL     1       3.069   0.234  -1.219  1.00  0.00     0.119 A 
ATOM     13  C   UNL     1       4.179   2.130   0.390  1.00  0.00     0.021 A 
ATOM     14  N   UNL     1       4.238   0.793  -1.615  1.00  0.00    -0.264 NA
ATOM     15  C   UNL     1       4.765   1.729  -0.799  1.00  0.00     0.111 A 
ENDBRANCH   7  10
BRANCH   5  16
ATOM     16  C   UNL     1      -2.507   0.953   0.498  1.00  0.00     0.253 C 
ATOM     17  N   UNL     1      -3.578   0.542  -0.295  1.00  0.00    -0.345 N 
ATOM     18  O   UNL     1      -2.513   1.977   1.177  1.00  0.00    -0.269 OA
ATOM     19  C   UNL     1      -4.793   1.337  -0.252  1.00  0.00     0.146 C 
ATOM     20  C   UNL     1      -3.462  -0.382  -1.416  1.00  0.00     0.146 C 
ENDBRANCH   5  16
TORSDOF 3
