MODEL        9USER    Run = 9USERUSER    Estimated Free Energy of Binding    =  -9.32 kcal/mol  [=(1)+(2)+(3)-(4)]USERUSER    (1) Final Intermolecular Energy     = -11.41 kcal/molUSER        vdW + Hbond + desolv Energy     = -11.08 kcal/molUSER        Electrostatic Energy            =  -0.33 kcal/molUSER        Moving Ligand-Fixed Receptor    = -11.41 kcal/molUSER        Moving Ligand-Moving Receptor   =  +0.00 kcal/molUSER    (2) Final Total Internal Energy     =  -0.56 kcal/molUSER    (3) Torsional Free Energy           =  +2.09 kcal/molUSER    (4) Unbound System's Energy         =  -0.56 kcal/molUSERUSERREMARK SMILES COc1ccc(-c2nc(CN3CC[C@H](CO)[C@@H]3C)[nH]c(=O)c2C#N)cc1REMARK SMILES IDX 10 1 9 2 7 3 8 4 22 5 20 6 19 7 21 8 6 10 3 11 4 12 26 13REMARK SMILES IDX 5 14 25 15 2 16 1 17 23 18 24 19 11 20 12 21 17 22 13 23REMARK SMILES IDX 14 24 18 25 15 26 16 27REMARK H PARENT 19 9 16 28USER                              x       y       z     vdW  Elec       q    TypeUSER                           _______ _______ _______ _____ _____    ______ ____ROOTATOM      1  C   UNL     1      37.881  44.260  19.942 -0.31 -0.01    +0.160 C  ENDROOTBRANCH   1   2ATOM      2  C   UNL     1      38.690  45.270  19.129 -0.31 -0.01    +0.123 A  ATOM      3  C   UNL     1      39.079  46.556  17.268 -0.36 -0.02    +0.096 A  ATOM      4  N   UNL     1      38.297  45.653  17.957 -0.25 +0.05    -0.232 NA ATOM      5  C   UNL     1      40.245  47.056  17.728 -0.37 -0.02    +0.143 A  ATOM      6  C   UNL     1      40.666  46.614  19.074 -0.17 -0.01    +0.269 A  ATOM      7  N   UNL     1      39.832  45.742  19.708 -0.21 +0.00    -0.308 N  ATOM      8  O   UNL     1      41.701  46.996  19.610 -0.33 -0.02    -0.268 OA ATOM      9  H   UNL     1      40.132  45.424  20.618 +0.09 +0.01    +0.171 HD BRANCH   3  10ATOM     10  C   UNL     1      38.566  46.920  15.926 -0.43 -0.00    +0.002 A  ATOM     11  C   UNL     1      37.577  47.563  13.365 -0.45 -0.04    +0.118 A  ATOM     12  C   UNL     1      37.825  46.234  13.718 -0.40 -0.02    +0.047 A  ATOM     13  C   UNL     1      37.811  48.570  14.302 -0.48 -0.03    +0.047 A  ATOM     14  C   UNL     1      38.312  45.913  14.988 -0.39 -0.00    +0.014 A  ATOM     15  C   UNL     1      38.296  48.251  15.576 -0.47 -0.01    +0.014 A  BRANCH  11  16ATOM     16  O   UNL     1      37.106  47.738  12.093 -0.89 +0.10    -0.497 OA ATOM     17  C   UNL     1      36.185  46.768  11.611 -0.37 -0.14    +0.278 C  ENDBRANCH  11  16ENDBRANCH   3  10BRANCH   5  18ATOM     18  C   UNL     1      41.081  47.953  17.014 -0.50 -0.01    +0.107 C  ATOM     19  N   UNL     1      41.752  48.707  16.441 -0.77 -0.02    -0.192 NA ENDBRANCH   5  18ENDBRANCH   1   2BRANCH   1  20ATOM     20  N   UNL     1      36.869  43.627  19.073 -0.14 +0.04    -0.293 NA ATOM     21  C   UNL     1      35.918  42.785  19.820 -0.43 -0.01    +0.086 C  ATOM     22  C   UNL     1      36.045  44.635  18.367 -0.36 -0.02    +0.059 C  ATOM     23  C   UNL     1      34.645  43.602  20.029 -0.40 -0.00    +0.023 C  ATOM     24  C   UNL     1      34.925  44.948  19.361 -0.34 -0.01    +0.033 C  ATOM     25  C   UNL     1      35.579  44.052  17.029 -0.36 -0.01    +0.025 C  BRANCH  24  26ATOM     26  C   UNL     1      33.683  45.604  18.774 -0.37 -0.08    +0.161 C  BRANCH  26  27ATOM     27  O   UNL     1      33.858  47.015  18.717 -0.96 +0.29    -0.396 OA ATOM     28  H   UNL     1      33.550  47.317  17.846 -0.38 -0.35    +0.210 HD ENDBRANCH  26  27ENDBRANCH  24  26ENDBRANCH   1  20TORSDOF 7TERENDMDL