REMARK SMILES COc1ccc(-c2nc(CN3CC[C@H](CO)[C@@H]3C)[nH]c(=O)c2C#N)cc1
REMARK SMILES IDX 10 1 9 2 7 3 8 4 22 5 20 6 19 7 21 8 6 10 3 11 4 12 26 13
REMARK SMILES IDX 5 14 25 15 2 16 1 17 23 18 24 19 11 20 12 21 17 22 13 23
REMARK SMILES IDX 14 24 18 25 15 26 16 27
REMARK H PARENT 19 9 16 28
ROOT
ATOM      1  C   UNL     1      -1.715   0.242   1.195  1.00  0.00     0.160 C 
ENDROOT
BRANCH   1   2
ATOM      2  C   UNL     1      -0.432  -0.571   1.359  1.00  0.00     0.123 A 
ATOM      3  C   UNL     1       1.821  -0.914   1.086  1.00  0.00     0.096 A 
ATOM      4  N   UNL     1       0.701  -0.126   0.920  1.00  0.00    -0.232 NA
ATOM      5  C   UNL     1       1.812  -2.134   1.661  1.00  0.00     0.143 A 
ATOM      6  C   UNL     1       0.509  -2.615   2.165  1.00  0.00     0.269 A 
ATOM      7  N   UNL     1      -0.550  -1.774   1.992  1.00  0.00    -0.308 N 
ATOM      8  O   UNL     1       0.363  -3.703   2.712  1.00  0.00    -0.268 OA
ATOM      9  H   UNL     1      -1.443  -2.113   2.317  1.00  0.00     0.171 HD
BRANCH   3  10
ATOM     10  C   UNL     1       3.070  -0.337   0.533  1.00  0.00     0.002 A 
ATOM     11  C   UNL     1       5.419   0.772  -0.562  1.00  0.00     0.118 A 
ATOM     12  C   UNL     1       4.325   0.477  -1.379  1.00  0.00     0.047 A 
ATOM     13  C   UNL     1       5.331   0.525   0.808  1.00  0.00     0.047 A 
ATOM     14  C   UNL     1       3.158  -0.070  -0.838  1.00  0.00     0.014 A 
ATOM     15  C   UNL     1       4.162  -0.020   1.353  1.00  0.00     0.014 A 
BRANCH  11  16
ATOM     16  O   UNL     1       6.497   1.299  -1.219  1.00  0.00    -0.497 OA
ATOM     17  C   UNL     1       7.657   1.562  -0.440  1.00  0.00     0.278 C 
ENDBRANCH  11  16
ENDBRANCH   3  10
BRANCH   5  18
ATOM     18  C   UNL     1       2.947  -2.974   1.801  1.00  0.00     0.107 C 
ATOM     19  N   UNL     1       3.891  -3.639   1.920  1.00  0.00    -0.192 NA
ENDBRANCH   5  18
ENDBRANCH   1   2
BRANCH   1  20
ATOM     20  N   UNL     1      -2.277   0.009  -0.150  1.00  0.00    -0.293 NA
ATOM     21  C   UNL     1      -3.079  -1.225  -0.230  1.00  0.00     0.086 C 
ATOM     22  C   UNL     1      -3.184   1.104  -0.562  1.00  0.00     0.059 C 
ATOM     23  C   UNL     1      -4.549  -0.827  -0.122  1.00  0.00     0.023 C 
ATOM     24  C   UNL     1      -4.537   0.694   0.022  1.00  0.00     0.033 C 
ATOM     25  C   UNL     1      -3.150   1.235  -2.088  1.00  0.00     0.025 C 
BRANCH  24  26
ATOM     26  C   UNL     1      -5.756   1.371  -0.591  1.00  0.00     0.161 C 
BRANCH  26  27
ATOM     27  O   UNL     1      -6.934   0.970   0.100  1.00  0.00    -0.396 OA
ATOM     28  H   UNL     1      -6.888   1.334   1.000  1.00  0.00     0.210 HD
ENDBRANCH  26  27
ENDBRANCH  24  26
ENDBRANCH   1  20
TORSDOF 7
