MODEL        9USER    Run = 9USERUSER    Estimated Free Energy of Binding    =  -8.44 kcal/mol  [=(1)+(2)+(3)-(4)]USERUSER    (1) Final Intermolecular Energy     =  -9.34 kcal/molUSER        vdW + Hbond + desolv Energy     =  -9.38 kcal/molUSER        Electrostatic Energy            =  +0.04 kcal/molUSER        Moving Ligand-Fixed Receptor    =  -9.34 kcal/molUSER        Moving Ligand-Moving Receptor   =  +0.00 kcal/molUSER    (2) Final Total Internal Energy     =  -1.08 kcal/molUSER    (3) Torsional Free Energy           =  +0.89 kcal/molUSER    (4) Unbound System's Energy         =  -1.08 kcal/molUSERUSERREMARK SMILES CN1CCN(S(=O)(=O)Nc2nccc3ccc(Cl)cc23)CC1REMARK SMILES IDX 6 1 7 2 8 3 5 4 2 5 3 6 22 7 4 8 21 9 1 10 9 11 10 13 11 14REMARK SMILES IDX 20 15 12 16 19 17 14 18 13 19 17 20 15 21 16 22 18 23REMARK H PARENT 9 12USER                              x       y       z     vdW  Elec       q    TypeUSER                           _______ _______ _______ _____ _____    ______ ____ROOTATOM      1  S   UNL     1      37.272  47.898  13.730 -0.53 -0.14    +0.302 S  ATOM      2  O   UNL     1      37.303  49.133  14.477 -0.52 +0.15    -0.189 OA ATOM      3  O   UNL     1      36.953  47.860  12.324 -1.18 +0.05    -0.189 OA ENDROOTBRANCH   1   4ATOM      4  N   UNL     1      36.227  46.848  14.522 -0.29 +0.13    -0.182 NA ATOM      5  N   UNL     1      35.744  44.473  16.296 -0.13 +0.13    -0.304 NA ATOM      6  C   UNL     1      35.288  45.844  16.605 -0.34 -0.08    +0.101 C  ATOM      7  C   UNL     1      36.523  44.424  15.041 -0.37 -0.04    +0.101 C  ATOM      8  C   UNL     1      36.158  46.963  16.003 -0.31 -0.12    +0.119 C  ATOM      9  C   UNL     1      36.073  45.465  13.999 -0.37 -0.06    +0.119 C  ATOM     10  C   UNL     1      36.504  43.887  17.397 -0.30 -0.03    +0.105 C  ENDBRANCH   1   4BRANCH   1  11ATOM     11  N   UNL     1      38.715  47.055  13.952 -0.27 +0.07    -0.254 N  ATOM     12  H   UNL     1      39.148  47.011  13.029 +0.15 -0.02    +0.183 HD BRANCH  11  13ATOM     13  C   UNL     1      39.653  47.767  14.748 -0.39 -0.04    +0.148 A  ATOM     14  N   UNL     1      40.091  48.864  14.100 -0.26 +0.07    -0.238 NA ATOM     15  C   UNL     1      40.063  47.360  16.030 -0.49 -0.01    +0.027 A  ATOM     16  C   UNL     1      40.954  49.650  14.772 -0.49 -0.03    +0.114 A  ATOM     17  C   UNL     1      39.650  46.172  16.675 -0.41 -0.01    +0.033 A  ATOM     18  C   UNL     1      40.975  48.211  16.692 -0.54 +0.00    -0.013 A  ATOM     19  C   UNL     1      41.414  49.375  16.049 -0.46 -0.00    +0.029 A  ATOM     20  C   UNL     1      40.116  45.856  17.949 -0.44 -0.00    +0.041 A  ATOM     21  C   UNL     1      41.430  47.875  17.979 -0.45 -0.00    +0.010 A  ATOM     22  C   UNL     1      41.002  46.704  18.605 -0.48 -0.00    +0.021 A  ATOM     23  Cl  UNL     1      39.600  44.402  18.712 -0.51 +0.00    -0.084 Cl ENDBRANCH  11  13ENDBRANCH   1  11TORSDOF 3TERENDMDL