
     RDKit          3D

 67 70  0  0  0  0  0  0  0  0999 V2000
    8.7363    2.8806   -0.0022 C   0  0  0  0  0  0  0  0  0  0  0  0
    7.4744    2.2528   -0.1879 O   0  0  0  0  0  0  0  0  0  0  0  0
    7.3966    1.2659   -1.1337 C   0  0  0  0  0  0  0  0  0  0  0  0
    8.4716    0.7635   -1.8695 C   0  0  0  0  0  0  0  0  0  0  0  0
    8.2604   -0.2371   -2.8218 C   0  0  0  0  0  0  0  0  0  0  0  0
    6.9802   -0.7448   -3.0315 C   0  0  0  0  0  0  0  0  0  0  0  0
    6.8612   -1.7024   -4.0036 O   0  0  0  0  0  0  0  0  0  0  0  0
    5.8952   -0.2816   -2.2773 C   0  0  0  0  0  0  0  0  0  0  0  0
    4.5488   -0.8508   -2.5122 C   0  0  0  0  0  0  0  0  0  0  0  0
    4.3050   -1.3423   -3.6151 O   0  0  0  0  0  0  0  0  0  0  0  0
    3.4986   -0.8905   -1.4716 C   0  0  0  0  0  0  0  0  0  0  0  0
    3.7844   -1.3004   -0.1649 C   0  0  0  0  0  0  0  0  0  0  0  0
    2.7628   -1.3389    0.7887 C   0  0  0  0  0  0  0  0  0  0  0  0
    1.4527   -0.9775    0.4412 C   0  0  0  0  0  0  0  0  0  0  0  0
    0.4063   -1.0320    1.4981 C   0  0  0  0  0  0  0  0  0  0  0  0
    0.6055   -1.4494    2.6275 O   0  0  0  0  0  0  0  0  0  0  0  0
   -0.7685   -0.5590    1.0213 O   0  0  0  0  0  0  0  0  0  0  0  0
   -1.8748   -0.5346    1.9470 C   0  0  2  0  0  0  0  0  0  0  0  0
   -2.5461   -1.9104    1.9944 C   0  0  0  0  0  0  0  0  0  0  0  0
   -3.8239   -1.8746    2.8301 C   0  0  0  0  0  0  0  0  0  0  0  0
   -4.7385   -0.8463    2.3236 N   0  0  0  0  0  0  0  0  0  0  0  0
   -6.0703   -0.8936    2.9578 C   0  0  0  0  0  0  0  0  0  0  0  0
   -6.1716   -0.6683    4.4781 C   0  0  0  0  0  0  0  0  0  0  0  0
   -5.9382    0.6926    4.8202 O   0  0  0  0  0  0  0  0  0  0  0  0
   -4.1240    0.4967    2.4091 C   0  0  0  0  0  0  0  0  0  0  0  0
   -2.8679    0.5657    1.5141 C   0  0  0  0  0  0  0  0  0  0  0  0
   -3.2525    0.4406    0.1012 N   0  0  0  0  0  0  0  0  0  0  0  0
   -3.5843    1.5443   -0.6522 C   0  0  0  0  0  0  0  0  0  0  0  0
   -3.3758    2.6968   -0.2886 O   0  0  0  0  0  0  0  0  0  0  0  0
   -4.2033    1.2909   -1.9801 C   0  0  0  0  0  0  0  0  0  0  0  0
   -4.9611    0.1506   -2.2512 C   0  0  0  0  0  0  0  0  0  0  0  0
   -5.4954    0.0161   -3.5213 C   0  0  0  0  0  0  0  0  0  0  0  0
   -5.3308    0.9241   -4.5064 N   0  0  0  0  0  0  0  0  0  0  0  0
   -4.6110    2.0280   -4.2092 C   0  0  0  0  0  0  0  0  0  0  0  0
   -4.0359    2.2569   -2.9736 C   0  0  0  0  0  0  0  0  0  0  0  0
    1.1693   -0.5912   -0.8774 C   0  0  0  0  0  0  0  0  0  0  0  0
    2.1887   -0.5580   -1.8332 C   0  0  0  0  0  0  0  0  0  0  0  0
    6.1144    0.7397   -1.3501 C   0  0  0  0  0  0  0  0  0  0  0  0
    5.0851    1.2617   -0.6632 F   0  0  0  0  0  0  0  0  0  0  0  0
    9.0774    3.3620   -0.9245 H   0  0  0  0  0  0  0  0  0  0  0  0
    9.4789    2.1681    0.3705 H   0  0  0  0  0  0  0  0  0  0  0  0
    8.6129    3.6608    0.7552 H   0  0  0  0  0  0  0  0  0  0  0  0
    9.4830    1.1332   -1.7357 H   0  0  0  0  0  0  0  0  0  0  0  0
    9.0943   -0.6175   -3.4082 H   0  0  0  0  0  0  0  0  0  0  0  0
    5.9011   -1.8464   -4.1731 H   0  0  0  0  0  0  0  0  0  0  0  0
    4.7902   -1.5939    0.1250 H   0  0  0  0  0  0  0  0  0  0  0  0
    2.9933   -1.6500    1.8071 H   0  0  0  0  0  0  0  0  0  0  0  0
   -1.5102   -0.2724    2.9501 H   0  0  0  0  0  0  0  0  0  0  0  0
   -2.7651   -2.2605    0.9774 H   0  0  0  0  0  0  0  0  0  0  0  0
   -1.8546   -2.6510    2.4125 H   0  0  0  0  0  0  0  0  0  0  0  0
   -3.5635   -1.6982    3.8807 H   0  0  0  0  0  0  0  0  0  0  0  0
   -4.2991   -2.8607    2.7706 H   0  0  0  0  0  0  0  0  0  0  0  0
   -6.5070   -1.8750    2.7330 H   0  0  0  0  0  0  0  0  0  0  0  0
   -6.7110   -0.1613    2.4510 H   0  0  0  0  0  0  0  0  0  0  0  0
   -5.4748   -1.3018    5.0335 H   0  0  0  0  0  0  0  0  0  0  0  0
   -7.1861   -0.9197    4.8048 H   0  0  0  0  0  0  0  0  0  0  0  0
   -6.0531    0.7674    5.7833 H   0  0  0  0  0  0  0  0  0  0  0  0
   -3.8414    0.7374    3.4412 H   0  0  0  0  0  0  0  0  0  0  0  0
   -4.8405    1.2560    2.0728 H   0  0  0  0  0  0  0  0  0  0  0  0
   -2.3847    1.5418    1.6401 H   0  0  0  0  0  0  0  0  0  0  0  0
   -3.5439   -0.4800   -0.1927 H   0  0  0  0  0  0  0  0  0  0  0  0
   -5.1680   -0.6055   -1.5045 H   0  0  0  0  0  0  0  0  0  0  0  0
   -6.0965   -0.8498   -3.7883 H   0  0  0  0  0  0  0  0  0  0  0  0
   -4.5074    2.7473   -5.0165 H   0  0  0  0  0  0  0  0  0  0  0  0
   -3.4692    3.1646   -2.7879 H   0  0  0  0  0  0  0  0  0  0  0  0
    0.1607   -0.3138   -1.1760 H   0  0  0  0  0  0  0  0  0  0  0  0
    1.9606   -0.2646   -2.8561 H   0  0  0  0  0  0  0  0  0  0  0  0
  1  2  1  0
  2  3  1  0
  3  4  2  0
  4  5  1  0
  5  6  2  0
  6  7  1  0
  6  8  1  0
  8  9  1  0
  9 10  2  0
  9 11  1  0
 11 12  2  0
 12 13  1  0
 13 14  2  0
 14 15  1  0
 15 16  2  0
 15 17  1  0
 17 18  1  0
 18 19  1  0
 19 20  1  0
 20 21  1  0
 21 22  1  0
 22 23  1  0
 23 24  1  0
 21 25  1  0
 25 26  1  0
 26 27  1  0
 27 28  1  0
 28 29  2  0
 28 30  1  0
 30 31  2  0
 31 32  1  0
 32 33  2  0
 33 34  1  0
 34 35  2  0
 14 36  1  0
 36 37  2  0
  8 38  2  0
 38 39  1  0
 38  3  1  0
 37 11  1  0
 26 18  1  0
 35 30  1  0
  1 40  1  0
  1 41  1  0
  1 42  1  0
  4 43  1  0
  5 44  1  0
  7 45  1  0
 12 46  1  0
 13 47  1  0
 18 48  1  1
 19 49  1  0
 19 50  1  0
 20 51  1  0
 20 52  1  0
 22 53  1  0
 22 54  1  0
 23 55  1  0
 23 56  1  0
 24 57  1  0
 25 58  1  0
 25 59  1  0
 26 60  1  0
 27 61  1  0
 31 62  1  0
 32 63  1  0
 34 64  1  0
 35 65  1  0
 36 66  1  0
 37 67  1  0
M  END
$$$$
