
     RDKit          3D

 42 44  0  0  0  0  0  0  0  0999 V2000
   -3.9688   -1.6109    2.2896 O   0  0  0  0  0  0  0  0  0  0  0  0
   -2.6761   -0.9754    2.1875 S   0  0  0  0  0  0  0  0  0  0  0  0
   -1.6032   -1.3436    3.0813 O   0  0  0  0  0  0  0  0  0  0  0  0
   -2.1555   -1.1467    0.6030 N   0  0  0  0  0  0  0  0  0  0  0  0
   -0.8826   -0.6013    0.2899 C   0  0  0  0  0  0  0  0  0  0  0  0
   -0.3708   -0.9901   -0.8821 C   0  0  0  0  0  0  0  0  0  0  0  0
    0.9129   -0.4919   -1.4045 C   0  0  0  0  0  0  0  0  0  0  0  0
    0.9740   -0.1356   -2.7541 C   0  0  0  0  0  0  0  0  0  0  0  0
    2.1689    0.3470   -3.2672 C   0  0  0  0  0  0  0  0  0  0  0  0
    3.3062    0.4713   -2.5500 N   0  0  0  0  0  0  0  0  0  0  0  0
    3.2592    0.0812   -1.2617 C   0  0  0  0  0  0  0  0  0  0  0  0
    4.4746    0.1605   -0.5343 N   0  0  0  0  0  0  0  0  0  0  0  0
    5.1016   -1.1324   -0.1702 C   0  0  0  0  0  0  0  0  0  0  0  0
    5.9772   -1.8675   -1.1459 C   0  0  0  0  0  0  0  0  0  0  0  0
    6.5867   -1.2035    0.0555 C   0  0  0  0  0  0  0  0  0  0  0  0
    2.0831   -0.3768   -0.6492 C   0  0  0  0  0  0  0  0  0  0  0  0
    2.0804   -0.6653    0.6917 O   0  0  0  0  0  0  0  0  0  0  0  0
   -2.8711    0.6983    2.3314 N   0  0  0  0  0  0  0  0  0  0  0  0
   -3.9375    1.2805    1.5761 C   0  0  0  0  0  0  0  0  0  0  0  0
   -5.2389    1.2942    2.0856 C   0  0  0  0  0  0  0  0  0  0  0  0
   -6.2756    1.8361    1.3241 C   0  0  0  0  0  0  0  0  0  0  0  0
   -6.0026    2.3513    0.0611 C   0  0  0  0  0  0  0  0  0  0  0  0
   -6.9979    2.8716   -0.6683 F   0  0  0  0  0  0  0  0  0  0  0  0
   -4.7127    2.3307   -0.4577 C   0  0  0  0  0  0  0  0  0  0  0  0
   -3.6756    1.7880    0.3018 C   0  0  0  0  0  0  0  0  0  0  0  0
   -2.3731   -2.0672    0.2238 H   0  0  0  0  0  0  0  0  0  0  0  0
   -0.4167    0.1043    0.9721 H   0  0  0  0  0  0  0  0  0  0  0  0
   -0.9067   -1.6724   -1.5356 H   0  0  0  0  0  0  0  0  0  0  0  0
    0.1035   -0.2065   -3.3985 H   0  0  0  0  0  0  0  0  0  0  0  0
    2.2436    0.6547   -4.3073 H   0  0  0  0  0  0  0  0  0  0  0  0
    5.0665    0.6729   -1.1950 H   0  0  0  0  0  0  0  0  0  0  0  0
    4.4934   -1.7414    0.4947 H   0  0  0  0  0  0  0  0  0  0  0  0
    5.9199   -2.9502   -1.1550 H   0  0  0  0  0  0  0  0  0  0  0  0
    6.1517   -1.4239   -2.1189 H   0  0  0  0  0  0  0  0  0  0  0  0
    6.9457   -1.8361    0.8590 H   0  0  0  0  0  0  0  0  0  0  0  0
    7.1770   -0.3086   -0.1000 H   0  0  0  0  0  0  0  0  0  0  0  0
    2.9301   -0.3197    1.0298 H   0  0  0  0  0  0  0  0  0  0  0  0
   -2.9484    0.8956    3.3297 H   0  0  0  0  0  0  0  0  0  0  0  0
   -5.4593    0.8722    3.0624 H   0  0  0  0  0  0  0  0  0  0  0  0
   -7.2924    1.8520    1.7031 H   0  0  0  0  0  0  0  0  0  0  0  0
   -4.5239    2.7345   -1.4472 H   0  0  0  0  0  0  0  0  0  0  0  0
   -2.6668    1.7702   -0.0998 H   0  0  0  0  0  0  0  0  0  0  0  0
  1  2  2  0
  2  3  2  0
  2  4  1  0
  4  5  1  0
  5  6  2  3
  6  7  1  0
  7  8  2  0
  8  9  1  0
  9 10  2  0
 10 11  1  0
 11 12  1  0
 12 13  1  0
 13 14  1  0
 14 15  1  0
 11 16  2  0
 16 17  1  0
  2 18  1  0
 18 19  1  0
 19 20  2  0
 20 21  1  0
 21 22  2  0
 22 23  1  0
 22 24  1  0
 24 25  2  0
 16  7  1  0
 25 19  1  0
 15 13  1  0
  4 26  1  0
  5 27  1  0
  6 28  1  0
  8 29  1  0
  9 30  1  0
 12 31  1  0
 13 32  1  0
 14 33  1  0
 14 34  1  0
 15 35  1  0
 15 36  1  0
 17 37  1  0
 18 38  1  0
 20 39  1  0
 21 40  1  0
 24 41  1  0
 25 42  1  0
M  END
$$$$
