MODEL        9USER    Run = 9USERUSER    Estimated Free Energy of Binding    =  -8.12 kcal/mol  [=(1)+(2)+(3)-(4)]USERUSER    (1) Final Intermolecular Energy     = -10.50 kcal/molUSER        vdW + Hbond + desolv Energy     = -10.36 kcal/molUSER        Electrostatic Energy            =  -0.19 kcal/molUSER        Moving Ligand-Fixed Receptor    = -10.55 kcal/molUSER        Moving Ligand-Moving Receptor   =  +0.05 kcal/molUSER    (2) Final Total Internal Energy     =  -1.01 kcal/molUSER    (3) Torsional Free Energy           =  +2.39 kcal/molUSER    (4) Unbound System's Energy         =  -1.01 kcal/molUSERUSERREMARK SMILES CC=c1[nH]cc2c1=CCC(=O)Nc1nc(NCC3CCOCC3)ccc1-2REMARK SMILES IDX 13 1 14 2 15 3 24 4 25 5 26 6 6 7 3 8 4 9 7 10 5 11 2 13REMARK SMILES IDX 1 14 8 15 9 16 12 18 10 19 11 21 16 23 17 25 18 26 19 27REMARK SMILES IDX 23 28 20 29 22 30 21 31REMARK H PARENT 4 12 12 20 16 24REMARK Flexibility Score:   44.900USER                              x       y       z     vdW  Elec       q    TypeUSER                           _______ _______ _______ _____ _____    ______ ____ROOTATOM      1  C   UNL     1      40.368  46.705  17.443 -0.39 -0.02    +0.142 A  ATOM      2  N   UNL     1      41.074  46.453  18.573 -0.34 +0.00    -0.213 NA ATOM      3  C   UNL     1      40.478  45.812  19.594 -0.33 +0.00    +0.128 A  ATOM      4  C   UNL     1      39.168  45.370  19.494 -0.37 -0.00    +0.047 A  ATOM      5  C   UNL     1      38.467  45.574  18.306 -0.38 -0.00    +0.016 A  ATOM      6  C   UNL     1      39.070  46.229  17.223 -0.41 -0.01    +0.027 A  ENDROOTBRANCH   6   7ATOM      7  C   UNL     1      38.349  46.235  15.941 -0.39 -0.00    +0.010 A  ATOM      8  C   UNL     1      37.294  46.672  13.840 -0.44 -0.02    +0.041 A  ATOM      9  N   UNL     1      37.121  45.368  14.243 -0.15 +0.14    -0.361 N  ATOM     10  C   UNL     1      38.068  47.288  14.944 -0.46 -0.00    +0.004 A  ATOM     11  C   UNL     1      37.783  45.121  15.422 -0.28 -0.03    +0.092 A  ATOM     12  H   UNL     1      36.901  44.635  13.585 +0.12 -0.06    +0.166 HD BRANCH   8  13ATOM     13  C   UNL     1      36.899  47.246  12.695 -0.73 +0.00    -0.004 C  ATOM     14  C   UNL     1      36.920  46.605  11.345 -0.58 -0.01    +0.038 C  ENDBRANCH   8  13BRANCH  10  15ATOM     15  C   UNL     1      38.468  48.567  15.005 -0.59 +0.00    -0.006 C  BRANCH  15  16ATOM     16  C   UNL     1      39.317  49.139  16.087 -0.13 -0.07    +0.128 CG0ATOM     17  G   UNL     1      40.733  48.622  15.922 +0.00 +0.00    +0.000 G0 ENDBRANCH  15  16ENDBRANCH  10  15ENDBRANCH   6   7BRANCH   1  18ATOM     18  N   UNL     1      41.106  47.457  16.528 -0.19 +0.04    -0.310 N  ATOM     19  C   UNL     1      40.733  48.621  15.921 -0.47 -0.04    +0.229 CG0ATOM     20  H   UNL     1      42.107  47.407  16.669 -0.42 -0.05    +0.171 HD ATOM     21  O   UNL     1      41.567  49.254  15.268 -0.76 +0.01    -0.274 OA ATOM     22  G   UNL     1      39.317  49.139  16.087 +0.00 +0.00    +0.000 G0 ENDBRANCH   1  18BRANCH   3  23ATOM     23  N   UNL     1      41.180  45.534  20.781 -0.13 -0.04    -0.370 N  ATOM     24  H   UNL     1      41.440  44.553  20.774 +0.09 +0.02    +0.162 HD BRANCH  23  25ATOM     25  C   UNL     1      40.473  45.910  22.005 -0.24 +0.01    +0.118 C  BRANCH  25  26ATOM     26  C   UNL     1      41.404  46.709  22.932 -0.26 +0.00    +0.013 C  ATOM     27  C   UNL     1      42.563  47.314  22.125 -0.33 +0.01    +0.034 C  ATOM     28  C   UNL     1      40.665  47.828  23.683 -0.29 +0.00    +0.034 C  ATOM     29  C   UNL     1      43.432  48.205  23.002 -0.30 +0.04    +0.160 C  ATOM     30  C   UNL     1      41.643  48.690  24.471 -0.33 +0.03    +0.160 C  ATOM     31  O   UNL     1      42.646  49.227  23.612 -0.88 -0.15    -0.381 OA ENDBRANCH  25  26ENDBRANCH  23  25ENDBRANCH   3  23TORSDOF 4TERENDMDL