REMARK SMILES CO[CH][C@@H](O)n1cnc2c(N)ncc(-c3ccccc3C(F)(F)F)c21
REMARK SMILES IDX 6 1 7 2 8 3 9 4 10 5 12 6 13 7 14 8 25 9 4 10 3 11 2 12 1 13
REMARK SMILES IDX 5 14 15 16 16 17 20 18 17 19 19 20 18 21 21 22 22 23 23 24
REMARK SMILES IDX 24 25 11 26
REMARK H PARENT 5 15 11 27 11 28
ROOT
ATOM      1  N   UNL     1       1.019   1.422   0.875  1.00  0.00    -0.300 N 
ATOM      2  C   UNL     1       1.354   2.484   1.683  1.00  0.00     0.203 A 
ATOM      3  N   UNL     1       0.315   3.205   2.013  1.00  0.00    -0.233 NA
ATOM      4  C   UNL     1      -0.754   2.596   1.390  1.00  0.00     0.131 A 
ATOM      5  C   UNL     1      -2.115   2.985   1.427  1.00  0.00     0.151 A 
ATOM      6  N   UNL     1      -3.021   2.296   0.706  1.00  0.00    -0.237 NA
ATOM      7  C   UNL     1      -2.606   1.228  -0.010  1.00  0.00     0.124 A 
ATOM      8  C   UNL     1      -1.293   0.739  -0.101  1.00  0.00     0.027 A 
ATOM      9  C   UNL     1      -0.346   1.480   0.639  1.00  0.00     0.084 A 
ENDROOT
BRANCH   1  10
ATOM     10  C   UNL     1       2.035   0.458   0.446  1.00  0.00     0.248 C 
BRANCH  10  11
ATOM     11  C   UNL     1       1.812  -0.918   0.983  1.00  0.00     0.201 C 
BRANCH  11  12
ATOM     12  O   UNL     1       2.731  -1.942   0.905  1.00  0.00    -0.374 OA
ATOM     13  C   UNL     1       3.650  -1.910  -0.182  1.00  0.00     0.195 C 
ENDBRANCH  11  12
ENDBRANCH  10  11
BRANCH  10  14
ATOM     14  O   UNL     1       2.134   0.484  -0.969  1.00  0.00    -0.370 OA
ATOM     15  H   UNL     1       1.642  -0.286  -1.296  1.00  0.00     0.213 HD
ENDBRANCH  10  14
ENDBRANCH   1  10
BRANCH   8  16
ATOM     16  C   UNL     1      -0.996  -0.410  -0.952  1.00  0.00    -0.002 A 
ATOM     17  C   UNL     1      -0.587  -0.171  -2.280  1.00  0.00     0.009 A 
ATOM     18  C   UNL     1      -1.173  -1.746  -0.527  1.00  0.00     0.063 A 
ATOM     19  C   UNL     1      -0.299  -1.222  -3.151  1.00  0.00     0.001 A 
ATOM     20  C   UNL     1      -0.876  -2.796  -1.421  1.00  0.00     0.014 A 
ATOM     21  C   UNL     1      -0.434  -2.535  -2.717  1.00  0.00     0.001 A 
BRANCH  18  22
ATOM     22  C   UNL     1      -1.738  -2.086   0.837  1.00  0.00     0.417 C 
ATOM     23  F   UNL     1      -1.137  -1.419   1.859  1.00  0.00    -0.166 F 
ATOM     24  F   UNL     1      -3.067  -1.807   0.926  1.00  0.00    -0.166 F 
ATOM     25  F   UNL     1      -1.620  -3.409   1.151  1.00  0.00    -0.166 F 
ENDBRANCH  18  22
ENDBRANCH   8  16
BRANCH   5  26
ATOM     26  N   UNL     1      -2.563   4.078   2.157  1.00  0.00    -0.382 N 
ATOM     27  H   UNL     1      -1.821   4.735   2.369  1.00  0.00     0.158 HD
ATOM     28  H   UNL     1      -3.428   4.442   1.782  1.00  0.00     0.158 HD
ENDBRANCH   5  26
TORSDOF 7
