REMARK SMILES C=CC(=O)Nc1cccc(N(CCC(=O)O)c2ccccc2)c1O
REMARK SMILES IDX 11 1 10 2 6 3 7 4 23 5 8 6 9 7 5 8 3 9 4 10 2 12 1 13 24 14
REMARK SMILES IDX 12 16 13 17 14 18 15 19 16 20 17 22 18 23 22 24 19 25 21 26
REMARK SMILES IDX 20 27
REMARK H PARENT 5 11 24 15 16 21
ROOT
ATOM      1  N   UNL     1      -0.919   0.822  -0.169  1.00  0.00    -0.338 N 
ENDROOT
BRANCH   1   2
ATOM      2  C   UNL     1       0.462   0.756  -0.532  1.00  0.00     0.086 A 
ATOM      3  C   UNL     1       2.568  -0.489  -0.521  1.00  0.00     0.086 A 
ATOM      4  C   UNL     1       3.175   0.586  -1.188  1.00  0.00     0.030 A 
ATOM      5  C   UNL     1       1.199  -0.410  -0.244  1.00  0.00     0.163 A 
ATOM      6  C   UNL     1       2.448   1.738  -1.505  1.00  0.00     0.005 A 
ATOM      7  C   UNL     1       1.099   1.830  -1.166  1.00  0.00     0.030 A 
BRANCH   3   8
ATOM      8  N   UNL     1       3.387  -1.603  -0.228  1.00  0.00    -0.319 N 
ATOM      9  C   UNL     1       3.221  -2.479   0.827  1.00  0.00     0.247 C 
ATOM     10  O   UNL     1       2.472  -2.363   1.788  1.00  0.00    -0.270 OA
ATOM     11  H   UNL     1       4.265  -1.649  -0.723  1.00  0.00     0.170 HD
BRANCH   9  12
ATOM     12  C   UNL     1       4.188  -3.614   0.742  1.00  0.00     0.064 C 
ATOM     13  C   UNL     1       4.266  -4.523   1.720  1.00  0.00     0.014 C 
ENDBRANCH   9  12
ENDBRANCH   3   8
BRANCH   5  14
ATOM     14  O   UNL     1       0.496  -1.506   0.190  1.00  0.00    -0.504 OA
ATOM     15  H   UNL     1      -0.439  -1.227   0.191  1.00  0.00     0.293 HD
ENDBRANCH   5  14
ENDBRANCH   1   2
BRANCH   1  16
ATOM     16  C   UNL     1      -1.050   1.429   1.180  1.00  0.00     0.134 C 
BRANCH  16  17
ATOM     17  C   UNL     1      -1.864   0.529   2.108  1.00  0.00     0.144 C 
BRANCH  17  18
ATOM     18  C   UNL     1      -2.098   1.224   3.415  1.00  0.00     0.305 C 
ATOM     19  O   UNL     1      -1.700   2.327   3.746  1.00  0.00    -0.252 OA
BRANCH  18  20
ATOM     20  O   UNL     1      -2.862   0.493   4.248  1.00  0.00    -0.481 OA
ATOM     21  H   UNL     1      -2.934   1.043   5.057  1.00  0.00     0.296 HD
ENDBRANCH  18  20
ENDBRANCH  17  18
ENDBRANCH  16  17
ENDBRANCH   1  16
BRANCH   1  22
ATOM     22  C   UNL     1      -1.959   0.995  -1.117  1.00  0.00     0.041 A 
ATOM     23  C   UNL     1      -1.805   0.476  -2.418  1.00  0.00     0.026 A 
ATOM     24  C   UNL     1      -3.183   1.622  -0.831  1.00  0.00     0.026 A 
ATOM     25  C   UNL     1      -2.808   0.594  -3.388  1.00  0.00     0.002 A 
ATOM     26  C   UNL     1      -4.191   1.743  -1.798  1.00  0.00     0.002 A 
ATOM     27  C   UNL     1      -4.003   1.231  -3.077  1.00  0.00     0.000 A 
ENDBRANCH   1  22
TORSDOF 9
