REMARK SMILES CNC1=C(c2ccc(OC(C)C)cc2)C=C(c2ccc3ccccc3c2)N[C@@H]1N
REMARK SMILES IDX 5 1 6 2 7 3 8 4 13 5 14 6 4 7 3 8 28 9 15 10 27 11 16 12
REMARK SMILES IDX 2 14 1 15 29 17 17 20 18 21 26 22 19 23 25 24 20 25 24 26
REMARK SMILES IDX 21 27 23 28 22 29 9 30 10 31 11 32 12 33
REMARK H PARENT 27 13 2 16 29 18 29 19
ROOT
ATOM      1  C   UNL     1      -1.480  -0.658   0.343  1.00  0.00    -0.016 A 
ATOM      2  C   UNL     1      -2.121  -0.717   1.584  1.00  0.00     0.012 A 
ATOM      3  C   UNL     1      -3.333  -0.051   1.778  1.00  0.00     0.047 A 
ATOM      4  C   UNL     1      -3.916   0.692   0.748  1.00  0.00     0.119 A 
ATOM      5  C   UNL     1      -3.273   0.759  -0.488  1.00  0.00     0.047 A 
ATOM      6  C   UNL     1      -2.058   0.093  -0.688  1.00  0.00     0.012 A 
ENDROOT
BRANCH   1   7
ATOM      7  C   UNL     1      -0.180  -1.333   0.138  1.00  0.00     0.006 C 
ATOM      8  C   UNL     1      -0.081  -2.679  -0.063  1.00  0.00     0.056 C 
ATOM      9  C   UNL     1       1.339  -3.333  -0.202  1.00  0.00     0.193 C 
ATOM     10  C   UNL     1       1.030  -0.515   0.177  1.00  0.00     0.037 C 
ATOM     11  N   UNL     1       2.418  -2.437   0.129  1.00  0.00    -0.364 N 
ATOM     12  C   UNL     1       2.251  -1.068   0.158  1.00  0.00     0.044 C 
ATOM     13  H   UNL     1       3.277  -2.706  -0.339  1.00  0.00     0.162 HD
BRANCH   8  14
ATOM     14  N   UNL     1      -1.144  -3.607  -0.144  1.00  0.00    -0.388 N 
ATOM     15  C   UNL     1      -2.443  -3.375  -0.742  1.00  0.00     0.139 C 
ATOM     16  H   UNL     1      -0.826  -4.568  -0.240  1.00  0.00     0.160 HD
ENDBRANCH   8  14
BRANCH   9  17
ATOM     17  N   UNL     1       1.451  -3.995  -1.497  1.00  0.00    -0.306 NA
ATOM     18  H   UNL     1       1.912  -4.887  -1.358  1.00  0.00     0.121 HD
ATOM     19  H   UNL     1       0.511  -4.188  -1.830  1.00  0.00     0.121 HD
ENDBRANCH   9  17
BRANCH  12  20
ATOM     20  C   UNL     1       3.465  -0.231   0.190  1.00  0.00    -0.002 A 
ATOM     21  C   UNL     1       4.449  -0.465   1.156  1.00  0.00     0.011 A 
ATOM     22  C   UNL     1       3.668   0.788  -0.751  1.00  0.00     0.019 A 
ATOM     23  C   UNL     1       5.609   0.313   1.194  1.00  0.00     0.009 A 
ATOM     24  C   UNL     1       4.830   1.580  -0.728  1.00  0.00    -0.018 A 
ATOM     25  C   UNL     1       5.813   1.339   0.259  1.00  0.00    -0.018 A 
ATOM     26  C   UNL     1       5.037   2.605  -1.665  1.00  0.00     0.009 A 
ATOM     27  C   UNL     1       6.972   2.131   0.283  1.00  0.00     0.009 A 
ATOM     28  C   UNL     1       6.195   3.384  -1.629  1.00  0.00     0.001 A 
ATOM     29  C   UNL     1       7.161   3.147  -0.655  1.00  0.00     0.001 A 
ENDBRANCH  12  20
ENDBRANCH   1   7
BRANCH   4  30
ATOM     30  O   UNL     1      -5.103   1.281   1.079  1.00  0.00    -0.491 OA
BRANCH  30  31
ATOM     31  C   UNL     1      -5.707   2.201   0.165  1.00  0.00     0.167 C 
ATOM     32  C   UNL     1      -6.514   3.188   1.005  1.00  0.00     0.052 C 
ATOM     33  C   UNL     1      -6.633   1.452  -0.789  1.00  0.00     0.052 C 
ENDBRANCH  30  31
ENDBRANCH   4  30
TORSDOF 6
