MODEL        4USER    Run = 4USERUSER    Estimated Free Energy of Binding    =  -8.20 kcal/mol  [=(1)+(2)+(3)-(4)]USERUSER    (1) Final Intermolecular Energy     =  -9.69 kcal/molUSER        vdW + Hbond + desolv Energy     =  -9.42 kcal/molUSER        Electrostatic Energy            =  -0.26 kcal/molUSER        Moving Ligand-Fixed Receptor    =  -9.69 kcal/molUSER        Moving Ligand-Moving Receptor   =  +0.00 kcal/molUSER    (2) Final Total Internal Energy     =  -0.91 kcal/molUSER    (3) Torsional Free Energy           =  +1.49 kcal/molUSER    (4) Unbound System's Energy         =  -0.91 kcal/molUSERUSERREMARK SMILES COc1ccc(-c2cnc3snc(CN(C)C)c3c2)cc1OCREMARK SMILES IDX 7 1 8 2 9 3 10 4 11 5 12 6 13 7 18 8 19 9 6 10 3 11 4 12REMARK SMILES IDX 21 13 5 14 20 15 2 16 1 17 22 18 23 19 14 20 15 21 16 22REMARK SMILES IDX 17 23REMARK H PARENTUSER                              x       y       z     vdW  Elec       q    TypeUSER                           _______ _______ _______ _____ _____    ______ ____ROOTATOM      1  C   UNL     1      37.215  45.848  17.732 -0.32 -0.00    +0.001 A  ATOM      2  C   UNL     1      38.493  45.712  18.278 -0.30 -0.02    +0.121 A  ATOM      3  N   UNL     1      39.635  46.268  17.808 -0.28 +0.04    -0.243 NA ATOM      4  C   UNL     1      39.450  47.015  16.703 -0.36 -0.04    +0.143 A  ATOM      5  S   UNL     1      40.712  47.822  15.897 -0.73 +0.00    -0.016 S  ATOM      6  N   UNL     1      39.770  48.475  14.699 -0.39 +0.06    -0.193 NA ATOM      7  C   UNL     1      38.496  48.119  14.904 -0.47 -0.04    +0.078 A  ATOM      8  C   UNL     1      38.253  47.253  16.038 -0.40 -0.02    +0.037 A  ATOM      9  C   UNL     1      37.100  46.641  16.579 -0.33 -0.01    +0.023 A  ENDROOTBRANCH   1  10ATOM     10  C   UNL     1      36.044  45.198  18.334 -0.32 +0.00    -0.013 A  ATOM     11  C   UNL     1      33.783  43.943  19.484 -0.31 -0.02    +0.160 A  ATOM     12  C   UNL     1      33.630  45.050  18.645 -0.40 -0.02    +0.051 A  ATOM     13  C   UNL     1      35.077  43.456  19.756 -0.30 -0.01    +0.161 A  ATOM     14  C   UNL     1      34.748  45.670  18.079 -0.42 -0.01    +0.013 A  ATOM     15  C   UNL     1      36.189  44.084  19.179 -0.33 -0.01    +0.059 A  BRANCH  11  16ATOM     16  O   UNL     1      32.747  43.272  20.084 -0.70 -0.06    -0.493 OA ATOM     17  C   UNL     1      32.104  42.248  19.338 -0.16 +0.00    +0.278 C  ENDBRANCH  11  16BRANCH  13  18ATOM     18  O   UNL     1      35.147  42.367  20.590 -0.24 -0.03    -0.493 OA ATOM     19  C   UNL     1      36.421  42.001  21.097 -0.37 +0.00    +0.278 C  ENDBRANCH  13  18ENDBRANCH   1  10BRANCH   7  20ATOM     20  C   UNL     1      37.448  48.600  13.928 -0.47 -0.08    +0.141 C  BRANCH  20  21ATOM     21  N   UNL     1      37.186  47.696  12.792 -0.87 +0.09    -0.304 NA ATOM     22  C   UNL     1      35.799  47.746  12.336 -0.52 -0.06    +0.105 C  ATOM     23  C   UNL     1      37.619  46.322  13.021 -0.42 -0.03    +0.105 C  ENDBRANCH  20  21ENDBRANCH   7  20TORSDOF 5TERENDMDL