MODEL        5USER    Run = 5USERUSER    Estimated Free Energy of Binding    =  -8.95 kcal/mol  [=(1)+(2)+(3)-(4)]USERUSER    (1) Final Intermolecular Energy     = -10.44 kcal/molUSER        vdW + Hbond + desolv Energy     = -10.34 kcal/molUSER        Electrostatic Energy            =  -0.10 kcal/molUSER        Moving Ligand-Fixed Receptor    = -10.44 kcal/molUSER        Moving Ligand-Moving Receptor   =  +0.00 kcal/molUSER    (2) Final Total Internal Energy     =  -2.26 kcal/molUSER    (3) Torsional Free Energy           =  +1.49 kcal/molUSER    (4) Unbound System's Energy         =  -2.26 kcal/molUSERUSERREMARK SMILES Nc1nccc(-c2cccc(Cl)c2NS(=O)(=O)c2nccs2)n1REMARK SMILES IDX 7 1 8 2 9 3 10 4 11 5 12 6 13 7 6 8 2 9 3 10 23 11 4 12 5 13REMARK SMILES IDX 1 14 14 17 15 19 16 20 17 21 18 22 19 23 22 24 20 25 21 26REMARK H PARENT 1 15 1 16 14 18USER                              x       y       z     vdW  Elec       q    TypeUSER                           _______ _______ _______ _____ _____    ______ ____ROOTATOM      1  C   UNL     1      39.267  46.230  17.581 -0.42 -0.01    +0.026 A  ATOM      2  C   UNL     1      38.007  45.661  17.872 -0.37 -0.00    +0.012 A  ATOM      3  C   UNL     1      36.937  45.738  16.978 -0.36 -0.00    +0.002 A  ATOM      4  C   UNL     1      37.098  46.390  15.762 -0.37 -0.01    +0.023 A  ATOM      5  C   UNL     1      38.334  46.947  15.439 -0.38 -0.03    +0.065 A  ATOM      6  Cl  UNL     1      38.487  47.762  13.919 -0.67 +0.03    -0.082 Cl ATOM      7  C   UNL     1      39.424  46.869  16.333 -0.41 -0.02    +0.077 A  ENDROOTBRANCH   1   8ATOM      8  C   UNL     1      40.321  46.160  18.608 -0.41 -0.00    +0.078 A  ATOM      9  C   UNL     1      42.374  46.922  19.297 -0.35 +0.03    +0.220 A  ATOM     10  N   UNL     1      42.421  46.092  20.340 -0.22 -0.06    -0.222 NA ATOM     11  N   UNL     1      41.381  46.976  18.405 -0.38 +0.01    -0.213 NA ATOM     12  C   UNL     1      41.356  45.292  20.512 -0.29 +0.01    +0.117 A  ATOM     13  C   UNL     1      40.270  45.281  19.670 -0.39 +0.00    +0.049 A  BRANCH   9  14ATOM     14  N   UNL     1      43.455  47.756  19.099 -0.26 -0.05    -0.368 N  ATOM     15  H   UNL     1      43.132  48.646  18.749 -0.32 -0.01    +0.159 HD ATOM     16  H   UNL     1      44.034  47.763  19.927 -0.46 +0.04    +0.159 HD ENDBRANCH   9  14ENDBRANCH   1   8BRANCH   7  17ATOM     17  N   UNL     1      40.719  47.346  15.890 -0.28 +0.03    -0.275 N  ATOM     18  H   UNL     1      41.488  46.954  16.443 -0.27 -0.02    +0.180 HD BRANCH  17  19ATOM     19  S   UNL     1      40.920  49.055  16.001 -0.59 -0.05    +0.289 S  ATOM     20  O   UNL     1      39.618  49.687  15.928 -0.43 +0.11    -0.199 OA ATOM     21  O   UNL     1      41.781  49.258  17.149 -0.99 -0.04    -0.199 OA BRANCH  19  22ATOM     22  C   UNL     1      41.877  49.604  14.601 -0.37 -0.02    +0.230 A  ATOM     23  N   UNL     1      42.147  48.877  13.529 -0.05 +0.01    -0.232 NA ATOM     24  S   UNL     1      42.540  51.180  14.636 -0.45 +0.02    -0.110 S  ATOM     25  C   UNL     1      42.909  49.633  12.659 -0.42 -0.03    +0.124 A  ATOM     26  C   UNL     1      43.218  50.908  13.084 -0.44 -0.04    +0.088 A  ENDBRANCH  19  22ENDBRANCH  17  19ENDBRANCH   7  17TORSDOF 5TERENDMDL