REMARK SMILES COc1ccc(-c2cnc3snc(CN(C)C)c3c2)cc1OC
REMARK SMILES IDX 7 1 8 2 9 3 10 4 11 5 12 6 13 7 18 8 19 9 6 10 3 11 4 12
REMARK SMILES IDX 21 13 5 14 20 15 2 16 1 17 22 18 23 19 14 20 15 21 16 22
REMARK SMILES IDX 17 23
REMARK H PARENT
ROOT
ATOM      1  C   UNL     1      -0.129   0.513  -1.309  1.00  0.00     0.001 A 
ATOM      2  C   UNL     1       0.159   0.909  -2.616  1.00  0.00     0.121 A 
ATOM      3  N   UNL     1       1.325   1.434  -3.062  1.00  0.00    -0.243 NA
ATOM      4  C   UNL     1       2.257   1.560  -2.098  1.00  0.00     0.143 A 
ATOM      5  S   UNL     1       3.809   2.198  -2.375  1.00  0.00    -0.016 S 
ATOM      6  N   UNL     1       4.343   2.055  -0.812  1.00  0.00    -0.193 NA
ATOM      7  C   UNL     1       3.375   1.502  -0.070  1.00  0.00     0.078 A 
ATOM      8  C   UNL     1       2.134   1.215  -0.758  1.00  0.00     0.037 A 
ATOM      9  C   UNL     1       0.891   0.675  -0.358  1.00  0.00     0.023 A 
ENDROOT
BRANCH   1  10
ATOM     10  C   UNL     1      -1.435  -0.051  -0.942  1.00  0.00    -0.013 A 
ATOM     11  C   UNL     1      -3.946  -1.146  -0.232  1.00  0.00     0.160 A 
ATOM     12  C   UNL     1      -3.193  -1.709  -1.266  1.00  0.00     0.051 A 
ATOM     13  C   UNL     1      -3.445  -0.023   0.455  1.00  0.00     0.161 A 
ATOM     14  C   UNL     1      -1.953  -1.166  -1.616  1.00  0.00     0.013 A 
ATOM     15  C   UNL     1      -2.199   0.510   0.097  1.00  0.00     0.059 A 
BRANCH  11  16
ATOM     16  O   UNL     1      -5.170  -1.610   0.180  1.00  0.00    -0.493 OA
ATOM     17  C   UNL     1      -5.710  -2.737  -0.495  1.00  0.00     0.278 C 
ENDBRANCH  11  16
BRANCH  13  18
ATOM     18  O   UNL     1      -4.242   0.474   1.457  1.00  0.00    -0.493 OA
ATOM     19  C   UNL     1      -3.800   1.637   2.141  1.00  0.00     0.278 C 
ENDBRANCH  13  18
ENDBRANCH   1  10
BRANCH   7  20
ATOM     20  C   UNL     1       3.636   1.274   1.400  1.00  0.00     0.141 C 
BRANCH  20  21
ATOM     21  N   UNL     1       4.314   0.005   1.727  1.00  0.00    -0.304 NA
ATOM     22  C   UNL     1       5.676  -0.061   1.201  1.00  0.00     0.105 C 
ATOM     23  C   UNL     1       3.549  -1.182   1.365  1.00  0.00     0.105 C 
ENDBRANCH  20  21
ENDBRANCH   7  20
TORSDOF 5
