REMARK SMILES CC=c1[nH]cc2c1=CCC(=O)Nc1nc(NCC3CCOCC3)ccc1-2
REMARK SMILES IDX 13 1 14 2 15 3 24 4 25 5 26 6 6 7 3 8 4 9 7 10 5 11 2 13
REMARK SMILES IDX 1 14 8 15 9 16 12 18 10 19 11 21 16 23 17 25 18 26 19 27
REMARK SMILES IDX 23 28 20 29 22 30 21 31
REMARK H PARENT 4 12 12 20 16 24
REMARK Flexibility Score:   44.900
ROOT
ATOM      1  C   UNL     1       0.879   0.279  -0.424  1.00  0.00     0.142 A 
ATOM      2  N   UNL     1      -0.470   0.332  -0.296  1.00  0.00    -0.213 NA
ATOM      3  C   UNL     1      -1.022   0.204   0.924  1.00  0.00     0.128 A 
ATOM      4  C   UNL     1      -0.233   0.060   2.055  1.00  0.00     0.047 A 
ATOM      5  C   UNL     1       1.155   0.071   1.925  1.00  0.00     0.016 A 
ATOM      6  C   UNL     1       1.755   0.215   0.666  1.00  0.00     0.027 A 
ENDROOT
BRANCH   6   7
ATOM      7  C   UNL     1       3.211   0.418   0.622  1.00  0.00     0.010 A 
ATOM      8  C   UNL     1       5.568   0.452   0.220  1.00  0.00     0.041 A 
ATOM      9  N   UNL     1       5.208   1.288   1.252  1.00  0.00    -0.361 N 
ATOM     10  C   UNL     1       4.289  -0.167  -0.202  1.00  0.00     0.004 A 
ATOM     11  C   UNL     1       3.845   1.299   1.429  1.00  0.00     0.092 A 
ATOM     12  H   UNL     1       5.795   2.057   1.540  1.00  0.00     0.166 HD
BRANCH   8  13
ATOM     13  C   UNL     1       6.783   0.271  -0.317  1.00  0.00    -0.004 C 
ATOM     14  C   UNL     1       8.045   0.931   0.137  1.00  0.00     0.038 C 
ENDBRANCH   8  13
BRANCH  10  15
ATOM     15  C   UNL     1       4.139  -1.071  -1.181  1.00  0.00    -0.006 C 
BRANCH  15  16
ATOM     16  C   UNL     1       2.830  -1.613  -1.641  1.00  0.00     0.128 CG0
ATOM     17  G   UNL     1       2.099  -0.534  -2.417  1.00  0.00     0.000 G0
ENDBRANCH  15  16
ENDBRANCH  10  15
ENDBRANCH   6   7
BRANCH   1  18
ATOM     18  N   UNL     1       1.274   0.334  -1.761  1.00  0.00    -0.310 N 
ATOM     19  C   UNL     1       2.099  -0.534  -2.417  1.00  0.00     0.229 CG0
ATOM     20  H   UNL     1       0.580   0.736  -2.378  1.00  0.00     0.171 HD
ATOM     21  O   UNL     1       2.215  -0.446  -3.642  1.00  0.00    -0.274 OA
ATOM     22  G   UNL     1       2.830  -1.613  -1.641  1.00  0.00     0.000 G0
ENDBRANCH   1  18
BRANCH   3  23
ATOM     23  N   UNL     1      -2.417   0.254   1.094  1.00  0.00    -0.370 N 
ATOM     24  H   UNL     1      -2.699  -0.550   1.647  1.00  0.00     0.162 HD
BRANCH  23  25
ATOM     25  C   UNL     1      -3.176   0.361  -0.152  1.00  0.00     0.118 C 
BRANCH  25  26
ATOM     26  C   UNL     1      -4.673   0.540   0.152  1.00  0.00     0.013 C 
ATOM     27  C   UNL     1      -5.431   0.925  -1.128  1.00  0.00     0.034 C 
ATOM     28  C   UNL     1      -5.303  -0.724   0.759  1.00  0.00     0.034 C 
ATOM     29  C   UNL     1      -6.931   0.993  -0.874  1.00  0.00     0.160 C 
ATOM     30  C   UNL     1      -6.811  -0.562   0.904  1.00  0.00     0.160 C 
ATOM     31  O   UNL     1      -7.407  -0.246  -0.352  1.00  0.00    -0.381 OA
ENDBRANCH  25  26
ENDBRANCH  23  25
ENDBRANCH   3  23
TORSDOF 4
