MODEL        6USER    Run = 6USERUSER    Estimated Free Energy of Binding    =  -7.23 kcal/mol  [=(1)+(2)+(3)-(4)]USERUSER    (1) Final Intermolecular Energy     =  -9.31 kcal/molUSER        vdW + Hbond + desolv Energy     =  -9.07 kcal/molUSER        Electrostatic Energy            =  -0.25 kcal/molUSER        Moving Ligand-Fixed Receptor    =  -9.31 kcal/molUSER        Moving Ligand-Moving Receptor   =  +0.00 kcal/molUSER    (2) Final Total Internal Energy     =  -1.16 kcal/molUSER    (3) Torsional Free Energy           =  +2.09 kcal/molUSER    (4) Unbound System's Energy         =  -1.16 kcal/molUSERUSERREMARK SMILES CO[CH][C@@H](O)n1cnc2c(N)ncc(-c3ccccc3C(F)(F)F)c21REMARK SMILES IDX 6 1 7 2 8 3 9 4 10 5 12 6 13 7 14 8 25 9 4 10 3 11 2 12 1 13REMARK SMILES IDX 5 14 15 16 16 17 20 18 17 19 19 20 18 21 21 22 22 23 23 24REMARK SMILES IDX 24 25 11 26REMARK H PARENT 5 15 11 27 11 28USER                              x       y       z     vdW  Elec       q    TypeUSER                           _______ _______ _______ _____ _____    ______ ____ROOTATOM      1  N   UNL     1      39.485  47.503  16.192 -0.26 +0.09    -0.300 N  ATOM      2  C   UNL     1      40.332  48.550  15.908 -0.41 -0.05    +0.203 A  ATOM      3  N   UNL     1      41.409  48.533  16.647 -0.85 +0.01    -0.233 NA ATOM      4  C   UNL     1      41.267  47.428  17.461 -0.34 -0.01    +0.131 A  ATOM      5  C   UNL     1      42.164  46.959  18.450 -0.36 +0.00    +0.151 A  ATOM      6  N   UNL     1      41.830  45.885  19.192 -0.28 -0.03    -0.237 NA ATOM      7  C   UNL     1      40.655  45.265  18.946 -0.36 +0.00    +0.124 A  ATOM      8  C   UNL     1      39.703  45.626  17.979 -0.42 -0.00    +0.027 A  ATOM      9  C   UNL     1      40.050  46.766  17.222 -0.43 -0.01    +0.084 A  ENDROOTBRANCH   1  10ATOM     10  C   UNL     1      38.250  47.310  15.429 -0.33 -0.12    +0.248 C  BRANCH  10  11ATOM     11  C   UNL     1      37.722  48.571  14.827 -0.43 -0.14    +0.201 C  BRANCH  11  12ATOM     12  O   UNL     1      37.419  48.729  13.492 -0.60 +0.15    -0.374 OA ATOM     13  C   UNL     1      36.394  47.899  12.955 -0.52 -0.09    +0.195 C  ENDBRANCH  11  12ENDBRANCH  10  11BRANCH  10  14ATOM     14  O   UNL     1      38.452  46.287  14.467 -0.20 +0.11    -0.370 OA ATOM     15  H   UNL     1      38.271  46.682  13.599 +0.16 -0.06    +0.213 HD ENDBRANCH  10  14ENDBRANCH   1  10BRANCH   8  16ATOM     16  C   UNL     1      38.457  44.874  17.861 -0.38 +0.00    -0.002 A  ATOM     17  C   UNL     1      37.937  44.639  16.571 -0.26 -0.00    +0.009 A  ATOM     18  C   UNL     1      37.714  44.439  18.981 -0.31 -0.01    +0.063 A  ATOM     19  C   UNL     1      36.745  43.939  16.386 -0.36 -0.00    +0.001 A  ATOM     20  C   UNL     1      36.511  43.731  18.774 -0.31 -0.00    +0.014 A  ATOM     21  C   UNL     1      36.038  43.475  17.488 -0.31 -0.00    +0.001 A  BRANCH  18  22ATOM     22  C   UNL     1      38.132  44.769  20.399 -0.12 -0.00    +0.417 C  ATOM     23  F   UNL     1      38.702  45.997  20.529 -0.01 -0.01    -0.166 F  ATOM     24  F   UNL     1      37.082  44.739  21.264 -0.14 -0.01    -0.166 F  ATOM     25  F   UNL     1      39.048  43.892  20.905 -0.07 -0.00    -0.166 F  ENDBRANCH  18  22ENDBRANCH   8  16BRANCH   5  26ATOM     26  N   UNL     1      43.377  47.580  18.718 -0.27 -0.05    -0.382 N  ATOM     27  H   UNL     1      44.044  47.472  17.963 -0.40 +0.02    +0.158 HD ATOM     28  H   UNL     1      43.240  48.504  19.104 -0.51 -0.02    +0.158 HD ENDBRANCH   5  26TORSDOF 7TERENDMDL