MODEL        6USER    Run = 6USERUSER    Estimated Free Energy of Binding    =  -7.45 kcal/mol  [=(1)+(2)+(3)-(4)]USERUSER    (1) Final Intermolecular Energy     =  -9.84 kcal/molUSER        vdW + Hbond + desolv Energy     =  -9.04 kcal/molUSER        Electrostatic Energy            =  -0.80 kcal/molUSER        Moving Ligand-Fixed Receptor    =  -9.84 kcal/molUSER        Moving Ligand-Moving Receptor   =  +0.00 kcal/molUSER    (2) Final Total Internal Energy     =  -2.06 kcal/molUSER    (3) Torsional Free Energy           =  +2.39 kcal/molUSER    (4) Unbound System's Energy         =  -2.06 kcal/molUSERUSERREMARK SMILES COc1ccc(O)cc1Oc1cc(O)c(O)cc1CC=OREMARK SMILES IDX 11 1 12 2 13 3 15 4 17 5 18 6 10 7 9 8 3 9 4 10 5 11 8 12REMARK SMILES IDX 6 13 2 14 1 15 7 16 19 18 20 19 21 20 14 21 16 23REMARK H PARENT 7 17 14 22 16 24USER                              x       y       z     vdW  Elec       q    TypeUSER                           _______ _______ _______ _____ _____    ______ ____ROOTATOM      1  C   UNL     1      38.228  46.646  15.845 -0.31 -0.05    +0.135 A  ATOM      2  C   UNL     1      39.271  46.058  16.572 -0.34 -0.02    +0.097 A  ATOM      3  C   UNL     1      40.420  46.789  16.827 -0.37 -0.02    +0.161 A  ATOM      4  C   UNL     1      40.562  48.073  16.316 -0.43 -0.03    +0.157 A  ATOM      5  C   UNL     1      39.542  48.659  15.578 -0.50 -0.02    +0.058 A  ATOM      6  C   UNL     1      38.358  47.944  15.314 -0.50 -0.00    +0.006 A  ENDROOTBRANCH   1   7ATOM      7  O   UNL     1      37.137  45.840  15.610 -0.07 +0.21    -0.453 OA BRANCH   7   8ATOM      8  C   UNL     1      36.251  45.594  16.641 -0.23 -0.09    +0.172 A  ATOM      9  C   UNL     1      36.019  44.348  17.255 -0.21 -0.06    +0.161 A  ATOM     10  C   UNL     1      35.078  44.275  18.291 -0.29 -0.02    +0.054 A  ATOM     11  C   UNL     1      34.365  45.410  18.695 -0.42 -0.02    +0.050 A  ATOM     12  C   UNL     1      35.509  46.718  17.027 -0.16 -0.10    +0.097 A  ATOM     13  C   UNL     1      34.583  46.620  18.054 -0.35 -0.10    +0.119 A  BRANCH   9  14ATOM     14  O   UNL     1      36.726  43.271  16.795 -0.05 +0.14    -0.493 OA ATOM     15  C   UNL     1      36.191  42.533  15.706 -0.20 -0.10    +0.278 C  ENDBRANCH   9  14BRANCH  13  16ATOM     16  O   UNL     1      33.902  47.747  18.407 -0.82 +0.58    -0.508 OA ATOM     17  H   UNL     1      33.589  48.186  17.600 -0.30 -0.87    +0.293 HD ENDBRANCH  13  16ENDBRANCH   7   8ENDBRANCH   1   7BRANCH   6  18ATOM     18  C   UNL     1      37.288  48.604  14.478 -0.52 -0.08    +0.111 C  BRANCH  18  19ATOM     19  C   UNL     1      36.810  47.719  13.356 -0.48 -0.11    +0.229 C  ATOM     20  O   UNL     1      37.307  47.721  12.232 -1.06 +0.04    -0.303 OA ENDBRANCH  18  19ENDBRANCH   6  18BRANCH   3  21ATOM     21  O   UNL     1      41.397  46.241  17.606 -0.14 +0.03    -0.504 OA ATOM     22  H   UNL     1      42.162  46.841  17.539 -0.31 -0.06    +0.293 HD ENDBRANCH   3  21BRANCH   4  23ATOM     23  O   UNL     1      41.724  48.766  16.496 -0.69 -0.06    -0.504 OA ATOM     24  H   UNL     1      42.374  48.119  16.828 -0.29 +0.01    +0.293 HD ENDBRANCH   4  23TORSDOF 8TERENDMDL