REMARK SMILES COc1ccc(O)cc1Oc1cc(O)c(O)cc1CC=O
REMARK SMILES IDX 11 1 12 2 13 3 15 4 17 5 18 6 10 7 9 8 3 9 4 10 5 11 8 12
REMARK SMILES IDX 6 13 2 14 1 15 7 16 19 18 20 19 21 20 14 21 16 23
REMARK H PARENT 7 17 14 22 16 24
ROOT
ATOM      1  C   UNL     1       1.111  -0.122  -1.021  1.00  0.00     0.135 A 
ATOM      2  C   UNL     1       1.743  -1.334  -1.329  1.00  0.00     0.097 A 
ATOM      3  C   UNL     1       2.933  -1.661  -0.700  1.00  0.00     0.161 A 
ATOM      4  C   UNL     1       3.526  -0.770   0.186  1.00  0.00     0.157 A 
ATOM      5  C   UNL     1       2.918   0.442   0.485  1.00  0.00     0.058 A 
ATOM      6  C   UNL     1       1.702   0.795  -0.131  1.00  0.00     0.006 A 
ENDROOT
BRANCH   1   7
ATOM      7  O   UNL     1      -0.049   0.138  -1.714  1.00  0.00    -0.453 OA
BRANCH   7   8
ATOM      8  C   UNL     1      -1.235   0.259  -1.016  1.00  0.00     0.172 A 
ATOM      9  C   UNL     1      -1.631  -0.522   0.087  1.00  0.00     0.161 A 
ATOM     10  C   UNL     1      -2.876  -0.265   0.679  1.00  0.00     0.054 A 
ATOM     11  C   UNL     1      -3.720   0.731   0.173  1.00  0.00     0.050 A 
ATOM     12  C   UNL     1      -2.099   1.230  -1.538  1.00  0.00     0.097 A 
ATOM     13  C   UNL     1      -3.326   1.465  -0.936  1.00  0.00     0.119 A 
BRANCH   9  14
ATOM     14  O   UNL     1      -0.774  -1.498   0.515  1.00  0.00    -0.493 OA
ATOM     15  C   UNL     1      -1.195  -2.340   1.579  1.00  0.00     0.278 C 
ENDBRANCH   9  14
BRANCH  13  16
ATOM     16  O   UNL     1      -4.122   2.435  -1.468  1.00  0.00    -0.508 OA
ATOM     17  H   UNL     1      -4.878   2.575  -0.875  1.00  0.00     0.293 HD
ENDBRANCH  13  16
ENDBRANCH   7   8
ENDBRANCH   1   7
BRANCH   6  18
ATOM     18  C   UNL     1       1.092   2.137   0.195  1.00  0.00     0.111 C 
BRANCH  18  19
ATOM     19  C   UNL     1       0.209   2.084   1.415  1.00  0.00     0.229 C 
ATOM     20  O   UNL     1      -0.717   2.866   1.617  1.00  0.00    -0.303 OA
ENDBRANCH  18  19
ENDBRANCH   6  18
BRANCH   3  21
ATOM     21  O   UNL     1       3.500  -2.878  -0.942  1.00  0.00    -0.504 OA
ATOM     22  H   UNL     1       3.833  -3.196  -0.083  1.00  0.00     0.293 HD
ENDBRANCH   3  21
BRANCH   4  23
ATOM     23  O   UNL     1       4.738  -1.053   0.746  1.00  0.00    -0.504 OA
ATOM     24  H   UNL     1       5.243  -1.535   0.065  1.00  0.00     0.293 HD
ENDBRANCH   4  23
TORSDOF 8
