MODEL        5USER    Run = 5USERUSER    Estimated Free Energy of Binding    =  -8.32 kcal/mol  [=(1)+(2)+(3)-(4)]USERUSER    (1) Final Intermolecular Energy     = -11.00 kcal/molUSER        vdW + Hbond + desolv Energy     = -10.80 kcal/molUSER        Electrostatic Energy            =  -0.20 kcal/molUSER        Moving Ligand-Fixed Receptor    = -11.00 kcal/molUSER        Moving Ligand-Moving Receptor   =  +0.00 kcal/molUSER    (2) Final Total Internal Energy     =  -2.70 kcal/molUSER    (3) Torsional Free Energy           =  +2.68 kcal/molUSER    (4) Unbound System's Energy         =  -2.70 kcal/molUSERUSERREMARK SMILES C=CC(=O)Nc1cccc(N(CCC(=O)O)c2ccccc2)c1OREMARK SMILES IDX 11 1 10 2 6 3 7 4 23 5 8 6 9 7 5 8 3 9 4 10 2 12 1 13 24 14REMARK SMILES IDX 12 16 13 17 14 18 15 19 16 20 17 22 18 23 22 24 19 25 21 26REMARK SMILES IDX 20 27REMARK H PARENT 5 11 24 15 16 21USER                              x       y       z     vdW  Elec       q    TypeUSER                           _______ _______ _______ _____ _____    ______ ____ROOTATOM      1  N   UNL     1      36.142  46.266  15.555 -0.14 +0.25    -0.338 N  ENDROOTBRANCH   1   2ATOM      2  C   UNL     1      37.492  46.569  15.913 -0.33 -0.04    +0.086 A  ATOM      3  C   UNL     1      39.450  48.012  15.648 -0.46 -0.03    +0.086 A  ATOM      4  C   UNL     1      40.143  47.191  16.552 -0.48 -0.01    +0.030 A  ATOM      5  C   UNL     1      38.110  47.716  15.377 -0.35 -0.09    +0.163 A  ATOM      6  C   UNL     1      39.532  46.066  17.114 -0.43 -0.00    +0.005 A  ATOM      7  C   UNL     1      38.215  45.746  16.785 -0.36 -0.01    +0.030 A  BRANCH   3   8ATOM      8  N   UNL     1      40.156  49.117  15.120 -0.31 +0.12    -0.319 N  ATOM      9  C   UNL     1      41.293  49.688  15.658 -0.49 -0.03    +0.247 C  ATOM     10  O   UNL     1      41.791  49.478  16.756 -1.02 -0.06    -0.270 OA ATOM     11  H   UNL     1      39.683  49.639  14.397 -0.16 -0.12    +0.170 HD BRANCH   9  12ATOM     12  C   UNL     1      41.842  50.745  14.757 -0.59 -0.02    +0.064 C  ATOM     13  C   UNL     1      42.507  50.420  13.643 -0.76 -0.00    +0.014 C  ENDBRANCH   9  12ENDBRANCH   3   8BRANCH   5  14ATOM     14  O   UNL     1      37.311  48.599  14.693 -0.21 +0.39    -0.504 OA ATOM     15  H   UNL     1      37.924  49.137  14.158 -0.12 -0.19    +0.293 HD ENDBRANCH   5  14ENDBRANCH   1   2BRANCH   1  16ATOM     16  C   UNL     1      36.112  45.652  14.203 -0.38 -0.07    +0.134 C  BRANCH  16  17ATOM     17  C   UNL     1      35.587  46.642  13.165 -0.50 -0.09    +0.144 C  BRANCH  17  18ATOM     18  C   UNL     1      36.648  46.918  12.142 -0.49 -0.12    +0.305 C  ATOM     19  O   UNL     1      36.970  46.210  11.204 -0.51 +0.08    -0.252 OA BRANCH  18  20ATOM     20  O   UNL     1      37.243  48.109  12.338 -0.79 +0.03    -0.481 OA ATOM     21  H   UNL     1      36.807  48.470  13.139 +0.23 -0.12    +0.296 HD ENDBRANCH  18  20ENDBRANCH  17  18ENDBRANCH  16  17ENDBRANCH   1  16BRANCH   1  22ATOM     22  C   UNL     1      35.153  45.909  16.506 -0.31 -0.04    +0.041 A  ATOM     23  C   UNL     1      34.382  44.747  16.302 -0.30 -0.02    +0.026 A  ATOM     24  C   UNL     1      34.911  46.625  17.690 -0.34 -0.03    +0.026 A  ATOM     25  C   UNL     1      33.409  44.332  17.219 -0.31 -0.00    +0.002 A  ATOM     26  C   UNL     1      33.938  46.214  18.612 -0.52 -0.00    +0.002 A  ATOM     27  C   UNL     1      33.185  45.069  18.376 -0.39 -0.00    +0.000 A  ENDBRANCH   1  22TORSDOF 9TERENDMDL