MODEL        10USER    Run = 10USERUSER    Estimated Free Energy of Binding    =  -8.16 kcal/mol  [=(1)+(2)+(3)-(4)]USERUSER    (1) Final Intermolecular Energy     =  -9.95 kcal/molUSER        vdW + Hbond + desolv Energy     =  -9.59 kcal/molUSER        Electrostatic Energy            =  -0.35 kcal/molUSER        Moving Ligand-Fixed Receptor    =  -9.95 kcal/molUSER        Moving Ligand-Moving Receptor   =  +0.00 kcal/molUSER    (2) Final Total Internal Energy     =  -1.95 kcal/molUSER    (3) Torsional Free Energy           =  +1.79 kcal/molUSER    (4) Unbound System's Energy         =  -1.95 kcal/molUSERUSERREMARK SMILES COc1cccc(-c2c(NC(C)=O)n[nH]c2-c2cccc(O)c2S)c1CREMARK SMILES IDX 8 1 9 2 14 3 15 4 16 5 7 7 3 8 4 9 25 10 5 11 6 12 26 13REMARK SMILES IDX 2 14 1 15 10 16 11 17 12 19 13 20 17 21 18 22 23 23 19 24REMARK SMILES IDX 21 25 20 26 24 27 22 29REMARK H PARENT 15 6 10 18 24 28 22 30USER                              x       y       z     vdW  Elec       q    TypeUSER                           _______ _______ _______ _____ _____    ______ ____ROOTATOM      1  C   UNL     1      37.320  45.379  18.158 -0.30 -0.01    +0.052 A  ATOM      2  C   UNL     1      38.410  45.141  19.048 -0.28 -0.02    +0.162 A  ATOM      3  N   UNL     1      39.570  45.402  18.453 -0.32 +0.01    -0.156 NA ATOM      4  N   UNL     1      39.241  45.790  17.215 -0.22 +0.05    -0.275 N  ATOM      5  C   UNL     1      37.892  45.831  16.980 -0.33 -0.03    +0.076 A  ATOM      6  H   UNL     1      39.990  46.032  16.575 +0.13 -0.03    +0.190 HD ENDROOTBRANCH   1   7ATOM      7  C   UNL     1      35.890  45.241  18.381 -0.31 +0.00    -0.006 A  ATOM      8  C   UNL     1      33.947  44.050  19.236 -0.32 -0.02    +0.122 A  ATOM      9  C   UNL     1      33.136  45.127  18.858 -0.32 -0.02    +0.047 A  ATOM     10  C   UNL     1      35.335  44.088  18.980 -0.37 +0.00    -0.001 A  ATOM     11  C   UNL     1      33.689  46.246  18.240 -0.48 -0.00    +0.004 A  ATOM     12  C   UNL     1      35.060  46.307  18.009 -0.37 -0.01    +0.009 A  ATOM     13  C   UNL     1      36.199  42.920  19.392 -0.37 -0.01    +0.049 C  BRANCH   8  14ATOM     14  O   UNL     1      33.485  42.924  19.868 -0.61 -0.05    -0.496 OA ATOM     15  C   UNL     1      32.853  41.931  19.072 -0.25 -0.01    +0.278 C  ENDBRANCH   8  14ENDBRANCH   1   7BRANCH   2  16ATOM     16  N   UNL     1      38.256  44.708  20.351 -0.19 +0.00    -0.309 N  ATOM     17  C   UNL     1      39.278  44.317  21.191 -0.23 +0.01    +0.222 C  ATOM     18  H   UNL     1      37.305  44.676  20.688 +0.10 +0.00    +0.171 HD ATOM     19  C   UNL     1      38.760  43.896  22.544 -0.28 +0.01    +0.114 C  ATOM     20  O   UNL     1      40.478  44.259  20.946 -0.20 -0.01    -0.275 OA ENDBRANCH   2  16BRANCH   5  21ATOM     21  C   UNL     1      37.326  46.239  15.693 -0.37 -0.01    +0.017 A  ATOM     22  C   UNL     1      36.368  45.399  15.097 -0.36 -0.01    +0.012 A  ATOM     23  C   UNL     1      37.699  47.429  15.033 -0.42 -0.03    +0.055 A  ATOM     24  C   UNL     1      35.795  45.719  13.865 -0.40 -0.00    +0.005 A  ATOM     25  C   UNL     1      37.114  47.726  13.788 -0.45 -0.06    +0.129 A  ATOM     26  C   UNL     1      36.172  46.884  13.207 -0.55 -0.03    +0.047 A  BRANCH  23  27ATOM     27  S   UNL     1      38.885  48.599  15.706 -0.56 +0.08    -0.139 SA ATOM     28  H   UNL     1      38.673  49.571  14.804 -0.43 -0.09    +0.108 HD ENDBRANCH  23  27BRANCH  25  29ATOM     29  O   UNL     1      37.438  48.860  13.090 -0.31 +0.11    -0.507 OA ATOM     30  H   UNL     1      37.570  49.566  13.750 -0.25 -0.18    +0.293 HD ENDBRANCH  25  29ENDBRANCH   5  21TORSDOF 6TERENDMDL