MODEL        8USER    Run = 8USERUSER    Estimated Free Energy of Binding    =  -8.90 kcal/mol  [=(1)+(2)+(3)-(4)]USERUSER    (1) Final Intermolecular Energy     = -10.39 kcal/molUSER        vdW + Hbond + desolv Energy     = -10.27 kcal/molUSER        Electrostatic Energy            =  -0.13 kcal/molUSER        Moving Ligand-Fixed Receptor    = -10.39 kcal/molUSER        Moving Ligand-Moving Receptor   =  +0.00 kcal/molUSER    (2) Final Total Internal Energy     =  -0.61 kcal/molUSER    (3) Torsional Free Energy           =  +1.49 kcal/molUSER    (4) Unbound System's Energy         =  -0.61 kcal/molUSERUSERREMARK SMILES Cc1cc(-n2cc(Nc3ccccc3Cl)nn2)ccc1C(=O)OREMARK SMILES IDX 1 1 2 2 3 3 4 4 18 5 19 6 20 7 21 8 22 9 23 10 5 12 6 13REMARK SMILES IDX 17 14 7 15 16 16 8 17 9 19 10 20 14 21 11 22 13 23 12 24REMARK SMILES IDX 15 25REMARK H PARENT 23 11 8 18USER                              x       y       z     vdW  Elec       q    TypeUSER                           _______ _______ _______ _____ _____    ______ ____ROOTATOM      1  C   UNL     1      37.054  44.835  14.631 -0.40 -0.02    +0.045 C  ATOM      2  C   UNL     1      37.787  46.148  14.700 -0.38 +0.01    -0.034 A  ATOM      3  C   UNL     1      38.767  46.316  15.699 -0.39 -0.01    +0.032 A  ATOM      4  C   UNL     1      39.502  47.508  15.800 -0.45 -0.02    +0.067 A  ATOM      5  C   UNL     1      39.256  48.546  14.894 -0.50 -0.01    +0.029 A  ATOM      6  C   UNL     1      38.276  48.397  13.910 -0.46 -0.01    +0.018 A  ATOM      7  C   UNL     1      37.527  47.214  13.815 -0.46 -0.03    +0.062 A  ENDROOTBRANCH   7   8ATOM      8  C   UNL     1      36.503  47.182  12.740 -0.44 -0.15    +0.335 C  ATOM      9  O   UNL     1      35.410  46.654  12.821 -0.48 +0.16    -0.246 OA BRANCH   8  10ATOM     10  O   UNL     1      36.926  47.731  11.590 -0.79 +0.14    -0.478 OA ATOM     11  H   UNL     1      36.268  48.436  11.412 -0.17 -0.18    +0.297 HD ENDBRANCH   8  10ENDBRANCH   7   8BRANCH   4  12ATOM     12  N   UNL     1      40.495  47.677  16.803 -0.37 +0.04    -0.219 N  ATOM     13  C   UNL     1      40.730  46.913  17.924 -0.39 -0.02    +0.164 A  ATOM     14  N   UNL     1      41.385  48.700  16.759 -1.03 +0.00    -0.060 NA ATOM     15  C   UNL     1      41.802  47.512  18.532 -0.34 -0.00    +0.173 A  ATOM     16  N   UNL     1      42.172  48.613  17.822 -0.53 -0.01    -0.112 NA BRANCH  15  17ATOM     17  N   UNL     1      42.425  47.205  19.684 -0.27 -0.04    -0.336 N  ATOM     18  H   UNL     1      43.117  47.884  19.999 -0.29 +0.00    +0.168 HD BRANCH  17  19ATOM     19  C   UNL     1      42.362  46.098  20.561 -0.29 +0.01    +0.059 A  ATOM     20  C   UNL     1      41.500  45.013  20.353 -0.34 +0.00    +0.027 A  ATOM     21  C   UNL     1      43.155  46.083  21.729 -0.25 +0.02    +0.064 A  ATOM     22  C   UNL     1      41.432  43.955  21.267 -0.34 +0.00    +0.002 A  ATOM     23  C   UNL     1      43.088  45.028  22.645 -0.18 +0.01    +0.023 A  ATOM     24  C   UNL     1      42.221  43.963  22.413 -0.27 +0.00    +0.002 A  ATOM     25  Cl  UNL     1      44.252  47.380  22.069 -0.43 -0.04    -0.082 Cl ENDBRANCH  17  19ENDBRANCH  15  17ENDBRANCH   4  12TORSDOF 5TERENDMDL