MODEL        6USER    Run = 6USERUSER    Estimated Free Energy of Binding    = -10.42 kcal/mol  [=(1)+(2)+(3)-(4)]USERUSER    (1) Final Intermolecular Energy     = -12.21 kcal/molUSER        vdW + Hbond + desolv Energy     = -11.98 kcal/molUSER        Electrostatic Energy            =  -0.23 kcal/molUSER        Moving Ligand-Fixed Receptor    = -12.21 kcal/molUSER        Moving Ligand-Moving Receptor   =  +0.00 kcal/molUSER    (2) Final Total Internal Energy     =  -0.98 kcal/molUSER    (3) Torsional Free Energy           =  +1.79 kcal/molUSER    (4) Unbound System's Energy         =  -0.98 kcal/molUSERUSERREMARK SMILES CNC1=C(c2ccc(OC(C)C)cc2)C=C(c2ccc3ccccc3c2)N[C@@H]1NREMARK SMILES IDX 5 1 6 2 7 3 8 4 13 5 14 6 4 7 3 8 28 9 15 10 27 11 16 12REMARK SMILES IDX 2 14 1 15 29 17 17 20 18 21 26 22 19 23 25 24 20 25 24 26REMARK SMILES IDX 21 27 23 28 22 29 9 30 10 31 11 32 12 33REMARK H PARENT 27 13 2 16 29 18 29 19USER                              x       y       z     vdW  Elec       q    TypeUSER                           _______ _______ _______ _____ _____    ______ ____ROOTATOM      1  C   UNL     1      31.669  42.436  16.862 -0.30 +0.01    -0.016 A  ATOM      2  C   UNL     1      30.551  41.720  16.425 -0.33 -0.00    +0.012 A  ATOM      3  C   UNL     1      30.213  40.510  17.036 -0.33 -0.01    +0.047 A  ATOM      4  C   UNL     1      30.987  39.991  18.077 -0.30 -0.00    +0.119 A  ATOM      5  C   UNL     1      32.108  40.701  18.508 -0.38 -0.00    +0.047 A  ATOM      6  C   UNL     1      32.451  41.914  17.900 -0.36 -0.00    +0.012 A  ENDROOTBRANCH   1   7ATOM      7  C   UNL     1      32.054  43.702  16.201 -0.38 -0.00    +0.006 C  ATOM      8  C   UNL     1      31.150  44.486  15.544 -0.39 -0.03    +0.056 C  ATOM      9  C   UNL     1      31.647  45.778  14.806 -0.40 -0.14    +0.193 C  ATOM     10  C   UNL     1      33.460  44.098  16.244 -0.36 -0.02    +0.037 C  ATOM     11  N   UNL     1      33.083  45.873  14.719 -0.12 +0.37    -0.364 N  ATOM     12  C   UNL     1      33.916  45.142  15.539 -0.35 -0.03    +0.044 C  ATOM     13  H   UNL     1      33.383  46.838  14.632 -0.32 -0.30    +0.162 HD BRANCH   8  14ATOM     14  N   UNL     1      29.761  44.260  15.421 -0.08 +0.26    -0.388 N  ATOM     15  C   UNL     1      28.744  44.603  16.394 -0.23 -0.03    +0.139 C  ATOM     16  H   UNL     1      29.432  44.324  14.461 -0.30 -0.25    +0.160 HD ENDBRANCH   8  14BRANCH   9  17ATOM     17  N   UNL     1      30.976  46.950  15.358 -0.62 +0.15    -0.306 NA ATOM     18  H   UNL     1      31.279  47.065  16.319 -0.32 -0.06    +0.121 HD ATOM     19  H   UNL     1      31.293  47.763  14.840 -0.38 -0.08    +0.121 HD ENDBRANCH   9  17BRANCH  12  20ATOM     20  C   UNL     1      35.336  45.537  15.598 -0.34 +0.00    -0.002 A  ATOM     21  C   UNL     1      36.229  44.816  16.398 -0.33 -0.00    +0.011 A  ATOM     22  C   UNL     1      35.822  46.613  14.842 -0.37 -0.02    +0.019 A  ATOM     23  C   UNL     1      37.579  45.171  16.457 -0.35 -0.00    +0.009 A  ATOM     24  C   UNL     1      37.178  46.984  14.889 -0.41 +0.01    -0.018 A  ATOM     25  C   UNL     1      38.067  46.252  15.709 -0.37 +0.01    -0.018 A  ATOM     26  C   UNL     1      37.669  48.064  14.138 -0.54 -0.00    +0.009 A  ATOM     27  C   UNL     1      39.421  46.624  15.757 -0.45 -0.00    +0.009 A  ATOM     28  C   UNL     1      39.017  48.421  14.196 -0.47 -0.00    +0.001 A  ATOM     29  C   UNL     1      39.892  47.701  15.006 -0.52 -0.00    +0.001 A  ENDBRANCH  12  20ENDBRANCH   1   7BRANCH   4  30ATOM     30  O   UNL     1      30.532  38.806  18.582 -0.12 -0.09    -0.491 OA BRANCH  30  31ATOM     31  C   UNL     1      31.310  38.120  19.567 -0.42 +0.03    +0.167 C  ATOM     32  C   UNL     1      32.238  37.173  18.810 -0.59 +0.01    +0.052 C  ATOM     33  C   UNL     1      30.393  37.322  20.489 -0.44 +0.01    +0.052 C  ENDBRANCH  30  31ENDBRANCH   4  30TORSDOF 6TERENDMDL