REMARK SMILES COc1cccc(-c2c(NC(C)=O)n[nH]c2-c2cccc(O)c2S)c1C
REMARK SMILES IDX 8 1 9 2 14 3 15 4 16 5 7 7 3 8 4 9 25 10 5 11 6 12 26 13
REMARK SMILES IDX 2 14 1 15 10 16 11 17 12 19 13 20 17 21 18 22 23 23 19 24
REMARK SMILES IDX 21 25 20 26 24 27 22 29
REMARK H PARENT 15 6 10 18 24 28 22 30
ROOT
ATOM      1  C   UNL     1      -0.851   0.605  -0.000  1.00  0.00     0.052 A 
ATOM      2  C   UNL     1      -1.375   1.918  -0.194  1.00  0.00     0.162 A 
ATOM      3  N   UNL     1      -2.653   1.866  -0.560  1.00  0.00    -0.156 NA
ATOM      4  N   UNL     1      -2.943   0.561  -0.608  1.00  0.00    -0.275 N 
ATOM      5  C   UNL     1      -1.906  -0.259  -0.248  1.00  0.00     0.076 A 
ATOM      6  H   UNL     1      -3.882   0.290  -0.881  1.00  0.00     0.190 HD
ENDROOT
BRANCH   1   7
ATOM      7  C   UNL     1       0.480   0.186   0.409  1.00  0.00    -0.006 A 
ATOM      8  C   UNL     1       2.873  -0.056   0.038  1.00  0.00     0.122 A 
ATOM      9  C   UNL     1       3.012  -0.553   1.339  1.00  0.00     0.047 A 
ATOM     10  C   UNL     1       1.596   0.300  -0.449  1.00  0.00    -0.001 A 
ATOM     11  C   UNL     1       1.900  -0.690   2.167  1.00  0.00     0.004 A 
ATOM     12  C   UNL     1       0.641  -0.316   1.708  1.00  0.00     0.009 A 
ATOM     13  C   UNL     1       1.459   0.834  -1.855  1.00  0.00     0.049 C 
BRANCH   8  14
ATOM     14  O   UNL     1       3.918   0.131  -0.831  1.00  0.00    -0.496 OA
ATOM     15  C   UNL     1       5.210  -0.287  -0.411  1.00  0.00     0.278 C 
ENDBRANCH   8  14
ENDBRANCH   1   7
BRANCH   2  16
ATOM     16  N   UNL     1      -0.640   3.073  -0.010  1.00  0.00    -0.309 N 
ATOM     17  C   UNL     1      -1.105   4.357  -0.199  1.00  0.00     0.222 C 
ATOM     18  H   UNL     1       0.318   2.936   0.279  1.00  0.00     0.171 HD
ATOM     19  C   UNL     1      -0.038   5.386   0.084  1.00  0.00     0.114 C 
ATOM     20  O   UNL     1      -2.217   4.711  -0.576  1.00  0.00    -0.275 OA
ENDBRANCH   2  16
BRANCH   5  21
ATOM     21  C   UNL     1      -2.022  -1.718  -0.225  1.00  0.00     0.017 A 
ATOM     22  C   UNL     1      -1.190  -2.460  -1.083  1.00  0.00     0.012 A 
ATOM     23  C   UNL     1      -2.926  -2.403   0.614  1.00  0.00     0.055 A 
ATOM     24  C   UNL     1      -1.255  -3.854  -1.123  1.00  0.00     0.005 A 
ATOM     25  C   UNL     1      -2.979  -3.807   0.550  1.00  0.00     0.129 A 
ATOM     26  C   UNL     1      -2.155  -4.529  -0.306  1.00  0.00     0.047 A 
BRANCH  23  27
ATOM     27  S   UNL     1      -4.016  -1.571   1.775  1.00  0.00    -0.139 SA
ATOM     28  H   UNL     1      -3.163  -0.590   2.113  1.00  0.00     0.108 HD
ENDBRANCH  23  27
BRANCH  25  29
ATOM     29  O   UNL     1      -3.840  -4.534   1.331  1.00  0.00    -0.507 OA
ATOM     30  H   UNL     1      -4.349  -3.890   1.859  1.00  0.00     0.293 HD
ENDBRANCH  25  29
ENDBRANCH   5  21
TORSDOF 6
