REMARK SMILES C=C1C=C(c2nnc3sc(C)cc3c2CCC)C[C@@H]1C
REMARK SMILES IDX 5 1 6 2 7 3 8 4 9 5 10 6 11 7 12 8 13 9 14 10 4 11 2 12 3 13
REMARK SMILES IDX 19 14 18 15 1 16 20 17 15 18 16 19 17 20
REMARK H PARENT
ROOT
ATOM      1  C   UNL     1      -0.141   1.199   0.251  1.00  0.00     0.093 A 
ATOM      2  N   UNL     1      -0.131   2.558   0.349  1.00  0.00    -0.149 NA
ATOM      3  N   UNL     1       0.990   3.260   0.379  1.00  0.00    -0.139 NA
ATOM      4  C   UNL     1       2.142   2.580   0.300  1.00  0.00     0.146 A 
ATOM      5  S   UNL     1       3.639   3.383   0.317  1.00  0.00    -0.119 S 
ATOM      6  C   UNL     1       4.500   1.915   0.168  1.00  0.00     0.004 A 
ATOM      7  C   UNL     1       5.989   1.926   0.115  1.00  0.00     0.056 C 
ATOM      8  C   UNL     1       3.643   0.834   0.110  1.00  0.00     0.026 A 
ATOM      9  C   UNL     1       2.251   1.203   0.194  1.00  0.00     0.019 A 
ATOM     10  C   UNL     1       1.047   0.444   0.175  1.00  0.00    -0.010 A 
ENDROOT
BRANCH   1  11
ATOM     11  C   UNL     1      -1.515   0.660   0.251  1.00  0.00    -0.019 C 
ATOM     12  C   UNL     1      -3.803   0.617  -0.023  1.00  0.00    -0.052 C 
ATOM     13  C   UNL     1      -2.567   1.313  -0.269  1.00  0.00     0.009 C 
ATOM     14  C   UNL     1      -3.498  -0.536   0.904  1.00  0.00     0.020 C 
ATOM     15  C   UNL     1      -1.956  -0.625   0.885  1.00  0.00     0.046 C 
ATOM     16  C   UNL     1      -4.987   0.972  -0.531  1.00  0.00     0.013 C 
ATOM     17  C   UNL     1      -4.149  -1.862   0.525  1.00  0.00     0.013 C 
ENDBRANCH   1  11
BRANCH  10  18
ATOM     18  C   UNL     1       1.088  -1.055   0.010  1.00  0.00     0.038 C 
BRANCH  18  19
ATOM     19  C   UNL     1       0.768  -1.489  -1.422  1.00  0.00     0.001 C 
ATOM     20  C   UNL     1       0.803  -3.003  -1.563  1.00  0.00     0.004 C 
ENDBRANCH  18  19
ENDBRANCH  10  18
TORSDOF 3
