MODEL        5USER    Run = 5USERUSER    Estimated Free Energy of Binding    =  -9.93 kcal/mol  [=(1)+(2)+(3)-(4)]USERUSER    (1) Final Intermolecular Energy     = -12.02 kcal/molUSER        vdW + Hbond + desolv Energy     = -11.92 kcal/molUSER        Electrostatic Energy            =  -0.10 kcal/molUSER        Moving Ligand-Fixed Receptor    = -12.02 kcal/molUSER        Moving Ligand-Moving Receptor   =  +0.00 kcal/molUSER    (2) Final Total Internal Energy     =  -2.56 kcal/molUSER    (3) Torsional Free Energy           =  +2.09 kcal/molUSER    (4) Unbound System's Energy         =  -2.56 kcal/molUSERUSERREMARK SMILES O=C1C(CN2CCN(CCO)[C@@H](N3CCOCC3)C2)=C(c2ccccc2)c2ccccc21REMARK SMILES IDX 5 1 6 2 7 3 8 4 12 5 19 6 4 7 3 8 2 9 32 10 20 11 31 12REMARK SMILES IDX 27 13 30 14 28 15 29 16 1 17 21 18 22 19 26 20 23 21 25 22REMARK SMILES IDX 24 23 13 24 14 25 18 26 15 27 17 28 16 29 9 30 10 31 11 32REMARK H PARENT 11 33USER                              x       y       z     vdW  Elec       q    TypeUSER                           _______ _______ _______ _____ _____    ______ ____ROOTATOM      1  N   UNL     1      35.511  43.613  16.619 -0.17 +0.11    -0.295 NA ATOM      2  C   UNL     1      35.061  42.284  17.040 -0.40 -0.04    +0.100 C  ATOM      3  C   UNL     1      33.816  42.339  17.973 -0.38 -0.03    +0.102 C  ATOM      4  N   UNL     1      32.921  43.515  17.826 -0.11 +0.08    -0.283 NA ATOM      5  C   UNL     1      32.952  43.942  16.408 -0.28 -0.06    +0.141 C  ATOM      6  C   UNL     1      34.409  44.342  15.945 -0.29 -0.06    +0.120 C  ENDROOTBRANCH   1   7ATOM      7  C   UNL     1      36.734  43.560  15.810 -0.33 -0.04    +0.125 C  BRANCH   7   8ATOM      8  C   UNL     1      37.653  44.702  16.079 -0.36 -0.01    +0.023 C  ATOM      9  C   UNL     1      38.435  44.775  17.338 -0.24 -0.04    +0.191 C  ATOM     10  C   UNL     1      39.207  46.006  17.282 -0.41 -0.01    +0.030 A  ATOM     11  C   UNL     1      37.905  45.819  15.360 -0.43 +0.00    -0.002 C  ATOM     12  C   UNL     1      40.110  46.526  18.190 -0.45 -0.00    +0.013 A  ATOM     13  C   UNL     1      38.881  46.629  16.087 -0.42 +0.00    -0.006 A  ATOM     14  C   UNL     1      40.716  47.739  17.861 -0.38 -0.00    +0.001 A  ATOM     15  C   UNL     1      39.477  47.837  15.757 -0.51 -0.00    +0.009 A  ATOM     16  C   UNL     1      40.401  48.391  16.654 -0.45 -0.00    +0.001 A  ATOM     17  O   UNL     1      38.426  43.974  18.251 -0.17 +0.03    -0.289 OA BRANCH  11  18ATOM     18  C   UNL     1      37.268  46.104  14.074 -0.42 +0.01    -0.017 A  ATOM     19  C   UNL     1      36.747  47.376  13.807 -0.53 -0.01    +0.009 A  ATOM     20  C   UNL     1      37.195  45.109  13.091 -0.47 -0.00    +0.009 A  ATOM     21  C   UNL     1      36.155  47.647  12.573 -0.66 -0.00    +0.001 A  ATOM     22  C   UNL     1      36.606  45.383  11.855 -0.54 -0.00    +0.001 A  ATOM     23  C   UNL     1      36.085  46.652  11.598 -0.55 -0.00    +0.000 A  ENDBRANCH  11  18ENDBRANCH   7   8ENDBRANCH   1   7BRANCH   5  24ATOM     24  N   UNL     1      31.918  44.968  16.152 -0.37 +0.13    -0.282 NA ATOM     25  C   UNL     1      30.555  44.392  16.229 -0.29 -0.04    +0.114 C  ATOM     26  C   UNL     1      32.080  45.604  14.826 -0.40 -0.09    +0.114 C  ATOM     27  C   UNL     1      29.476  45.438  15.908 -0.20 -0.04    +0.175 C  ATOM     28  C   UNL     1      30.964  46.622  14.543 -0.45 -0.09    +0.175 C  ATOM     29  O   UNL     1      29.673  46.009  14.609 -0.23 +0.20    -0.379 OA ENDBRANCH   5  24BRANCH   4  30ATOM     30  C   UNL     1      33.326  44.602  18.745 -0.39 -0.03    +0.114 C  BRANCH  30  31ATOM     31  C   UNL     1      32.793  44.373  20.167 -0.13 -0.02    +0.171 C  BRANCH  31  32ATOM     32  O   UNL     1      32.045  43.159  20.216 -0.60 -0.05    -0.395 OA ATOM     33  H   UNL     1      31.774  42.964  19.302 +0.13 -0.00    +0.210 HD ENDBRANCH  31  32ENDBRANCH  30  31ENDBRANCH   4  30TORSDOF 7TERENDMDL