REMARK SMILES O=C1C(CN2CCN(CCO)[C@@H](N3CCOCC3)C2)=C(c2ccccc2)c2ccccc21
REMARK SMILES IDX 5 1 6 2 7 3 8 4 12 5 19 6 4 7 3 8 2 9 32 10 20 11 31 12
REMARK SMILES IDX 27 13 30 14 28 15 29 16 1 17 21 18 22 19 26 20 23 21 25 22
REMARK SMILES IDX 24 23 13 24 14 25 18 26 15 27 17 28 16 29 9 30 10 31 11 32
REMARK H PARENT 11 33
ROOT
ATOM      1  N   UNL     1      -0.004  -0.830   1.239  1.00  0.00    -0.295 NA
ATOM      2  C   UNL     1      -0.742  -0.979   2.495  1.00  0.00     0.100 C 
ATOM      3  C   UNL     1      -1.972  -0.028   2.586  1.00  0.00     0.102 C 
ATOM      4  N   UNL     1      -2.586   0.395   1.302  1.00  0.00    -0.283 NA
ATOM      5  C   UNL     1      -2.424  -0.710   0.328  1.00  0.00     0.141 C 
ATOM      6  C   UNL     1      -0.902  -1.058   0.081  1.00  0.00     0.120 C 
ENDROOT
BRANCH   1   7
ATOM      7  C   UNL     1       1.201  -1.666   1.196  1.00  0.00     0.125 C 
BRANCH   7   8
ATOM      8  C   UNL     1       2.109  -1.312   0.068  1.00  0.00     0.023 C 
ATOM      9  C   UNL     1       2.107  -2.099  -1.190  1.00  0.00     0.191 C 
ATOM     10  C   UNL     1       3.106  -1.500  -2.061  1.00  0.00     0.030 A 
ATOM     11  C   UNL     1       3.061  -0.358  -0.032  1.00  0.00    -0.002 C 
ATOM     12  C   UNL     1       3.476  -1.840  -3.349  1.00  0.00     0.013 A 
ATOM     13  C   UNL     1       3.677  -0.452  -1.355  1.00  0.00    -0.006 A 
ATOM     14  C   UNL     1       4.472  -1.070  -3.949  1.00  0.00     0.001 A 
ATOM     15  C   UNL     1       4.670   0.314  -1.945  1.00  0.00     0.009 A 
ATOM     16  C   UNL     1       5.066  -0.001  -3.252  1.00  0.00     0.001 A 
ATOM     17  O   UNL     1       1.420  -3.067  -1.446  1.00  0.00    -0.289 OA
BRANCH  11  18
ATOM     18  C   UNL     1       3.371   0.579   1.048  1.00  0.00    -0.017 A 
ATOM     19  C   UNL     1       2.547   1.686   1.285  1.00  0.00     0.009 A 
ATOM     20  C   UNL     1       4.485   0.361   1.868  1.00  0.00     0.009 A 
ATOM     21  C   UNL     1       2.838   2.568   2.327  1.00  0.00     0.001 A 
ATOM     22  C   UNL     1       4.772   1.242   2.913  1.00  0.00     0.001 A 
ATOM     23  C   UNL     1       3.949   2.345   3.140  1.00  0.00     0.000 A 
ENDBRANCH  11  18
ENDBRANCH   7   8
ENDBRANCH   1   7
BRANCH   5  24
ATOM     24  N   UNL     1      -3.203  -0.439  -0.899  1.00  0.00    -0.282 NA
ATOM     25  C   UNL     1      -4.646  -0.286  -0.600  1.00  0.00     0.114 C 
ATOM     26  C   UNL     1      -3.048  -1.513  -1.906  1.00  0.00     0.114 C 
ATOM     27  C   UNL     1      -5.472  -0.062  -1.876  1.00  0.00     0.175 C 
ATOM     28  C   UNL     1      -3.912  -1.254  -3.151  1.00  0.00     0.175 C 
ATOM     29  O   UNL     1      -5.296  -1.136  -2.807  1.00  0.00    -0.379 OA
ENDBRANCH   5  24
BRANCH   4  30
ATOM     30  C   UNL     1      -1.982   1.657   0.820  1.00  0.00     0.114 C 
BRANCH  30  31
ATOM     31  C   UNL     1      -2.596   2.882   1.512  1.00  0.00     0.171 C 
BRANCH  31  32
ATOM     32  O   UNL     1      -1.983   4.074   1.024  1.00  0.00    -0.395 OA
ATOM     33  H   UNL     1      -2.467   4.817   1.424  1.00  0.00     0.210 HD
ENDBRANCH  31  32
ENDBRANCH  30  31
ENDBRANCH   4  30
TORSDOF 7
