REMARK SMILES COC[C@@H]1CCCN1C=NC1=Nc2cc(-c3cccc(OC(F)(F)F)c3)sc21
REMARK SMILES IDX 10 1 9 2 8 3 4 4 5 5 6 6 7 7 3 8 2 9 1 10 11 11 12 12 28 13
REMARK SMILES IDX 13 14 27 15 14 16 15 17 16 18 17 19 26 20 18 21 20 22 19 23
REMARK SMILES IDX 21 24 22 25 23 26 24 27 25 28
REMARK H PARENT
ROOT
ATOM      1  N   UNL     1      -1.790   0.837  -0.391  1.00  0.00    -0.218 NA
ENDROOT
BRANCH   1   2
ATOM      2  C   UNL     1      -2.759   0.814  -1.237  1.00  0.00     0.197 C 
BRANCH   2   3
ATOM      3  N   UNL     1      -4.077   1.077  -0.969  1.00  0.00    -0.357 N 
ATOM      4  C   UNL     1      -4.572   1.472   0.362  1.00  0.00     0.109 C 
ATOM      5  C   UNL     1      -5.788   2.343   0.023  1.00  0.00     0.029 C 
ATOM      6  C   UNL     1      -6.323   1.726  -1.260  1.00  0.00     0.024 C 
ATOM      7  C   UNL     1      -5.053   1.349  -2.013  1.00  0.00     0.118 C 
BRANCH   4   8
ATOM      8  C   UNL     1      -4.981   0.237   1.188  1.00  0.00     0.184 C 
BRANCH   8   9
ATOM      9  O   UNL     1      -3.838  -0.368   1.802  1.00  0.00    -0.383 OA
ATOM     10  C   UNL     1      -4.189  -1.524   2.551  1.00  0.00     0.194 C 
ENDBRANCH   8   9
ENDBRANCH   4   8
ENDBRANCH   2   3
ENDBRANCH   1   2
BRANCH   1  11
ATOM     11  C   UNL     1      -0.579   0.544  -0.882  1.00  0.00     0.173 C 
ATOM     12  N   UNL     1      -0.058   0.290  -2.046  1.00  0.00    -0.226 NA
ATOM     13  C   UNL     1       0.613   0.417  -0.218  1.00  0.00     0.098 A 
ATOM     14  C   UNL     1       1.157   0.157  -1.399  1.00  0.00     0.088 A 
ATOM     15  S   UNL     1       1.618   0.397   1.048  1.00  0.00    -0.129 S 
ATOM     16  C   UNL     1       2.506  -0.098  -1.394  1.00  0.00     0.049 A 
ATOM     17  C   UNL     1       2.952  -0.008  -0.062  1.00  0.00     0.037 A 
BRANCH  17  18
ATOM     18  C   UNL     1       4.302  -0.228   0.472  1.00  0.00    -0.005 A 
ATOM     19  C   UNL     1       4.848   0.609   1.452  1.00  0.00     0.010 A 
ATOM     20  C   UNL     1       5.085  -1.285  -0.017  1.00  0.00     0.056 A 
ATOM     21  C   UNL     1       6.136   0.382   1.941  1.00  0.00     0.004 A 
ATOM     22  C   UNL     1       6.377  -1.522   0.468  1.00  0.00     0.130 A 
ATOM     23  C   UNL     1       6.899  -0.682   1.454  1.00  0.00     0.047 A 
BRANCH  22  24
ATOM     24  O   UNL     1       7.013  -2.583  -0.114  1.00  0.00    -0.406 OA
BRANCH  24  25
ATOM     25  C   UNL     1       8.228  -3.029   0.475  1.00  0.00     0.573 C 
ATOM     26  F   UNL     1       8.658  -4.130  -0.189  1.00  0.00    -0.132 F 
ATOM     27  F   UNL     1       9.194  -2.083   0.381  1.00  0.00    -0.132 F 
ATOM     28  F   UNL     1       8.043  -3.370   1.771  1.00  0.00    -0.132 F 
ENDBRANCH  24  25
ENDBRANCH  22  24
ENDBRANCH  17  18
ENDBRANCH   1  11
TORSDOF 8
