MODEL        10USER    Run = 10USERUSER    Estimated Free Energy of Binding    =  -9.35 kcal/mol  [=(1)+(2)+(3)-(4)]USERUSER    (1) Final Intermolecular Energy     = -11.73 kcal/molUSER        vdW + Hbond + desolv Energy     = -11.59 kcal/molUSER        Electrostatic Energy            =  -0.15 kcal/molUSER        Moving Ligand-Fixed Receptor    = -11.73 kcal/molUSER        Moving Ligand-Moving Receptor   =  +0.00 kcal/molUSER    (2) Final Total Internal Energy     =  -1.76 kcal/molUSER    (3) Torsional Free Energy           =  +2.39 kcal/molUSER    (4) Unbound System's Energy         =  -1.76 kcal/molUSERUSERREMARK SMILES COc1ccc(CNC(=O)Nc2cc(Oc3ccc(Cl)cc3)c(C#N)cn2)cc1OREMARK SMILES IDX 8 1 9 2 10 3 11 4 7 7 6 8 3 9 4 10 29 11 5 12 28 13 2 14REMARK SMILES IDX 1 15 30 16 12 18 13 19 27 20 14 21 26 22 23 23 15 24 16 25REMARK SMILES IDX 17 26 22 27 18 28 21 29 19 30 20 31 24 32 25 33REMARK H PARENT 8 5 11 6 30 17USER                              x       y       z     vdW  Elec       q    TypeUSER                           _______ _______ _______ _____ _____    ______ ____ROOTATOM      1  N   UNL     1      43.264  47.492  20.328 -0.14 -0.06    -0.334 N  ATOM      2  C   UNL     1      42.180  47.307  19.488 -0.20 +0.02    +0.320 C  ATOM      3  O   UNL     1      41.257  46.553  19.764 -0.31 -0.01    -0.248 OA ATOM      4  N   UNL     1      42.297  48.104  18.372 -0.35 -0.00    -0.292 N  ATOM      5  H   UNL     1      44.130  47.743  19.879 -0.45 +0.05    +0.165 HD ATOM      6  H   UNL     1      42.989  48.832  18.418 -0.12 +0.01    +0.173 HD ENDROOTBRANCH   1   7ATOM      7  C   UNL     1      43.403  46.697  21.532 -0.30 +0.06    +0.153 C  BRANCH   7   8ATOM      8  C   UNL     1      42.778  47.397  22.712 -0.29 -0.00    -0.025 A  ATOM      9  C   UNL     1      41.594  48.733  24.895 -0.27 +0.03    +0.160 A  ATOM     10  C   UNL     1      40.879  47.760  24.202 -0.26 +0.01    +0.051 A  ATOM     11  C   UNL     1      42.897  49.032  24.483 -0.27 +0.04    +0.157 A  ATOM     12  C   UNL     1      41.467  47.098  23.114 -0.23 +0.00    +0.009 A  ATOM     13  C   UNL     1      43.491  48.380  23.408 -0.30 +0.01    +0.055 A  BRANCH   9  14ATOM     14  O   UNL     1      41.145  49.457  25.970 -0.15 -0.08    -0.493 OA ATOM     15  C   UNL     1      40.705  48.713  27.100 -0.19 +0.03    +0.278 C  ENDBRANCH   9  14BRANCH  11  16ATOM     16  O   UNL     1      43.622  49.988  25.141 -0.26 -0.09    -0.504 OA ATOM     17  H   UNL     1      43.035  50.307  25.852 -0.50 -0.03    +0.293 HD ENDBRANCH  11  16ENDBRANCH   7   8ENDBRANCH   1   7BRANCH   4  18ATOM     18  C   UNL     1      41.428  48.097  17.275 -0.37 -0.01    +0.137 A  ATOM     19  C   UNL     1      40.649  46.965  17.084 -0.44 -0.01    +0.095 A  ATOM     20  N   UNL     1      41.337  49.159  16.456 -0.95 +0.00    -0.237 NA ATOM     21  C   UNL     1      39.775  46.927  15.994 -0.37 -0.03    +0.150 A  ATOM     22  C   UNL     1      40.458  49.114  15.427 -0.50 -0.04    +0.137 A  ATOM     23  C   UNL     1      39.647  48.029  15.154 -0.45 -0.03    +0.113 A  BRANCH  21  24ATOM     24  O   UNL     1      39.005  45.796  15.849 -0.10 +0.11    -0.456 OA BRANCH  24  25ATOM     25  C   UNL     1      37.771  45.791  16.466 -0.28 -0.05    +0.127 A  ATOM     26  C   UNL     1      37.719  45.163  17.714 -0.34 -0.01    +0.048 A  ATOM     27  C   UNL     1      36.606  46.320  15.902 -0.34 -0.03    +0.048 A  ATOM     28  C   UNL     1      36.512  45.089  18.412 -0.30 -0.01    +0.024 A  ATOM     29  C   UNL     1      35.398  46.244  16.601 -0.33 -0.02    +0.024 A  ATOM     30  C   UNL     1      35.357  45.632  17.853 -0.35 -0.02    +0.041 A  ATOM     31  Cl  UNL     1      33.866  45.537  18.707 -0.67 +0.04    -0.084 Cl ENDBRANCH  24  25ENDBRANCH  21  24BRANCH  23  32ATOM     32  C   UNL     1      38.720  48.083  14.071 -0.48 -0.04    +0.105 C  ATOM     33  N   UNL     1      37.955  48.119  13.198 -0.74 +0.04    -0.192 NA ENDBRANCH  23  32ENDBRANCH   4  18TORSDOF 8TERENDMDL