MODEL        6USER    Run = 6USERUSER    Estimated Free Energy of Binding    =  -6.56 kcal/mol  [=(1)+(2)+(3)-(4)]USERUSER    (1) Final Intermolecular Energy     =  -8.95 kcal/molUSER        vdW + Hbond + desolv Energy     =  -9.39 kcal/molUSER        Electrostatic Energy            =  -0.19 kcal/molUSER        Moving Ligand-Fixed Receptor    =  -9.58 kcal/molUSER        Moving Ligand-Moving Receptor   =  +0.63 kcal/molUSER    (2) Final Total Internal Energy     =  -0.86 kcal/molUSER    (3) Torsional Free Energy           =  +2.39 kcal/molUSER    (4) Unbound System's Energy         =  -0.86 kcal/molUSERUSERREMARK SMILES O=C1Cc2ccccc2N=C(Sc2ccc(O)cc2)N=CN1REMARK SMILES IDX 11 1 20 2 21 3 2 4 22 5 1 6 10 9 9 10 8 11 4 12 7 13 5 14REMARK SMILES IDX 6 15 3 16 12 18 13 19 14 20 19 21 15 22 18 23 16 24 17 25REMARK H PARENT 22 7 17 26REMARK Flexibility Score:   28.900USER                              x       y       z     vdW  Elec       q    TypeUSER                           _______ _______ _______ _____ _____    ______ ____ROOTATOM      1  C   UNL     1      36.652  45.445  15.504 -0.28 -0.09    +0.194 C  ENDROOTBRANCH   1   2ATOM      2  N   UNL     1      36.042  45.161  14.313 -0.24 +0.10    -0.213 NA BRANCH   2   3ATOM      3  C   UNL     1      35.348  46.115  13.776 -0.31 -0.14    +0.202 C  ATOM      4  C   UNL     1      37.033  47.785  13.090 -0.47 -0.09    +0.229 CG0ATOM      5  N   UNL     1      35.731  47.376  13.332 -0.29 +0.21    -0.316 N  ATOM      6  O   UNL     1      37.690  47.337  12.151 -1.01 +0.03    -0.274 OA ATOM      7  H   UNL     1      35.065  48.103  13.551 +0.21 -0.13    +0.170 HD ATOM      8  G   UNL     1      37.581  48.848  14.033 +0.00 +0.00    +0.000 G0 ENDBRANCH   2   3ENDBRANCH   1   2BRANCH   1   9ATOM      9  N   UNL     1      36.825  46.712  15.741 -0.23 +0.15    -0.223 NA BRANCH   9  10ATOM     10  C   UNL     1      38.105  47.231  15.934 -0.37 -0.04    +0.070 A  ATOM     11  C   UNL     1      38.923  46.802  16.979 -0.40 -0.01    +0.029 A  ATOM     12  C   UNL     1      38.522  48.281  15.086 -0.52 +0.01    -0.013 A  ATOM     13  C   UNL     1      40.186  47.368  17.154 -0.50 -0.00    +0.002 A  ATOM     14  C   UNL     1      39.790  48.847  15.279 -0.55 -0.00    +0.006 A  ATOM     15  C   UNL     1      40.621  48.383  16.302 -0.57 -0.00    +0.000 A  BRANCH  12  16ATOM     16  C   UNL     1      37.584  48.844  14.028 -0.38 -0.08    +0.138 CG0ATOM     17  G   UNL     1      37.034  47.779  13.089 +0.00 +0.00    +0.000 G0 ENDBRANCH  12  16ENDBRANCH   9  10ENDBRANCH   1   9BRANCH   1  18ATOM     18  S   UNL     1      37.180  44.093  16.485 -0.46 +0.01    -0.050 SA BRANCH  18  19ATOM     19  C   UNL     1      35.866  44.003  17.683 -0.31 -0.00    +0.016 A  ATOM     20  C   UNL     1      35.746  42.925  18.569 -0.32 -0.00    +0.019 A  ATOM     21  C   UNL     1      34.946  45.055  17.759 -0.34 -0.01    +0.019 A  ATOM     22  C   UNL     1      34.705  42.885  19.501 -0.39 -0.00    +0.047 A  ATOM     23  C   UNL     1      33.905  45.017  18.689 -0.40 -0.02    +0.047 A  ATOM     24  C   UNL     1      33.792  43.933  19.550 -0.34 -0.02    +0.115 A  BRANCH  24  25ATOM     25  O   UNL     1      32.761  43.934  20.442 -0.58 -0.03    -0.508 OA ATOM     26  H   UNL     1      32.768  44.777  20.924 -0.32 -0.06    +0.293 HD ENDBRANCH  24  25ENDBRANCH  18  19ENDBRANCH   1  18TORSDOF 3TERENDMDL