REMARK SMILES O=C1Cc2ccccc2N=C(Sc2ccc(O)cc2)N=CN1
REMARK SMILES IDX 11 1 20 2 21 3 2 4 22 5 1 6 10 9 9 10 8 11 4 12 7 13 5 14
REMARK SMILES IDX 6 15 3 16 12 18 13 19 14 20 19 21 15 22 18 23 16 24 17 25
REMARK H PARENT 22 7 17 26
REMARK Flexibility Score:   28.900
ROOT
ATOM      1  C   UNL     1      -0.043  -1.317   0.919  1.00  0.00     0.194 C 
ENDROOT
BRANCH   1   2
ATOM      2  N   UNL     1       0.140  -2.384   1.756  1.00  0.00    -0.213 NA
BRANCH   2   3
ATOM      3  C   UNL     1      -0.917  -2.842   2.350  1.00  0.00     0.202 C 
ATOM      4  C   UNL     1      -2.800  -1.894   1.063  1.00  0.00     0.229 CG0
ATOM      5  N   UNL     1      -2.263  -2.545   2.163  1.00  0.00    -0.316 N 
ATOM      6  O   UNL     1      -2.838  -2.420  -0.048  1.00  0.00    -0.274 OA
ATOM      7  H   UNL     1      -2.788  -2.483   3.023  1.00  0.00     0.170 HD
ATOM      8  G   UNL     1      -3.373  -0.508   1.328  1.00  0.00     0.000 G0
ENDBRANCH   2   3
ENDBRANCH   1   2
BRANCH   1   9
ATOM      9  N   UNL     1      -0.550  -0.261   1.483  1.00  0.00    -0.223 NA
BRANCH   9  10
ATOM     10  C   UNL     1      -1.212   0.703   0.723  1.00  0.00     0.070 A 
ATOM     11  C   UNL     1      -0.538   1.788   0.162  1.00  0.00     0.029 A 
ATOM     12  C   UNL     1      -2.616   0.599   0.609  1.00  0.00    -0.013 A 
ATOM     13  C   UNL     1      -1.243   2.746  -0.567  1.00  0.00     0.002 A 
ATOM     14  C   UNL     1      -3.313   1.574  -0.119  1.00  0.00     0.006 A 
ATOM     15  C   UNL     1      -2.625   2.635  -0.713  1.00  0.00     0.000 A 
BRANCH  12  16
ATOM     16  C   UNL     1      -3.373  -0.508   1.328  1.00  0.00     0.138 CG0
ATOM     17  G   UNL     1      -2.800  -1.894   1.063  1.00  0.00     0.000 G0
ENDBRANCH  12  16
ENDBRANCH   9  10
ENDBRANCH   1   9
BRANCH   1  18
ATOM     18  S   UNL     1       0.343  -1.543  -0.775  1.00  0.00    -0.050 SA
BRANCH  18  19
ATOM     19  C   UNL     1       1.905  -0.695  -0.888  1.00  0.00     0.016 A 
ATOM     20  C   UNL     1       2.949  -0.947   0.010  1.00  0.00     0.019 A 
ATOM     21  C   UNL     1       2.101   0.228  -1.922  1.00  0.00     0.019 A 
ATOM     22  C   UNL     1       4.165  -0.268  -0.107  1.00  0.00     0.047 A 
ATOM     23  C   UNL     1       3.315   0.908  -2.040  1.00  0.00     0.047 A 
ATOM     24  C   UNL     1       4.335   0.657  -1.132  1.00  0.00     0.115 A 
BRANCH  24  25
ATOM     25  O   UNL     1       5.503   1.343  -1.282  1.00  0.00    -0.508 OA
ATOM     26  H   UNL     1       6.123   1.056  -0.592  1.00  0.00     0.293 HD
ENDBRANCH  24  25
ENDBRANCH  18  19
ENDBRANCH   1  18
TORSDOF 3
