REMARK SMILES Cc1cc(O)ccc1C(=O)c1c(O)cccc1C(=O)O
REMARK SMILES IDX 11 1 12 2 14 3 15 4 16 5 17 6 9 7 10 8 8 9 2 10 3 11 4 12
REMARK SMILES IDX 7 13 6 14 1 15 5 16 13 18 18 20 19 21 20 22
REMARK H PARENT 5 17 13 19 20 23
ROOT
ATOM      1  C   UNL     1      -1.479   0.366   0.620  1.00  0.00     0.079 A 
ATOM      2  C   UNL     1      -2.206   1.181   1.504  1.00  0.00     0.127 A 
ATOM      3  C   UNL     1      -3.364   1.835   1.090  1.00  0.00     0.047 A 
ATOM      4  C   UNL     1      -3.832   1.665  -0.211  1.00  0.00     0.005 A 
ATOM      5  C   UNL     1      -3.148   0.824  -1.089  1.00  0.00     0.017 A 
ATOM      6  C   UNL     1      -1.978   0.164  -0.674  1.00  0.00     0.074 A 
ENDROOT
BRANCH   1   7
ATOM      7  C   UNL     1      -0.192  -0.194   1.103  1.00  0.00     0.197 C 
ATOM      8  O   UNL     1      -0.133  -0.574   2.272  1.00  0.00    -0.288 OA
BRANCH   7   9
ATOM      9  C   UNL     1       1.037  -0.157   0.267  1.00  0.00     0.026 A 
ATOM     10  C   UNL     1       1.925  -1.250   0.230  1.00  0.00    -0.036 A 
ATOM     11  C   UNL     1       3.087  -1.145  -0.551  1.00  0.00     0.050 A 
ATOM     12  C   UNL     1       3.350   0.013  -1.277  1.00  0.00     0.115 A 
ATOM     13  C   UNL     1       1.323   1.012  -0.460  1.00  0.00     0.016 A 
ATOM     14  C   UNL     1       2.478   1.094  -1.238  1.00  0.00     0.047 A 
ATOM     15  C   UNL     1       1.679  -2.513   1.008  1.00  0.00     0.045 C 
BRANCH  12  16
ATOM     16  O   UNL     1       4.493   0.049  -2.019  1.00  0.00    -0.508 OA
ATOM     17  H   UNL     1       4.573   0.924  -2.432  1.00  0.00     0.293 HD
ENDBRANCH  12  16
ENDBRANCH   7   9
ENDBRANCH   1   7
BRANCH   2  18
ATOM     18  O   UNL     1      -1.825   1.387   2.804  1.00  0.00    -0.507 OA
ATOM     19  H   UNL     1      -1.165   0.695   3.039  1.00  0.00     0.293 HD
ENDBRANCH   2  18
BRANCH   6  20
ATOM     20  C   UNL     1      -1.364  -0.808  -1.595  1.00  0.00     0.336 C 
ATOM     21  O   UNL     1      -0.951  -1.912  -1.304  1.00  0.00    -0.246 OA
BRANCH  20  22
ATOM     22  O   UNL     1      -1.284  -0.318  -2.844  1.00  0.00    -0.478 OA
ATOM     23  H   UNL     1      -0.837  -1.029  -3.352  1.00  0.00     0.297 HD
ENDBRANCH  20  22
ENDBRANCH   6  20
TORSDOF 6
