MODEL        9USER    Run = 9USERUSER    Estimated Free Energy of Binding    =  -8.94 kcal/mol  [=(1)+(2)+(3)-(4)]USERUSER    (1) Final Intermolecular Energy     = -11.33 kcal/molUSER        vdW + Hbond + desolv Energy     = -11.04 kcal/molUSER        Electrostatic Energy            =  -0.29 kcal/molUSER        Moving Ligand-Fixed Receptor    = -11.33 kcal/molUSER        Moving Ligand-Moving Receptor   =  +0.00 kcal/molUSER    (2) Final Total Internal Energy     =  -1.25 kcal/molUSER    (3) Torsional Free Energy           =  +2.39 kcal/molUSER    (4) Unbound System's Energy         =  -1.25 kcal/molUSERUSERREMARK SMILES COC[C@@H]1CCCN1C=NC1=Nc2cc(-c3cccc(OC(F)(F)F)c3)sc21REMARK SMILES IDX 10 1 9 2 8 3 4 4 5 5 6 6 7 7 3 8 2 9 1 10 11 11 12 12 28 13REMARK SMILES IDX 13 14 27 15 14 16 15 17 16 18 17 19 26 20 18 21 20 22 19 23REMARK SMILES IDX 21 24 22 25 23 26 24 27 25 28REMARK H PARENTUSER                              x       y       z     vdW  Elec       q    TypeUSER                           _______ _______ _______ _____ _____    ______ ____ROOTATOM      1  N   UNL     1      27.182  37.061  20.322 -0.19 +0.09    -0.218 NA ENDROOTBRANCH   1   2ATOM      2  C   UNL     1      28.372  37.537  20.208 -0.24 -0.01    +0.197 C  BRANCH   2   3ATOM      3  N   UNL     1      29.392  37.398  21.113 -0.10 +0.00    -0.357 N  ATOM      4  C   UNL     1      30.772  37.845  20.855 -0.45 +0.01    +0.109 C  ATOM      5  C   UNL     1      31.281  38.191  22.260 -0.40 -0.00    +0.029 C  ATOM      6  C   UNL     1      30.545  37.210  23.158 -0.51 +0.00    +0.024 C  ATOM      7  C   UNL     1      29.160  37.139  22.525 -0.29 +0.00    +0.118 C  BRANCH   4   8ATOM      8  C   UNL     1      31.609  36.717  20.220 -0.40 +0.04    +0.184 C  BRANCH   8   9ATOM      9  O   UNL     1      31.643  36.847  18.794 -0.85 -0.16    -0.383 OA ATOM     10  C   UNL     1      32.400  37.978  18.384 -0.39 +0.02    +0.194 C  ENDBRANCH   8   9ENDBRANCH   4   8ENDBRANCH   2   3ENDBRANCH   1   2BRANCH   1  11ATOM     11  C   UNL     1      27.067  35.734  20.181 -0.26 -0.13    +0.173 C  ATOM     12  N   UNL     1      26.583  34.907  19.303 -0.72 +0.16    -0.226 NA ATOM     13  C   UNL     1      27.485  34.738  21.025 -0.27 -0.07    +0.098 A  ATOM     14  C   UNL     1      26.996  33.884  20.137 -0.32 -0.08    +0.088 A  ATOM     15  S   UNL     1      28.153  34.088  22.345 -0.51 +0.01    -0.129 S  ATOM     16  C   UNL     1      27.118  32.554  20.455 -0.21 -0.05    +0.049 A  ATOM     17  C   UNL     1      27.762  32.472  21.704 -0.41 -0.02    +0.037 A  BRANCH  17  18ATOM     18  C   UNL     1      28.093  31.277  22.490 -0.47 +0.00    -0.005 A  ATOM     19  C   UNL     1      27.176  30.233  22.659 -0.37 -0.01    +0.010 A  ATOM     20  C   UNL     1      29.347  31.173  23.112 -0.45 +0.01    +0.056 A  ATOM     21  C   UNL     1      27.513  29.108  23.415 -0.60 -0.00    +0.004 A  ATOM     22  C   UNL     1      29.695  30.049  23.871 -0.46 +0.02    +0.130 A  ATOM     23  C   UNL     1      28.770  29.013  24.018 -0.48 -0.00    +0.047 A  BRANCH  22  24ATOM     24  O   UNL     1      30.947  30.102  24.418 -0.84 -0.19    -0.406 OA BRANCH  24  25ATOM     25  C   UNL     1      32.056  29.912  23.548 -0.13 +0.09    +0.573 C  ATOM     26  F   UNL     1      32.417  28.606  23.577 -0.21 -0.01    -0.132 F  ATOM     27  F   UNL     1      31.735  30.226  22.269 -0.28 -0.00    -0.132 F  ATOM     28  F   UNL     1      33.119  30.647  23.949 -0.22 -0.02    -0.132 F  ENDBRANCH  24  25ENDBRANCH  22  24ENDBRANCH  17  18ENDBRANCH   1  11TORSDOF 8TERENDMDL