MODEL        7USER    Run = 7USERUSER    Estimated Free Energy of Binding    =  -6.26 kcal/mol  [=(1)+(2)+(3)-(4)]USERUSER    (1) Final Intermolecular Energy     =  -8.95 kcal/molUSER        vdW + Hbond + desolv Energy     =  -9.06 kcal/molUSER        Electrostatic Energy            =  -0.02 kcal/molUSER        Moving Ligand-Fixed Receptor    =  -9.09 kcal/molUSER        Moving Ligand-Moving Receptor   =  +0.14 kcal/molUSER    (2) Final Total Internal Energy     =  -2.10 kcal/molUSER    (3) Torsional Free Energy           =  +2.68 kcal/molUSER    (4) Unbound System's Energy         =  -2.10 kcal/molUSERUSERREMARK SMILES C#Cc1cccc(N2C=CC(Nc3ccccc3)=NC3=CC=N[C@H]32)c1OREMARK SMILES IDX 20 1 21 2 22 3 23 4 24 5 8 6 7 7 3 8 4 9 25 10 5 11 6 12REMARK SMILES IDX 2 13 1 14 26 15 9 17 19 19 11 20 12 21 10 23 13 25 14 26REMARK SMILES IDX 18 27 15 28 17 29 16 30REMARK H PARENT 26 16 12 22REMARK Flexibility Score:   48.900USER                              x       y       z     vdW  Elec       q    TypeUSER                           _______ _______ _______ _____ _____    ______ ____ROOTATOM      1  C   UNL     1      38.387  45.336  18.007 -0.39 -0.02    +0.089 C  ATOM      2  C   UNL     1      39.402  46.151  18.289 -0.45 -0.01    +0.048 C  ATOM      3  C   UNL     1      40.004  45.509  19.442 -0.40 -0.00    +0.110 C  ATOM      4  N   UNL     1      39.494  44.401  19.872 -0.20 +0.00    -0.262 NA ATOM      5  C   UNL     1      38.294  44.197  19.008 -0.19 -0.02    +0.254 C  ENDROOTBRANCH   5   6ATOM      6  N   UNL     1      37.015  44.268  19.735 -0.18 +0.03    -0.317 N  BRANCH   6   7ATOM      7  C   UNL     1      36.977  43.467  20.913 -0.35 +0.00    +0.086 A  ATOM      8  C   UNL     1      37.264  43.288  23.341 -0.33 +0.01    +0.068 A  ATOM      9  C   UNL     1      36.843  41.957  23.284 -0.46 +0.00    +0.021 A  ATOM     10  C   UNL     1      37.333  44.030  22.158 -0.28 +0.01    +0.154 A  ATOM     11  C   UNL     1      36.497  41.377  22.062 -0.58 +0.00    +0.004 A  ATOM     12  C   UNL     1      36.562  42.127  20.884 -0.47 +0.00    +0.030 A  BRANCH   8  13ATOM     13  C   UNL     1      37.622  43.856  24.607 -0.32 -0.00    -0.067 C  ATOM     14  C   UNL     1      37.924  44.333  25.667 -0.29 -0.00    +0.010 C  ENDBRANCH   8  13BRANCH  10  15ATOM     15  O   UNL     1      37.782  45.330  22.187 -0.09 -0.05    -0.505 OA ATOM     16  H   UNL     1      38.354  45.406  21.399 +0.16 +0.02    +0.293 HD ENDBRANCH  10  15ENDBRANCH   6   7BRANCH   6  17ATOM     17  C   UNL     1      35.818  44.628  19.140 -0.35 -0.02    +0.092 CG0ATOM     18  G   UNL     1      35.504  44.905  17.871 +0.00 +0.00    +0.000 G0 ENDBRANCH   6  17ENDBRANCH   5   6BRANCH   1  19ATOM     19  N   UNL     1      37.714  45.400  16.822 -0.21 +0.07    -0.231 NA BRANCH  19  20ATOM     20  C   UNL     1      36.420  45.289  16.738 -0.31 -0.06    +0.132 C  ATOM     21  N   UNL     1      35.765  45.548  15.541 -0.12 +0.22    -0.340 N  ATOM     22  H   UNL     1      34.783  45.313  15.501 +0.11 -0.12    +0.168 HD BRANCH  20  23ATOM     23  C   UNL     1      35.504  44.906  17.872 -0.35 -0.03    +0.065 CG0ATOM     24  G   UNL     1      35.816  44.627  19.141 +0.00 +0.00    +0.000 G0 ENDBRANCH  20  23BRANCH  21  25ATOM     25  C   UNL     1      36.246  46.078  14.326 -0.40 -0.02    +0.040 A  ATOM     26  C   UNL     1      36.479  45.324  13.171 -0.44 -0.01    +0.026 A  ATOM     27  C   UNL     1      36.480  47.463  14.253 -0.44 -0.02    +0.026 A  ATOM     28  C   UNL     1      36.939  45.923  11.992 -0.60 -0.00    +0.002 A  ATOM     29  C   UNL     1      36.939  48.067  13.078 -0.59 -0.00    +0.002 A  ATOM     30  C   UNL     1      37.170  47.295  11.945 -0.57 -0.00    +0.000 A  ENDBRANCH  21  25ENDBRANCH  19  20ENDBRANCH   1  19TORSDOF 4TERENDMDL