REMARK SMILES CC[CH]CC(=O)c1ccccc1OC[C@@H](O)[C@@H](O)CNCc1cc(O)cc(OC)c1
REMARK SMILES IDX 14 1 13 2 12 3 7 4 8 5 9 6 11 7 10 8 5 9 6 10 4 11 3 12 2 13
REMARK SMILES IDX 1 14 15 15 16 16 17 18 18 19 19 21 20 22 21 24 22 25 23 26
REMARK SMILES IDX 30 27 24 28 27 29 26 30 25 31 28 33 29 34
REMARK H PARENT 16 17 18 20 20 23 25 32
ROOT
ATOM      1  C   UNL     1      -1.197   0.172  -0.449  1.00  0.00     0.264 C 
ENDROOT
BRANCH   1   2
ATOM      2  O   UNL     1      -2.027   0.040   0.721  1.00  0.00    -0.490 OA
BRANCH   2   3
ATOM      3  C   UNL     1      -2.301  -1.239   1.125  1.00  0.00     0.130 A 
ATOM      4  C   UNL     1      -3.593  -1.548   1.570  1.00  0.00     0.060 A 
ATOM      5  C   UNL     1      -3.862  -2.825   2.092  1.00  0.00     0.016 A 
ATOM      6  C   UNL     1      -2.861  -3.791   2.158  1.00  0.00     0.001 A 
ATOM      7  C   UNL     1      -1.292  -2.208   1.225  1.00  0.00     0.047 A 
ATOM      8  C   UNL     1      -1.577  -3.482   1.723  1.00  0.00     0.004 A 
BRANCH   4   9
ATOM      9  C   UNL     1      -4.736  -0.587   1.542  1.00  0.00     0.166 C 
ATOM     10  O   UNL     1      -5.538  -0.595   2.482  1.00  0.00    -0.294 OA
BRANCH   9  11
ATOM     11  C   UNL     1      -4.930   0.343   0.351  1.00  0.00     0.085 C 
BRANCH  11  12
ATOM     12  C   UNL     1      -5.034  -0.397  -0.945  1.00  0.00    -0.000 C 
BRANCH  12  13
ATOM     13  C   UNL     1      -6.327  -0.991  -1.392  1.00  0.00     0.001 C 
ATOM     14  C   UNL     1      -6.415  -2.472  -1.065  1.00  0.00     0.004 C 
ENDBRANCH  12  13
ENDBRANCH  11  12
ENDBRANCH   9  11
ENDBRANCH   4   9
ENDBRANCH   2   3
ENDBRANCH   1   2
BRANCH   1  15
ATOM     15  C   UNL     1      -0.061   1.149  -0.124  1.00  0.00     0.182 C 
BRANCH  15  16
ATOM     16  O   UNL     1       0.720   0.632   0.976  1.00  0.00    -0.387 OA
ATOM     17  H   UNL     1       0.092   0.549   1.718  1.00  0.00     0.211 HD
ENDBRANCH  15  16
BRANCH  15  18
ATOM     18  C   UNL     1       0.835   1.441  -1.348  1.00  0.00     0.160 C 
BRANCH  18  19
ATOM     19  O   UNL     1       1.733   2.505  -1.002  1.00  0.00    -0.389 OA
ATOM     20  H   UNL     1       2.643   2.136  -0.974  1.00  0.00     0.211 HD
ENDBRANCH  18  19
BRANCH  18  21
ATOM     21  C   UNL     1       1.597   0.224  -1.942  1.00  0.00     0.115 C 
BRANCH  21  22
ATOM     22  N   UNL     1       2.258  -0.629  -0.950  1.00  0.00    -0.310 NA
ATOM     23  H   UNL     1       2.083  -0.260  -0.009  1.00  0.00     0.123 HD
BRANCH  22  24
ATOM     24  C   UNL     1       3.687  -0.826  -1.161  1.00  0.00     0.117 C 
BRANCH  24  25
ATOM     25  C   UNL     1       4.519   0.396  -0.851  1.00  0.00    -0.027 A 
ATOM     26  C   UNL     1       5.244   1.038  -1.867  1.00  0.00     0.051 A 
ATOM     27  C   UNL     1       4.567   0.913   0.458  1.00  0.00     0.051 A 
ATOM     28  C   UNL     1       5.996   2.171  -1.572  1.00  0.00     0.119 A 
ATOM     29  C   UNL     1       5.305   2.070   0.742  1.00  0.00     0.122 A 
ATOM     30  C   UNL     1       6.031   2.690  -0.279  1.00  0.00     0.092 A 
BRANCH  28  31
ATOM     31  O   UNL     1       6.695   2.762  -2.586  1.00  0.00    -0.508 OA
ATOM     32  H   UNL     1       7.175   3.523  -2.215  1.00  0.00     0.293 HD
ENDBRANCH  28  31
BRANCH  29  33
ATOM     33  O   UNL     1       5.402   2.683   1.968  1.00  0.00    -0.497 OA
ATOM     34  C   UNL     1       4.477   2.253   2.968  1.00  0.00     0.278 C 
ENDBRANCH  29  33
ENDBRANCH  24  25
ENDBRANCH  22  24
ENDBRANCH  21  22
ENDBRANCH  18  21
ENDBRANCH  15  18
ENDBRANCH   1  15
TORSDOF 16
