REMARK SMILES O=C(NC1=CC=CCC=NNC=C1)c1cccc(CN2CC[C@@H](O)C2)c1
REMARK SMILES IDX 1 1 2 2 3 3 14 5 15 6 26 7 16 8 18 9 17 10 19 11 20 12 21 13
REMARK SMILES IDX 25 14 22 15 23 16 24 17 4 19 5 20 6 21 7 22 8 23 13 25 12 26
REMARK SMILES IDX 11 27 10 29 9 30
REMARK H PARENT 3 4 24 18 11 28
REMARK Flexibility Score:   40.900
ROOT
ATOM      1  O   UNL     1      -0.603  -0.936  -1.257  1.00  0.00    -0.269 OA
ATOM      2  C   UNL     1      -0.646  -1.174  -0.055  1.00  0.00     0.255 C 
ATOM      3  N   UNL     1      -1.660  -1.829   0.628  1.00  0.00    -0.322 N 
ATOM      4  H   UNL     1      -1.537  -1.952   1.623  1.00  0.00     0.170 HD
ENDROOT
BRANCH   2   5
ATOM      5  C   UNL     1       0.507  -0.742   0.780  1.00  0.00     0.040 A 
ATOM      6  C   UNL     1       1.014  -1.537   1.813  1.00  0.00     0.014 A 
ATOM      7  C   UNL     1       1.134   0.467   0.462  1.00  0.00     0.019 A 
ATOM      8  C   UNL     1       2.125  -1.105   2.542  1.00  0.00     0.001 A 
ATOM      9  C   UNL     1       2.241   0.916   1.195  1.00  0.00    -0.033 A 
ATOM     10  C   UNL     1       2.731   0.115   2.241  1.00  0.00     0.005 A 
BRANCH   9  11
ATOM     11  C   UNL     1       2.917   2.219   0.822  1.00  0.00     0.120 C 
BRANCH  11  12
ATOM     12  N   UNL     1       3.540   2.164  -0.509  1.00  0.00    -0.296 NA
ATOM     13  C   UNL     1       4.760   1.338  -0.537  1.00  0.00     0.087 C 
ATOM     14  C   UNL     1       4.021   3.486  -0.935  1.00  0.00     0.116 C 
ATOM     15  C   UNL     1       5.874   2.227  -0.004  1.00  0.00     0.048 C 
ATOM     16  C   UNL     1       5.436   3.641  -0.364  1.00  0.00     0.129 C 
BRANCH  16  17
ATOM     17  O   UNL     1       6.333   4.190  -1.316  1.00  0.00    -0.392 OA
ATOM     18  H   UNL     1       6.033   5.097  -1.505  1.00  0.00     0.211 HD
ENDBRANCH  16  17
ENDBRANCH  11  12
ENDBRANCH   9  11
ENDBRANCH   2   5
BRANCH   3  19
ATOM     19  C   UNL     1      -2.853  -2.300   0.104  1.00  0.00     0.042 C 
BRANCH  19  20
ATOM     20  C   UNL     1      -3.658  -3.045   0.893  1.00  0.00     0.026 C 
BRANCH  20  21
ATOM     21  C   UNL     1      -4.864  -3.751   0.507  1.00  0.00    -0.002 C 
BRANCH  21  22
ATOM     22  C   UNL     1      -6.056  -3.260   0.140  1.00  0.00    -0.021 C 
BRANCH  22  23
ATOM     23  C   UNL     1      -6.549  -1.844   0.040  1.00  0.00     0.077 CG0
ATOM     24  G   UNL     1      -5.720  -0.796   0.750  1.00  0.00     0.000 G0
ENDBRANCH  22  23
ENDBRANCH  21  22
ENDBRANCH  20  21
ENDBRANCH  19  20
BRANCH  19  25
ATOM     25  C   UNL     1      -3.155  -2.000  -1.280  1.00  0.00     0.045 C 
BRANCH  25  26
ATOM     26  C   UNL     1      -3.953  -1.030  -1.753  1.00  0.00     0.105 C 
BRANCH  26  27
ATOM     27  N   UNL     1      -4.762  -0.087  -1.144  1.00  0.00    -0.286 N 
ATOM     28  H   UNL     1      -4.772   0.797  -1.667  1.00  0.00     0.189 HD
BRANCH  27  29
ATOM     29  N   UNL     1      -4.903   0.052   0.196  1.00  0.00    -0.188 NA
BRANCH  29  30
ATOM     30  C   UNL     1      -5.720  -0.796   0.750  1.00  0.00     0.110 CG0
ATOM     31  G   UNL     1      -6.549  -1.844   0.040  1.00  0.00     0.000 G0
ENDBRANCH  29  30
ENDBRANCH  27  29
ENDBRANCH  26  27
ENDBRANCH  25  26
ENDBRANCH  19  25
ENDBRANCH   3  19
TORSDOF 5
