MODEL        3USER    Run = 3USERUSER    Estimated Free Energy of Binding    =  -6.14 kcal/mol  [=(1)+(2)+(3)-(4)]USERUSER    (1) Final Intermolecular Energy     = -10.32 kcal/molUSER        vdW + Hbond + desolv Energy     = -10.03 kcal/molUSER        Electrostatic Energy            =  -0.44 kcal/molUSER        Moving Ligand-Fixed Receptor    = -10.46 kcal/molUSER        Moving Ligand-Moving Receptor   =  +0.14 kcal/molUSER    (2) Final Total Internal Energy     =  -1.21 kcal/molUSER    (3) Torsional Free Energy           =  +4.18 kcal/molUSER    (4) Unbound System's Energy         =  -1.21 kcal/molUSERUSERREMARK SMILES O=C(NC1=CC=CCC=NNC=C1)c1cccc(CN2CC[C@@H](O)C2)c1REMARK SMILES IDX 1 1 2 2 3 3 14 5 15 6 26 7 16 8 18 9 17 10 19 11 20 12 21 13REMARK SMILES IDX 25 14 22 15 23 16 24 17 4 19 5 20 6 21 7 22 8 23 13 25 12 26REMARK SMILES IDX 11 27 10 29 9 30REMARK H PARENT 3 4 24 18 11 28REMARK Flexibility Score:   40.900USER                              x       y       z     vdW  Elec       q    TypeUSER                           _______ _______ _______ _____ _____    ______ ____ROOTATOM      1  O   UNL     1      20.634  41.974  -0.560 -0.11 +0.18    -0.269 OA ATOM      2  C   UNL     1      21.786  41.570  -0.675 -0.18 -0.24    +0.255 C  ATOM      3  N   UNL     1      22.819  41.731   0.235 -0.20 +0.40    -0.322 N  ATOM      4  H   UNL     1      23.713  41.328  -0.009 -0.42 -0.36    +0.170 HD ENDROOTBRANCH   2   5ATOM      5  C   UNL     1      22.134  40.806  -1.903 -0.26 -0.05    +0.040 A  ATOM      6  C   UNL     1      21.523  39.588  -2.217 -0.29 -0.01    +0.014 A  ATOM      7  C   UNL     1      23.051  41.373  -2.794 -0.17 -0.03    +0.019 A  ATOM      8  C   UNL     1      21.854  38.928  -3.404 -0.37 -0.00    +0.001 A  ATOM      9  C   UNL     1      23.400  40.714  -3.981 -0.34 +0.04    -0.033 A  ATOM     10  C   UNL     1      22.791  39.483  -4.277 -0.35 -0.00    +0.005 A  BRANCH   9  11ATOM     11  C   UNL     1      24.381  41.355  -4.941 -0.42 -0.11    +0.120 C  BRANCH  11  12ATOM     12  N   UNL     1      24.031  42.750  -5.249 -0.22 +0.22    -0.296 NA ATOM     13  C   UNL     1      22.638  42.904  -5.703 -0.25 -0.05    +0.087 C  ATOM     14  C   UNL     1      24.812  43.264  -6.383 -0.44 -0.08    +0.116 C  ATOM     15  C   UNL     1      22.640  42.532  -7.179 -0.26 -0.03    +0.048 C  ATOM     16  C   UNL     1      24.047  42.872  -7.654 -0.44 -0.08    +0.129 C  BRANCH  16  17ATOM     17  O   UNL     1      23.990  43.939  -8.587 -0.28 +0.26    -0.392 OA ATOM     18  H   UNL     1      24.875  44.344  -8.615 -0.45 -0.18    +0.211 HD ENDBRANCH  16  17ENDBRANCH  11  12ENDBRANCH   9  11ENDBRANCH   2   5BRANCH   3  19ATOM     19  C   UNL     1      22.778  42.426   1.433 -0.40 -0.04    +0.042 C  BRANCH  19  20ATOM     20  C   UNL     1      21.854  42.075   2.354 -0.29 -0.02    +0.026 C  BRANCH  20  21ATOM     21  C   UNL     1      21.348  42.881   3.448 -0.22 +0.00    -0.002 C  BRANCH  21  22ATOM     22  C   UNL     1      21.697  42.873   4.742 -0.27 +0.02    -0.021 C  BRANCH  22  23ATOM     23  C   UNL     1      22.994  43.227   5.415 -0.34 -0.07    +0.077 CG0ATOM     24  G   UNL     1      24.223  42.493   4.925 +0.00 +0.00    +0.000 G0 ENDBRANCH  22  23ENDBRANCH  21  22ENDBRANCH  20  21ENDBRANCH  19  20BRANCH  19  25ATOM     25  C   UNL     1      23.707  43.522   1.618 -0.38 -0.04    +0.045 C  BRANCH  25  26ATOM     26  C   UNL     1      24.960  43.462   2.093 -0.58 -0.08    +0.105 C  BRANCH  26  27ATOM     27  N   UNL     1      25.545  42.774   3.142 -0.25 +0.18    -0.286 N  ATOM     28  H   UNL     1      25.672  41.780   2.918 -0.34 -0.26    +0.189 HD BRANCH  27  29ATOM     29  N   UNL     1      25.310  43.029   4.452 -0.96 +0.07    -0.188 NA BRANCH  29  30ATOM     30  C   UNL     1      24.223  42.493   4.926 -0.52 -0.06    +0.110 CG0ATOM     31  G   UNL     1      22.995  43.229   5.414 +0.00 +0.00    +0.000 G0 ENDBRANCH  29  30ENDBRANCH  27  29ENDBRANCH  26  27ENDBRANCH  25  26ENDBRANCH  19  25ENDBRANCH   3  19TORSDOF 5TERENDMDL