MODEL        3USER    Run = 3USERUSER    Estimated Free Energy of Binding    =  -6.55 kcal/mol  [=(1)+(2)+(3)-(4)]USERUSER    (1) Final Intermolecular Energy     = -11.02 kcal/molUSER        vdW + Hbond + desolv Energy     = -10.94 kcal/molUSER        Electrostatic Energy            =  -0.34 kcal/molUSER        Moving Ligand-Fixed Receptor    = -11.29 kcal/molUSER        Moving Ligand-Moving Receptor   =  +0.26 kcal/molUSER    (2) Final Total Internal Energy     =  -3.65 kcal/molUSER    (3) Torsional Free Energy           =  +4.47 kcal/molUSER    (4) Unbound System's Energy         =  -3.65 kcal/molUSERUSERREMARK SMILES COc1ccc(O)c(C(=O)c2ccc(CO[C@@H]3CCCNC[C@@H]3NC(=O)c3ccncc3)cc2)c1FREMARK SMILES IDX 16 1 15 2 14 3 11 4 12 5 34 6 13 7 33 8 9 9 10 10 8 11 3 12REMARK SMILES IDX 4 13 35 14 5 15 6 16 36 17 2 18 1 19 7 20 17 22 18 23 23 25REMARK SMILES IDX 22 26 21 27 20 29 19 30 24 32 25 33 26 35 27 36 28 37 32 38REMARK SMILES IDX 29 39 31 40 30 41REMARK H PARENT 7 21 21 28 24 34REMARK Flexibility Score:   99.900USER                              x       y       z     vdW  Elec       q    TypeUSER                           _______ _______ _______ _____ _____    ______ ____ROOTATOM      1  O   UNL     1      38.931  43.549  24.423 -0.07 -0.01    -0.371 OA ENDROOTBRANCH   1   2ATOM      2  C   UNL     1      39.996  42.930  23.703 -0.17 +0.01    +0.196 C  BRANCH   2   3ATOM      3  C   UNL     1      40.340  43.805  22.526 -0.25 -0.00    -0.022 A  ATOM      4  C   UNL     1      40.951  45.432  20.319 -0.37 +0.00    +0.023 A  ATOM      5  C   UNL     1      39.860  45.742  21.136 -0.26 +0.00    +0.012 A  ATOM      6  C   UNL     1      41.755  44.329  20.624 -0.29 +0.00    +0.012 A  ATOM      7  C   UNL     1      39.555  44.928  22.228 -0.28 +0.00    +0.007 A  ATOM      8  C   UNL     1      41.448  43.517  21.718 -0.34 +0.00    +0.007 A  BRANCH   4   9ATOM      9  C   UNL     1      41.334  46.286  19.169 -0.39 +0.01    +0.199 C  ATOM     10  O   UNL     1      42.456  46.798  19.150 -0.39 -0.04    -0.288 OA BRANCH   9  11ATOM     11  C   UNL     1      40.413  46.613  18.059 -0.41 -0.01    +0.104 A  ATOM     12  C   UNL     1      38.370  46.225  16.787 -0.29 -0.05    +0.155 A  ATOM     13  C   UNL     1      38.695  47.290  15.944 -0.41 -0.02    +0.053 A  ATOM     14  C   UNL     1      39.240  45.891  17.835 -0.31 -0.03    +0.179 A  ATOM     15  C   UNL     1      39.883  47.999  16.139 -0.49 -0.01    +0.051 A  ATOM     16  C   UNL     1      40.741  47.652  17.180 -0.42 -0.02    +0.130 A  ATOM     17  F   UNL     1      38.935  44.842  18.616 -0.10 +0.02    -0.202 F  BRANCH  12  18ATOM     18  O   UNL     1      37.246  45.450  16.685 -0.06 +0.19    -0.494 OA ATOM     19  C   UNL     1      36.007  46.119  16.487 -0.23 -0.20    +0.278 C  ENDBRANCH  12  18BRANCH  16  20ATOM     20  O   UNL     1      41.899  48.377  17.281 -0.50 -0.03    -0.507 OA ATOM     21  H   UNL     1      42.654  47.744  17.250 -0.36 -0.06    +0.293 HD ENDBRANCH  16  20ENDBRANCH   9  11ENDBRANCH   4   9ENDBRANCH   2   3ENDBRANCH   1   2BRANCH   1  22ATOM     22  C   UNL     1      39.155  43.600  25.849 -0.15 -0.00    +0.142 C  BRANCH  22  23ATOM     23  C   UNL     1      38.177  42.571  26.432 -0.32 -0.00    +0.035 CG0ATOM     24  G   UNL     1      36.795  42.419  25.807 +0.00 +0.00    +0.000 G0 ENDBRANCH  22  23BRANCH  22  25ATOM     25  C   UNL     1      38.982  45.057  26.342 -0.17 -0.00    +0.125 C  BRANCH  25  26ATOM     26  C   UNL     1      37.483  45.442  26.418 -0.31 -0.01    +0.108 C  BRANCH  26  27ATOM     27  N   UNL     1      36.601  44.856  25.411 -0.28 -0.00    -0.315 NA ATOM     28  H   UNL     1      37.150  44.674  24.569 +0.05 +0.01    +0.122 HD BRANCH  27  29ATOM     29  C   UNL     1      35.906  43.651  25.842 -0.31 -0.00    +0.081 C  BRANCH  29  30ATOM     30  C   UNL     1      36.796  42.417  25.809 -0.45 -0.00    +0.018 CG0ATOM     31  G   UNL     1      38.179  42.570  26.432 +0.00 +0.00    +0.000 G0 ENDBRANCH  29  30ENDBRANCH  27  29ENDBRANCH  26  27ENDBRANCH  25  26BRANCH  25  32ATOM     32  N   UNL     1      39.804  45.986  25.554 -0.03 -0.01    -0.345 N  ATOM     33  C   UNL     1      40.724  46.818  26.159 -0.09 +0.02    +0.251 C  ATOM     34  H   UNL     1      40.054  45.648  24.633 +0.07 +0.01    +0.164 HD ATOM     35  O   UNL     1      40.850  46.925  27.371 -0.62 -0.04    -0.269 OA BRANCH  33  36ATOM     36  C   UNL     1      41.619  47.580  25.247 -0.17 +0.00    +0.042 A  ATOM     37  C   UNL     1      42.448  48.558  25.798 -0.23 +0.00    +0.034 A  ATOM     38  C   UNL     1      41.626  47.369  23.868 -0.22 +0.00    +0.034 A  ATOM     39  C   UNL     1      43.265  49.275  24.944 -0.28 +0.02    +0.112 A  ATOM     40  C   UNL     1      42.479  48.141  23.100 -0.28 +0.02    +0.112 A  ATOM     41  N   UNL     1      43.301  49.083  23.608 -0.74 -0.11    -0.265 NA ENDBRANCH  33  36ENDBRANCH  25  32ENDBRANCH  22  25ENDBRANCH   1  22TORSDOF 9TERENDMDL