MODEL        10USER    Run = 10USERUSER    Estimated Free Energy of Binding    =  -7.24 kcal/mol  [=(1)+(2)+(3)-(4)]USERUSER    (1) Final Intermolecular Energy     = -11.71 kcal/molUSER        vdW + Hbond + desolv Energy     = -11.77 kcal/molUSER        Electrostatic Energy            =  -0.24 kcal/molUSER        Moving Ligand-Fixed Receptor    = -12.01 kcal/molUSER        Moving Ligand-Moving Receptor   =  +0.29 kcal/molUSER    (2) Final Total Internal Energy     =  -2.65 kcal/molUSER    (3) Torsional Free Energy           =  +4.47 kcal/molUSER    (4) Unbound System's Energy         =  -2.65 kcal/molUSERUSERREMARK SMILES COc1ccc(O)c(C(=O)c2ccc(/C=C/[C@@H]3CCCNC[C@H]3NC(=O)c3ccncc3)cc2)c1FREMARK SMILES IDX 16 1 15 2 14 3 11 4 12 5 34 6 13 7 33 8 9 9 10 10 8 11 3 12REMARK SMILES IDX 4 13 35 14 5 15 6 16 36 17 2 18 1 19 7 20 17 22 18 23 23 25REMARK SMILES IDX 22 26 21 27 20 29 19 30 24 32 25 33 26 35 27 36 28 37 32 38REMARK SMILES IDX 29 39 31 40 30 41REMARK H PARENT 7 21 21 28 24 34REMARK Flexibility Score:   99.900USER                              x       y       z     vdW  Elec       q    TypeUSER                           _______ _______ _______ _____ _____    ______ ____ROOTATOM      1  C   UNL     1      38.004  42.824  24.118 -0.36 -0.00    -0.021 C  ENDROOTBRANCH   1   2ATOM      2  C   UNL     1      37.962  42.792  22.777 -0.42 +0.00    +0.004 C  BRANCH   2   3ATOM      3  C   UNL     1      38.809  43.631  21.920 -0.28 -0.00    -0.026 A  ATOM      4  C   UNL     1      40.377  45.298  20.295 -0.37 +0.00    +0.023 A  ATOM      5  C   UNL     1      38.987  45.445  20.310 -0.32 +0.00    +0.013 A  ATOM      6  C   UNL     1      40.988  44.348  21.118 -0.32 +0.00    +0.013 A  ATOM      7  C   UNL     1      38.209  44.615  21.125 -0.36 +0.00    +0.009 A  ATOM      8  C   UNL     1      40.206  43.514  21.920 -0.21 +0.00    +0.009 A  BRANCH   4   9ATOM      9  C   UNL     1      41.234  46.177  19.471 -0.36 +0.01    +0.199 C  ATOM     10  O   UNL     1      42.317  46.548  19.926 -0.31 -0.06    -0.288 OA BRANCH   9  11ATOM     11  C   UNL     1      40.826  46.677  18.139 -0.43 -0.01    +0.104 A  ATOM     12  C   UNL     1      39.534  46.467  16.081 -0.33 -0.03    +0.155 A  ATOM     13  C   UNL     1      40.083  47.664  15.618 -0.49 -0.01    +0.053 A  ATOM     14  C   UNL     1      39.915  45.982  17.341 -0.32 -0.02    +0.179 A  ATOM     15  C   UNL     1      41.018  48.352  16.396 -0.52 -0.01    +0.051 A  ATOM     16  C   UNL     1      41.395  47.855  17.639 -0.40 -0.01    +0.130 A  ATOM     17  F   UNL     1      39.410  44.810  17.759 -0.08 +0.02    -0.202 F  BRANCH  12  18ATOM     18  O   UNL     1      38.627  45.696  15.404 -0.07 +0.13    -0.494 OA ATOM     19  C   UNL     1      37.318  46.223  15.237 -0.24 -0.13    +0.278 C  ENDBRANCH  12  18BRANCH  16  20ATOM     20  O   UNL     1      42.338  48.576  18.322 -0.25 -0.02    -0.507 OA ATOM     21  H   UNL     1      42.650  48.025  19.076 +0.07 +0.00    +0.293 HD ENDBRANCH  16  20ENDBRANCH   9  11ENDBRANCH   4   9ENDBRANCH   2   3ENDBRANCH   1   2BRANCH   1  22ATOM     22  C   UNL     1      37.991  44.078  24.988 -0.29 +0.00    +0.035 C  BRANCH  22  23ATOM     23  C   UNL     1      39.021  43.852  26.112 -0.20 -0.00    +0.011 CG0ATOM     24  G   UNL     1      38.562  43.147  27.384 +0.00 +0.00    +0.000 G0 ENDBRANCH  22  23BRANCH  22  25ATOM     25  C   UNL     1      36.597  44.567  25.487 -0.29 -0.00    +0.103 C  BRANCH  25  26ATOM     26  C   UNL     1      35.977  43.562  26.500 -0.42 -0.01    +0.106 C  BRANCH  26  27ATOM     27  N   UNL     1      36.232  43.774  27.921 -0.23 +0.09    -0.315 NA ATOM     28  H   UNL     1      35.819  43.008  28.455 -0.43 -0.06    +0.122 HD BRANCH  27  29ATOM     29  C   UNL     1      37.630  43.950  28.281 -0.31 -0.01    +0.081 C  BRANCH  29  30ATOM     30  C   UNL     1      38.562  43.149  27.384 -0.32 -0.00    +0.016 CG0ATOM     31  G   UNL     1      39.019  43.855  26.113 +0.00 +0.00    +0.000 G0 ENDBRANCH  29  30ENDBRANCH  27  29ENDBRANCH  26  27ENDBRANCH  25  26BRANCH  25  32ATOM     32  N   UNL     1      36.693  45.883  26.136 -0.05 +0.05    -0.347 N  ATOM     33  C   UNL     1      37.326  46.947  25.532 -0.20 +0.02    +0.251 C  ATOM     34  H   UNL     1      36.120  46.047  26.952 -0.46 -0.07    +0.164 HD ATOM     35  O   UNL     1      37.854  46.884  24.429 -0.59 -0.06    -0.269 OA BRANCH  33  36ATOM     36  C   UNL     1      37.314  48.226  26.284 -0.35 -0.00    +0.042 A  ATOM     37  C   UNL     1      38.257  48.504  27.274 -0.24 -0.00    +0.034 A  ATOM     38  C   UNL     1      36.351  49.179  25.956 -0.45 -0.00    +0.034 A  ATOM     39  C   UNL     1      38.174  49.725  27.916 -0.18 +0.01    +0.112 A  ATOM     40  C   UNL     1      36.352  50.368  26.660 -0.28 +0.01    +0.112 A  ATOM     41  N   UNL     1      37.236  50.657  27.639 -0.11 -0.06    -0.265 NA ENDBRANCH  33  36ENDBRANCH  25  32ENDBRANCH  22  25ENDBRANCH   1  22TORSDOF 9TERENDMDL