MODEL        7USER    Run = 7USERUSER    Estimated Free Energy of Binding    =  -5.63 kcal/mol  [=(1)+(2)+(3)-(4)]USERUSER    (1) Final Intermolecular Energy     =  -9.80 kcal/molUSER        vdW + Hbond + desolv Energy     = -10.66 kcal/molUSER        Electrostatic Energy            =  -0.16 kcal/molUSER        Moving Ligand-Fixed Receptor    = -10.83 kcal/molUSER        Moving Ligand-Moving Receptor   =  +1.02 kcal/molUSER    (2) Final Total Internal Energy     =  -2.94 kcal/molUSER    (3) Torsional Free Energy           =  +4.18 kcal/molUSER    (4) Unbound System's Energy         =  -2.94 kcal/molUSERUSERREMARK SMILES COc1ccc(O)c(C(=O)c2ccc(C(=O)N[C@@H]3CCCNC[C@H]3NC(=O)c3ccncc3)cc2)c1FREMARK SMILES IDX 15 1 16 2 17 3 14 5 11 6 12 7 35 8 13 9 34 10 9 11 10 12REMARK SMILES IDX 8 13 3 14 4 15 36 16 5 17 6 18 37 19 2 20 1 21 7 22 18 24REMARK SMILES IDX 19 25 24 27 23 28 22 29 21 31 20 32 25 34 26 35 27 37 28 38REMARK SMILES IDX 29 39 33 40 30 41 32 42 31 43REMARK H PARENT 17 4 7 23 22 30 25 36REMARK Flexibility Score:   88.900USER                              x       y       z     vdW  Elec       q    TypeUSER                           _______ _______ _______ _____ _____    ______ ____ROOTATOM      1  C   UNL     1      40.156  46.560  24.326 -0.13 +0.02    +0.251 C  ATOM      2  O   UNL     1      40.116  45.710  25.208 -0.06 -0.01    -0.269 OA ATOM      3  N   UNL     1      39.995  47.910  24.567 -0.14 -0.04    -0.347 N  ATOM      4  H   UNL     1      39.834  48.517  23.775 +0.07 +0.02    +0.164 HD ENDROOTBRANCH   1   5ATOM      5  C   UNL     1      40.311  46.159  22.900 -0.23 +0.00    +0.039 A  ATOM      6  C   UNL     1      40.480  45.465  20.188 -0.38 +0.00    +0.023 A  ATOM      7  C   UNL     1      39.243  45.447  20.840 -0.34 +0.00    +0.013 A  ATOM      8  C   UNL     1      41.634  45.830  20.892 -0.33 +0.00    +0.013 A  ATOM      9  C   UNL     1      39.161  45.781  22.195 -0.31 +0.00    +0.014 A  ATOM     10  C   UNL     1      41.552  46.166  22.251 -0.24 +0.00    +0.014 A  BRANCH   6  11ATOM     11  C   UNL     1      40.504  45.182  18.737 -0.37 -0.00    +0.199 C  ATOM     12  O   UNL     1      40.719  44.024  18.376 -0.28 -0.01    -0.288 OA BRANCH  11  13ATOM     13  C   UNL     1      40.236  46.194  17.689 -0.40 -0.01    +0.104 A  ATOM     14  C   UNL     1      40.769  48.270  16.521 -0.42 -0.02    +0.155 A  ATOM     15  C   UNL     1      39.679  48.073  15.669 -0.50 -0.02    +0.053 A  ATOM     16  C   UNL     1      41.040  47.324  17.524 -0.38 -0.02    +0.179 A  ATOM     17  C   UNL     1      38.884  46.932  15.806 -0.41 -0.02    +0.051 A  ATOM     18  C   UNL     1      39.171  45.997  16.798 -0.32 -0.03    +0.130 A  ATOM     19  F   UNL     1      42.113  47.510  18.310 -0.22 +0.00    -0.202 F  BRANCH  14  20ATOM     20  O   UNL     1      41.627  49.337  16.474 -0.84 -0.06    -0.494 OA ATOM     21  C   UNL     1      41.447  50.269  15.412 -0.47 -0.06    +0.278 C  ENDBRANCH  14  20BRANCH  18  22ATOM     22  O   UNL     1      38.357  44.895  16.837 -0.05 +0.11    -0.507 OA ATOM     23  H   UNL     1      38.856  44.177  17.293 +0.20 -0.04    +0.293 HD ENDBRANCH  18  22ENDBRANCH  11  13ENDBRANCH   6  11ENDBRANCH   1   5BRANCH   3  24ATOM     24  C   UNL     1      39.559  48.392  25.884 -0.26 +0.01    +0.106 C  BRANCH  24  25ATOM     25  C   UNL     1      38.103  48.869  25.805 -0.37 +0.00    +0.028 CG0ATOM     26  G   UNL     1      37.696  49.940  26.831 +0.00 +0.00    +0.000 G0 ENDBRANCH  24  25BRANCH  24  27ATOM     27  C   UNL     1      40.547  49.466  26.421 -0.14 +0.02    +0.118 C  BRANCH  27  28ATOM     28  C   UNL     1      40.386  49.808  27.921 -0.26 +0.02    +0.108 C  BRANCH  28  29ATOM     29  N   UNL     1      39.277  49.171  28.638 +0.01 +0.02    -0.315 NA ATOM     30  H   UNL     1      39.328  48.160  28.526 -0.50 -0.03    +0.122 HD BRANCH  29  31ATOM     31  C   UNL     1      37.938  49.637  28.298 -0.20 +0.00    +0.081 C  BRANCH  31  32ATOM     32  C   UNL     1      37.692  49.942  26.823 -0.15 +0.00    +0.017 CG0ATOM     33  G   UNL     1      38.111  48.863  25.811 +0.00 +0.00    +0.000 G0 ENDBRANCH  31  32ENDBRANCH  29  31ENDBRANCH  28  29ENDBRANCH  27  28BRANCH  27  34ATOM     34  N   UNL     1      41.930  49.080  26.114 -0.15 -0.03    -0.346 N  ATOM     35  C   UNL     1      42.453  49.219  24.849 -0.28 +0.05    +0.251 C  ATOM     36  H   UNL     1      42.562  48.976  26.892 -0.04 +0.00    +0.164 HD ATOM     37  O   UNL     1      41.798  49.581  23.879 -0.67 -0.09    -0.269 OA BRANCH  35  38ATOM     38  C   UNL     1      43.901  48.934  24.699 -0.29 +0.01    +0.042 A  ATOM     39  C   UNL     1      44.298  48.032  23.711 -0.25 +0.01    +0.034 A  ATOM     40  C   UNL     1      44.859  49.515  25.531 -0.24 +0.00    +0.034 A  ATOM     41  C   UNL     1      45.647  47.767  23.579 -0.15 +0.04    +0.112 A  ATOM     42  C   UNL     1      46.185  49.182  25.318 -0.11 +0.01    +0.112 A  ATOM     43  N   UNL     1      46.599  48.326  24.357 -0.06 -0.05    -0.265 NA ENDBRANCH  35  38ENDBRANCH  27  34ENDBRANCH  24  27ENDBRANCH   3  24TORSDOF 8TERENDMDL