MODEL        6USER    Run = 6USERUSER    Estimated Free Energy of Binding    = -12.15 kcal/mol  [=(1)+(2)+(3)-(4)]USERUSER    (1) Final Intermolecular Energy     = -13.94 kcal/molUSER        vdW + Hbond + desolv Energy     = -13.54 kcal/molUSER        Electrostatic Energy            =  -0.40 kcal/molUSER        Moving Ligand-Fixed Receptor    = -13.94 kcal/molUSER        Moving Ligand-Moving Receptor   =  +0.00 kcal/molUSER    (2) Final Total Internal Energy     =  -1.96 kcal/molUSER    (3) Torsional Free Energy           =  +1.79 kcal/molUSER    (4) Unbound System's Energy         =  -1.96 kcal/molUSERUSERREMARK SMILES Oc1nc2ccccc2n1C1CCN(Cc2ccc(-c3cc4ccccc4nc3-c3ccccc3)cc2)CC1REMARK SMILES IDX 11 1 12 2 13 3 14 4 38 5 39 6 10 7 2 8 3 9 4 10 9 11 5 12REMARK SMILES IDX 8 13 6 14 7 15 1 16 15 18 16 19 17 20 37 21 18 22 36 23REMARK SMILES IDX 19 24 20 25 21 26 29 27 22 28 28 29 23 30 27 31 24 32 26 33REMARK SMILES IDX 25 34 30 35 31 36 35 37 32 38 34 39 33 40REMARK H PARENT 1 17USER                              x       y       z     vdW  Elec       q    TypeUSER                           _______ _______ _______ _____ _____    ______ ____ROOTATOM      1  C   UNL     1      29.702  41.583  15.902 -0.35 -0.04    +0.095 C  ATOM      2  C   UNL     1      30.261  40.982  17.200 -0.35 -0.01    +0.041 C  ATOM      3  C   UNL     1      30.964  41.982  18.112 -0.22 -0.01    +0.087 C  ATOM      4  N   UNL     1      31.891  42.879  17.418 -0.10 +0.08    -0.299 NA ATOM      5  C   UNL     1      31.196  43.635  16.373 -0.31 -0.03    +0.087 C  ATOM      6  C   UNL     1      30.493  42.770  15.330 -0.27 -0.02    +0.041 C  ENDROOTBRANCH   1   7ATOM      7  N   UNL     1      28.252  41.769  15.904 -0.13 +0.12    -0.291 N  ATOM      8  C   UNL     1      27.398  41.054  15.098 -0.12 -0.13    +0.295 A  ATOM      9  N   UNL     1      26.147  41.389  15.232 -0.25 +0.07    -0.195 NA ATOM     10  C   UNL     1      26.164  42.376  16.181 -0.22 -0.02    +0.092 A  ATOM     11  C   UNL     1      27.465  42.636  16.634 -0.18 -0.02    +0.072 A  ATOM     12  C   UNL     1      25.079  43.098  16.705 -0.29 -0.00    +0.031 A  ATOM     13  C   UNL     1      27.707  43.602  17.618 -0.20 -0.00    +0.029 A  ATOM     14  C   UNL     1      25.317  44.067  17.682 -0.41 -0.00    +0.002 A  ATOM     15  C   UNL     1      26.612  44.311  18.130 -0.38 -0.00    +0.002 A  BRANCH   8  16ATOM     16  O   UNL     1      27.766  40.110  14.256 -0.22 +0.17    -0.480 OA ATOM     17  H   UNL     1      27.641  40.562  13.402 -0.10 -0.50    +0.296 HD ENDBRANCH   8  16ENDBRANCH   1   7BRANCH   4  18ATOM     18  C   UNL     1      33.095  42.176  16.945 -0.19 -0.06    +0.120 C  BRANCH  18  19ATOM     19  C   UNL     1      34.339  43.039  16.973 -0.36 +0.01    -0.034 A  ATOM     20  C   UNL     1      35.448  42.729  16.176 -0.43 -0.00    +0.006 A  ATOM     21  C   UNL     1      34.397  44.167  17.802 -0.31 -0.00    +0.006 A  ATOM     22  C   UNL     1      36.592  43.532  16.211 -0.38 -0.00    +0.009 A  ATOM     23  C   UNL     1      35.545  44.962  17.842 -0.33 -0.00    +0.009 A  ATOM     24  C   UNL     1      36.661  44.654  17.051 -0.32 +0.01    -0.016 A  BRANCH  24  25ATOM     25  C   UNL     1      37.865  45.497  17.087 -0.36 -0.00    +0.009 A  ATOM     26  C   UNL     1      38.677  45.481  18.231 -0.39 -0.00    +0.021 A  ATOM     27  C   UNL     1      38.285  46.307  16.020 -0.34 -0.03    +0.079 A  ATOM     28  C   UNL     1      39.857  46.233  18.287 -0.46 -0.00    +0.001 A  ATOM     29  N   UNL     1      39.439  47.035  16.056 -0.26 +0.07    -0.247 NA ATOM     30  C   UNL     1      40.687  46.229  19.421 -0.40 +0.00    +0.010 A  ATOM     31  C   UNL     1      40.200  47.001  17.160 -0.45 -0.01    +0.071 A  ATOM     32  C   UNL     1      41.857  46.985  19.442 -0.43 +0.00    +0.001 A  ATOM     33  C   UNL     1      41.373  47.744  17.205 -0.40 -0.00    +0.029 A  ATOM     34  C   UNL     1      42.202  47.745  18.330 -0.52 -0.00    +0.002 A  BRANCH  27  35ATOM     35  C   UNL     1      37.536  46.463  14.758 -0.41 -0.00    +0.001 A  ATOM     36  C   UNL     1      37.462  45.402  13.838 -0.43 -0.00    +0.010 A  ATOM     37  C   UNL     1      36.896  47.669  14.422 -0.49 -0.01    +0.010 A  ATOM     38  C   UNL     1      36.754  45.533  12.640 -0.56 -0.00    +0.001 A  ATOM     39  C   UNL     1      36.188  47.802  13.224 -0.55 -0.00    +0.001 A  ATOM     40  C   UNL     1      36.114  46.731  12.335 -0.68 -0.00    +0.000 A  ENDBRANCH  27  35ENDBRANCH  24  25ENDBRANCH  18  19ENDBRANCH   4  18TORSDOF 6TERENDMDL