MODEL        2USER    Run = 2USERUSER    Estimated Free Energy of Binding    = -13.52 kcal/mol  [=(1)+(2)+(3)-(4)]USERUSER    (1) Final Intermolecular Energy     = -15.31 kcal/molUSER        vdW + Hbond + desolv Energy     = -15.16 kcal/molUSER        Electrostatic Energy            =  -0.15 kcal/molUSER        Moving Ligand-Fixed Receptor    = -15.31 kcal/molUSER        Moving Ligand-Moving Receptor   =  +0.00 kcal/molUSER    (2) Final Total Internal Energy     =  -2.68 kcal/molUSER    (3) Torsional Free Energy           =  +1.79 kcal/molUSER    (4) Unbound System's Energy         =  -2.68 kcal/molUSERUSERREMARK SMILES Oc1nc2ccccc2n1C1CCN(Cc2ccc(-c3nc4ccccc4nc3-c3ccccc3)cc2)CC1REMARK SMILES IDX 11 1 12 2 13 3 14 4 38 5 39 6 10 7 2 8 3 9 4 10 9 11 5 12REMARK SMILES IDX 8 13 6 14 7 15 1 16 15 18 16 19 17 20 37 21 18 22 36 23REMARK SMILES IDX 19 24 20 25 21 26 29 27 22 28 28 29 23 30 27 31 24 32 26 33REMARK SMILES IDX 25 34 30 35 31 36 35 37 32 38 34 39 33 40REMARK H PARENT 1 17USER                              x       y       z     vdW  Elec       q    TypeUSER                           _______ _______ _______ _____ _____    ______ ____ROOTATOM      1  C   UNL     1      38.443  47.176  15.367 -0.44 -0.04    +0.095 C  ATOM      2  C   UNL     1      37.615  48.394  14.923 -0.57 -0.03    +0.041 C  ATOM      3  C   UNL     1      37.072  48.226  13.505 -0.57 -0.04    +0.087 C  ATOM      4  N   UNL     1      36.521  46.894  13.235 -0.32 +0.15    -0.299 NA ATOM      5  C   UNL     1      37.490  45.814  13.484 -0.45 -0.03    +0.087 C  ATOM      6  C   UNL     1      38.778  46.252  14.190 -0.43 -0.01    +0.041 C  ENDROOTBRANCH   1   7ATOM      7  N   UNL     1      39.614  47.550  16.146 -0.27 +0.09    -0.291 N  ATOM      8  C   UNL     1      40.455  48.599  15.897 -0.33 -0.07    +0.295 A  ATOM      9  N   UNL     1      41.422  48.706  16.766 -0.93 +0.00    -0.195 NA ATOM     10  C   UNL     1      41.202  47.675  17.647 -0.44 -0.01    +0.092 A  ATOM     11  C   UNL     1      40.073  46.932  17.291 -0.44 -0.01    +0.072 A  ATOM     12  C   UNL     1      41.933  47.314  18.790 -0.49 +0.00    +0.031 A  ATOM     13  C   UNL     1      39.631  45.832  18.039 -0.43 -0.00    +0.029 A  ATOM     14  C   UNL     1      41.507  46.217  19.548 -0.45 +0.00    +0.002 A  ATOM     15  C   UNL     1      40.375  45.490  19.176 -0.45 -0.00    +0.002 A  BRANCH   8  16ATOM     16  O   UNL     1      40.325  49.445  14.896 -0.21 +0.20    -0.480 OA ATOM     17  H   UNL     1      39.614  50.024  15.225 -0.17 -0.23    +0.296 HD ENDBRANCH   8  16ENDBRANCH   1   7BRANCH   4  18ATOM     18  C   UNL     1      35.234  46.631  13.901 -0.41 -0.10    +0.120 C  BRANCH  18  19ATOM     19  C   UNL     1      35.365  45.909  15.224 -0.34 +0.03    -0.034 A  ATOM     20  C   UNL     1      35.377  44.510  15.278 -0.27 -0.00    +0.006 A  ATOM     21  C   UNL     1      35.461  46.630  16.421 -0.24 -0.01    +0.006 A  ATOM     22  C   UNL     1      35.503  43.850  16.505 -0.35 -0.00    +0.011 A  ATOM     23  C   UNL     1      35.588  45.967  17.644 -0.36 -0.01    +0.011 A  ATOM     24  C   UNL     1      35.627  44.565  17.708 -0.31 -0.00    +0.002 A  BRANCH  24  25ATOM     25  C   UNL     1      35.778  43.851  18.986 -0.30 -0.02    +0.097 A  ATOM     26  N   UNL     1      36.931  44.151  19.651 -0.22 +0.02    -0.244 NA ATOM     27  C   UNL     1      34.861  42.923  19.505 -0.35 -0.01    +0.097 A  ATOM     28  C   UNL     1      37.171  43.500  20.802 -0.33 -0.00    +0.089 A  ATOM     29  N   UNL     1      35.118  42.258  20.668 -0.31 -0.02    -0.244 NA ATOM     30  C   UNL     1      38.339  43.765  21.508 -0.31 +0.00    +0.030 A  ATOM     31  C   UNL     1      36.262  42.547  21.311 -0.40 +0.00    +0.089 A  ATOM     32  C   UNL     1      38.629  43.108  22.705 -0.31 +0.00    +0.002 A  ATOM     33  C   UNL     1      36.560  41.898  22.504 -0.51 +0.00    +0.030 A  ATOM     34  C   UNL     1      37.735  42.171  23.205 -0.37 +0.00    +0.002 A  BRANCH  27  35ATOM     35  C   UNL     1      33.560  42.583  18.900 -0.39 -0.00    +0.002 A  ATOM     36  C   UNL     1      32.513  43.523  18.895 -0.38 -0.00    +0.010 A  ATOM     37  C   UNL     1      33.325  41.340  18.287 -0.37 -0.00    +0.010 A  ATOM     38  C   UNL     1      31.272  43.224  18.324 -0.28 -0.00    +0.001 A  ATOM     39  C   UNL     1      32.084  41.037  17.719 -0.37 -0.00    +0.001 A  ATOM     40  C   UNL     1      31.057  41.978  17.740 -0.29 -0.00    +0.000 A  ENDBRANCH  27  35ENDBRANCH  24  25ENDBRANCH  18  19ENDBRANCH   4  18TORSDOF 6TERENDMDL