MODEL        2USER    Run = 2USERUSER    Estimated Free Energy of Binding    =  -6.85 kcal/mol  [=(1)+(2)+(3)-(4)]USERUSER    (1) Final Intermolecular Energy     = -11.32 kcal/molUSER        vdW + Hbond + desolv Energy     = -11.46 kcal/molUSER        Electrostatic Energy            =  -0.18 kcal/molUSER        Moving Ligand-Fixed Receptor    = -11.64 kcal/molUSER        Moving Ligand-Moving Receptor   =  +0.31 kcal/molUSER    (2) Final Total Internal Energy     =  -2.83 kcal/molUSER    (3) Torsional Free Energy           =  +4.47 kcal/molUSER    (4) Unbound System's Energy         =  -2.83 kcal/molUSERUSERREMARK SMILES COc1ccc(O)c(C(=O)c2ccc(NC[C@@H]3CCCNC[C@@H]3NC(=O)c3ccncc3)cc2)c1FREMARK SMILES IDX 16 1 15 2 14 4 11 5 12 6 34 7 13 8 33 9 9 10 10 11 8 12 3 13REMARK SMILES IDX 4 14 35 15 5 16 6 17 36 18 2 19 1 20 7 21 17 23 18 24 23 26REMARK SMILES IDX 22 27 21 28 20 30 19 31 24 33 25 34 26 36 27 37 28 38 32 39REMARK SMILES IDX 29 40 31 41 30 42REMARK H PARENT 15 3 7 22 21 29 24 35REMARK Flexibility Score:   99.900USER                              x       y       z     vdW  Elec       q    TypeUSER                           _______ _______ _______ _____ _____    ______ ____ROOTATOM      1  C   UNL     1      38.384  46.988  15.895 -0.40 -0.05    +0.118 C  ENDROOTBRANCH   1   2ATOM      2  N   UNL     1      38.534  45.728  16.629 -0.12 +0.10    -0.385 N  ATOM      3  H   UNL     1      37.663  45.217  16.730 +0.11 -0.05    +0.160 HD BRANCH   2   4ATOM      4  C   UNL     1      39.394  45.591  17.715 -0.40 -0.00    +0.034 A  ATOM      5  C   UNL     1      41.152  45.488  19.931 -0.39 +0.00    +0.023 A  ATOM      6  C   UNL     1      40.042  44.642  19.868 -0.37 +0.00    +0.014 A  ATOM      7  C   UNL     1      41.355  46.426  18.918 -0.48 +0.00    +0.014 A  ATOM      8  C   UNL     1      39.171  44.702  18.773 -0.38 -0.00    +0.026 A  ATOM      9  C   UNL     1      40.477  46.473  17.828 -0.48 -0.00    +0.026 A  BRANCH   5  10ATOM     10  C   UNL     1      42.029  45.414  21.124 -0.24 +0.04    +0.199 C  ATOM     11  O   UNL     1      42.645  44.372  21.352 -0.18 -0.07    -0.288 OA BRANCH  10  12ATOM     12  C   UNL     1      42.168  46.519  22.099 -0.22 +0.02    +0.104 A  ATOM     13  C   UNL     1      41.273  47.943  23.865 -0.23 +0.02    +0.155 A  ATOM     14  C   UNL     1      42.495  48.614  23.939 -0.36 +0.01    +0.053 A  ATOM     15  C   UNL     1      41.119  46.903  22.936 -0.12 +0.02    +0.179 A  ATOM     16  C   UNL     1      43.541  48.261  23.083 -0.30 +0.01    +0.051 A  ATOM     17  C   UNL     1      43.371  47.231  22.161 -0.27 +0.03    +0.130 A  ATOM     18  F   UNL     1      39.926  46.294  22.845 -0.07 -0.02    -0.202 F  BRANCH  13  19ATOM     19  O   UNL     1      40.174  48.211  24.637 -0.11 -0.06    -0.494 OA ATOM     20  C   UNL     1      38.981  48.592  23.962 -0.19 +0.04    +0.278 C  ENDBRANCH  13  19BRANCH  17  21ATOM     21  O   UNL     1      44.434  46.971  21.338 -0.58 -0.42    -0.507 OA ATOM     22  H   UNL     1      44.345  46.046  21.014 +0.14 +0.35    +0.293 HD ENDBRANCH  17  21ENDBRANCH  10  12ENDBRANCH   5  10ENDBRANCH   2   4ENDBRANCH   1   2BRANCH   1  23ATOM     23  C   UNL     1      38.001  46.754  14.412 -0.48 -0.01    +0.032 C  BRANCH  23  24ATOM     24  C   UNL     1      37.261  47.987  13.856 -0.62 -0.00    +0.009 CG0ATOM     25  G   UNL     1      36.087  47.769  12.901 +0.00 +0.00    +0.000 G0 ENDBRANCH  23  24BRANCH  23  26ATOM     26  C   UNL     1      37.257  45.407  14.256 -0.40 -0.04    +0.101 C  BRANCH  26  27ATOM     27  C   UNL     1      37.251  44.928  12.785 -0.42 -0.03    +0.106 C  BRANCH  27  28ATOM     28  N   UNL     1      36.177  45.484  11.952 -0.32 +0.13    -0.315 NA ATOM     29  H   UNL     1      36.192  44.985  11.060 +0.12 -0.04    +0.122 HD BRANCH  28  30ATOM     30  C   UNL     1      36.353  46.910  11.671 -0.58 -0.04    +0.081 C  BRANCH  30  31ATOM     31  C   UNL     1      36.084  47.769  12.901 -0.65 -0.01    +0.016 CG0ATOM     32  G   UNL     1      37.258  47.987  13.856 +0.00 +0.00    +0.000 G0 ENDBRANCH  30  31ENDBRANCH  28  30ENDBRANCH  27  28ENDBRANCH  26  27BRANCH  26  33ATOM     33  N   UNL     1      35.887  45.446  14.762 -0.14 +0.20    -0.348 N  ATOM     34  C   UNL     1      35.455  44.695  15.829 -0.22 -0.13    +0.251 C  ATOM     35  H   UNL     1      35.240  45.979  14.194 +0.11 -0.12    +0.164 HD ATOM     36  O   UNL     1      36.185  43.924  16.442 -0.23 +0.10    -0.269 OA BRANCH  34  37ATOM     37  C   UNL     1      34.025  44.834  16.213 -0.29 -0.03    +0.042 A  ATOM     38  C   UNL     1      33.169  45.489  15.326 -0.29 -0.03    +0.034 A  ATOM     39  C   UNL     1      33.514  44.311  17.401 -0.29 -0.01    +0.034 A  ATOM     40  C   UNL     1      31.838  45.615  15.678 -0.29 -0.07    +0.112 A  ATOM     41  C   UNL     1      32.166  44.490  17.659 -0.17 -0.03    +0.112 A  ATOM     42  N   UNL     1      31.320  45.134  16.828 -0.65 +0.03    -0.265 NA ENDBRANCH  34  37ENDBRANCH  26  33ENDBRANCH  23  26ENDBRANCH   1  23TORSDOF 9TERENDMDL