MODEL        4USER    Run = 4USERUSER    Estimated Free Energy of Binding    =  -7.60 kcal/mol  [=(1)+(2)+(3)-(4)]USERUSER    (1) Final Intermolecular Energy     = -12.08 kcal/molUSER        vdW + Hbond + desolv Energy     = -12.38 kcal/molUSER        Electrostatic Energy            =  -0.17 kcal/molUSER        Moving Ligand-Fixed Receptor    = -12.55 kcal/molUSER        Moving Ligand-Moving Receptor   =  +0.47 kcal/molUSER    (2) Final Total Internal Energy     =  -2.30 kcal/molUSER    (3) Torsional Free Energy           =  +4.47 kcal/molUSER    (4) Unbound System's Energy         =  -2.30 kcal/molUSERUSERREMARK SMILES COc1ccc(O)c(C(=O)c2ccc(CN[C@@H]3CCCNC[C@H]3NC(=O)c3ccncc3)cc2)c1FREMARK SMILES IDX 16 1 15 3 14 4 11 5 12 6 34 7 13 8 33 9 9 10 10 11 8 12 3 13REMARK SMILES IDX 4 14 35 15 5 16 6 17 36 18 2 19 1 20 7 21 17 23 18 24 23 26REMARK SMILES IDX 22 27 21 28 20 30 19 31 24 33 25 34 26 36 27 37 28 38 32 39REMARK SMILES IDX 29 40 31 41 30 42REMARK H PARENT 16 2 7 22 21 29 24 35REMARK Flexibility Score:   99.900USER                              x       y       z     vdW  Elec       q    TypeUSER                           _______ _______ _______ _____ _____    ______ ____ROOTATOM      1  N   UNL     1      38.693  46.131  24.746 -0.16 -0.03    -0.308 NA ATOM      2  H   UNL     1      39.174  45.668  25.520 +0.05 +0.00    +0.123 HD ENDROOTBRANCH   1   3ATOM      3  C   UNL     1      38.135  45.107  23.860 -0.28 +0.01    +0.117 C  BRANCH   3   4ATOM      4  C   UNL     1      38.718  45.128  22.468 -0.31 -0.00    -0.034 A  ATOM      5  C   UNL     1      39.784  45.160  19.866 -0.38 -0.00    +0.023 A  ATOM      6  C   UNL     1      38.580  44.494  20.121 -0.35 -0.00    +0.012 A  ATOM      7  C   UNL     1      40.465  45.786  20.915 -0.29 +0.00    +0.012 A  ATOM      8  C   UNL     1      38.049  44.487  21.413 -0.37 +0.00    +0.006 A  ATOM      9  C   UNL     1      39.933  45.775  22.207 -0.28 +0.00    +0.006 A  BRANCH   5  10ATOM     10  C   UNL     1      40.409  45.162  18.521 -0.37 -0.00    +0.199 C  ATOM     11  O   UNL     1      41.122  44.212  18.192 -0.21 -0.02    -0.288 OA BRANCH  10  12ATOM     12  C   UNL     1      40.173  46.222  17.517 -0.40 -0.01    +0.104 A  ATOM     13  C   UNL     1      40.759  48.341  16.464 -0.43 -0.03    +0.155 A  ATOM     14  C   UNL     1      39.671  48.209  15.599 -0.50 -0.02    +0.053 A  ATOM     15  C   UNL     1      41.004  47.338  17.414 -0.37 -0.02    +0.179 A  ATOM     16  C   UNL     1      38.852  47.078  15.671 -0.42 -0.02    +0.051 A  ATOM     17  C   UNL     1      39.114  46.086  16.612 -0.32 -0.03    +0.130 A  ATOM     18  F   UNL     1      42.077  47.457  18.214 -0.21 +0.01    -0.202 F  BRANCH  13  19ATOM     19  O   UNL     1      41.640  49.390  16.473 -0.84 -0.06    -0.494 OA ATOM     20  C   UNL     1      41.635  50.255  15.346 -0.45 -0.04    +0.278 C  ENDBRANCH  13  19BRANCH  17  21ATOM     21  O   UNL     1      38.287  44.994  16.591 -0.05 +0.12    -0.507 OA ATOM     22  H   UNL     1      38.775  44.241  16.997 +0.20 -0.05    +0.293 HD ENDBRANCH  17  21ENDBRANCH  10  12ENDBRANCH   5  10ENDBRANCH   3   4ENDBRANCH   1   3BRANCH   1  23ATOM     23  C   UNL     1      37.672  47.052  25.316 -0.31 +0.01    +0.077 C  BRANCH  23  24ATOM     24  C   UNL     1      38.173  48.484  25.086 -0.44 +0.00    +0.022 CG0ATOM     25  G   UNL     1      37.105  49.573  25.187 +0.00 +0.00    +0.000 G0 ENDBRANCH  23  24BRANCH  23  26ATOM     26  C   UNL     1      37.430  46.711  26.820 -0.32 -0.01    +0.113 C  BRANCH  26  27ATOM     27  C   UNL     1      36.599  47.807  27.533 -0.33 -0.02    +0.107 C  BRANCH  27  28ATOM     28  N   UNL     1      37.173  49.141  27.677 -0.12 +0.01    -0.315 NA ATOM     29  H   UNL     1      38.184  49.055  27.807 +0.01 -0.00    +0.122 HD BRANCH  28  30ATOM     30  C   UNL     1      36.925  50.100  26.611 -0.30 +0.01    +0.081 C  BRANCH  30  31ATOM     31  C   UNL     1      37.107  49.573  25.190 -0.46 +0.00    +0.017 CG0ATOM     32  G   UNL     1      38.175  48.485  25.092 +0.00 +0.00    +0.000 G0 ENDBRANCH  30  31ENDBRANCH  28  30ENDBRANCH  27  28ENDBRANCH  26  27BRANCH  26  33ATOM     33  N   UNL     1      36.731  45.415  26.925 -0.15 +0.07    -0.346 N  ATOM     34  C   UNL     1      37.426  44.230  27.034 -0.23 -0.03    +0.251 C  ATOM     35  H   UNL     1      35.725  45.432  27.005 -0.42 -0.08    +0.164 HD ATOM     36  O   UNL     1      38.646  44.156  26.955 -0.13 +0.01    -0.269 OA BRANCH  34  37ATOM     37  C   UNL     1      36.619  42.996  27.226 -0.38 -0.01    +0.042 A  ATOM     38  C   UNL     1      37.289  41.822  27.573 -0.43 -0.01    +0.034 A  ATOM     39  C   UNL     1      35.230  42.988  27.102 -0.52 -0.01    +0.034 A  ATOM     40  C   UNL     1      36.540  40.675  27.753 -0.34 -0.04    +0.112 A  ATOM     41  C   UNL     1      34.572  41.787  27.306 -0.43 -0.03    +0.112 A  ATOM     42  N   UNL     1      35.197  40.633  27.617 -0.36 +0.14    -0.265 NA ENDBRANCH  34  37ENDBRANCH  26  33ENDBRANCH  23  26ENDBRANCH   1  23TORSDOF 9TERENDMDL