MODEL        1USER    Run = 1USERUSER    Estimated Free Energy of Binding    = -12.54 kcal/mol  [=(1)+(2)+(3)-(4)]USERUSER    (1) Final Intermolecular Energy     = -14.93 kcal/molUSER        vdW + Hbond + desolv Energy     = -14.79 kcal/molUSER        Electrostatic Energy            =  -0.14 kcal/molUSER        Moving Ligand-Fixed Receptor    = -14.93 kcal/molUSER        Moving Ligand-Moving Receptor   =  +0.00 kcal/molUSER    (2) Final Total Internal Energy     =  -2.24 kcal/molUSER    (3) Torsional Free Energy           =  +2.39 kcal/molUSER    (4) Unbound System's Energy         =  -2.24 kcal/molUSERUSERREMARK SMILES N#Cc1cnc(-c2ccc(CNCc3ccc(-c4csnn4)cc3)cc2)c(-c2ccccc2)c1REMARK SMILES IDX 11 1 10 2 7 3 8 4 26 5 9 6 25 7 6 8 3 9 4 10 34 11 5 12REMARK SMILES IDX 27 13 2 14 1 15 28 16 29 17 33 18 30 19 32 20 31 21 12 22REMARK SMILES IDX 13 24 14 25 15 26 24 27 16 28 23 29 17 30 18 31 19 32 22 33REMARK SMILES IDX 20 34 21 35REMARK H PARENT 12 23USER                              x       y       z     vdW  Elec       q    TypeUSER                           _______ _______ _______ _____ _____    ______ ____ROOTATOM      1  C   UNL     1      35.141  42.093  17.831 -0.35 -0.04    +0.117 C  ENDROOTBRANCH   1   2ATOM      2  C   UNL     1      36.028  43.247  17.427 -0.28 +0.01    -0.034 A  ATOM      3  C   UNL     1      37.725  45.389  16.655 -0.36 -0.00    +0.001 A  ATOM      4  C   UNL     1      37.216  45.296  17.963 -0.35 -0.00    +0.011 A  ATOM      5  C   UNL     1      37.351  44.394  15.738 -0.30 -0.00    +0.011 A  ATOM      6  C   UNL     1      36.385  44.238  18.347 -0.33 -0.00    +0.006 A  ATOM      7  C   UNL     1      36.522  43.333  16.120 -0.41 -0.00    +0.006 A  BRANCH   3   8ATOM      8  C   UNL     1      38.602  46.516  16.276 -0.36 -0.03    +0.078 A  ATOM      9  C   UNL     1      40.367  48.601  15.840 -0.53 -0.02    +0.071 A  ATOM     10  C   UNL     1      40.441  47.785  16.952 -0.41 -0.02    +0.131 A  ATOM     11  C   UNL     1      39.366  48.341  14.906 -0.52 -0.01    +0.032 A  ATOM     12  N   UNL     1      39.594  46.757  17.184 -0.28 +0.06    -0.254 NA ATOM     13  C   UNL     1      38.456  47.283  15.101 -0.46 -0.00    +0.009 A  BRANCH   9  14ATOM     14  C   UNL     1      41.298  49.667  15.657 -0.62 -0.01    +0.101 C  ATOM     15  N   UNL     1      42.056  50.533  15.508 -0.69 +0.01    -0.192 NA ENDBRANCH   9  14BRANCH  13  16ATOM     16  C   UNL     1      37.443  47.019  14.064 -0.47 +0.01    -0.016 A  ATOM     17  C   UNL     1      37.815  46.888  12.714 -0.39 -0.00    +0.009 A  ATOM     18  C   UNL     1      36.086  46.875  14.394 -0.42 -0.01    +0.009 A  ATOM     19  C   UNL     1      36.860  46.633  11.727 -0.67 -0.00    +0.001 A  ATOM     20  C   UNL     1      35.130  46.622  13.408 -0.47 -0.00    +0.001 A  ATOM     21  C   UNL     1      35.517  46.502  12.075 -0.37 -0.00    +0.000 A  ENDBRANCH  13  16ENDBRANCH   3   8ENDBRANCH   1   2BRANCH   1  22ATOM     22  N   UNL     1      33.934  42.061  17.005 -0.20 +0.15    -0.309 NA ATOM     23  H   UNL     1      33.581  41.106  16.995 -0.27 -0.08    +0.123 HD BRANCH  22  24ATOM     24  C   UNL     1      32.890  42.947  17.520 -0.30 -0.04    +0.117 C  BRANCH  24  25ATOM     25  C   UNL     1      32.204  43.756  16.443 -0.30 +0.01    -0.034 A  ATOM     26  C   UNL     1      32.802  44.912  15.924 -0.34 -0.00    +0.006 A  ATOM     27  C   UNL     1      30.948  43.375  15.959 -0.33 -0.00    +0.006 A  ATOM     28  C   UNL     1      32.159  45.664  14.934 -0.40 -0.01    +0.011 A  ATOM     29  C   UNL     1      30.305  44.126  14.971 -0.27 -0.01    +0.011 A  ATOM     30  C   UNL     1      30.905  45.277  14.440 -0.48 -0.00    +0.003 A  BRANCH  30  31ATOM     31  C   UNL     1      30.209  46.038  13.407 -0.44 -0.08    +0.105 A  ATOM     32  C   UNL     1      28.840  46.251  13.372 +0.08 -0.11    +0.118 A  ATOM     33  N   UNL     1      30.909  46.641  12.363 -0.79 +0.07    -0.138 NA ATOM     34  S   UNL     1      28.502  47.206  11.986 -0.73 +0.01    -0.020 S  ATOM     35  N   UNL     1      30.108  47.288  11.534 -0.97 +0.03    -0.091 NA ENDBRANCH  30  31ENDBRANCH  24  25ENDBRANCH  22  24ENDBRANCH   1  22TORSDOF 8TERENDMDL