MODEL        5USER    Run = 5USERUSER    Estimated Free Energy of Binding    =  -7.52 kcal/mol  [=(1)+(2)+(3)-(4)]USERUSER    (1) Final Intermolecular Energy     = -12.00 kcal/molUSER        vdW + Hbond + desolv Energy     = -12.02 kcal/molUSER        Electrostatic Energy            =  -0.16 kcal/molUSER        Moving Ligand-Fixed Receptor    = -12.18 kcal/molUSER        Moving Ligand-Moving Receptor   =  +0.19 kcal/molUSER    (2) Final Total Internal Energy     =  -2.86 kcal/molUSER    (3) Torsional Free Energy           =  +4.47 kcal/molUSER    (4) Unbound System's Energy         =  -2.86 kcal/molUSERUSERREMARK SMILES COc1ccc(O)c(C(=O)c2ccc(C(=O)O[C@@H]3CCCNC[C@H]3NC(=O)c3ccncc3)cc2)c1FREMARK SMILES IDX 17 1 15 2 16 3 14 4 11 5 12 6 35 7 13 8 34 9 9 10 10 11 8 12REMARK SMILES IDX 3 13 4 14 36 15 5 16 6 17 37 18 2 19 1 20 7 21 18 23 24 25REMARK SMILES IDX 23 26 22 27 21 29 20 30 19 31 25 33 26 34 27 36 28 37 29 38REMARK SMILES IDX 33 39 30 40 32 41 31 42REMARK H PARENT 7 22 22 28 25 35REMARK Flexibility Score:   99.900USER                              x       y       z     vdW  Elec       q    TypeUSER                           _______ _______ _______ _____ _____    ______ ____ROOTATOM      1  O   UNL     1      37.587  45.423  19.414 +0.09 +0.04    -0.457 OA ENDROOTBRANCH   1   2ATOM      2  C   UNL     1      37.044  44.369  20.074 -0.19 -0.02    +0.338 C  ATOM      3  O   UNL     1      37.449  43.868  21.114 -0.28 -0.00    -0.246 OA BRANCH   2   4ATOM      4  C   UNL     1      35.820  43.915  19.368 -0.34 -0.01    +0.060 A  ATOM      5  C   UNL     1      33.552  43.015  17.981 -0.33 -0.01    +0.023 A  ATOM      6  C   UNL     1      33.435  44.034  18.936 -0.40 -0.00    +0.013 A  ATOM      7  C   UNL     1      34.810  42.453  17.721 -0.40 -0.00    +0.013 A  ATOM      8  C   UNL     1      34.566  44.482  19.627 -0.29 -0.00    +0.016 A  ATOM      9  C   UNL     1      35.942  42.907  18.405 -0.21 -0.00    +0.016 A  BRANCH   5  10ATOM     10  C   UNL     1      32.377  42.483  17.237 -0.25 -0.07    +0.199 C  ATOM     11  O   UNL     1      31.989  43.018  16.204 -0.21 +0.14    -0.288 OA BRANCH  10  12ATOM     12  C   UNL     1      31.652  41.305  17.728 -0.28 -0.02    +0.104 A  ATOM     13  C   UNL     1      31.390  39.594  19.427 -0.29 +0.02    +0.155 A  ATOM     14  C   UNL     1      30.349  39.031  18.679 -0.34 +0.01    +0.053 A  ATOM     15  C   UNL     1      32.042  40.732  18.936 -0.27 +0.00    +0.179 A  ATOM     16  C   UNL     1      29.946  39.617  17.472 -0.31 +0.01    +0.051 A  ATOM     17  C   UNL     1      30.594  40.758  17.002 -0.27 -0.03    +0.130 A  ATOM     18  F   UNL     1      33.020  41.299  19.660 -0.05 -0.04    -0.202 F  BRANCH  13  19ATOM     19  O   UNL     1      31.832  39.139  20.641 -0.95 -0.16    -0.494 OA ATOM     20  C   UNL     1      31.080  38.106  21.265 -0.35 +0.03    +0.278 C  ENDBRANCH  13  19BRANCH  17  21ATOM     21  O   UNL     1      30.192  41.347  15.838 -0.16 +0.20    -0.507 OA ATOM     22  H   UNL     1      30.940  41.415  15.223 -0.35 -0.20    +0.293 HD ENDBRANCH  17  21ENDBRANCH  10  12ENDBRANCH   5  10ENDBRANCH   2   4ENDBRANCH   1   2BRANCH   1  23ATOM     23  C   UNL     1      39.024  45.393  19.210 -0.32 -0.01    +0.200 CG0ATOM     24  G   UNL     1      39.672  45.859  20.514 +0.00 +0.00    +0.000 G0 BRANCH  23  25ATOM     25  C   UNL     1      39.329  46.289  17.993 -0.39 -0.02    +0.137 C  BRANCH  25  26ATOM     26  C   UNL     1      40.594  45.893  17.206 -0.42 -0.01    +0.109 C  BRANCH  26  27ATOM     27  N   UNL     1      41.752  45.577  18.044 -0.19 -0.01    -0.315 NA ATOM     28  H   UNL     1      42.594  45.686  17.479 -0.28 -0.01    +0.122 HD BRANCH  27  29ATOM     29  C   UNL     1      41.901  46.379  19.262 -0.48 +0.01    +0.081 C  BRANCH  29  30ATOM     30  C   UNL     1      41.205  45.891  20.539 -0.40 +0.00    +0.019 C  BRANCH  30  31ATOM     31  C   UNL     1      39.672  45.857  20.514 -0.27 +0.00    +0.049 CG0ATOM     32  G   UNL     1      39.025  45.391  19.210 +0.00 +0.00    +0.000 G0 ENDBRANCH  30  31ENDBRANCH  29  30ENDBRANCH  27  29ENDBRANCH  26  27ENDBRANCH  25  26BRANCH  25  33ATOM     33  N   UNL     1      38.162  46.303  17.101 -0.17 +0.12    -0.344 N  ATOM     34  C   UNL     1      38.169  46.955  15.893 -0.29 -0.11    +0.251 C  ATOM     35  H   UNL     1      37.479  45.574  17.259 +0.10 -0.05    +0.164 HD ATOM     36  O   UNL     1      39.113  47.613  15.476 -0.30 +0.10    -0.269 OA BRANCH  34  37ATOM     37  C   UNL     1      36.942  46.813  15.074 -0.38 -0.03    +0.042 A  ATOM     38  C   UNL     1      35.859  46.117  15.609 -0.34 -0.03    +0.034 A  ATOM     39  C   UNL     1      36.871  47.325  13.780 -0.51 -0.02    +0.034 A  ATOM     40  C   UNL     1      34.728  45.984  14.826 -0.23 -0.11    +0.112 A  ATOM     41  C   UNL     1      35.696  47.132  13.077 -0.46 -0.07    +0.112 A  ATOM     42  N   UNL     1      34.622  46.479  13.574 -0.25 +0.22    -0.265 NA ENDBRANCH  34  37ENDBRANCH  25  33ENDBRANCH  23  25ENDBRANCH   1  23TORSDOF 9TERENDMDL