MODEL        3USER    Run = 3USERUSER    Estimated Free Energy of Binding    = -12.00 kcal/mol  [=(1)+(2)+(3)-(4)]USERUSER    (1) Final Intermolecular Energy     = -13.79 kcal/molUSER        vdW + Hbond + desolv Energy     = -13.57 kcal/molUSER        Electrostatic Energy            =  -0.22 kcal/molUSER        Moving Ligand-Fixed Receptor    = -13.79 kcal/molUSER        Moving Ligand-Moving Receptor   =  +0.00 kcal/molUSER    (2) Final Total Internal Energy     =  -1.83 kcal/molUSER    (3) Torsional Free Energy           =  +1.79 kcal/molUSER    (4) Unbound System's Energy         =  -1.83 kcal/molUSERUSERREMARK SMILES Cn1ccc2ccc3c4[nH]c5c(CCCN[C@H]6CC[C@H](O)CC6)cccc5c4c4c(c3c21)C(=O)NC4=OREMARK SMILES IDX 15 1 14 2 13 3 12 4 2 5 3 6 32 7 4 8 31 9 5 10 30 11 8 12REMARK SMILES IDX 6 13 29 14 33 15 7 16 9 17 28 18 36 19 35 20 10 21 27 22REMARK SMILES IDX 11 23 26 24 25 25 24 26 1 27 34 28 37 29 16 32 17 34 23 35REMARK SMILES IDX 18 36 22 37 19 38 20 39 21 40REMARK H PARENT 35 30 10 31 16 33 21 41USER                              x       y       z     vdW  Elec       q    TypeUSER                           _______ _______ _______ _____ _____    ______ ____ROOTATOM      1  C   UNL     1      36.365  45.467  13.357 -0.46 -0.03    +0.081 C  ENDROOTBRANCH   1   2ATOM      2  C   UNL     1      37.589  46.343  13.075 -0.52 -0.01    +0.020 C  BRANCH   2   3ATOM      3  C   UNL     1      37.576  47.661  13.856 -0.58 -0.02    +0.039 C  BRANCH   3   4ATOM      4  C   UNL     1      38.771  47.855  14.758 -0.50 +0.01    -0.024 A  ATOM      5  N   UNL     1      38.290  43.772  22.394 -0.12 -0.02    -0.350 N  ATOM      6  C   UNL     1      37.477  42.752  22.829 -0.35 +0.01    +0.086 A  ATOM      7  C   UNL     1      38.122  43.982  21.030 -0.32 +0.00    +0.057 A  ATOM      8  C   UNL     1      36.617  42.440  21.811 -0.47 +0.00    +0.028 A  ATOM      9  C   UNL     1      38.807  44.788  20.045 -0.36 -0.00    +0.022 A  ATOM     10  C   UNL     1      36.960  43.258  20.704 -0.41 -0.00    +0.000 A  ATOM     11  C   UNL     1      40.077  45.380  20.126 -0.35 +0.00    +0.063 A  ATOM     12  C   UNL     1      38.100  44.995  18.819 -0.37 -0.00    +0.009 A  ATOM     13  C   UNL     1      36.363  43.420  19.443 -0.36 -0.00    +0.011 A  ATOM     14  C   UNL     1      40.568  46.251  19.146 -0.39 -0.00    +0.063 A  ATOM     15  C   UNL     1      41.204  45.164  21.051 -0.23 +0.03    +0.259 C  ATOM     16  C   UNL     1      36.902  44.322  18.532 -0.34 -0.00    +0.012 A  ATOM     17  C   UNL     1      38.627  45.895  17.841 -0.36 -0.01    +0.055 A  ATOM     18  C   UNL     1      39.852  46.558  17.987 -0.44 -0.00    +0.022 A  ATOM     19  C   UNL     1      41.913  46.663  19.541 -0.34 +0.03    +0.259 C  ATOM     20  N   UNL     1      42.160  46.074  20.737 -0.19 -0.06    -0.288 N  ATOM     21  N   UNL     1      38.118  46.295  16.625 -0.15 +0.13    -0.354 N  ATOM     22  C   UNL     1      40.042  47.385  16.828 -0.50 -0.00    +0.008 A  ATOM     23  C   UNL     1      38.937  47.201  15.995 -0.42 -0.02    +0.050 A  ATOM     24  C   UNL     1      41.047  48.278  16.402 -0.54 -0.00    +0.011 A  ATOM     25  C   UNL     1      40.916  48.944  15.179 -0.62 -0.00    +0.001 A  ATOM     26  C   UNL     1      39.801  48.734  14.376 -0.41 -0.00    +0.006 A  ATOM     27  C   UNL     1      38.979  44.618  23.346 -0.22 +0.01    +0.149 C  ATOM     28  O   UNL     1      41.327  44.275  21.867 -0.17 -0.02    -0.269 OA ATOM     29  O   UNL     1      42.698  47.343  18.912 -0.47 -0.02    -0.269 OA ATOM     30  H   UNL     1      43.087  46.042  21.132 +0.08 +0.07    +0.173 HD ATOM     31  H   UNL     1      37.236  45.986  16.245 +0.12 -0.08    +0.167 HD ENDBRANCH   3   4ENDBRANCH   2   3ENDBRANCH   1   2BRANCH   1  32ATOM     32  N   UNL     1      36.589  44.709  14.590 -0.18 +0.12    -0.314 NA ATOM     33  H   UNL     1      36.601  43.710  14.388 +0.07 -0.04    +0.122 HD BRANCH  32  34ATOM     34  C   UNL     1      35.590  45.000  15.627 -0.37 -0.03    +0.053 C  ATOM     35  C   UNL     1      34.729  46.240  15.305 -0.09 -0.02    +0.021 C  ATOM     36  C   UNL     1      34.732  43.729  15.795 -0.32 -0.01    +0.021 C  ATOM     37  C   UNL     1      33.423  45.876  14.602 -0.23 -0.03    +0.033 C  ATOM     38  C   UNL     1      33.375  44.056  16.403 -0.36 -0.02    +0.033 C  ATOM     39  C   UNL     1      32.556  44.962  15.478 -0.34 -0.07    +0.114 C  BRANCH  39  40ATOM     40  O   UNL     1      31.694  45.753  16.295 -0.62 +0.18    -0.393 OA ATOM     41  H   UNL     1      32.027  46.667  16.275 -0.39 -0.28    +0.210 HD ENDBRANCH  39  40ENDBRANCH  32  34ENDBRANCH   1  32TORSDOF 6TERENDMDL