REMARK SMILES Nc1ncnc2c1ncn2[C@H]1CC[C@@H](O)C[C@@H]1NCc1ccc(O)c(N2CCC(O)CC2)c1
REMARK SMILES IDX 18 1 17 3 11 4 12 5 13 6 16 7 14 8 10 9 2 10 3 11 7 12 4 13
REMARK SMILES IDX 6 14 8 15 5 16 9 17 1 18 15 21 19 23 20 24 21 25 33 26 22 27
REMARK SMILES IDX 25 28 23 29 26 30 27 31 32 32 28 33 31 34 29 35 30 36 24 38
REMARK H PARENT 18 2 1 19 1 20 15 22 30 37 24 39
ROOT
ATOM      1  N   UNL     1      -0.942  -2.093   1.351  1.00  0.00    -0.308 NA
ATOM      2  H   UNL     1      -0.627  -1.180   1.690  1.00  0.00     0.123 HD
ENDROOT
BRANCH   1   3
ATOM      3  C   UNL     1      -1.825  -1.882   0.180  1.00  0.00     0.079 C 
ATOM      4  C   UNL     1      -2.901  -0.791   0.509  1.00  0.00     0.107 C 
ATOM      5  C   UNL     1      -4.306  -1.360   0.798  1.00  0.00     0.030 C 
ATOM      6  C   UNL     1      -4.216  -2.659   1.595  1.00  0.00     0.034 C 
ATOM      7  C   UNL     1      -2.517  -3.183  -0.249  1.00  0.00     0.052 C 
ATOM      8  C   UNL     1      -3.455  -3.744   0.825  1.00  0.00     0.116 C 
BRANCH   4   9
ATOM      9  N   UNL     1      -2.925   0.251  -0.516  1.00  0.00    -0.310 N 
ATOM     10  C   UNL     1      -2.135   3.429  -1.759  1.00  0.00     0.155 A 
ATOM     11  N   UNL     1      -1.617   4.052  -0.675  1.00  0.00    -0.217 NA
ATOM     12  C   UNL     1      -2.575   2.100  -1.625  1.00  0.00     0.150 A 
ATOM     13  C   UNL     1      -1.514   3.351   0.474  1.00  0.00     0.226 A 
ATOM     14  C   UNL     1      -2.410   1.512  -0.381  1.00  0.00     0.165 A 
ATOM     15  N   UNL     1      -3.163   1.217  -2.511  1.00  0.00    -0.231 NA
ATOM     16  N   UNL     1      -1.863   2.069   0.714  1.00  0.00    -0.217 NA
ATOM     17  C   UNL     1      -3.360   0.121  -1.810  1.00  0.00     0.202 A 
BRANCH  10  18
ATOM     18  N   UNL     1      -2.194   4.130  -2.949  1.00  0.00    -0.382 N 
ATOM     19  H   UNL     1      -2.155   5.135  -2.853  1.00  0.00     0.158 HD
ATOM     20  H   UNL     1      -2.752   3.708  -3.686  1.00  0.00     0.158 HD
ENDBRANCH  10  18
ENDBRANCH   4   9
BRANCH   8  21
ATOM     21  O   UNL     1      -4.406  -4.591   0.180  1.00  0.00    -0.393 OA
ATOM     22  H   UNL     1      -3.919  -5.352  -0.182  1.00  0.00     0.210 HD
ENDBRANCH   8  21
ENDBRANCH   1   3
BRANCH   1  23
ATOM     23  C   UNL     1       0.263  -2.889   1.076  1.00  0.00     0.117 C 
BRANCH  23  24
ATOM     24  C   UNL     1       1.203  -2.244   0.084  1.00  0.00    -0.032 A 
ATOM     25  C   UNL     1       1.348  -2.786  -1.207  1.00  0.00     0.009 A 
ATOM     26  C   UNL     1       1.910  -1.074   0.425  1.00  0.00     0.035 A 
ATOM     27  C   UNL     1       2.175  -2.169  -2.146  1.00  0.00     0.049 A 
ATOM     28  C   UNL     1       2.738  -0.442  -0.510  1.00  0.00     0.079 A 
ATOM     29  C   UNL     1       2.852  -1.012  -1.789  1.00  0.00     0.138 A 
BRANCH  28  30
ATOM     30  N   UNL     1       3.439   0.767  -0.267  1.00  0.00    -0.368 N 
ATOM     31  C   UNL     1       2.503   1.908  -0.201  1.00  0.00     0.119 C 
ATOM     32  C   UNL     1       4.346   0.680   0.892  1.00  0.00     0.119 C 
ATOM     33  C   UNL     1       3.308   3.204  -0.153  1.00  0.00     0.053 C 
ATOM     34  C   UNL     1       5.186   1.953   0.959  1.00  0.00     0.053 C 
ATOM     35  C   UNL     1       4.283   3.185   1.023  1.00  0.00     0.118 C 
BRANCH  35  36
ATOM     36  O   UNL     1       5.091   4.357   1.003  1.00  0.00    -0.393 OA
ATOM     37  H   UNL     1       4.498   5.125   1.055  1.00  0.00     0.210 HD
ENDBRANCH  35  36
ENDBRANCH  28  30
BRANCH  29  38
ATOM     38  O   UNL     1       3.656  -0.393  -2.708  1.00  0.00    -0.506 OA
ATOM     39  H   UNL     1       4.023   0.361  -2.195  1.00  0.00     0.293 HD
ENDBRANCH  29  38
ENDBRANCH  23  24
ENDBRANCH   1  23
TORSDOF 9
