REMARK SMILES COC1=c2cc[nH]c2=C(N2CC[C@@H](Cc3ccc(C(=O)N4CCOCC4)c(F)c3)C2=O)C[C@H]1C
REMARK SMILES IDX 10 1 11 2 12 3 13 4 30 5 31 6 9 7 3 8 4 9 33 10 5 11 8 12
REMARK SMILES IDX 32 13 6 14 7 15 34 16 2 18 1 19 14 20 15 21 16 22 29 23
REMARK SMILES IDX 17 24 27 25 18 26 28 27 19 28 21 29 22 30 26 31 23 32 25 33
REMARK SMILES IDX 24 34 20 35
REMARK H PARENT 7 17
ROOT
ATOM      1  N   UNL     1      -2.328   0.651   0.285  1.00  0.00    -0.314 N 
ATOM      2  C   UNL     1      -1.528  -0.461   0.748  1.00  0.00     0.126 C 
ATOM      3  C   UNL     1      -0.230  -0.330  -0.024  1.00  0.00     0.036 C 
ATOM      4  C   UNL     1      -0.060   1.180  -0.134  1.00  0.00     0.085 C 
ATOM      5  C   UNL     1      -1.498   1.650  -0.264  1.00  0.00     0.230 C 
ATOM      6  O   UNL     1      -1.818   2.741  -0.711  1.00  0.00    -0.274 OA
ENDROOT
BRANCH   1   7
ATOM      7  C   UNL     1      -3.720   0.705   0.374  1.00  0.00     0.046 C 
ATOM      8  C   UNL     1      -6.649   0.698   0.345  1.00  0.00     0.108 C 
ATOM      9  C   UNL     1      -5.927   0.010   1.243  1.00  0.00     0.039 A 
ATOM     10  C   UNL     1      -5.951   1.449  -0.771  1.00  0.00     0.058 C 
ATOM     11  C   UNL     1      -6.373  -0.741   2.403  1.00  0.00     0.031 A 
ATOM     12  C   UNL     1      -4.461  -0.090   1.173  1.00  0.00     0.069 A 
ATOM     13  C   UNL     1      -4.458   1.753  -0.458  1.00  0.00     0.067 C 
ATOM     14  C   UNL     1      -5.264  -1.301   2.915  1.00  0.00     0.083 A 
ATOM     15  N   UNL     1      -4.133  -1.003   2.168  1.00  0.00    -0.360 N 
ATOM     16  C   UNL     1      -6.065   0.669  -2.088  1.00  0.00     0.016 C 
ATOM     17  H   UNL     1      -3.284  -0.821   2.688  1.00  0.00     0.166 HD
BRANCH   8  18
ATOM     18  O   UNL     1      -8.018   0.874   0.416  1.00  0.00    -0.500 OA
ATOM     19  C   UNL     1      -8.743  -0.296   0.043  1.00  0.00     0.278 C 
ENDBRANCH   8  18
ENDBRANCH   1   7
BRANCH   4  20
ATOM     20  C   UNL     1       0.796   1.638  -1.311  1.00  0.00     0.049 C 
BRANCH  20  21
ATOM     21  C   UNL     1       2.262   1.324  -1.120  1.00  0.00    -0.044 A 
ATOM     22  C   UNL     1       3.079   2.197  -0.386  1.00  0.00     0.005 A 
ATOM     23  C   UNL     1       2.825   0.165  -1.672  1.00  0.00     0.043 A 
ATOM     24  C   UNL     1       4.437   1.918  -0.209  1.00  0.00     0.017 A 
ATOM     25  C   UNL     1       4.179  -0.111  -1.490  1.00  0.00     0.136 A 
ATOM     26  C   UNL     1       4.984   0.750  -0.748  1.00  0.00     0.075 A 
ATOM     27  F   UNL     1       4.684  -1.225  -2.039  1.00  0.00    -0.206 F 
BRANCH  26  28
ATOM     28  C   UNL     1       6.429   0.504  -0.591  1.00  0.00     0.256 C 
ATOM     29  N   UNL     1       6.870  -0.714  -0.071  1.00  0.00    -0.334 N 
ATOM     30  C   UNL     1       6.063  -1.544   0.833  1.00  0.00     0.148 C 
ATOM     31  C   UNL     1       8.315  -0.875   0.107  1.00  0.00     0.148 C 
ATOM     32  C   UNL     1       6.558  -2.993   0.855  1.00  0.00     0.181 C 
ATOM     33  C   UNL     1       8.717  -2.351   0.169  1.00  0.00     0.181 C 
ATOM     34  O   UNL     1       7.957  -3.055   1.165  1.00  0.00    -0.378 OA
ATOM     35  O   UNL     1       7.192   1.409  -0.924  1.00  0.00    -0.269 OA
ENDBRANCH  26  28
ENDBRANCH  20  21
ENDBRANCH   4  20
TORSDOF 5
