MODEL        8USER    Run = 8USERUSER    Estimated Free Energy of Binding    = -10.22 kcal/mol  [=(1)+(2)+(3)-(4)]USERUSER    (1) Final Intermolecular Energy     = -11.41 kcal/molUSER        vdW + Hbond + desolv Energy     = -11.35 kcal/molUSER        Electrostatic Energy            =  -0.07 kcal/molUSER        Moving Ligand-Fixed Receptor    = -11.41 kcal/molUSER        Moving Ligand-Moving Receptor   =  +0.00 kcal/molUSER    (2) Final Total Internal Energy     =  -1.62 kcal/molUSER    (3) Torsional Free Energy           =  +1.19 kcal/molUSER    (4) Unbound System's Energy         =  -1.62 kcal/molUSERUSERREMARK SMILES C[C@@H]1CC(N2CC[C@H](Cc3ccc(C(=O)N4CCOCC4)cc3)C2=O)=c2[nH]ccc2=C1FREMARK SMILES IDX 9 1 8 2 5 3 6 4 24 5 7 6 25 7 4 8 2 9 3 10 31 11 30 12 26 13REMARK SMILES IDX 29 14 27 15 28 16 1 17 32 18 10 20 11 21 23 22 12 23 22 24REMARK SMILES IDX 13 25 14 26 16 27 17 28 21 29 18 30 20 31 19 32 15 33REMARK H PARENT 27 19USER                              x       y       z     vdW  Elec       q    TypeUSER                           _______ _______ _______ _____ _____    ______ ____ROOTATOM      1  C   UNL     1      35.216  42.967  19.635 -0.46 -0.00    +0.049 C  ENDROOTBRANCH   1   2ATOM      2  C   UNL     1      36.129  43.706  20.610 -0.42 -0.00    +0.085 C  ATOM      3  N   UNL     1      38.406  44.341  20.782 -0.16 -0.00    -0.314 N  ATOM      4  C   UNL     1      38.056  43.630  21.995 -0.33 +0.01    +0.126 C  ATOM      5  C   UNL     1      37.300  44.361  19.903 -0.27 -0.01    +0.230 C  ATOM      6  C   UNL     1      36.832  42.817  21.622 -0.48 +0.00    +0.036 C  ATOM      7  O   UNL     1      37.233  44.842  18.781 -0.24 +0.05    -0.274 OA BRANCH   3   8ATOM      8  C   UNL     1      39.575  45.093  20.619 -0.38 +0.00    +0.046 C  ATOM      9  C   UNL     1      41.868  45.820  21.680 -0.30 +0.01    +0.052 C  ATOM     10  C   UNL     1      40.370  45.459  21.878 -0.29 +0.00    +0.067 C  ATOM     11  C   UNL     1      42.151  46.442  20.344 -0.38 +0.02    +0.113 C  ATOM     12  C   UNL     1      41.307  46.278  19.323 -0.44 +0.00    +0.033 A  ATOM     13  C   UNL     1      40.057  45.517  19.431 -0.38 -0.00    +0.068 A  ATOM     14  C   UNL     1      41.445  46.762  17.964 -0.46 -0.00    +0.031 A  ATOM     15  N   UNL     1      39.566  45.502  18.132 -0.18 +0.04    -0.360 N  ATOM     16  C   UNL     1      40.367  46.291  17.316 -0.42 -0.01    +0.083 A  ATOM     17  C   UNL     1      42.757  44.584  21.851 -0.27 +0.00    +0.016 C  ATOM     18  F   UNL     1      43.287  47.156  20.174 -0.16 -0.07    -0.211 F  ATOM     19  H   UNL     1      38.566  45.618  18.023 +0.10 -0.03    +0.166 HD ENDBRANCH   3   8ENDBRANCH   1   2BRANCH   1  20ATOM     20  C   UNL     1      35.002  43.726  18.346 -0.30 +0.01    -0.047 A  ATOM     21  C   UNL     1      34.384  44.985  18.356 -0.39 -0.00    +0.004 A  ATOM     22  C   UNL     1      35.442  43.188  17.128 -0.38 -0.00    +0.004 A  ATOM     23  C   UNL     1      34.202  45.693  17.167 -0.34 -0.01    +0.014 A  ATOM     24  C   UNL     1      35.264  43.894  15.936 -0.35 -0.01    +0.014 A  ATOM     25  C   UNL     1      34.627  45.137  15.957 -0.29 -0.03    +0.040 A  BRANCH  25  26ATOM     26  C   UNL     1      34.465  45.875  14.684 -0.18 -0.23    +0.254 C  ATOM     27  N   UNL     1      35.597  46.365  14.044 -0.21 +0.24    -0.334 N  ATOM     28  C   UNL     1      36.922  46.505  14.660 -0.36 -0.08    +0.148 C  ATOM     29  C   UNL     1      35.435  47.024  12.749 -0.42 -0.10    +0.148 C  ATOM     30  C   UNL     1      37.650  47.741  14.120 -0.45 -0.08    +0.181 C  ATOM     31  C   UNL     1      36.763  47.066  11.987 -0.60 -0.07    +0.181 C  ATOM     32  O   UNL     1      37.823  47.723  12.697 -0.85 +0.04    -0.378 OA ATOM     33  O   UNL     1      33.327  46.023  14.245 -0.29 +0.26    -0.269 OA ENDBRANCH  25  26ENDBRANCH   1  20TORSDOF 4TERENDMDL