MODEL        5USER    Run = 5USERUSER    Estimated Free Energy of Binding    = -11.01 kcal/mol  [=(1)+(2)+(3)-(4)]USERUSER    (1) Final Intermolecular Energy     = -12.50 kcal/molUSER        vdW + Hbond + desolv Energy     = -12.36 kcal/molUSER        Electrostatic Energy            =  -0.14 kcal/molUSER        Moving Ligand-Fixed Receptor    = -12.50 kcal/molUSER        Moving Ligand-Moving Receptor   =  +0.00 kcal/molUSER    (2) Final Total Internal Energy     =  -1.96 kcal/molUSER    (3) Torsional Free Energy           =  +1.49 kcal/molUSER    (4) Unbound System's Energy         =  -1.96 kcal/molUSERUSERREMARK SMILES COC1=c2cc[nH]c2=C(N2CC[C@H](Cc3ccc(C(=O)N4CCN(C)CC4)cc3)C2=O)C[C@H]1CREMARK SMILES IDX 10 1 11 2 12 3 13 4 30 5 31 6 9 7 3 8 4 9 33 10 5 11 8 12REMARK SMILES IDX 32 13 6 14 7 15 34 16 2 18 1 19 14 20 15 21 16 22 29 23REMARK SMILES IDX 17 24 28 25 18 26 19 27 21 28 22 29 27 30 23 31 26 32 24 33REMARK SMILES IDX 20 34 25 35REMARK H PARENT 7 17USER                              x       y       z     vdW  Elec       q    TypeUSER                           _______ _______ _______ _____ _____    ______ ____ROOTATOM      1  N   UNL     1      37.911  45.157  17.618 -0.17 +0.07    -0.314 N  ATOM      2  C   UNL     1      39.016  44.399  18.158 -0.29 -0.01    +0.126 C  ATOM      3  C   UNL     1      38.788  44.415  19.655 -0.38 -0.00    +0.036 C  ATOM      4  C   UNL     1      37.268  44.433  19.787 -0.35 -0.01    +0.085 C  ATOM      5  C   UNL     1      36.850  45.199  18.546 -0.15 -0.05    +0.230 C  ATOM      6  O   UNL     1      35.738  45.685  18.409 -0.23 +0.10    -0.274 OA ENDROOTBRANCH   1   7ATOM      7  C   UNL     1      37.906  45.746  16.351 -0.39 -0.02    +0.046 C  ATOM      8  C   UNL     1      37.668  47.068  13.748 -0.48 -0.04    +0.108 C  ATOM      9  C   UNL     1      38.554  47.450  14.681 -0.46 -0.01    +0.039 A  ATOM     10  C   UNL     1      36.674  45.966  14.051 -0.46 -0.03    +0.058 C  ATOM     11  C   UNL     1      39.605  48.449  14.598 -0.51 -0.01    +0.031 A  ATOM     12  C   UNL     1      38.584  46.867  16.031 -0.38 -0.03    +0.069 A  ATOM     13  C   UNL     1      37.105  45.067  15.244 -0.38 -0.03    +0.067 C  ATOM     14  C   UNL     1      40.147  48.500  15.824 -0.50 -0.02    +0.083 A  ATOM     15  N   UNL     1      39.518  47.639  16.712 -0.21 +0.11    -0.360 N  ATOM     16  C   UNL     1      35.285  46.560  14.312 -0.44 -0.01    +0.016 C  ATOM     17  H   UNL     1      40.106  47.164  17.383 +0.10 -0.03    +0.166 HD BRANCH   8  18ATOM     18  O   UNL     1      37.644  47.549  12.453 -0.80 +0.06    -0.500 OA ATOM     19  C   UNL     1      36.927  46.694  11.563 -0.46 -0.10    +0.278 C  ENDBRANCH   8  18ENDBRANCH   1   7BRANCH   4  20ATOM     20  C   UNL     1      36.602  43.052  19.758 -0.37 -0.00    +0.049 C  BRANCH  20  21ATOM     21  C   UNL     1      35.331  43.002  18.945 -0.36 +0.01    -0.047 A  ATOM     22  C   UNL     1      35.335  42.486  17.640 -0.39 -0.00    +0.004 A  ATOM     23  C   UNL     1      34.125  43.467  19.490 -0.41 -0.00    +0.004 A  ATOM     24  C   UNL     1      34.158  42.444  16.890 -0.40 -0.01    +0.014 A  ATOM     25  C   UNL     1      32.946  43.421  18.743 -0.37 -0.00    +0.014 A  ATOM     26  C   UNL     1      32.959  42.892  17.450 -0.30 -0.01    +0.040 A  BRANCH  26  27ATOM     27  C   UNL     1      31.696  42.877  16.676 -0.20 -0.10    +0.253 C  ATOM     28  N   UNL     1      31.325  44.013  15.964 -0.12 +0.15    -0.336 N  ATOM     29  C   UNL     1      32.229  45.120  15.624 -0.34 -0.09    +0.135 C  ATOM     30  C   UNL     1      30.033  44.009  15.279 -0.24 -0.10    +0.135 C  ATOM     31  C   UNL     1      31.845  45.790  14.290 -0.45 -0.08    +0.105 C  ATOM     32  C   UNL     1      29.519  45.431  14.990 -0.29 -0.06    +0.105 C  ATOM     33  N   UNL     1      30.470  46.322  14.292 -0.39 +0.16    -0.303 NA ATOM     34  O   UNL     1      31.024  41.848  16.696 -0.21 +0.10    -0.269 OA ATOM     35  C   UNL     1      30.032  46.635  12.936 -0.57 -0.06    +0.105 C  ENDBRANCH  26  27ENDBRANCH  20  21ENDBRANCH   4  20TORSDOF 5TERENDMDL