MODEL        10USER    Run = 10USERUSER    Estimated Free Energy of Binding    = -10.26 kcal/mol  [=(1)+(2)+(3)-(4)]USERUSER    (1) Final Intermolecular Energy     = -12.35 kcal/molUSER        vdW + Hbond + desolv Energy     = -12.31 kcal/molUSER        Electrostatic Energy            =  -0.03 kcal/molUSER        Moving Ligand-Fixed Receptor    = -12.35 kcal/molUSER        Moving Ligand-Moving Receptor   =  +0.00 kcal/molUSER    (2) Final Total Internal Energy     =  -2.15 kcal/molUSER    (3) Torsional Free Energy           =  +2.09 kcal/molUSER    (4) Unbound System's Energy         =  -2.15 kcal/molUSERUSERREMARK SMILES Cc1nc(-c2ccc(CN[C@H]3C[C@H](O)CC[C@@H]3n3cnc4c(N)ncnc43)cc2)no1REMARK SMILES IDX 10 1 9 3 8 4 5 5 6 6 29 7 7 8 28 9 4 10 2 11 3 12 31 13REMARK SMILES IDX 30 14 1 15 11 16 12 17 17 18 13 19 16 20 15 21 18 22 19 23REMARK SMILES IDX 27 24 20 25 26 26 21 27 25 28 22 29 24 30 23 31 14 34REMARK H PARENT 10 2 23 32 23 33 14 35USER                              x       y       z     vdW  Elec       q    TypeUSER                           _______ _______ _______ _____ _____    ______ ____ROOTATOM      1  N   UNL     1      37.511  44.735  18.550 -0.17 +0.05    -0.308 NA ATOM      2  H   UNL     1      37.505  44.321  19.483 +0.08 -0.01    +0.123 HD ENDROOTBRANCH   1   3ATOM      3  C   UNL     1      38.821  44.457  17.949 -0.29 -0.01    +0.117 C  BRANCH   3   4ATOM      4  C   UNL     1      39.452  45.657  17.282 -0.37 +0.01    -0.034 A  ATOM      5  C   UNL     1      40.642  47.897  16.025 -0.53 -0.00    +0.023 A  ATOM      6  C   UNL     1      39.888  46.979  15.283 -0.47 -0.00    +0.012 A  ATOM      7  C   UNL     1      40.786  47.687  17.405 -0.51 -0.00    +0.012 A  ATOM      8  C   UNL     1      39.295  45.874  15.906 -0.33 -0.00    +0.006 A  ATOM      9  C   UNL     1      40.196  46.582  18.027 -0.47 -0.00    +0.006 A  BRANCH   5  10ATOM     10  C   UNL     1      41.273  49.051  15.388 -0.40 -0.02    +0.202 A  ATOM     11  C   UNL     1      42.139  50.246  13.894 -0.47 -0.05    +0.223 A  ATOM     12  N   UNL     1      41.638  49.046  14.056 -0.39 +0.02    -0.191 NA ATOM     13  O   UNL     1      42.117  50.998  15.029 -0.51 +0.06    -0.339 OA ATOM     14  N   UNL     1      41.546  50.205  16.020 -1.06 +0.01    -0.057 NA ATOM     15  C   UNL     1      42.699  50.877  12.689 -0.59 -0.05    +0.114 C  ENDBRANCH   5  10ENDBRANCH   3   4ENDBRANCH   1   3BRANCH   1  16ATOM     16  C   UNL     1      36.348  44.225  17.787 -0.33 -0.02    +0.079 C  ATOM     17  C   UNL     1      35.386  43.586  18.811 -0.38 -0.01    +0.052 C  ATOM     18  C   UNL     1      35.613  45.346  16.982 -0.32 -0.06    +0.107 C  ATOM     19  C   UNL     1      34.169  42.956  18.137 -0.34 -0.03    +0.116 C  ATOM     20  C   UNL     1      34.069  45.241  17.030 -0.37 -0.02    +0.030 C  ATOM     21  C   UNL     1      33.577  43.798  17.005 -0.35 -0.01    +0.034 C  BRANCH  18  22ATOM     22  N   UNL     1      36.067  45.454  15.598 -0.14 +0.18    -0.310 N  ATOM     23  C   UNL     1      36.138  44.449  14.669 -0.12 -0.08    +0.202 A  ATOM     24  C   UNL     1      36.457  46.610  14.972 -0.28 -0.12    +0.165 A  ATOM     25  N   UNL     1      36.560  44.883  13.500 -0.27 +0.09    -0.231 NA ATOM     26  N   UNL     1      36.545  47.841  15.495 -0.23 +0.24    -0.217 NA ATOM     27  C   UNL     1      36.753  46.236  13.674 -0.36 -0.07    +0.150 A  ATOM     28  C   UNL     1      36.987  48.723  14.578 -0.28 -0.19    +0.226 A  ATOM     29  C   UNL     1      37.190  47.249  12.806 -0.48 -0.05    +0.155 A  ATOM     30  N   UNL     1      37.320  48.502  13.290 -0.75 +0.07    -0.217 NA BRANCH  29  31ATOM     31  N   UNL     1      37.512  47.017  11.477 -0.27 +0.08    -0.382 N  ATOM     32  H   UNL     1      37.380  46.056  11.197 +0.11 -0.04    +0.158 HD ATOM     33  H   UNL     1      37.202  47.744  10.844 -0.27 -0.06    +0.158 HD ENDBRANCH  29  31ENDBRANCH  18  22BRANCH  19  34ATOM     34  O   UNL     1      34.561  41.696  17.606 -0.28 +0.16    -0.393 OA ATOM     35  H   UNL     1      35.451  41.483  17.945 -0.14 -0.07    +0.210 HD ENDBRANCH  19  34ENDBRANCH   1  16TORSDOF 7TERENDMDL