MODEL        9USER    Run = 9USERUSER    Estimated Free Energy of Binding    =  -9.07 kcal/mol  [=(1)+(2)+(3)-(4)]USERUSER    (1) Final Intermolecular Energy     = -11.46 kcal/molUSER        vdW + Hbond + desolv Energy     = -11.17 kcal/molUSER        Electrostatic Energy            =  -0.29 kcal/molUSER        Moving Ligand-Fixed Receptor    = -11.46 kcal/molUSER        Moving Ligand-Moving Receptor   =  +0.00 kcal/molUSER    (2) Final Total Internal Energy     =  -2.50 kcal/molUSER    (3) Torsional Free Energy           =  +2.39 kcal/molUSER    (4) Unbound System's Energy         =  -2.50 kcal/molUSERUSERREMARK SMILES Nc1ncnc2c1ncn2[C@H]1CC[C@@H](O)C[C@@H]1NCc1ccc(O)c(N2CCOCC2)c1REMARK SMILES IDX 18 1 17 3 11 4 12 5 13 6 16 7 14 8 10 9 2 10 3 11 7 12 4 13REMARK SMILES IDX 6 14 8 15 5 16 9 17 1 18 15 21 19 23 20 24 21 25 32 26 22 27REMARK SMILES IDX 25 28 23 29 26 30 27 31 31 32 28 33 30 34 29 35 24 36REMARK H PARENT 18 2 1 19 1 20 15 22 24 37USER                              x       y       z     vdW  Elec       q    TypeUSER                           _______ _______ _______ _____ _____    ______ ____ROOTATOM      1  N   UNL     1      36.410  44.008  15.008 -0.20 +0.11    -0.308 NA ATOM      2  H   UNL     1      35.397  44.113  15.094 +0.08 -0.05    +0.123 HD ENDROOTBRANCH   1   3ATOM      3  C   UNL     1      37.015  45.321  14.695 -0.39 -0.03    +0.079 C  ATOM      4  C   UNL     1      36.935  46.351  15.878 -0.36 -0.06    +0.107 C  ATOM      5  C   UNL     1      36.233  47.654  15.448 +0.03 -0.04    +0.030 C  ATOM      6  C   UNL     1      36.740  48.278  14.141 -0.50 -0.02    +0.034 C  ATOM      7  C   UNL     1      36.534  45.886  13.344 -0.53 -0.02    +0.052 C  ATOM      8  C   UNL     1      37.151  47.255  13.082 -0.57 -0.04    +0.116 C  BRANCH   4   9ATOM      9  N   UNL     1      38.218  46.472  16.576 -0.19 +0.12    -0.310 N  ATOM     10  C   UNL     1      41.332  47.828  17.458 -0.37 -0.01    +0.155 A  ATOM     11  N   UNL     1      41.442  48.896  16.638 -0.95 -0.00    -0.217 NA ATOM     12  C   UNL     1      40.171  47.039  17.388 -0.38 -0.03    +0.150 A  ATOM     13  C   UNL     1      40.434  49.137  15.774 -0.41 -0.07    +0.226 A  ATOM     14  C   UNL     1      39.216  47.402  16.446 -0.34 -0.06    +0.165 A  ATOM     15  N   UNL     1      39.759  45.946  18.119 -0.28 +0.03    -0.231 NA ATOM     16  N   UNL     1      39.284  48.455  15.615 -0.34 +0.10    -0.217 NA ATOM     17  C   UNL     1      38.582  45.643  17.621 -0.26 -0.04    +0.202 A  BRANCH  10  18ATOM     18  N   UNL     1      42.367  47.580  18.352 -0.30 +0.00    -0.382 N  ATOM     19  H   UNL     1      42.077  46.988  19.119 +0.08 +0.01    +0.158 HD ATOM     20  H   UNL     1      43.251  47.377  17.896 -0.50 -0.02    +0.158 HD ENDBRANCH  10  18ENDBRANCH   4   9BRANCH   8  21ATOM     21  O   UNL     1      38.570  47.137  13.091 -0.27 +0.06    -0.393 OA ATOM     22  H   UNL     1      38.864  47.099  14.017 +0.16 -0.05    +0.210 HD ENDBRANCH   8  21ENDBRANCH   1   3BRANCH   1  23ATOM     23  C   UNL     1      36.903  43.348  16.217 -0.25 -0.04    +0.117 C  BRANCH  23  24ATOM     24  C   UNL     1      35.833  43.339  17.286 -0.33 +0.01    -0.032 A  ATOM     25  C   UNL     1      36.064  43.950  18.532 -0.33 -0.00    +0.009 A  ATOM     26  C   UNL     1      34.593  42.718  17.042 -0.39 -0.01    +0.035 A  ATOM     27  C   UNL     1      35.080  43.939  19.518 -0.36 -0.01    +0.049 A  ATOM     28  C   UNL     1      33.592  42.706  18.018 -0.31 -0.02    +0.080 A  ATOM     29  C   UNL     1      33.867  43.323  19.250 -0.30 -0.01    +0.138 A  BRANCH  28  30ATOM     30  N   UNL     1      32.321  42.102  17.859 -0.10 +0.09    -0.364 N  ATOM     31  C   UNL     1      31.641  42.509  16.602 -0.26 -0.06    +0.145 C  ATOM     32  C   UNL     1      32.412  40.622  17.946 -0.38 -0.03    +0.145 C  ATOM     33  C   UNL     1      30.252  41.851  16.545 -0.26 -0.06    +0.181 C  ATOM     34  C   UNL     1      30.999  40.022  17.841 -0.31 -0.01    +0.181 C  ATOM     35  O   UNL     1      30.350  40.417  16.621 -0.22 +0.06    -0.378 OA ENDBRANCH  28  30BRANCH  29  36ATOM     36  O   UNL     1      32.892  43.315  20.212 -0.72 -0.08    -0.506 OA ATOM     37  H   UNL     1      32.085  43.116  19.688 +0.19 +0.01    +0.293 HD ENDBRANCH  29  36ENDBRANCH  23  24ENDBRANCH   1  23TORSDOF 8TERENDMDL