MODEL        8USER    Run = 8USERUSER    Estimated Free Energy of Binding    =  -9.33 kcal/mol  [=(1)+(2)+(3)-(4)]USERUSER    (1) Final Intermolecular Energy     = -12.31 kcal/molUSER        vdW + Hbond + desolv Energy     = -11.94 kcal/molUSER        Electrostatic Energy            =  -0.37 kcal/molUSER        Moving Ligand-Fixed Receptor    = -12.31 kcal/molUSER        Moving Ligand-Moving Receptor   =  +0.00 kcal/molUSER    (2) Final Total Internal Energy     =  -1.74 kcal/molUSER    (3) Torsional Free Energy           =  +2.98 kcal/molUSER    (4) Unbound System's Energy         =  -1.74 kcal/molUSERUSERREMARK SMILES Nc1ncnc2c1ncn2[C@H]1CC[C@@H](O)C[C@@H]1NCc1ccc(O)c(N2CCN(CC(F)(F)F)CC2)c1REMARK SMILES IDX 19 1 18 2 17 4 11 5 12 6 13 7 16 8 14 9 10 10 2 11 3 12 7 13REMARK SMILES IDX 4 14 6 15 8 16 5 17 9 18 1 19 15 22 20 24 21 25 37 26 22 27REMARK SMILES IDX 25 28 23 29 26 30 27 31 36 32 28 33 35 34 29 35 30 36 31 37REMARK SMILES IDX 32 38 33 39 34 40 24 41REMARK H PARENT 18 3 1 20 1 21 15 23 24 42USER                              x       y       z     vdW  Elec       q    TypeUSER                           _______ _______ _______ _____ _____    ______ ____ROOTATOM      1  C   UNL     1      34.945  45.958  16.242 -0.26 -0.12    +0.117 C  ENDROOTBRANCH   1   2ATOM      2  N   UNL     1      36.086  46.655  16.833 -0.17 +0.26    -0.308 NA ATOM      3  H   UNL     1      35.861  47.640  16.957 +0.00 -0.18    +0.123 HD BRANCH   2   4ATOM      4  C   UNL     1      37.335  46.464  16.065 -0.39 -0.04    +0.079 C  ATOM      5  C   UNL     1      37.962  47.857  15.723 -0.43 -0.07    +0.107 C  ATOM      6  C   UNL     1      37.702  48.273  14.264 -0.59 -0.02    +0.030 C  ATOM      7  C   UNL     1      38.063  47.224  13.203 -0.50 -0.01    +0.034 C  ATOM      8  C   UNL     1      37.022  45.604  14.818 -0.41 -0.02    +0.052 C  ATOM      9  C   UNL     1      38.049  45.785  13.714 -0.33 -0.03    +0.116 C  BRANCH   5  10ATOM     10  N   UNL     1      39.349  47.975  16.177 -0.25 +0.12    -0.310 N  ATOM     11  C   UNL     1      41.955  47.160  18.385 -0.40 -0.00    +0.155 A  ATOM     12  N   UNL     1      41.406  46.193  19.155 -0.32 -0.01    -0.217 NA ATOM     13  C   UNL     1      41.178  47.732  17.365 -0.38 -0.02    +0.150 A  ATOM     14  C   UNL     1      40.120  45.847  18.921 -0.29 -0.01    +0.226 A  ATOM     15  C   UNL     1      39.878  47.272  17.237 -0.34 -0.04    +0.165 A  ATOM     16  N   UNL     1      41.455  48.689  16.412 -0.87 -0.00    -0.231 NA ATOM     17  N   UNL     1      39.279  46.330  17.988 -0.30 +0.04    -0.217 NA ATOM     18  C   UNL     1      40.340  48.804  15.720 -0.43 -0.06    +0.202 A  BRANCH  11  19ATOM     19  N   UNL     1      43.276  47.519  18.627 -0.24 -0.04    -0.382 N  ATOM     20  H   UNL     1      43.360  48.418  19.090 -0.49 -0.01    +0.158 HD ATOM     21  H   UNL     1      43.869  47.342  17.827 -0.46 -0.00    +0.158 HD ENDBRANCH  11  19ENDBRANCH   5  10BRANCH   9  22ATOM     22  O   UNL     1      39.340  45.461  14.212 -0.15 +0.07    -0.393 OA ATOM     23  H   UNL     1      39.356  45.666  15.164 +0.15 -0.04    +0.210 HD ENDBRANCH   9  22ENDBRANCH   2   4ENDBRANCH   1   2BRANCH   1  24ATOM     24  C   UNL     1      34.205  45.175  17.300 -0.32 +0.02    -0.032 A  ATOM     25  C   UNL     1      34.753  44.986  18.573 -0.39 -0.00    +0.009 A  ATOM     26  C   UNL     1      32.957  44.598  17.006 -0.29 -0.02    +0.035 A  ATOM     27  C   UNL     1      34.061  44.244  19.530 -0.36 -0.01    +0.049 A  ATOM     28  C   UNL     1      32.227  43.856  17.954 -0.25 -0.02    +0.079 A  ATOM     29  C   UNL     1      32.815  43.685  19.221 -0.33 -0.01    +0.138 A  BRANCH  28  30ATOM     30  N   UNL     1      30.989  43.329  17.543 -0.06 +0.07    -0.366 N  ATOM     31  C   UNL     1      30.662  41.930  17.872 -0.21 -0.02    +0.132 C  ATOM     32  C   UNL     1      30.642  43.743  16.164 -0.28 -0.05    +0.132 C  ATOM     33  C   UNL     1      30.599  41.025  16.617 -0.30 -0.03    +0.106 C  ATOM     34  C   UNL     1      29.427  42.940  15.646 -0.22 -0.07    +0.106 C  ATOM     35  N   UNL     1      29.680  41.483  15.545 -0.20 +0.13    -0.291 NA BRANCH  35  36ATOM     36  C   UNL     1      28.401  40.728  15.496 -0.29 -0.04    +0.200 C  BRANCH  36  37ATOM     37  C   UNL     1      27.671  40.437  16.826 -0.09 +0.03    +0.401 C  ATOM     38  F   UNL     1      26.407  40.011  16.575 -0.10 -0.03    -0.170 F  ATOM     39  F   UNL     1      28.287  39.469  17.541 -0.09 -0.06    -0.170 F  ATOM     40  F   UNL     1      27.568  41.535  17.608 -0.02 +0.02    -0.170 F  ENDBRANCH  36  37ENDBRANCH  35  36ENDBRANCH  28  30BRANCH  29  41ATOM     41  O   UNL     1      32.191  42.925  20.177 -0.47 -0.09    -0.506 OA ATOM     42  H   UNL     1      31.761  43.515  20.814 +0.19 +0.04    +0.293 HD ENDBRANCH  29  41ENDBRANCH   1  24TORSDOF 10TERENDMDL