MODEL        1USER    Run = 1USERUSER    Estimated Free Energy of Binding    = -11.54 kcal/mol  [=(1)+(2)+(3)-(4)]USERUSER    (1) Final Intermolecular Energy     = -13.93 kcal/molUSER        vdW + Hbond + desolv Energy     = -13.84 kcal/molUSER        Electrostatic Energy            =  -0.09 kcal/molUSER        Moving Ligand-Fixed Receptor    = -13.93 kcal/molUSER        Moving Ligand-Moving Receptor   =  +0.00 kcal/molUSER    (2) Final Total Internal Energy     =  -2.18 kcal/molUSER    (3) Torsional Free Energy           =  +2.39 kcal/molUSER    (4) Unbound System's Energy         =  -2.18 kcal/molUSERUSERREMARK SMILES CC(C)c1cccc(C=c2cc3c(cn2)=C(NCC2CC2)NN=C3)c1CN1CCN(C(=O)N2CCOCC2)CC1REMARK SMILES IDX 9 1 8 2 4 3 5 4 25 5 6 6 7 7 2 8 1 9 3 10 26 11 27 12 28 13REMARK SMILES IDX 40 14 29 15 39 16 30 17 31 18 33 19 34 20 38 21 35 22 37 23REMARK SMILES IDX 36 24 32 25 10 26 11 27 15 28 12 29 14 30 13 31 24 32 16 33REMARK SMILES IDX 23 34 22 35 17 37 18 39 19 40 20 41 21 42REMARK H PARENT 22 36 17 38USER                              x       y       z     vdW  Elec       q    TypeUSER                           _______ _______ _______ _____ _____    ______ ____ROOTATOM      1  C   UNL     1      41.172  44.884  19.367 -0.42 +0.00    +0.036 C  ENDROOTBRANCH   1   2ATOM      2  C   UNL     1      41.604  45.465  20.653 -0.34 -0.00    -0.019 A  ATOM      3  C   UNL     1      41.716  45.528  23.095 -0.15 -0.00    -0.040 A  ATOM      4  C   UNL     1      42.330  46.795  22.995 -0.23 +0.00    +0.004 A  ATOM      5  C   UNL     1      41.406  44.818  21.900 -0.25 -0.00    -0.023 A  ATOM      6  C   UNL     1      42.584  47.385  21.762 -0.27 +0.00    +0.001 A  ATOM      7  C   UNL     1      42.201  46.734  20.597 -0.35 +0.00    +0.008 A  BRANCH   3   8ATOM      8  C   UNL     1      41.399  44.982  24.484 -0.12 +0.00    +0.013 C  ATOM      9  C   UNL     1      42.674  44.588  25.236 -0.06 +0.00    +0.012 C  ATOM     10  C   UNL     1      40.562  45.979  25.303 -0.14 +0.00    +0.012 C  ENDBRANCH   3   8BRANCH   5  11ATOM     11  C   UNL     1      40.845  43.401  21.929 -0.25 +0.00    +0.121 C  BRANCH  11  12ATOM     12  N   UNL     1      39.424  43.325  22.327 -0.11 -0.01    -0.296 NA ATOM     13  C   UNL     1      38.764  44.655  22.341 -0.31 +0.01    +0.106 C  ATOM     14  C   UNL     1      39.287  42.684  23.650 -0.15 +0.01    +0.106 C  ATOM     15  C   UNL     1      37.277  44.526  22.752 -0.23 +0.02    +0.137 C  ATOM     16  C   UNL     1      37.806  42.561  24.076 -0.31 +0.01    +0.137 C  ATOM     17  N   UNL     1      37.140  43.873  24.056 -0.17 -0.04    -0.322 N  ATOM     18  C   UNL     1      37.183  44.702  25.173 -0.19 +0.02    +0.320 C  ATOM     19  N   UNL     1      36.960  44.103  26.404 -0.14 +0.03    -0.320 N  ATOM     20  C   UNL     1      37.189  44.900  27.609 -0.33 -0.02    +0.150 C  ATOM     21  C   UNL     1      35.953  43.046  26.603 -0.41 -0.02    +0.150 C  ATOM     22  C   UNL     1      35.865  45.428  28.169 -0.26 -0.05    +0.181 C  ATOM     23  C   UNL     1      34.674  43.619  27.228 -0.45 -0.03    +0.181 C  ATOM     24  O   UNL     1      34.957  44.341  28.435 -0.39 +0.10    -0.378 OA ATOM     25  O   UNL     1      37.416  45.908  25.080 -0.77 -0.03    -0.248 OA ENDBRANCH  11  12ENDBRANCH   5  11ENDBRANCH   1   2BRANCH   1  26ATOM     26  C   UNL     1      40.456  45.561  18.449 -0.42 -0.00    +0.064 A  ATOM     27  C   UNL     1      41.071  46.656  17.702 -0.47 -0.00    +0.039 A  ATOM     28  N   UNL     1      39.135  45.247  18.205 -0.24 +0.03    -0.256 NA ATOM     29  C   UNL     1      40.365  47.383  16.825 -0.52 -0.00    +0.009 A  ATOM     30  C   UNL     1      38.448  45.963  17.369 -0.31 -0.03    +0.124 A  ATOM     31  C   UNL     1      38.966  47.113  16.599 -0.41 -0.02    +0.044 A  ATOM     32  C   UNL     1      40.945  48.519  16.079 -0.53 -0.02    +0.142 C  ATOM     33  C   UNL     1      38.266  47.887  15.733 -0.43 -0.07    +0.129 C  ATOM     34  N   UNL     1      40.272  49.259  15.251 -0.45 +0.07    -0.182 NA ATOM     35  N   UNL     1      38.962  48.899  15.077 -0.30 +0.15    -0.263 N  ATOM     36  H   UNL     1      38.351  49.588  14.642 -0.39 -0.17    +0.192 HD BRANCH  33  37ATOM     37  N   UNL     1      36.901  47.758  15.497 -0.17 +0.34    -0.370 N  ATOM     38  H   UNL     1      36.313  47.999  16.289 +0.06 -0.24    +0.162 HD BRANCH  37  39ATOM     39  C   UNL     1      36.311  46.684  14.708 -0.39 -0.08    +0.118 C  BRANCH  39  40ATOM     40  C   UNL     1      36.913  46.729  13.335 -0.61 -0.00    +0.008 C  ATOM     41  C   UNL     1      36.475  47.770  12.334 -0.74 -0.00    +0.006 C  ATOM     42  C   UNL     1      36.093  46.331  12.134 -0.72 -0.00    +0.006 C  ENDBRANCH  39  40ENDBRANCH  37  39ENDBRANCH  33  37ENDBRANCH   1  26TORSDOF 8TERENDMDL