REMARK SMILES CC(C)c1cccc(C=c2cc3c(cn2)=C(NCC2CC2)NN=C3)c1CN1CCN(C(=O)N2CCOCC2)CC1
REMARK SMILES IDX 9 1 8 2 4 3 5 4 25 5 6 6 7 7 2 8 1 9 3 10 26 11 27 12 28 13
REMARK SMILES IDX 40 14 29 15 39 16 30 17 31 18 33 19 34 20 38 21 35 22 37 23
REMARK SMILES IDX 36 24 32 25 10 26 11 27 15 28 12 29 14 30 13 31 24 32 16 33
REMARK SMILES IDX 23 34 22 35 17 37 18 39 19 40 20 41 21 42
REMARK H PARENT 22 36 17 38
ROOT
ATOM      1  C   UNL     1       0.516   1.038   1.871  1.00  0.00     0.036 C 
ENDROOT
BRANCH   1   2
ATOM      2  C   UNL     1       0.024   2.155   1.042  1.00  0.00    -0.019 A 
ATOM      3  C   UNL     1      -0.898   3.112  -1.011  1.00  0.00    -0.040 A 
ATOM      4  C   UNL     1      -0.684   4.395  -0.463  1.00  0.00     0.004 A 
ATOM      5  C   UNL     1      -0.600   1.967  -0.219  1.00  0.00    -0.023 A 
ATOM      6  C   UNL     1      -0.139   4.562   0.805  1.00  0.00     0.001 A 
ATOM      7  C   UNL     1       0.236   3.448   1.544  1.00  0.00     0.008 A 
BRANCH   3   8
ATOM      8  C   UNL     1      -1.427   3.012  -2.439  1.00  0.00     0.013 C 
ATOM      9  C   UNL     1      -2.874   3.504  -2.537  1.00  0.00     0.012 C 
ATOM     10  C   UNL     1      -0.521   3.762  -3.429  1.00  0.00     0.012 C 
ENDBRANCH   3   8
BRANCH   5  11
ATOM     11  C   UNL     1      -0.907   0.553  -0.700  1.00  0.00     0.121 C 
BRANCH  11  12
ATOM     12  N   UNL     1      -2.312   0.350  -1.110  1.00  0.00    -0.296 NA
ATOM     13  C   UNL     1      -3.263   0.501   0.019  1.00  0.00     0.106 C 
ATOM     14  C   UNL     1      -2.485  -0.976  -1.737  1.00  0.00     0.106 C 
ATOM     15  C   UNL     1      -4.721   0.291  -0.459  1.00  0.00     0.137 C 
ATOM     16  C   UNL     1      -3.940  -1.202  -2.207  1.00  0.00     0.137 C 
ATOM     17  N   UNL     1      -4.888  -1.017  -1.097  1.00  0.00    -0.322 N 
ATOM     18  C   UNL     1      -5.208  -2.081  -0.259  1.00  0.00     0.320 C 
ATOM     19  N   UNL     1      -5.460  -3.301  -0.868  1.00  0.00    -0.320 N 
ATOM     20  C   UNL     1      -5.606  -4.480  -0.013  1.00  0.00     0.150 C 
ATOM     21  C   UNL     1      -6.205  -3.419  -2.134  1.00  0.00     0.150 C 
ATOM     22  C   UNL     1      -7.085  -4.822   0.188  1.00  0.00     0.181 C 
ATOM     23  C   UNL     1      -7.661  -3.830  -1.876  1.00  0.00     0.181 C 
ATOM     24  O   UNL     1      -7.737  -5.022  -1.081  1.00  0.00    -0.378 OA
ATOM     25  O   UNL     1      -5.257  -1.953   0.965  1.00  0.00    -0.248 OA
ENDBRANCH  11  12
ENDBRANCH   5  11
ENDBRANCH   1   2
BRANCH   1  26
ATOM     26  C   UNL     1       1.799   0.628   1.880  1.00  0.00     0.064 A 
ATOM     27  C   UNL     1       2.212  -0.467   2.754  1.00  0.00     0.039 A 
ATOM     28  N   UNL     1       2.744   1.237   1.081  1.00  0.00    -0.256 NA
ATOM     29  C   UNL     1       3.493  -0.856   2.825  1.00  0.00     0.009 A 
ATOM     30  C   UNL     1       3.987   0.872   1.164  1.00  0.00     0.124 A 
ATOM     31  C   UNL     1       4.510  -0.193   2.045  1.00  0.00     0.044 A 
ATOM     32  C   UNL     1       3.951  -1.935   3.724  1.00  0.00     0.142 C 
ATOM     33  C   UNL     1       5.803  -0.582   2.163  1.00  0.00     0.129 C 
ATOM     34  N   UNL     1       5.191  -2.305   3.835  1.00  0.00    -0.182 NA
ATOM     35  N   UNL     1       6.075  -1.641   3.026  1.00  0.00    -0.263 N 
ATOM     36  H   UNL     1       7.062  -1.724   3.260  1.00  0.00     0.192 HD
BRANCH  33  37
ATOM     37  N   UNL     1       6.867   0.035   1.513  1.00  0.00    -0.370 N 
ATOM     38  H   UNL     1       6.611   0.857   0.975  1.00  0.00     0.162 HD
BRANCH  37  39
ATOM     39  C   UNL     1       7.965  -0.689   0.884  1.00  0.00     0.118 C 
BRANCH  39  40
ATOM     40  C   UNL     1       9.181   0.187   0.918  1.00  0.00     0.008 C 
ATOM     41  C   UNL     1      10.566  -0.414   0.898  1.00  0.00     0.006 C 
ATOM     42  C   UNL     1      10.048   0.233   2.151  1.00  0.00     0.006 C 
ENDBRANCH  39  40
ENDBRANCH  37  39
ENDBRANCH  33  37
ENDBRANCH   1  26
TORSDOF 8
