REMARK SMILES COc1ccc(O)c(C(=O)c2ccc(C(=O)Nc3ccc(F)cc3NC(=O)c3ccnc(N4CCN(C)CC4)c3)cc2)c1F
REMARK SMILES IDX 15 1 16 2 17 3 14 5 11 6 12 7 42 8 13 9 41 10 9 11 10 12
REMARK SMILES IDX 8 13 3 14 4 15 43 16 5 17 6 18 44 19 2 20 1 21 7 22 18 24
REMARK SMILES IDX 19 25 24 26 20 27 23 28 21 29 22 30 25 31 26 32 27 34 28 35
REMARK SMILES IDX 29 36 40 37 30 38 32 39 31 40 33 41 34 42 39 43 35 44 38 45
REMARK SMILES IDX 36 46 37 47
REMARK H PARENT 17 4 7 23 25 33
ROOT
ATOM      1  C   UNL     1      -1.998   1.850  -3.222  1.00  0.00     0.255 C 
ATOM      2  O   UNL     1      -2.742   2.404  -4.020  1.00  0.00    -0.269 OA
ATOM      3  N   UNL     1      -0.811   1.186  -3.475  1.00  0.00    -0.320 N 
ATOM      4  H   UNL     1      -0.471   0.632  -2.710  1.00  0.00     0.170 HD
ENDROOT
BRANCH   1   5
ATOM      5  C   UNL     1      -2.397   1.835  -1.793  1.00  0.00     0.040 A 
ATOM      6  C   UNL     1      -3.200   1.823   0.886  1.00  0.00     0.023 A 
ATOM      7  C   UNL     1      -1.892   2.195   0.543  1.00  0.00     0.013 A 
ATOM      8  C   UNL     1      -4.111   1.473  -0.121  1.00  0.00     0.013 A 
ATOM      9  C   UNL     1      -1.487   2.198  -0.794  1.00  0.00     0.014 A 
ATOM     10  C   UNL     1      -3.710   1.485  -1.460  1.00  0.00     0.014 A 
BRANCH   6  11
ATOM     11  C   UNL     1      -3.585   1.849   2.325  1.00  0.00     0.199 C 
ATOM     12  O   UNL     1      -2.940   2.511   3.136  1.00  0.00    -0.288 OA
BRANCH  11  13
ATOM     13  C   UNL     1      -4.728   1.057   2.798  1.00  0.00     0.104 A 
ATOM     14  C   UNL     1      -5.642  -1.119   3.360  1.00  0.00     0.155 A 
ATOM     15  C   UNL     1      -6.840  -0.501   3.734  1.00  0.00     0.053 A 
ATOM     16  C   UNL     1      -4.589  -0.326   2.894  1.00  0.00     0.179 A 
ATOM     17  C   UNL     1      -6.983   0.889   3.639  1.00  0.00     0.051 A 
ATOM     18  C   UNL     1      -5.926   1.667   3.171  1.00  0.00     0.130 A 
ATOM     19  F   UNL     1      -3.432  -0.906   2.531  1.00  0.00    -0.202 F 
BRANCH  14  20
ATOM     20  O   UNL     1      -5.398  -2.466   3.401  1.00  0.00    -0.494 OA
ATOM     21  C   UNL     1      -6.402  -3.292   3.974  1.00  0.00     0.278 C 
ENDBRANCH  14  20
BRANCH  18  22
ATOM     22  O   UNL     1      -6.075   3.016   3.034  1.00  0.00    -0.507 OA
ATOM     23  H   UNL     1      -6.883   3.306   3.495  1.00  0.00     0.293 HD
ENDBRANCH  18  22
ENDBRANCH  11  13
ENDBRANCH   6  11
ENDBRANCH   1   5
BRANCH   3  24
ATOM     24  C   UNL     1      -0.144   1.044  -4.721  1.00  0.00     0.065 A 
ATOM     25  C   UNL     1      -0.620   1.677  -5.879  1.00  0.00     0.031 A 
ATOM     26  C   UNL     1       1.012   0.219  -4.812  1.00  0.00     0.068 A 
ATOM     27  C   UNL     1       0.006   1.486  -7.110  1.00  0.00     0.041 A 
ATOM     28  C   UNL     1       1.626   0.040  -6.059  1.00  0.00     0.067 A 
ATOM     29  C   UNL     1       1.120   0.669  -7.188  1.00  0.00     0.125 A 
ATOM     30  F   UNL     1       1.728   0.497  -8.369  1.00  0.00    -0.207 F 
BRANCH  26  31
ATOM     31  N   UNL     1       1.547  -0.383  -3.642  1.00  0.00    -0.320 N 
ATOM     32  C   UNL     1       2.459  -1.424  -3.586  1.00  0.00     0.255 C 
ATOM     33  H   UNL     1       1.177  -0.080  -2.757  1.00  0.00     0.170 HD
ATOM     34  O   UNL     1       2.954  -2.039  -4.520  1.00  0.00    -0.269 OA
BRANCH  32  35
ATOM     35  C   UNL     1       2.820  -1.845  -2.212  1.00  0.00     0.045 A 
ATOM     36  C   UNL     1       2.833  -3.201  -1.911  1.00  0.00     0.034 A 
ATOM     37  C   UNL     1       3.171  -0.905  -1.243  1.00  0.00     0.060 A 
ATOM     38  C   UNL     1       3.154  -3.554  -0.619  1.00  0.00     0.114 A 
ATOM     39  C   UNL     1       3.505  -1.346   0.033  1.00  0.00     0.129 A 
ATOM     40  N   UNL     1       3.469  -2.659   0.344  1.00  0.00    -0.239 NA
BRANCH  39  41
ATOM     41  N   UNL     1       3.889  -0.395   1.004  1.00  0.00    -0.354 N 
ATOM     42  C   UNL     1       5.183   0.237   0.632  1.00  0.00     0.133 C 
ATOM     43  C   UNL     1       3.864  -0.910   2.396  1.00  0.00     0.133 C 
ATOM     44  C   UNL     1       5.933   0.763   1.876  1.00  0.00     0.105 C 
ATOM     45  C   UNL     1       5.263  -1.367   2.874  1.00  0.00     0.105 C 
ATOM     46  N   UNL     1       6.310  -0.317   2.813  1.00  0.00    -0.303 NA
ATOM     47  C   UNL     1       6.615   0.226   4.133  1.00  0.00     0.105 C 
ENDBRANCH  39  41
ENDBRANCH  32  35
ENDBRANCH  26  31
ENDBRANCH   3  24
TORSDOF 9
