MODEL        10USER    Run = 10USERUSER    Estimated Free Energy of Binding    = -10.46 kcal/mol  [=(1)+(2)+(3)-(4)]USERUSER    (1) Final Intermolecular Energy     = -13.15 kcal/molUSER        vdW + Hbond + desolv Energy     = -13.01 kcal/molUSER        Electrostatic Energy            =  -0.14 kcal/molUSER        Moving Ligand-Fixed Receptor    = -13.15 kcal/molUSER        Moving Ligand-Moving Receptor   =  +0.00 kcal/molUSER    (2) Final Total Internal Energy     =  -3.87 kcal/molUSER    (3) Torsional Free Energy           =  +2.68 kcal/molUSER    (4) Unbound System's Energy         =  -3.87 kcal/molUSERUSERREMARK SMILES COc1ccc(O)c(C(=O)c2ccc(C(=O)Nc3ccc(F)cc3NC(=O)c3ccnc(N4CCN(C)CC4)c3)cc2)c1FREMARK SMILES IDX 15 1 16 2 17 3 14 5 11 6 12 7 42 8 13 9 41 10 9 11 10 12REMARK SMILES IDX 8 13 3 14 4 15 43 16 5 17 6 18 44 19 2 20 1 21 7 22 18 24REMARK SMILES IDX 19 25 24 26 20 27 23 28 21 29 22 30 25 31 26 32 27 34 28 35REMARK SMILES IDX 29 36 40 37 30 38 32 39 31 40 33 41 34 42 39 43 35 44 38 45REMARK SMILES IDX 36 46 37 47REMARK H PARENT 17 4 7 23 25 33USER                              x       y       z     vdW  Elec       q    TypeUSER                           _______ _______ _______ _____ _____    ______ ____ROOTATOM      1  C   UNL     1      37.441  45.037  16.920 -0.24 -0.08    +0.255 C  ATOM      2  O   UNL     1      38.423  44.309  16.875 -0.11 +0.05    -0.269 OA ATOM      3  N   UNL     1      37.329  46.353  16.507 -0.16 +0.16    -0.320 N  ATOM      4  H   UNL     1      36.499  46.821  16.823 +0.11 -0.13    +0.170 HD ENDROOTBRANCH   1   5ATOM      5  C   UNL     1      36.197  44.492  17.517 -0.29 -0.01    +0.040 A  ATOM      6  C   UNL     1      33.842  43.437  18.595 -0.34 -0.00    +0.023 A  ATOM      7  C   UNL     1      34.267  44.725  18.953 -0.40 -0.00    +0.013 A  ATOM      8  C   UNL     1      34.593  42.685  17.681 -0.38 -0.00    +0.013 A  ATOM      9  C   UNL     1      35.445  45.253  18.419 -0.34 -0.01    +0.014 A  ATOM     10  C   UNL     1      35.767  43.215  17.138 -0.37 -0.00    +0.014 A  BRANCH   6  11ATOM     11  C   UNL     1      32.572  42.926  19.183 -0.31 -0.01    +0.199 C  ATOM     12  O   UNL     1      32.248  43.221  20.331 -0.73 -0.05    -0.288 OA BRANCH  11  13ATOM     13  C   UNL     1      31.702  42.036  18.402 -0.25 -0.01    +0.104 A  ATOM     14  C   UNL     1      30.229  41.736  16.498 -0.24 -0.05    +0.155 A  ATOM     15  C   UNL     1      30.077  40.390  16.848 -0.34 -0.00    +0.053 A  ATOM     16  C   UNL     1      31.049  42.551  17.284 -0.17 -0.05    +0.179 A  ATOM     17  C   UNL     1      30.733  39.869  17.971 -0.34 +0.00    +0.051 A  ATOM     18  C   UNL     1      31.545  40.693  18.747 -0.27 -0.00    +0.130 A  ATOM     19  F   UNL     1      31.204  43.846  16.960 -0.04 +0.05    -0.202 F  BRANCH  14  20ATOM     20  O   UNL     1      29.628  42.351  15.432 -0.07 +0.30    -0.494 OA ATOM     21  C   UNL     1      28.583  43.271  15.716 -0.11 -0.18    +0.278 C  ENDBRANCH  14  20BRANCH  18  22ATOM     22  O   UNL     1      32.150  40.202  19.866 -0.72 -0.15    -0.507 OA ATOM     23  H   UNL     1      32.328  40.929  20.490 +0.28 +0.10    +0.293 HD ENDBRANCH  18  22ENDBRANCH  11  13ENDBRANCH   6  11ENDBRANCH   1   5BRANCH   3  24ATOM     24  C   UNL     1      38.319  47.151  15.874 -0.38 -0.03    +0.065 A  ATOM     25  C   UNL     1      38.062  47.801  14.657 -0.49 -0.02    +0.031 A  ATOM     26  C   UNL     1      39.608  47.274  16.462 -0.44 -0.02    +0.068 A  ATOM     27  C   UNL     1      39.057  48.535  14.012 -0.31 -0.01    +0.041 A  ATOM     28  C   UNL     1      40.594  48.016  15.798 -0.50 -0.01    +0.067 A  ATOM     29  C   UNL     1      40.312  48.633  14.587 -0.44 -0.03    +0.125 A  ATOM     30  F   UNL     1      41.262  49.350  13.973 -0.19 +0.04    -0.207 F  BRANCH  26  31ATOM     31  N   UNL     1      39.872  46.675  17.723 -0.25 +0.05    -0.320 N  ATOM     32  C   UNL     1      40.950  46.930  18.555 -0.33 -0.01    +0.255 C  ATOM     33  H   UNL     1      39.259  45.934  18.019 +0.10 -0.03    +0.170 HD ATOM     34  O   UNL     1      41.887  47.690  18.357 -0.48 +0.01    -0.269 OA BRANCH  32  35ATOM     35  C   UNL     1      40.956  46.136  19.806 -0.35 +0.00    +0.045 A  ATOM     36  C   UNL     1      42.159  45.955  20.476 -0.33 +0.01    +0.034 A  ATOM     37  C   UNL     1      39.775  45.602  20.322 -0.30 +0.00    +0.060 A  ATOM     38  C   UNL     1      42.130  45.195  21.624 -0.22 +0.02    +0.114 A  ATOM     39  C   UNL     1      39.828  44.865  21.500 -0.23 +0.01    +0.129 A  ATOM     40  N   UNL     1      41.003  44.644  22.127 -0.12 -0.02    -0.239 NA BRANCH  39  41ATOM     41  N   UNL     1      38.627  44.350  22.037 -0.12 -0.02    -0.354 N  ATOM     42  C   UNL     1      38.850  42.997  22.612 -0.27 +0.01    +0.133 C  ATOM     43  C   UNL     1      37.474  44.411  21.104 -0.33 +0.00    +0.133 C  ATOM     44  C   UNL     1      37.548  42.166  22.621 -0.44 +0.01    +0.105 C  ATOM     45  C   UNL     1      37.248  43.068  20.368 -0.29 -0.00    +0.105 C  ATOM     46  N   UNL     1      37.030  41.904  21.262 -0.26 -0.01    -0.303 NA ATOM     47  C   UNL     1      35.625  41.511  21.310 -0.20 +0.00    +0.105 C  ENDBRANCH  39  41ENDBRANCH  32  35ENDBRANCH  26  31ENDBRANCH   3  24TORSDOF 9TERENDMDL