MODEL        8USER    Run = 8USERUSER    Estimated Free Energy of Binding    =  -6.96 kcal/mol  [=(1)+(2)+(3)-(4)]USERUSER    (1) Final Intermolecular Energy     = -11.13 kcal/molUSER        vdW + Hbond + desolv Energy     = -11.64 kcal/molUSER        Electrostatic Energy            =  -0.08 kcal/molUSER        Moving Ligand-Fixed Receptor    = -11.72 kcal/molUSER        Moving Ligand-Moving Receptor   =  +0.58 kcal/molUSER    (2) Final Total Internal Energy     =  -2.54 kcal/molUSER    (3) Torsional Free Energy           =  +4.18 kcal/molUSER    (4) Unbound System's Energy         =  -2.54 kcal/molUSERUSERREMARK SMILES COc1ccc(O)c(C(=O)c2ccc(C(=O)N[C@@H]3CCCNC[C@H]3NC(=O)c3ccc(F)nc3)cc2)c1FREMARK SMILES IDX 15 1 16 2 17 3 14 5 11 6 12 7 36 8 13 9 35 10 9 11 10 12REMARK SMILES IDX 8 13 3 14 4 15 37 16 5 17 6 18 38 19 2 20 1 21 7 22 18 24REMARK SMILES IDX 19 25 24 27 23 28 22 29 21 31 20 32 25 34 26 35 27 37 28 38REMARK SMILES IDX 29 39 34 40 30 41 33 42 31 43 32 44REMARK H PARENT 17 4 7 23 22 30 25 36REMARK Flexibility Score:   88.900USER                              x       y       z     vdW  Elec       q    TypeUSER                           _______ _______ _______ _____ _____    ______ ____ROOTATOM      1  C   UNL     1      38.729  44.581  18.557 -0.26 -0.03    +0.251 C  ATOM      2  O   UNL     1      39.872  44.389  18.160 -0.25 +0.01    -0.269 OA ATOM      3  N   UNL     1      37.771  45.249  17.828 -0.15 +0.08    -0.347 N  ATOM      4  H   UNL     1      36.881  45.478  18.256 +0.10 -0.05    +0.164 HD ENDROOTBRANCH   1   5ATOM      5  C   UNL     1      38.312  44.060  19.889 -0.28 -0.00    +0.039 A  ATOM      6  C   UNL     1      37.426  43.034  22.346 -0.39 +0.00    +0.023 A  ATOM      7  C   UNL     1      38.726  43.539  22.220 -0.29 +0.00    +0.013 A  ATOM      8  C   UNL     1      36.561  43.058  21.246 -0.44 +0.00    +0.013 A  ATOM      9  C   UNL     1      39.173  44.040  20.993 -0.25 +0.00    +0.014 A  ATOM     10  C   UNL     1      37.010  43.557  20.020 -0.36 -0.00    +0.014 A  BRANCH   6  11ATOM     11  C   UNL     1      36.985  42.550  23.676 -0.34 +0.01    +0.199 C  ATOM     12  O   UNL     1      36.760  41.348  23.824 -0.31 +0.01    -0.288 OA BRANCH  11  13ATOM     13  C   UNL     1      36.855  43.430  24.856 -0.29 +0.00    +0.104 A  ATOM     14  C   UNL     1      36.934  45.629  25.907 -0.22 -0.01    +0.155 A  ATOM     15  C   UNL     1      36.616  45.050  27.138 -0.32 -0.01    +0.053 A  ATOM     16  C   UNL     1      37.041  44.810  24.774 -0.16 +0.02    +0.179 A  ATOM     17  C   UNL     1      36.392  43.673  27.227 -0.39 -0.01    +0.051 A  ATOM     18  C   UNL     1      36.497  42.874  26.091 -0.31 -0.01    +0.130 A  ATOM     19  F   UNL     1      37.306  45.384  23.589 +0.02 -0.05    -0.202 F  BRANCH  14  20ATOM     20  O   UNL     1      37.154  46.963  25.693 -0.57 -0.02    -0.494 OA ATOM     21  C   UNL     1      38.487  47.370  25.416 -0.21 +0.02    +0.278 C  ENDBRANCH  14  20BRANCH  18  22ATOM     22  O   UNL     1      36.230  41.541  26.258 -0.15 +0.14    -0.507 OA ATOM     23  H   UNL     1      36.637  41.056  25.504 -0.09 -0.11    +0.293 HD ENDBRANCH  18  22ENDBRANCH  11  13ENDBRANCH   6  11ENDBRANCH   1   5BRANCH   3  24ATOM     24  C   UNL     1      38.087  45.983  16.603 -0.37 -0.04    +0.106 C  BRANCH  24  25ATOM     25  C   UNL     1      39.509  46.569  16.679 -0.50 -0.01    +0.028 CG0ATOM     26  G   UNL     1      39.919  47.507  15.542 +0.00 +0.00    +0.000 G0 ENDBRANCH  24  25BRANCH  24  27ATOM     27  C   UNL     1      36.997  47.037  16.253 -0.31 -0.09    +0.118 C  BRANCH  27  28ATOM     28  C   UNL     1      37.370  48.002  15.098 -0.47 -0.08    +0.108 C  BRANCH  28  29ATOM     29  N   UNL     1      38.138  49.213  15.411 -0.21 +0.25    -0.315 NA ATOM     30  H   UNL     1      38.069  49.843  14.608 -0.50 -0.13    +0.122 HD BRANCH  29  31ATOM     31  C   UNL     1      39.546  48.976  15.710 -0.53 -0.04    +0.081 C  BRANCH  31  32ATOM     32  C   UNL     1      39.918  47.507  15.543 -0.57 -0.00    +0.017 CG0ATOM     33  G   UNL     1      39.502  46.576  16.684 +0.00 +0.00    +0.000 G0 ENDBRANCH  31  32ENDBRANCH  29  31ENDBRANCH  28  29ENDBRANCH  27  28BRANCH  27  34ATOM     34  N   UNL     1      35.681  46.425  16.018 -0.13 +0.34    -0.346 N  ATOM     35  C   UNL     1      34.807  46.176  17.054 -0.19 -0.26    +0.253 C  ATOM     36  H   UNL     1      35.445  46.166  15.071 +0.12 -0.14    +0.164 HD ATOM     37  O   UNL     1      35.012  46.528  18.209 -0.44 +0.19    -0.269 OA BRANCH  35  38ATOM     38  C   UNL     1      33.545  45.477  16.720 -0.27 -0.05    +0.058 A  ATOM     39  C   UNL     1      33.077  45.489  15.404 -0.30 -0.02    +0.020 A  ATOM     40  C   UNL     1      32.772  44.827  17.674 -0.22 -0.05    +0.128 A  ATOM     41  C   UNL     1      31.887  44.833  15.094 -0.34 -0.04    +0.061 A  ATOM     42  N   UNL     1      31.617  44.171  17.400 -0.25 +0.05    -0.227 NA ATOM     43  C   UNL     1      31.205  44.192  16.114 -0.19 -0.09    +0.212 A  ATOM     44  F   UNL     1      30.065  43.553  15.819 -0.06 +0.10    -0.185 F  ENDBRANCH  35  38ENDBRANCH  27  34ENDBRANCH  24  27ENDBRANCH   3  24TORSDOF 8TERENDMDL