REMARK SMILES O=C(Nc1ccc(-c2nc3ccc(F)cc3nc2-c2ccc(CN3CCC(n4c(O)nc5ccccc54)CC3)cc2)cc1)C(F)(F)F
REMARK SMILES IDX 19 1 20 2 21 3 22 4 40 5 41 6 18 7 8 8 9 9 10 10 17 11 11 12
REMARK SMILES IDX 16 13 12 14 15 15 13 16 14 17 7 18 4 19 5 20 43 21 6 22
REMARK SMILES IDX 42 23 3 24 2 25 1 26 44 28 45 29 46 30 47 31 23 32 24 33
REMARK SMILES IDX 25 34 39 35 26 36 38 37 27 38 28 39 29 40 37 41 31 42 36 43
REMARK SMILES IDX 32 44 35 45 33 46 34 47 30 48
REMARK H PARENT 3 27 30 49
ROOT
ATOM      1  C   UNL     1       1.934  -2.395  -0.884  1.00  0.00     0.002 A 
ATOM      2  C   UNL     1       1.850  -1.348  -1.818  1.00  0.00     0.011 A 
ATOM      3  C   UNL     1       0.625  -0.744  -2.122  1.00  0.00     0.006 A 
ATOM      4  C   UNL     1      -0.557  -1.187  -1.517  1.00  0.00    -0.034 A 
ATOM      5  C   UNL     1      -0.490  -2.240  -0.599  1.00  0.00     0.006 A 
ATOM      6  C   UNL     1       0.737  -2.835  -0.289  1.00  0.00     0.011 A 
ENDROOT
BRANCH   1   7
ATOM      7  C   UNL     1       3.214  -3.046  -0.545  1.00  0.00     0.097 A 
ATOM      8  C   UNL     1       4.410  -2.379  -0.231  1.00  0.00     0.097 A 
ATOM      9  N   UNL     1       5.565  -3.072  -0.009  1.00  0.00    -0.244 NA
ATOM     10  C   UNL     1       5.507  -4.412  -0.051  1.00  0.00     0.090 A 
ATOM     11  N   UNL     1       3.162  -4.411  -0.578  1.00  0.00    -0.244 NA
ATOM     12  C   UNL     1       6.659  -5.152   0.193  1.00  0.00     0.033 A 
ATOM     13  C   UNL     1       4.296  -5.088  -0.329  1.00  0.00     0.092 A 
ATOM     14  C   UNL     1       6.637  -6.545   0.174  1.00  0.00     0.041 A 
ATOM     15  C   UNL     1       4.280  -6.474  -0.343  1.00  0.00     0.069 A 
ATOM     16  C   UNL     1       5.441  -7.194  -0.093  1.00  0.00     0.125 A 
ATOM     17  F   UNL     1       5.406  -8.532  -0.112  1.00  0.00    -0.207 F 
BRANCH   8  18
ATOM     18  C   UNL     1       4.561  -0.923  -0.063  1.00  0.00     0.003 A 
ATOM     19  C   UNL     1       4.921   1.873   0.292  1.00  0.00     0.041 A 
ATOM     20  C   UNL     1       5.752   1.148  -0.568  1.00  0.00     0.027 A 
ATOM     21  C   UNL     1       3.906   1.197   0.967  1.00  0.00     0.027 A 
ATOM     22  C   UNL     1       5.580  -0.231  -0.736  1.00  0.00     0.012 A 
ATOM     23  C   UNL     1       3.733  -0.184   0.796  1.00  0.00     0.012 A 
BRANCH  19  24
ATOM     24  N   UNL     1       5.168   3.254   0.413  1.00  0.00    -0.318 N 
ATOM     25  C   UNL     1       4.547   4.165   1.272  1.00  0.00     0.330 C 
ATOM     26  O   UNL     1       3.684   3.884   2.104  1.00  0.00    -0.264 OA
ATOM     27  H   UNL     1       5.911   3.631  -0.170  1.00  0.00     0.170 HD
BRANCH  25  28
ATOM     28  C   UNL     1       5.097   5.597   1.106  1.00  0.00     0.471 C 
ATOM     29  F   UNL     1       5.832   5.723  -0.041  1.00  0.00    -0.162 F 
ATOM     30  F   UNL     1       4.122   6.542   1.042  1.00  0.00    -0.162 F 
ATOM     31  F   UNL     1       5.931   5.951   2.121  1.00  0.00    -0.162 F 
ENDBRANCH  25  28
ENDBRANCH  19  24
ENDBRANCH   8  18
ENDBRANCH   1   7
BRANCH   4  32
ATOM     32  C   UNL     1      -1.882  -0.543  -1.867  1.00  0.00     0.120 C 
BRANCH  32  33
ATOM     33  N   UNL     1      -2.010   0.829  -1.353  1.00  0.00    -0.299 NA
ATOM     34  C   UNL     1      -2.072   0.879   0.118  1.00  0.00     0.087 C 
ATOM     35  C   UNL     1      -3.090   1.568  -2.012  1.00  0.00     0.087 C 
ATOM     36  C   UNL     1      -3.189   1.765   0.673  1.00  0.00     0.041 C 
ATOM     37  C   UNL     1      -4.477   1.240  -1.468  1.00  0.00     0.041 C 
ATOM     38  C   UNL     1      -4.530   1.332   0.067  1.00  0.00     0.095 C 
BRANCH  38  39
ATOM     39  N   UNL     1      -5.652   2.130   0.541  1.00  0.00    -0.291 N 
ATOM     40  C   UNL     1      -5.841   3.468   0.338  1.00  0.00     0.295 A 
ATOM     41  C   UNL     1      -6.756   1.668   1.229  1.00  0.00     0.072 A 
ATOM     42  N   UNL     1      -6.965   3.912   0.831  1.00  0.00    -0.195 NA
ATOM     43  C   UNL     1      -7.139   0.410   1.712  1.00  0.00     0.029 A 
ATOM     44  C   UNL     1      -7.552   2.804   1.392  1.00  0.00     0.092 A 
ATOM     45  C   UNL     1      -8.375   0.320   2.365  1.00  0.00     0.002 A 
ATOM     46  C   UNL     1      -8.784   2.694   2.058  1.00  0.00     0.031 A 
ATOM     47  C   UNL     1      -9.186   1.441   2.536  1.00  0.00     0.002 A 
BRANCH  40  48
ATOM     48  O   UNL     1      -5.006   4.254  -0.310  1.00  0.00    -0.480 OA
ATOM     49  H   UNL     1      -5.468   5.111  -0.252  1.00  0.00     0.296 HD
ENDBRANCH  40  48
ENDBRANCH  38  39
ENDBRANCH  32  33
ENDBRANCH   4  32
TORSDOF 8
