MODEL        4USER    Run = 4USERUSER    Estimated Free Energy of Binding    =  -6.99 kcal/mol  [=(1)+(2)+(3)-(4)]USERUSER    (1) Final Intermolecular Energy     = -11.17 kcal/molUSER        vdW + Hbond + desolv Energy     = -12.04 kcal/molUSER        Electrostatic Energy            =  -0.25 kcal/molUSER        Moving Ligand-Fixed Receptor    = -12.28 kcal/molUSER        Moving Ligand-Moving Receptor   =  +1.11 kcal/molUSER    (2) Final Total Internal Energy     =  -2.79 kcal/molUSER    (3) Torsional Free Energy           =  +4.18 kcal/molUSER    (4) Unbound System's Energy         =  -2.79 kcal/molUSERUSERREMARK SMILES COc1ccc(O)c(C(=O)c2ccc(C(=O)N[C@@H]3CCCNC[C@H]3NC(=O)c3cc(F)cnc3F)cc2)c1FREMARK SMILES IDX 15 1 16 2 17 3 14 5 11 6 12 7 37 8 13 9 36 10 9 11 10 12REMARK SMILES IDX 8 13 3 14 4 15 38 16 5 17 6 18 39 19 2 20 1 21 7 22 18 24REMARK SMILES IDX 19 25 24 27 23 28 22 29 21 31 20 32 25 34 26 35 27 37 28 38REMARK SMILES IDX 29 39 34 40 30 41 33 42 32 43 35 44 31 45REMARK H PARENT 17 4 7 23 22 30 25 36REMARK Flexibility Score:   88.900USER                              x       y       z     vdW  Elec       q    TypeUSER                           _______ _______ _______ _____ _____    ______ ____ROOTATOM      1  C   UNL     1      38.559  43.398  22.931 -0.20 +0.02    +0.251 C  ATOM      2  O   UNL     1      38.474  42.175  22.916 -0.23 -0.03    -0.269 OA ATOM      3  N   UNL     1      38.109  44.181  23.976 -0.10 -0.02    -0.347 N  ATOM      4  H   UNL     1      38.574  45.084  24.075 +0.08 +0.01    +0.164 HD ENDROOTBRANCH   1   5ATOM      5  C   UNL     1      39.220  44.113  21.799 -0.27 +0.00    +0.039 A  ATOM      6  C   UNL     1      40.364  45.504  19.643 -0.41 +0.00    +0.023 A  ATOM      7  C   UNL     1      41.155  44.674  20.446 -0.35 +0.00    +0.013 A  ATOM      8  C   UNL     1      39.008  45.670  19.940 -0.26 -0.00    +0.013 A  ATOM      9  C   UNL     1      40.587  43.979  21.518 -0.28 +0.00    +0.014 A  ATOM     10  C   UNL     1      38.440  44.972  21.012 -0.32 +0.00    +0.014 A  BRANCH   6  11ATOM     11  C   UNL     1      41.020  46.248  18.540 -0.41 -0.00    +0.199 C  ATOM     12  O   UNL     1      42.222  46.503  18.624 -0.36 -0.02    -0.288 OA BRANCH  11  13ATOM     13  C   UNL     1      40.290  46.757  17.358 -0.42 -0.01    +0.104 A  ATOM     14  C   UNL     1      38.530  46.563  15.680 -0.30 -0.05    +0.155 A  ATOM     15  C   UNL     1      38.930  47.780  15.125 -0.47 -0.02    +0.053 A  ATOM     16  C   UNL     1      39.222  46.058  16.791 -0.29 -0.04    +0.179 A  ATOM     17  C   UNL     1      40.019  48.471  15.662 -0.53 -0.02    +0.051 A  ATOM     18  C   UNL     1      40.701  47.954  16.760 -0.43 -0.02    +0.130 A  ATOM     19  F   UNL     1      38.854  44.868  17.292 -0.07 +0.03    -0.202 F  BRANCH  14  20ATOM     20  O   UNL     1      37.493  45.789  15.231 -0.05 +0.20    -0.494 OA ATOM     21  C   UNL     1      36.422  46.452  14.571 -0.27 -0.18    +0.278 C  ENDBRANCH  14  20BRANCH  18  22ATOM     22  O   UNL     1      41.776  48.677  17.205 -0.65 -0.05    -0.507 OA ATOM     23  H   UNL     1      42.553  48.073  17.238 -0.30 +0.01    +0.293 HD ENDBRANCH  18  22ENDBRANCH  11  13ENDBRANCH   6  11ENDBRANCH   1   5BRANCH   3  24ATOM     24  C   UNL     1      37.658  43.587  25.243 -0.28 +0.00    +0.106 C  BRANCH  24  25ATOM     25  C   UNL     1      36.285  42.912  25.097 -0.33 +0.00    +0.028 CG0ATOM     26  G   UNL     1      35.993  41.801  26.123 +0.00 +0.00    +0.000 G0 ENDBRANCH  24  25BRANCH  24  27ATOM     27  C   UNL     1      37.658  44.675  26.364 -0.27 -0.01    +0.118 C  BRANCH  27  28ATOM     28  C   UNL     1      37.685  44.127  27.807 -0.32 -0.02    +0.108 C  BRANCH  28  29ATOM     29  N   UNL     1      37.564  42.674  27.937 -0.17 +0.07    -0.315 NA ATOM     30  H   UNL     1      37.784  42.421  28.903 -0.30 -0.04    +0.122 HD BRANCH  29  31ATOM     31  C   UNL     1      36.255  42.120  27.594 -0.47 -0.03    +0.081 C  BRANCH  31  32ATOM     32  C   UNL     1      35.994  41.792  26.120 -0.53 -0.00    +0.017 CG0ATOM     33  G   UNL     1      36.290  42.901  25.093 +0.00 +0.00    +0.000 G0 ENDBRANCH  31  32ENDBRANCH  29  31ENDBRANCH  28  29ENDBRANCH  27  28BRANCH  27  34ATOM     34  N   UNL     1      38.769  45.619  26.169 -0.06 +0.00    -0.346 N  ATOM     35  C   UNL     1      38.675  46.708  25.334 -0.18 +0.02    +0.256 C  ATOM     36  H   UNL     1      39.669  45.313  26.532 +0.05 +0.00    +0.164 HD ATOM     37  O   UNL     1      37.625  47.003  24.766 -0.70 -0.06    -0.269 OA BRANCH  35  38ATOM     38  C   UNL     1      39.885  47.531  25.106 -0.21 +0.01    +0.097 A  ATOM     39  C   UNL     1      40.677  47.269  23.981 -0.23 +0.01    +0.059 A  ATOM     40  C   UNL     1      40.285  48.561  25.951 -0.17 +0.03    +0.225 A  ATOM     41  C   UNL     1      41.811  48.037  23.759 -0.25 +0.02    +0.142 A  ATOM     42  N   UNL     1      41.389  49.325  25.752 -0.23 -0.03    -0.225 NA ATOM     43  C   UNL     1      42.128  49.042  24.655 -0.30 +0.03    +0.153 A  ATOM     44  F   UNL     1      39.564  48.850  27.047 -0.07 -0.02    -0.184 F  ATOM     45  F   UNL     1      42.584  47.807  22.692 -0.10 -0.03    -0.205 F  ENDBRANCH  35  38ENDBRANCH  27  34ENDBRANCH  24  27ENDBRANCH   3  24TORSDOF 8TERENDMDL