MODEL        4USER    Run = 4USERUSER    Estimated Free Energy of Binding    = -10.32 kcal/mol  [=(1)+(2)+(3)-(4)]USERUSER    (1) Final Intermolecular Energy     = -12.71 kcal/molUSER        vdW + Hbond + desolv Energy     = -12.26 kcal/molUSER        Electrostatic Energy            =  -0.45 kcal/molUSER        Moving Ligand-Fixed Receptor    = -12.71 kcal/molUSER        Moving Ligand-Moving Receptor   =  +0.00 kcal/molUSER    (2) Final Total Internal Energy     =  -2.06 kcal/molUSER    (3) Torsional Free Energy           =  +2.39 kcal/molUSER    (4) Unbound System's Energy         =  -2.06 kcal/molUSERUSERREMARK SMILES O=C(Nc1ccc(-c2nc3ccc(F)cc3nc2-c2ccc(CN3CCC(n4c(O)nc5ccccc54)CC3)cc2)cc1)C(F)(F)FREMARK SMILES IDX 19 1 20 2 21 3 22 4 40 5 41 6 18 7 8 8 9 9 10 10 17 11 11 12REMARK SMILES IDX 16 13 12 14 15 15 13 16 14 17 7 18 4 19 5 20 43 21 6 22REMARK SMILES IDX 42 23 3 24 2 25 1 26 44 28 45 29 46 30 47 31 23 32 24 33REMARK SMILES IDX 25 34 39 35 26 36 38 37 27 38 28 39 29 40 37 41 31 42 36 43REMARK SMILES IDX 32 44 35 45 33 46 34 47 30 48REMARK H PARENT 3 27 30 49USER                              x       y       z     vdW  Elec       q    TypeUSER                           _______ _______ _______ _____ _____    ______ ____ROOTATOM      1  C   UNL     1      37.737  28.837  19.391 -0.27 -0.00    +0.002 A  ATOM      2  C   UNL     1      37.375  30.123  19.827 -0.17 -0.00    +0.011 A  ATOM      3  C   UNL     1      36.695  30.315  21.034 -0.35 -0.00    +0.006 A  ATOM      4  C   UNL     1      36.336  29.221  21.830 -0.33 +0.01    -0.034 A  ATOM      5  C   UNL     1      36.674  27.934  21.400 -0.26 -0.00    +0.006 A  ATOM      6  C   UNL     1      37.363  27.746  20.197 -0.20 -0.00    +0.011 A  ENDROOTBRANCH   1   7ATOM      7  C   UNL     1      38.457  28.609  18.123 -0.21 +0.01    +0.097 A  ATOM      8  C   UNL     1      38.008  27.801  17.064 -0.20 -0.01    +0.097 A  ATOM      9  N   UNL     1      38.786  27.590  15.962 -0.14 +0.04    -0.244 NA ATOM     10  C   UNL     1      39.969  28.220  15.902 -0.24 -0.01    +0.090 A  ATOM     11  N   UNL     1      39.659  29.254  18.050 -0.25 -0.09    -0.244 NA ATOM     12  C   UNL     1      40.777  28.047  14.784 -0.35 -0.01    +0.033 A  ATOM     13  C   UNL     1      40.406  29.065  16.949 -0.25 +0.03    +0.092 A  ATOM     14  C   UNL     1      42.005  28.696  14.676 -0.39 -0.02    +0.041 A  ATOM     15  C   UNL     1      41.627  29.711  16.834 -0.23 +0.04    +0.069 A  ATOM     16  C   UNL     1      42.418  29.527  15.707 -0.26 +0.01    +0.125 A  ATOM     17  F   UNL     1      43.595  30.158  15.615 -0.08 -0.04    -0.207 F  BRANCH   8  18ATOM     18  C   UNL     1      36.692  27.145  16.985 -0.29 -0.00    +0.003 A  ATOM     19  C   UNL     1      34.119  25.947  16.845 -0.39 -0.04    +0.041 A  ATOM     20  C   UNL     1      34.519  26.897  15.899 -0.43 -0.01    +0.027 A  ATOM     21  C   UNL     1      35.012  25.593  17.855 -0.21 -0.03    +0.027 A  ATOM     22  C   UNL     1      35.783  27.493  15.974 -0.32 -0.00    +0.012 A  ATOM     23  C   UNL     1      36.279  26.190  17.927 -0.25 -0.01    +0.012 A  BRANCH  19  24ATOM     24  N   UNL     1      32.827  25.404  16.705 -0.22 +0.36    -0.318 N  ATOM     25  C   UNL     1      32.477  24.070  16.475 -0.19 -0.34    +0.330 C  ATOM     26  O   UNL     1      33.269  23.131  16.388 -0.15 +0.25    -0.264 OA ATOM     27  H   UNL     1      32.052  26.052  16.819 -0.44 -0.21    +0.170 HD BRANCH  25  28ATOM     28  C   UNL     1      30.950  23.872  16.382 -0.12 -0.45    +0.471 C  ATOM     29  F   UNL     1      30.550  22.738  17.035 -0.08 +0.15    -0.162 F  ATOM     30  F   UNL     1      30.242  24.897  16.926 -0.18 +0.15    -0.162 F  ATOM     31  F   UNL     1      30.525  23.729  15.098 -0.11 +0.15    -0.162 F  ENDBRANCH  25  28ENDBRANCH  19  24ENDBRANCH   8  18ENDBRANCH   1   7BRANCH   4  32ATOM     32  C   UNL     1      35.581  29.435  23.125 -0.34 -0.01    +0.120 C  BRANCH  32  33ATOM     33  N   UNL     1      36.457  29.788  24.252 -0.13 -0.02    -0.299 NA ATOM     34  C   UNL     1      37.513  30.741  23.871 -0.45 +0.01    +0.087 C  ATOM     35  C   UNL     1      36.960  28.604  24.954 -0.26 +0.01    +0.087 C  ATOM     36  C   UNL     1      38.912  30.362  24.360 -0.38 +0.01    +0.041 C  ATOM     37  C   UNL     1      38.137  27.932  24.255 -0.24 +0.01    +0.041 C  ATOM     38  C   UNL     1      39.245  28.938  23.897 -0.27 +0.03    +0.095 C  BRANCH  38  39ATOM     39  N   UNL     1      40.564  28.495  24.325 -0.16 -0.16    -0.291 N  ATOM     40  C   UNL     1      41.499  27.864  23.554 -0.11 +0.27    +0.295 A  ATOM     41  C   UNL     1      41.130  28.683  25.570 -0.26 +0.04    +0.072 A  ATOM     42  N   UNL     1      42.617  27.629  24.186 -0.20 -0.17    -0.195 NA ATOM     43  C   UNL     1      40.677  29.265  26.761 -0.36 +0.01    +0.029 A  ATOM     44  C   UNL     1      42.408  28.133  25.447 -0.18 +0.06    +0.092 A  ATOM     45  C   UNL     1      41.566  29.291  27.844 -0.31 +0.00    +0.002 A  ATOM     46  C   UNL     1      43.280  28.161  26.547 -0.18 +0.02    +0.031 A  ATOM     47  C   UNL     1      42.846  28.750  27.741 -0.30 +0.00    +0.002 A  BRANCH  40  48ATOM     48  O   UNL     1      41.333  27.537  22.289 -0.61 -0.71    -0.480 OA ATOM     49  H   UNL     1      41.032  26.613  22.370 +0.06 +0.23    +0.296 HD ENDBRANCH  40  48ENDBRANCH  38  39ENDBRANCH  32  33ENDBRANCH   4  32TORSDOF 8TERENDMDL