MODEL        1USER    Run = 1USERUSER    Estimated Free Energy of Binding    = -13.07 kcal/mol  [=(1)+(2)+(3)-(4)]USERUSER    (1) Final Intermolecular Energy     = -15.15 kcal/molUSER        vdW + Hbond + desolv Energy     = -14.90 kcal/molUSER        Electrostatic Energy            =  -0.26 kcal/molUSER        Moving Ligand-Fixed Receptor    = -15.15 kcal/molUSER        Moving Ligand-Moving Receptor   =  +0.00 kcal/molUSER    (2) Final Total Internal Energy     =  -2.45 kcal/molUSER    (3) Torsional Free Energy           =  +2.09 kcal/molUSER    (4) Unbound System's Energy         =  -2.45 kcal/molUSERUSERREMARK SMILES Oc1ccc(-c2nc3ccc(F)cc3nc2-c2ccc(CN3CCC(n4c(O)nc5cc(F)ccc54)CC3)cc2)cc1REMARK SMILES IDX 17 1 18 2 19 3 20 4 39 5 40 6 16 7 6 8 7 9 8 10 15 11 9 12REMARK SMILES IDX 14 13 10 14 13 15 11 16 12 17 5 18 2 19 3 20 42 21 4 22REMARK SMILES IDX 41 23 1 24 21 26 22 27 23 28 38 29 24 30 37 31 25 32 26 33REMARK SMILES IDX 27 34 36 35 29 36 35 37 30 38 34 39 31 40 32 41 33 42 28 43REMARK H PARENT 1 25 28 44USER                              x       y       z     vdW  Elec       q    TypeUSER                           _______ _______ _______ _____ _____    ______ ____ROOTATOM      1  C   UNL     1      36.149  44.681  17.329 -0.32 -0.00    +0.002 A  ATOM      2  C   UNL     1      36.615  43.995  16.195 -0.37 -0.00    +0.011 A  ATOM      3  C   UNL     1      36.576  44.586  14.928 -0.38 -0.00    +0.006 A  ATOM      4  C   UNL     1      36.061  45.877  14.758 -0.37 +0.02    -0.034 A  ATOM      5  C   UNL     1      35.565  46.556  15.875 -0.25 -0.01    +0.006 A  ATOM      6  C   UNL     1      35.607  45.963  17.141 -0.36 -0.01    +0.011 A  ENDROOTBRANCH   1   7ATOM      7  C   UNL     1      36.201  44.086  18.677 -0.28 -0.02    +0.097 A  ATOM      8  C   UNL     1      35.219  43.251  19.232 -0.33 -0.01    +0.097 A  ATOM      9  N   UNL     1      35.322  42.801  20.516 -0.33 -0.01    -0.244 NA ATOM     10  C   UNL     1      36.413  43.153  21.214 -0.36 +0.00    +0.090 A  ATOM     11  N   UNL     1      37.314  44.431  19.388 -0.21 +0.03    -0.244 NA ATOM     12  C   UNL     1      36.562  42.702  22.521 -0.36 +0.00    +0.033 A  ATOM     13  C   UNL     1      37.419  43.970  20.646 -0.33 -0.00    +0.092 A  ATOM     14  C   UNL     1      37.685  43.041  23.275 -0.34 +0.00    +0.041 A  ATOM     15  C   UNL     1      38.532  44.303  21.402 -0.31 +0.00    +0.069 A  ATOM     16  C   UNL     1      38.662  43.841  22.704 -0.23 +0.01    +0.125 A  ATOM     17  F   UNL     1      39.745  44.171  23.419 -0.01 -0.01    -0.207 F  BRANCH   8  18ATOM     18  C   UNL     1      34.022  42.755  18.526 -0.38 -0.00    +0.003 A  ATOM     19  C   UNL     1      31.723  41.848  17.187 -0.22 -0.04    +0.115 A  ATOM     20  C   UNL     1      31.875  43.204  17.444 -0.27 -0.01    +0.047 A  ATOM     21  C   UNL     1      32.689  40.936  17.592 -0.31 -0.02    +0.047 A  ATOM     22  C   UNL     1      33.018  43.650  18.115 -0.32 -0.00    +0.014 A  ATOM     23  C   UNL     1      33.829  41.387  18.263 -0.27 -0.00    +0.014 A  BRANCH  19  24ATOM     24  O   UNL     1      30.626  41.365  16.538 -0.09 +0.18    -0.508 OA ATOM     25  H   UNL     1      30.912  40.975  15.694 -0.40 -0.17    +0.293 HD ENDBRANCH  19  24ENDBRANCH   8  18ENDBRANCH   1   7BRANCH   4  26ATOM     26  C   UNL     1      36.027  46.517  13.386 -0.51 -0.07    +0.120 C  BRANCH  26  27ATOM     27  N   UNL     1      37.035  47.574  13.191 -0.55 +0.12    -0.299 NA ATOM     28  C   UNL     1      38.411  47.077  13.083 -0.15 -0.02    +0.087 C  ATOM     29  C   UNL     1      36.887  48.646  14.188 -0.48 -0.06    +0.087 C  ATOM     30  C   UNL     1      38.998  46.607  14.414 -0.47 -0.01    +0.041 C  ATOM     31  C   UNL     1      38.140  48.930  15.021 -0.43 -0.03    +0.041 C  ATOM     32  C   UNL     1      38.731  47.616  15.545 -0.47 -0.04    +0.095 C  BRANCH  32  33ATOM     33  N   UNL     1      39.892  47.824  16.397 -0.29 +0.08    -0.291 N  ATOM     34  C   UNL     1      40.797  48.845  16.302 -0.30 -0.05    +0.295 A  ATOM     35  C   UNL     1      40.296  47.028  17.450 -0.45 -0.01    +0.072 A  ATOM     36  N   UNL     1      41.743  48.785  17.198 -0.80 -0.02    -0.195 NA ATOM     37  C   UNL     1      39.789  45.854  18.023 -0.43 -0.00    +0.032 A  ATOM     38  C   UNL     1      41.452  47.657  17.926 -0.45 -0.01    +0.095 A  ATOM     39  C   UNL     1      40.493  45.321  19.108 -0.42 +0.00    +0.041 A  ATOM     40  C   UNL     1      42.144  47.109  19.015 -0.48 +0.00    +0.070 A  ATOM     41  C   UNL     1      41.643  45.942  19.587 -0.34 +0.01    +0.125 A  ATOM     42  F   UNL     1      42.288  45.397  20.629 -0.07 -0.05    -0.207 F  BRANCH  34  43ATOM     43  O   UNL     1      40.754  49.802  15.398 -0.35 +0.16    -0.480 OA ATOM     44  H   UNL     1      39.944  50.278  15.659 -0.09 -0.18    +0.296 HD ENDBRANCH  34  43ENDBRANCH  32  33ENDBRANCH  26  27ENDBRANCH   4  26TORSDOF 7TERENDMDL