REMARK SMILES Oc1ccc(-c2nc3ccc(F)cc3nc2-c2ccc(CN3CCC(n4c(O)nc5cc(F)ccc54)CC3)cc2)cc1
REMARK SMILES IDX 17 1 18 2 19 3 20 4 39 5 40 6 16 7 6 8 7 9 8 10 15 11 9 12
REMARK SMILES IDX 14 13 10 14 13 15 11 16 12 17 5 18 2 19 3 20 42 21 4 22
REMARK SMILES IDX 41 23 1 24 21 26 22 27 23 28 38 29 24 30 37 31 25 32 26 33
REMARK SMILES IDX 27 34 36 35 29 36 35 37 30 38 34 39 31 40 32 41 33 42 28 43
REMARK H PARENT 1 25 28 44
ROOT
ATOM      1  C   UNL     1      -2.773   1.002   0.941  1.00  0.00     0.002 A 
ATOM      2  C   UNL     1      -2.450   1.708  -0.230  1.00  0.00     0.011 A 
ATOM      3  C   UNL     1      -1.132   2.086  -0.504  1.00  0.00     0.006 A 
ATOM      4  C   UNL     1      -0.100   1.777   0.390  1.00  0.00    -0.034 A 
ATOM      5  C   UNL     1      -0.415   1.102   1.574  1.00  0.00     0.006 A 
ATOM      6  C   UNL     1      -1.734   0.724   1.845  1.00  0.00     0.011 A 
ENDROOT
BRANCH   1   7
ATOM      7  C   UNL     1      -4.152   0.573   1.239  1.00  0.00     0.097 A 
ATOM      8  C   UNL     1      -4.982  -0.147   0.365  1.00  0.00     0.097 A 
ATOM      9  N   UNL     1      -6.270  -0.443   0.703  1.00  0.00    -0.244 NA
ATOM     10  C   UNL     1      -6.702  -0.055   1.914  1.00  0.00     0.090 A 
ATOM     11  N   UNL     1      -4.593   0.954   2.473  1.00  0.00    -0.244 NA
ATOM     12  C   UNL     1      -8.004  -0.351   2.301  1.00  0.00     0.033 A 
ATOM     13  C   UNL     1      -5.857   0.644   2.807  1.00  0.00     0.092 A 
ATOM     14  C   UNL     1      -8.486   0.029   3.553  1.00  0.00     0.041 A 
ATOM     15  C   UNL     1      -6.343   1.019   4.050  1.00  0.00     0.069 A 
ATOM     16  C   UNL     1      -7.646   0.713   4.418  1.00  0.00     0.125 A 
ATOM     17  F   UNL     1      -8.098   1.081   5.623  1.00  0.00    -0.207 F 
BRANCH   8  18
ATOM     18  C   UNL     1      -4.580  -0.674  -0.953  1.00  0.00     0.003 A 
ATOM     19  C   UNL     1      -3.854  -1.670  -3.480  1.00  0.00     0.115 A 
ATOM     20  C   UNL     1      -5.003  -0.900  -3.352  1.00  0.00     0.047 A 
ATOM     21  C   UNL     1      -3.067  -1.960  -2.373  1.00  0.00     0.047 A 
ATOM     22  C   UNL     1      -5.363  -0.411  -2.092  1.00  0.00     0.014 A 
ATOM     23  C   UNL     1      -3.432  -1.470  -1.116  1.00  0.00     0.014 A 
BRANCH  19  24
ATOM     24  O   UNL     1      -3.463  -2.170  -4.686  1.00  0.00    -0.508 OA
ATOM     25  H   UNL     1      -4.104  -1.888  -5.360  1.00  0.00     0.293 HD
ENDBRANCH  19  24
ENDBRANCH   8  18
ENDBRANCH   1   7
BRANCH   4  26
ATOM     26  C   UNL     1       1.327   2.181   0.087  1.00  0.00     0.120 C 
BRANCH  26  27
ATOM     27  N   UNL     1       1.850   1.637  -1.178  1.00  0.00    -0.299 NA
ATOM     28  C   UNL     1       1.869   0.171  -1.238  1.00  0.00     0.087 C 
ATOM     29  C   UNL     1       3.144   2.244  -1.529  1.00  0.00     0.087 C 
ATOM     30  C   UNL     1       2.966  -0.461  -0.382  1.00  0.00     0.041 C 
ATOM     31  C   UNL     1       4.289   1.248  -1.734  1.00  0.00     0.041 C 
ATOM     32  C   UNL     1       4.321   0.240  -0.579  1.00  0.00     0.095 C 
BRANCH  32  33
ATOM     33  N   UNL     1       5.429  -0.698  -0.685  1.00  0.00    -0.291 N 
ATOM     34  C   UNL     1       5.627  -1.611  -1.683  1.00  0.00     0.295 A 
ATOM     35  C   UNL     1       6.475  -0.843   0.204  1.00  0.00     0.072 A 
ATOM     36  N   UNL     1       6.706  -2.327  -1.524  1.00  0.00    -0.195 NA
ATOM     37  C   UNL     1       6.817  -0.206   1.405  1.00  0.00     0.032 A 
ATOM     38  C   UNL     1       7.252  -1.866  -0.351  1.00  0.00     0.095 A 
ATOM     39  C   UNL     1       7.985  -0.638   2.043  1.00  0.00     0.041 A 
ATOM     40  C   UNL     1       8.419  -2.285   0.302  1.00  0.00     0.070 A 
ATOM     41  C   UNL     1       8.762  -1.655   1.496  1.00  0.00     0.125 A 
ATOM     42  F   UNL     1       9.874  -2.040   2.140  1.00  0.00    -0.207 F 
BRANCH  34  43
ATOM     43  O   UNL     1       4.821  -1.786  -2.710  1.00  0.00    -0.480 OA
ATOM     44  H   UNL     1       5.273  -2.505  -3.190  1.00  0.00     0.296 HD
ENDBRANCH  34  43
ENDBRANCH  32  33
ENDBRANCH  26  27
ENDBRANCH   4  26
TORSDOF 7
