MODEL        2USER    Run = 2USERUSER    Estimated Free Energy of Binding    =  -9.36 kcal/mol  [=(1)+(2)+(3)-(4)]USERUSER    (1) Final Intermolecular Energy     = -11.45 kcal/molUSER        vdW + Hbond + desolv Energy     = -11.22 kcal/molUSER        Electrostatic Energy            =  -0.23 kcal/molUSER        Moving Ligand-Fixed Receptor    = -11.45 kcal/molUSER        Moving Ligand-Moving Receptor   =  +0.00 kcal/molUSER    (2) Final Total Internal Energy     =  -1.09 kcal/molUSER    (3) Torsional Free Energy           =  +2.09 kcal/molUSER    (4) Unbound System's Energy         =  -1.09 kcal/molUSERUSERREMARK SMILES COc1ccc(/C=C/c2n[nH]c3cc(Cl)ccc23)cc1C(=O)NCOREMARK SMILES IDX 3 1 4 2 5 3 6 4 19 5 20 6 2 7 1 8 21 9 23 10 22 11 24 13REMARK SMILES IDX 25 14 7 16 8 17 9 18 10 19 18 20 11 21 17 22 12 23 16 24REMARK SMILES IDX 13 25 14 26 15 28REMARK H PARENT 23 12 25 15 11 27USER                              x       y       z     vdW  Elec       q    TypeUSER                           _______ _______ _______ _____ _____    ______ ____ROOTATOM      1  C   UNL     1      40.280  48.299  15.752 -0.46 -0.03    +0.131 A  ATOM      2  C   UNL     1      39.531  48.508  14.585 -0.49 -0.02    +0.048 A  ATOM      3  C   UNL     1      38.377  47.758  14.327 -0.51 -0.00    +0.012 A  ATOM      4  C   UNL     1      37.938  46.791  15.233 -0.40 +0.01    -0.025 A  ATOM      5  C   UNL     1      38.689  46.571  16.392 -0.40 -0.01    +0.025 A  ATOM      6  C   UNL     1      39.850  47.320  16.671 -0.44 -0.02    +0.082 A  ENDROOTBRANCH   1   7ATOM      7  O   UNL     1      41.419  49.005  16.047 -0.78 +0.01    -0.496 OA ATOM      8  C   UNL     1      41.645  50.229  15.355 -0.44 -0.04    +0.278 C  ENDBRANCH   1   7BRANCH   6   9ATOM      9  C   UNL     1      40.549  46.988  17.958 -0.37 -0.03    +0.256 C  ATOM     10  N   UNL     1      41.872  47.327  18.074 -0.30 +0.02    -0.329 N  ATOM     11  O   UNL     1      39.946  46.421  18.865 -0.31 +0.02    -0.269 OA ATOM     12  H   UNL     1      42.358  47.662  17.251 -0.46 -0.03    +0.166 HD BRANCH  10  13ATOM     13  C   UNL     1      42.649  47.011  19.226 -0.38 +0.04    +0.276 C  BRANCH  13  14ATOM     14  O   UNL     1      43.912  47.599  19.030 -0.32 -0.12    -0.376 OA ATOM     15  H   UNL     1      43.835  48.464  19.469 -0.48 -0.06    +0.212 HD ENDBRANCH  13  14ENDBRANCH  10  13ENDBRANCH   6   9BRANCH   4  16ATOM     16  C   UNL     1      36.752  45.965  14.982 -0.44 -0.01    +0.010 C  BRANCH  16  17ATOM     17  C   UNL     1      35.512  46.276  15.397 -0.38 -0.03    +0.031 C  BRANCH  17  18ATOM     18  C   UNL     1      34.961  45.908  16.671 -0.27 -0.08    +0.093 A  ATOM     19  N   UNL     1      34.933  46.720  17.738 -0.37 +0.17    -0.175 NA ATOM     20  C   UNL     1      34.377  44.639  16.971 -0.29 -0.01    +0.027 A  ATOM     21  N   UNL     1      34.342  45.991  18.695 -0.33 +0.15    -0.277 N  ATOM     22  C   UNL     1      34.134  43.435  16.277 -0.35 -0.01    +0.014 A  ATOM     23  C   UNL     1      33.985  44.731  18.303 -0.33 -0.03    +0.067 A  ATOM     24  C   UNL     1      33.511  42.374  16.949 -0.32 -0.01    +0.021 A  ATOM     25  C   UNL     1      33.362  43.686  18.995 -0.36 -0.01    +0.048 A  ATOM     26  C   UNL     1      33.134  42.504  18.284 -0.34 -0.01    +0.043 A  ATOM     27  H   UNL     1      34.212  46.416  19.606 -0.39 -0.11    +0.190 HD ATOM     28  Cl  UNL     1      32.372  41.180  19.081 -0.52 -0.00    -0.084 Cl ENDBRANCH  17  18ENDBRANCH  16  17ENDBRANCH   4  16TORSDOF 7TERENDMDL