REMARK SMILES COc1ccc(/C=C/c2n[nH]c3cc(Cl)ccc23)cc1C(=O)NCO
REMARK SMILES IDX 3 1 4 2 5 3 6 4 19 5 20 6 2 7 1 8 21 9 23 10 22 11 24 13
REMARK SMILES IDX 25 14 7 16 8 17 9 18 10 19 18 20 11 21 17 22 12 23 16 24
REMARK SMILES IDX 13 25 14 26 15 28
REMARK H PARENT 23 12 25 15 11 27
ROOT
ATOM      1  C   UNL     1      -3.060  -0.698  -0.544  1.00  0.00     0.131 A 
ATOM      2  C   UNL     1      -2.009  -1.451  -1.085  1.00  0.00     0.048 A 
ATOM      3  C   UNL     1      -0.688  -0.991  -1.024  1.00  0.00     0.012 A 
ATOM      4  C   UNL     1      -0.385   0.226  -0.412  1.00  0.00    -0.025 A 
ATOM      5  C   UNL     1      -1.432   0.987   0.118  1.00  0.00     0.025 A 
ATOM      6  C   UNL     1      -2.767   0.537   0.071  1.00  0.00     0.082 A 
ENDROOT
BRANCH   1   7
ATOM      7  O   UNL     1      -4.370  -1.104  -0.582  1.00  0.00    -0.496 OA
ATOM      8  C   UNL     1      -4.687  -2.269  -1.338  1.00  0.00     0.278 C 
ENDBRANCH   1   7
BRANCH   6   9
ATOM      9  C   UNL     1      -3.787   1.448   0.692  1.00  0.00     0.256 C 
ATOM     10  N   UNL     1      -5.068   0.978   0.826  1.00  0.00    -0.329 N 
ATOM     11  O   UNL     1      -3.473   2.579   1.053  1.00  0.00    -0.269 OA
ATOM     12  H   UNL     1      -5.307   0.098   0.385  1.00  0.00     0.166 HD
BRANCH  10  13
ATOM     13  C   UNL     1      -6.128   1.774   1.348  1.00  0.00     0.276 C 
BRANCH  13  14
ATOM     14  O   UNL     1      -6.663   2.489   0.261  1.00  0.00    -0.376 OA
ATOM     15  H   UNL     1      -5.905   3.000  -0.075  1.00  0.00     0.212 HD
ENDBRANCH  13  14
ENDBRANCH  10  13
ENDBRANCH   6   9
BRANCH   4  16
ATOM     16  C   UNL     1       0.982   0.756  -0.357  1.00  0.00     0.010 C 
BRANCH  16  17
ATOM     17  C   UNL     1       2.070   0.015  -0.085  1.00  0.00     0.031 C 
BRANCH  17  18
ATOM     18  C   UNL     1       3.410   0.525  -0.020  1.00  0.00     0.093 A 
ATOM     19  N   UNL     1       3.740   1.800  -0.272  1.00  0.00    -0.175 NA
ATOM     20  C   UNL     1       4.563  -0.251   0.314  1.00  0.00     0.027 A 
ATOM     21  N   UNL     1       5.068   1.841  -0.098  1.00  0.00    -0.277 N 
ATOM     22  C   UNL     1       4.827  -1.593   0.661  1.00  0.00     0.014 A 
ATOM     23  C   UNL     1       5.627   0.643   0.252  1.00  0.00     0.067 A 
ATOM     24  C   UNL     1       6.147  -1.981   0.928  1.00  0.00     0.021 A 
ATOM     25  C   UNL     1       6.953   0.280   0.514  1.00  0.00     0.048 A 
ATOM     26  C   UNL     1       7.187  -1.056   0.854  1.00  0.00     0.043 A 
ATOM     27  H   UNL     1       5.541   2.727  -0.237  1.00  0.00     0.190 HD
ATOM     28  Cl  UNL     1       8.799  -1.566   1.187  1.00  0.00    -0.084 Cl
ENDBRANCH  17  18
ENDBRANCH  16  17
ENDBRANCH   4  16
TORSDOF 7
