MODEL        4USER    Run = 4USERUSER    Estimated Free Energy of Binding    = -12.50 kcal/mol  [=(1)+(2)+(3)-(4)]USERUSER    (1) Final Intermolecular Energy     = -14.29 kcal/molUSER        vdW + Hbond + desolv Energy     = -14.16 kcal/molUSER        Electrostatic Energy            =  -0.13 kcal/molUSER        Moving Ligand-Fixed Receptor    = -14.29 kcal/molUSER        Moving Ligand-Moving Receptor   =  +0.00 kcal/molUSER    (2) Final Total Internal Energy     =  -1.71 kcal/molUSER    (3) Torsional Free Energy           =  +1.79 kcal/molUSER    (4) Unbound System's Energy         =  -1.71 kcal/molUSERUSERREMARK SMILES Oc1nc2ccccc2n1C1CCN(Cc2ccc(-c3cc4ccccc4nc3-c3ccccc3)cc2)CC1REMARK SMILES IDX 11 1 12 2 13 3 14 4 38 5 39 6 10 7 2 8 3 9 4 10 9 11 5 12REMARK SMILES IDX 8 13 6 14 7 15 1 16 15 18 16 19 17 20 37 21 18 22 36 23REMARK SMILES IDX 19 24 20 25 21 26 29 27 22 28 28 29 23 30 27 31 24 32 26 33REMARK SMILES IDX 25 34 30 35 31 36 35 37 32 38 34 39 33 40REMARK H PARENT 1 17USER                              x       y       z     vdW  Elec       q    TypeUSER                           _______ _______ _______ _____ _____    ______ ____ROOTATOM      1  C   UNL     1      30.734  39.942  17.496 -0.34 -0.00    +0.095 C  ATOM      2  C   UNL     1      32.085  40.452  18.019 -0.46 -0.01    +0.041 C  ATOM      3  C   UNL     1      32.109  41.934  18.378 -0.35 -0.01    +0.087 C  ATOM      4  N   UNL     1      31.486  42.804  17.378 -0.11 +0.08    -0.299 NA ATOM      5  C   UNL     1      30.091  42.418  17.153 -0.26 -0.02    +0.087 C  ATOM      6  C   UNL     1      29.899  40.968  16.715 -0.39 -0.01    +0.041 C  ENDROOTBRANCH   1   7ATOM      7  N   UNL     1      29.974  39.159  18.468 -0.19 -0.05    -0.291 N  ATOM      8  C   UNL     1      28.612  38.987  18.399 -0.10 +0.09    +0.295 A  ATOM      9  N   UNL     1      28.122  38.278  19.375 -0.18 -0.02    -0.195 NA ATOM     10  C   UNL     1      29.214  37.953  20.134 -0.27 +0.01    +0.092 A  ATOM     11  C   UNL     1      30.396  38.479  19.592 -0.35 +0.01    +0.072 A  ATOM     12  C   UNL     1      29.259  37.196  21.317 -0.31 -0.00    +0.031 A  ATOM     13  C   UNL     1      31.635  38.253  20.205 -0.47 +0.01    +0.029 A  ATOM     14  C   UNL     1      30.492  36.974  21.935 -0.45 +0.00    +0.002 A  ATOM     15  C   UNL     1      31.659  37.494  21.383 -0.48 +0.00    +0.002 A  BRANCH   8  16ATOM     16  O   UNL     1      27.835  39.475  17.453 -0.05 -0.18    -0.480 OA ATOM     17  H   UNL     1      27.143  39.909  17.985 +0.16 +0.04    +0.296 HD ENDBRANCH   8  16ENDBRANCH   1   7BRANCH   4  18ATOM     18  C   UNL     1      32.286  42.895  16.144 -0.26 -0.06    +0.120 C  BRANCH  18  19ATOM     19  C   UNL     1      33.632  43.554  16.353 -0.32 +0.02    -0.034 A  ATOM     20  C   UNL     1      34.777  42.789  16.604 -0.43 -0.00    +0.006 A  ATOM     21  C   UNL     1      33.751  44.950  16.299 -0.32 -0.00    +0.006 A  ATOM     22  C   UNL     1      36.016  43.408  16.798 -0.37 -0.00    +0.009 A  ATOM     23  C   UNL     1      34.988  45.566  16.502 -0.32 -0.01    +0.009 A  ATOM     24  C   UNL     1      36.137  44.805  16.759 -0.32 +0.01    -0.016 A  BRANCH  24  25ATOM     25  C   UNL     1      37.440  45.455  16.963 -0.35 -0.00    +0.009 A  ATOM     26  C   UNL     1      38.110  45.278  18.183 -0.37 -0.00    +0.021 A  ATOM     27  C   UNL     1      38.090  46.229  15.988 -0.33 -0.03    +0.079 A  ATOM     28  C   UNL     1      39.373  45.841  18.400 -0.43 -0.00    +0.001 A  ATOM     29  N   UNL     1      39.327  46.772  16.181 -0.25 +0.06    -0.247 NA ATOM     30  C   UNL     1      40.063  45.673  19.613 -0.39 -0.00    +0.010 A  ATOM     31  C   UNL     1      39.948  46.586  17.355 -0.43 -0.01    +0.071 A  ATOM     32  C   UNL     1      41.321  46.242  19.795 -0.41 +0.00    +0.001 A  ATOM     33  C   UNL     1      41.204  47.142  17.560 -0.44 -0.00    +0.029 A  ATOM     34  C   UNL     1      41.895  46.979  18.764 -0.54 +0.00    +0.002 A  BRANCH  27  35ATOM     35  C   UNL     1      37.517  46.539  14.664 -0.42 -0.00    +0.001 A  ATOM     36  C   UNL     1      37.105  47.848  14.356 -0.51 -0.01    +0.010 A  ATOM     37  C   UNL     1      37.341  45.548  13.684 -0.45 -0.00    +0.010 A  ATOM     38  C   UNL     1      36.563  48.158  13.105 -0.61 -0.00    +0.001 A  ATOM     39  C   UNL     1      36.798  45.856  12.433 -0.60 -0.00    +0.001 A  ATOM     40  C   UNL     1      36.413  47.163  12.143 -0.69 -0.00    +0.000 A  ENDBRANCH  27  35ENDBRANCH  24  25ENDBRANCH  18  19ENDBRANCH   4  18TORSDOF 6TERENDMDL