MODEL        6USER    Run = 6USERUSER    Estimated Free Energy of Binding    =  -6.61 kcal/mol  [=(1)+(2)+(3)-(4)]USERUSER    (1) Final Intermolecular Energy     = -11.08 kcal/molUSER        vdW + Hbond + desolv Energy     = -11.82 kcal/molUSER        Electrostatic Energy            =  -0.09 kcal/molUSER        Moving Ligand-Fixed Receptor    = -11.91 kcal/molUSER        Moving Ligand-Moving Receptor   =  +0.83 kcal/molUSER    (2) Final Total Internal Energy     =  -2.39 kcal/molUSER    (3) Torsional Free Energy           =  +4.47 kcal/molUSER    (4) Unbound System's Energy         =  -2.39 kcal/molUSERUSERREMARK SMILES COc1ccc(O)c(C(=O)c2ccc(C(=O)O[C@@H]3CCCNC[C@H]3NC(=O)c3ccncc3)cc2)c1FREMARK SMILES IDX 17 1 15 2 16 3 14 4 11 5 12 6 35 7 13 8 34 9 9 10 10 11 8 12REMARK SMILES IDX 3 13 4 14 36 15 5 16 6 17 37 18 2 19 1 20 7 21 18 23 24 25REMARK SMILES IDX 23 26 22 27 21 29 20 30 19 31 25 33 26 34 27 36 28 37 29 38REMARK SMILES IDX 33 39 30 40 32 41 31 42REMARK H PARENT 7 22 22 28 25 35REMARK Flexibility Score:   99.900USER                              x       y       z     vdW  Elec       q    TypeUSER                           _______ _______ _______ _____ _____    ______ ____ROOTATOM      1  O   UNL     1      37.327  43.964  19.594 -0.10 +0.04    -0.457 OA ENDROOTBRANCH   1   2ATOM      2  C   UNL     1      37.170  43.091  20.622 -0.18 -0.00    +0.338 C  ATOM      3  O   UNL     1      36.826  41.921  20.544 -0.34 +0.00    -0.246 OA BRANCH   2   4ATOM      4  C   UNL     1      37.528  43.756  21.899 -0.34 +0.00    +0.060 A  ATOM      5  C   UNL     1      38.270  45.047  24.280 -0.26 +0.00    +0.023 A  ATOM      6  C   UNL     1      37.283  44.052  24.296 -0.33 +0.00    +0.013 A  ATOM      7  C   UNL     1      38.887  45.388  23.067 -0.30 +0.00    +0.013 A  ATOM      8  C   UNL     1      36.914  43.409  23.110 -0.34 +0.00    +0.016 A  ATOM      9  C   UNL     1      38.525  44.739  21.883 -0.34 +0.00    +0.016 A  BRANCH   5  10ATOM     10  C   UNL     1      38.681  45.780  25.508 -0.17 +0.01    +0.199 C  ATOM     11  O   UNL     1      39.735  45.517  26.077 -0.07 -0.01    -0.288 OA BRANCH  10  12ATOM     12  C   UNL     1      37.829  46.835  26.070 -0.27 -0.00    +0.104 A  ATOM     13  C   UNL     1      36.813  49.024  25.827 -0.36 -0.00    +0.155 A  ATOM     14  C   UNL     1      36.267  48.896  27.111 -0.34 -0.00    +0.053 A  ATOM     15  C   UNL     1      37.602  47.985  25.318 -0.29 +0.01    +0.179 A  ATOM     16  C   UNL     1      36.483  47.732  27.860 -0.31 -0.01    +0.051 A  ATOM     17  C   UNL     1      37.257  46.700  27.335 -0.26 -0.02    +0.130 A  ATOM     18  F   UNL     1      38.104  48.083  24.076 -0.15 -0.04    -0.202 F  BRANCH  13  19ATOM     19  O   UNL     1      36.626  50.089  24.987 -0.18 +0.02    -0.494 OA ATOM     20  C   UNL     1      35.883  51.193  25.488 -0.29 +0.01    +0.278 C  ENDBRANCH  13  19BRANCH  17  21ATOM     21  O   UNL     1      37.454  45.554  28.050 -0.09 +0.09    -0.507 OA ATOM     22  H   UNL     1      38.271  45.117  27.763 +0.12 -0.03    +0.293 HD ENDBRANCH  17  21ENDBRANCH  10  12ENDBRANCH   5  10ENDBRANCH   2   4ENDBRANCH   1   2BRANCH   1  23ATOM     23  C   UNL     1      36.141  44.683  19.164 -0.25 -0.04    +0.200 CG0ATOM     24  G   UNL     1      34.954  43.736  19.338 +0.00 +0.00    +0.000 G0 BRANCH  23  25ATOM     25  C   UNL     1      36.386  45.134  17.710 -0.30 -0.05    +0.137 C  BRANCH  25  26ATOM     26  C   UNL     1      35.245  45.972  17.098 -0.35 -0.09    +0.109 C  BRANCH  26  27ATOM     27  N   UNL     1      34.344  46.574  18.082 -0.39 +0.28    -0.315 NA ATOM     28  H   UNL     1      33.860  47.353  17.636 -0.46 -0.24    +0.122 HD BRANCH  27  29ATOM     29  C   UNL     1      33.344  45.678  18.670 -0.33 -0.04    +0.081 C  BRANCH  29  30ATOM     30  C   UNL     1      33.640  44.173  18.683 -0.43 -0.00    +0.019 C  BRANCH  30  31ATOM     31  C   UNL     1      34.959  43.740  19.335 -0.42 -0.01    +0.049 CG0ATOM     32  G   UNL     1      36.143  44.691  19.167 +0.00 +0.00    +0.000 G0 ENDBRANCH  30  31ENDBRANCH  29  30ENDBRANCH  27  29ENDBRANCH  26  27ENDBRANCH  25  26BRANCH  25  33ATOM     33  N   UNL     1      37.651  45.877  17.643 -0.16 +0.11    -0.344 N  ATOM     34  C   UNL     1      38.059  46.531  16.507 -0.28 -0.10    +0.251 C  ATOM     35  H   UNL     1      38.049  46.148  18.532 +0.08 -0.03    +0.164 HD ATOM     36  O   UNL     1      37.443  46.516  15.450 -0.22 +0.14    -0.269 OA BRANCH  34  37ATOM     37  C   UNL     1      39.322  47.298  16.621 -0.43 -0.01    +0.042 A  ATOM     38  C   UNL     1      40.203  46.985  17.654 -0.46 -0.01    +0.034 A  ATOM     39  C   UNL     1      39.618  48.342  15.746 -0.51 -0.01    +0.034 A  ATOM     40  C   UNL     1      41.370  47.719  17.753 -0.43 -0.01    +0.112 A  ATOM     41  C   UNL     1      40.808  49.019  15.935 -0.51 -0.02    +0.112 A  ATOM     42  N   UNL     1      41.692  48.727  16.913 -0.77 -0.02    -0.265 NA ENDBRANCH  34  37ENDBRANCH  25  33ENDBRANCH  23  25ENDBRANCH   1  23TORSDOF 9TERENDMDL