MODEL        5USER    Run = 5USERUSER    Estimated Free Energy of Binding    = -12.67 kcal/mol  [=(1)+(2)+(3)-(4)]USERUSER    (1) Final Intermolecular Energy     = -14.46 kcal/molUSER        vdW + Hbond + desolv Energy     = -14.39 kcal/molUSER        Electrostatic Energy            =  -0.08 kcal/molUSER        Moving Ligand-Fixed Receptor    = -14.46 kcal/molUSER        Moving Ligand-Moving Receptor   =  +0.00 kcal/molUSER    (2) Final Total Internal Energy     =  -2.79 kcal/molUSER    (3) Torsional Free Energy           =  +1.79 kcal/molUSER    (4) Unbound System's Energy         =  -2.79 kcal/molUSERUSERREMARK SMILES Oc1nc2ccccc2n1C1CCN(Cc2ccc(-c3nc4ccccc4nc3-c3ccccc3)cc2)CC1REMARK SMILES IDX 11 1 12 2 13 3 14 4 38 5 39 6 10 7 2 8 3 9 4 10 9 11 5 12REMARK SMILES IDX 8 13 6 14 7 15 1 16 15 18 16 19 17 20 37 21 18 22 36 23REMARK SMILES IDX 19 24 20 25 21 26 29 27 22 28 28 29 23 30 27 31 24 32 26 33REMARK SMILES IDX 25 34 30 35 31 36 35 37 32 38 34 39 33 40REMARK H PARENT 1 17USER                              x       y       z     vdW  Elec       q    TypeUSER                           _______ _______ _______ _____ _____    ______ ____ROOTATOM      1  C   UNL     1      39.081  47.162  15.793 -0.46 -0.03    +0.095 C  ATOM      2  C   UNL     1      38.229  48.436  15.658 -0.48 -0.03    +0.041 C  ATOM      3  C   UNL     1      37.831  48.703  14.206 -0.45 -0.05    +0.087 C  ATOM      4  N   UNL     1      37.386  47.507  13.485 -0.44 +0.12    -0.299 NA ATOM      5  C   UNL     1      38.388  46.429  13.493 -0.24 -0.02    +0.087 C  ATOM      6  C   UNL     1      39.576  46.658  14.432 -0.42 -0.01    +0.041 C  ENDROOTBRANCH   1   7ATOM      7  N   UNL     1      40.150  47.306  16.769 -0.29 +0.06    -0.291 N  ATOM      8  C   UNL     1      41.058  48.326  16.837 -0.28 -0.03    +0.295 A  ATOM      9  N   UNL     1      41.902  48.204  17.822 -0.57 +0.00    -0.195 NA ATOM     10  C   UNL     1      41.525  47.042  18.451 -0.46 -0.00    +0.092 A  ATOM     11  C   UNL     1      40.426  46.454  17.820 -0.44 -0.01    +0.072 A  ATOM     12  C   UNL     1      42.081  46.426  19.583 -0.43 +0.00    +0.031 A  ATOM     13  C   UNL     1      39.844  45.264  18.278 -0.42 -0.00    +0.029 A  ATOM     14  C   UNL     1      41.514  45.235  20.053 -0.37 +0.00    +0.002 A  ATOM     15  C   UNL     1      40.414  44.667  19.409 -0.41 +0.00    +0.002 A  BRANCH   8  16ATOM     16  O   UNL     1      41.097  49.352  16.011 -0.63 +0.06    -0.480 OA ATOM     17  H   UNL     1      41.191  50.096  16.634 +0.15 -0.04    +0.296 HD ENDBRANCH   8  16ENDBRANCH   1   7BRANCH   4  18ATOM     18  C   UNL     1      36.059  47.016  13.896 -0.46 -0.08    +0.120 C  BRANCH  18  19ATOM     19  C   UNL     1      36.066  46.254  15.203 -0.36 +0.03    -0.034 A  ATOM     20  C   UNL     1      36.440  44.906  15.243 -0.36 -0.00    +0.006 A  ATOM     21  C   UNL     1      35.683  46.882  16.395 -0.14 -0.01    +0.006 A  ATOM     22  C   UNL     1      36.448  44.208  16.456 -0.34 -0.00    +0.011 A  ATOM     23  C   UNL     1      35.694  46.183  17.605 -0.34 -0.01    +0.011 A  ATOM     24  C   UNL     1      36.092  44.837  17.660 -0.32 -0.00    +0.002 A  BRANCH  24  25ATOM     25  C   UNL     1      36.126  44.091  18.928 -0.29 -0.02    +0.097 A  ATOM     26  N   UNL     1      37.223  44.359  19.695 -0.22 +0.02    -0.244 NA ATOM     27  C   UNL     1      35.158  43.163  19.345 -0.34 -0.01    +0.097 A  ATOM     28  C   UNL     1      37.357  43.677  20.846 -0.33 -0.00    +0.089 A  ATOM     29  N   UNL     1      35.308  42.467  20.508 -0.33 -0.01    -0.244 NA ATOM     30  C   UNL     1      38.464  43.908  21.654 -0.31 +0.00    +0.030 A  ATOM     31  C   UNL     1      36.397  42.725  21.252 -0.39 +0.00    +0.089 A  ATOM     32  C   UNL     1      38.645  43.220  22.854 -0.30 +0.00    +0.002 A  ATOM     33  C   UNL     1      36.586  42.044  22.449 -0.50 +0.00    +0.030 A  ATOM     34  C   UNL     1      37.700  42.283  23.253 -0.38 +0.00    +0.002 A  BRANCH  27  35ATOM     35  C   UNL     1      33.908  42.856  18.625 -0.38 -0.00    +0.002 A  ATOM     36  C   UNL     1      33.575  41.525  18.317 -0.37 -0.00    +0.010 A  ATOM     37  C   UNL     1      32.998  43.861  18.249 -0.34 -0.00    +0.010 A  ATOM     38  C   UNL     1      32.394  41.210  17.638 -0.36 -0.00    +0.001 A  ATOM     39  C   UNL     1      31.818  43.549  17.567 -0.30 -0.00    +0.001 A  ATOM     40  C   UNL     1      31.518  42.225  17.259 -0.31 -0.00    +0.000 A  ENDBRANCH  27  35ENDBRANCH  24  25ENDBRANCH  18  19ENDBRANCH   4  18TORSDOF 6TERENDMDL