MODEL        9USER    Run = 9USERUSER    Estimated Free Energy of Binding    = -12.72 kcal/mol  [=(1)+(2)+(3)-(4)]USERUSER    (1) Final Intermolecular Energy     = -15.11 kcal/molUSER        vdW + Hbond + desolv Energy     = -14.97 kcal/molUSER        Electrostatic Energy            =  -0.13 kcal/molUSER        Moving Ligand-Fixed Receptor    = -15.11 kcal/molUSER        Moving Ligand-Moving Receptor   =  +0.00 kcal/molUSER    (2) Final Total Internal Energy     =  -2.65 kcal/molUSER    (3) Torsional Free Energy           =  +2.39 kcal/molUSER    (4) Unbound System's Energy         =  -2.65 kcal/molUSERUSERREMARK SMILES N#Cc1cnc(-c2ccc(CNCc3ccc(-c4csnn4)cc3)cc2)c(-c2ccccc2)c1REMARK SMILES IDX 11 1 10 2 7 3 8 4 26 5 9 6 25 7 6 8 3 9 4 10 34 11 5 12REMARK SMILES IDX 27 13 2 14 1 15 28 16 29 17 33 18 30 19 32 20 31 21 12 22REMARK SMILES IDX 13 24 14 25 15 26 24 27 16 28 23 29 17 30 18 31 19 32 22 33REMARK SMILES IDX 20 34 21 35REMARK H PARENT 12 23USER                              x       y       z     vdW  Elec       q    TypeUSER                           _______ _______ _______ _____ _____    ______ ____ROOTATOM      1  C   UNL     1      36.087  43.404  20.478 -0.41 -0.00    +0.117 C  ENDROOTBRANCH   1   2ATOM      2  C   UNL     1      35.249  43.908  19.327 -0.36 +0.01    -0.034 A  ATOM      3  C   UNL     1      33.701  44.844  17.138 -0.32 -0.00    +0.001 A  ATOM      4  C   UNL     1      34.111  45.712  18.165 -0.46 -0.01    +0.011 A  ATOM      5  C   UNL     1      34.069  43.493  17.241 -0.32 -0.00    +0.011 A  ATOM      6  C   UNL     1      34.879  45.255  19.241 -0.18 -0.00    +0.006 A  ATOM      7  C   UNL     1      34.840  43.033  18.315 -0.36 -0.00    +0.006 A  BRANCH   3   8ATOM      8  C   UNL     1      32.892  45.352  16.011 -0.25 -0.06    +0.078 A  ATOM      9  C   UNL     1      31.136  46.213  14.055 -0.52 -0.04    +0.071 A  ATOM     10  C   UNL     1      30.711  45.770  15.292 -0.37 -0.06    +0.131 A  ATOM     11  C   UNL     1      32.507  46.231  13.804 -0.11 -0.03    +0.032 A  ATOM     12  N   UNL     1      31.551  45.350  16.265 -0.69 +0.10    -0.254 NA ATOM     13  C   UNL     1      33.424  45.802  14.784 -0.14 -0.01    +0.009 A  BRANCH   9  14ATOM     14  C   UNL     1      30.193  46.646  13.074 -0.57 -0.05    +0.101 C  ATOM     15  N   UNL     1      29.428  46.999  12.277 -0.79 +0.09    -0.192 NA ENDBRANCH   9  14BRANCH  13  16ATOM     16  C   UNL     1      34.865  45.882  14.489 -0.34 +0.01    -0.016 A  ATOM     17  C   UNL     1      35.388  46.957  13.749 -0.40 -0.01    +0.009 A  ATOM     18  C   UNL     1      35.757  44.900  14.950 -0.33 -0.00    +0.009 A  ATOM     19  C   UNL     1      36.754  47.042  13.470 -0.55 -0.00    +0.001 A  ATOM     20  C   UNL     1      37.123  44.983  14.671 -0.38 -0.00    +0.001 A  ATOM     21  C   UNL     1      37.621  46.053  13.931 -0.44 -0.00    +0.000 A  ENDBRANCH  13  16ENDBRANCH   3   8ENDBRANCH   1   2BRANCH   1  22ATOM     22  N   UNL     1      37.178  44.336  20.764 -0.20 +0.00    -0.309 NA ATOM     23  H   UNL     1      37.335  44.340  21.771 +0.06 +0.01    +0.123 HD BRANCH  22  24ATOM     24  C   UNL     1      38.420  43.956  20.091 -0.23 -0.00    +0.117 C  BRANCH  24  25ATOM     25  C   UNL     1      38.930  45.008  19.134 -0.38 +0.00    -0.034 A  ATOM     26  C   UNL     1      38.114  45.497  18.105 -0.38 -0.00    +0.006 A  ATOM     27  C   UNL     1      40.235  45.500  19.246 -0.44 -0.00    +0.006 A  ATOM     28  C   UNL     1      38.593  46.464  17.214 -0.39 -0.00    +0.011 A  ATOM     29  C   UNL     1      40.714  46.466  18.356 -0.49 -0.00    +0.011 A  ATOM     30  C   UNL     1      39.898  46.966  17.332 -0.48 -0.00    +0.003 A  BRANCH  30  31ATOM     31  C   UNL     1      40.427  47.976  16.420 -0.46 -0.02    +0.105 A  ATOM     32  C   UNL     1      40.012  48.150  15.110 -0.46 -0.03    +0.118 A  ATOM     33  N   UNL     1      41.405  48.877  16.835 -1.01 -0.00    -0.138 NA ATOM     34  S   UNL     1      40.909  49.458  14.454 -0.77 +0.01    -0.020 S  ATOM     35  N   UNL     1      41.751  49.715  15.874 -1.05 -0.01    -0.091 NA ENDBRANCH  30  31ENDBRANCH  24  25ENDBRANCH  22  24ENDBRANCH   1  22TORSDOF 8TERENDMDL