MODEL        8USER    Run = 8USERUSER    Estimated Free Energy of Binding    =  -6.40 kcal/mol  [=(1)+(2)+(3)-(4)]USERUSER    (1) Final Intermolecular Energy     = -10.88 kcal/molUSER        vdW + Hbond + desolv Energy     = -10.96 kcal/molUSER        Electrostatic Energy            =  -0.16 kcal/molUSER        Moving Ligand-Fixed Receptor    = -11.12 kcal/molUSER        Moving Ligand-Moving Receptor   =  +0.24 kcal/molUSER    (2) Final Total Internal Energy     =  -3.55 kcal/molUSER    (3) Torsional Free Energy           =  +4.47 kcal/molUSER    (4) Unbound System's Energy         =  -3.55 kcal/molUSERUSERREMARK SMILES COc1ccc(O)c(C(=O)c2ccc(NC[C@@H]3CCCNC[C@@H]3NC(=O)c3ccncc3)cc2)c1FREMARK SMILES IDX 16 1 15 2 14 4 11 5 12 6 34 7 13 8 33 9 9 10 10 11 8 12 3 13REMARK SMILES IDX 4 14 35 15 5 16 6 17 36 18 2 19 1 20 7 21 17 23 18 24 23 26REMARK SMILES IDX 22 27 21 28 20 30 19 31 24 33 25 34 26 36 27 37 28 38 32 39REMARK SMILES IDX 29 40 31 41 30 42REMARK H PARENT 15 3 7 22 21 29 24 35REMARK Flexibility Score:   99.900USER                              x       y       z     vdW  Elec       q    TypeUSER                           _______ _______ _______ _____ _____    ______ ____ROOTATOM      1  C   UNL     1      40.500  44.248  25.227 -0.11 +0.00    +0.118 C  ENDROOTBRANCH   1   2ATOM      2  N   UNL     1      40.257  45.499  24.504 +0.00 -0.02    -0.385 N  ATOM      3  H   UNL     1      39.375  45.940  24.748 +0.07 +0.01    +0.160 HD BRANCH   2   4ATOM      4  C   UNL     1      40.622  45.678  23.172 -0.19 +0.00    +0.034 A  ATOM      5  C   UNL     1      41.209  46.127  20.440 -0.32 +0.00    +0.023 A  ATOM      6  C   UNL     1      42.193  46.307  21.414 -0.31 +0.00    +0.014 A  ATOM      7  C   UNL     1      39.916  45.778  20.830 -0.26 +0.00    +0.014 A  ATOM      8  C   UNL     1      41.896  46.092  22.766 -0.20 +0.00    +0.026 A  ATOM      9  C   UNL     1      39.632  45.564  22.185 -0.29 +0.00    +0.026 A  BRANCH   5  10ATOM     10  C   UNL     1      41.557  46.398  19.025 -0.41 +0.01    +0.199 C  ATOM     11  O   UNL     1      42.741  46.553  18.718 -0.35 -0.05    -0.288 OA BRANCH  10  12ATOM     12  C   UNL     1      40.547  46.549  17.954 -0.42 -0.01    +0.104 A  ATOM     13  C   UNL     1      38.568  45.783  16.752 -0.28 -0.04    +0.155 A  ATOM     14  C   UNL     1      38.649  46.897  15.914 -0.39 -0.02    +0.053 A  ATOM     15  C   UNL     1      39.527  45.615  17.763 -0.31 -0.02    +0.179 A  ATOM     16  C   UNL     1      39.685  47.820  16.076 -0.48 -0.02    +0.051 A  ATOM     17  C   UNL     1      40.633  47.638  17.079 -0.43 -0.02    +0.130 A  ATOM     18  F   UNL     1      39.463  44.518  18.534 -0.10 +0.01    -0.202 F  BRANCH  13  19ATOM     19  O   UNL     1      37.613  44.804  16.679 -0.07 +0.14    -0.494 OA ATOM     20  C   UNL     1      36.524  44.887  17.591 -0.20 -0.09    +0.278 C  ENDBRANCH  13  19BRANCH  17  21ATOM     21  O   UNL     1      41.634  48.570  17.147 -0.64 -0.02    -0.507 OA ATOM     22  H   UNL     1      42.490  48.090  17.212 -0.28 +0.01    +0.293 HD ENDBRANCH  17  21ENDBRANCH  10  12ENDBRANCH   5  10ENDBRANCH   2   4ENDBRANCH   1   2BRANCH   1  23ATOM     23  C   UNL     1      39.833  44.249  26.626 -0.16 -0.00    +0.032 C  BRANCH  23  24ATOM     24  C   UNL     1      40.413  43.109  27.489 -0.20 -0.00    +0.009 CG0ATOM     25  G   UNL     1      39.815  41.709  27.352 +0.00 +0.00    +0.000 G0 ENDBRANCH  23  24BRANCH  23  26ATOM     26  C   UNL     1      38.293  44.259  26.488 -0.22 -0.00    +0.101 C  BRANCH  26  27ATOM     27  C   UNL     1      37.607  43.635  27.726 -0.34 -0.02    +0.106 C  BRANCH  27  28ATOM     28  N   UNL     1      37.405  42.181  27.660 -0.20 +0.07    -0.315 NA ATOM     29  H   UNL     1      36.602  41.957  28.252 -0.33 -0.06    +0.122 HD BRANCH  28  30ATOM     30  C   UNL     1      38.554  41.423  28.157 -0.38 -0.01    +0.081 C  BRANCH  30  31ATOM     31  C   UNL     1      39.816  41.711  27.352 -0.32 -0.00    +0.016 CG0ATOM     32  G   UNL     1      40.414  43.111  27.491 +0.00 +0.00    +0.000 G0 ENDBRANCH  30  31ENDBRANCH  28  30ENDBRANCH  27  28ENDBRANCH  26  27BRANCH  26  33ATOM     33  N   UNL     1      37.821  43.589  25.279 -0.07 -0.00    -0.348 N  ATOM     34  C   UNL     1      37.402  44.264  24.157 -0.23 +0.03    +0.251 C  ATOM     35  H   UNL     1      37.709  42.586  25.365 +0.10 -0.00    +0.164 HD ATOM     36  O   UNL     1      37.384  45.487  24.082 -0.46 -0.07    -0.269 OA BRANCH  34  37ATOM     37  C   UNL     1      36.934  43.438  23.013 -0.33 +0.01    +0.042 A  ATOM     38  C   UNL     1      36.575  42.113  23.263 -0.44 +0.00    +0.034 A  ATOM     39  C   UNL     1      36.816  43.948  21.719 -0.35 +0.00    +0.034 A  ATOM     40  C   UNL     1      36.135  41.344  22.202 -0.42 +0.00    +0.112 A  ATOM     41  C   UNL     1      36.364  43.096  20.727 -0.36 +0.00    +0.112 A  ATOM     42  N   UNL     1      36.026  41.808  20.938 -0.31 -0.00    -0.265 NA ENDBRANCH  34  37ENDBRANCH  26  33ENDBRANCH  23  26ENDBRANCH   1  23TORSDOF 9TERENDMDL