MODEL        6USER    Run = 6USERUSER    Estimated Free Energy of Binding    = -11.76 kcal/mol  [=(1)+(2)+(3)-(4)]USERUSER    (1) Final Intermolecular Energy     = -14.15 kcal/molUSER        vdW + Hbond + desolv Energy     = -14.07 kcal/molUSER        Electrostatic Energy            =  -0.08 kcal/molUSER        Moving Ligand-Fixed Receptor    = -14.15 kcal/molUSER        Moving Ligand-Moving Receptor   =  +0.00 kcal/molUSER    (2) Final Total Internal Energy     =  -2.61 kcal/molUSER    (3) Torsional Free Energy           =  +2.39 kcal/molUSER    (4) Unbound System's Energy         =  -2.61 kcal/molUSERUSERREMARK SMILES N#Cc1cnc(-c2ccc(CNCc3ccc(-c4csnn4)cc3)cc2)c(-c2ccccc2)c1REMARK SMILES IDX 11 1 10 2 7 3 8 4 26 5 9 6 25 7 6 8 3 9 4 10 34 11 5 12REMARK SMILES IDX 27 13 2 14 1 15 28 16 29 17 33 18 30 19 32 20 31 21 12 22REMARK SMILES IDX 13 24 14 25 15 26 24 27 16 28 23 29 17 30 18 31 19 32 22 33REMARK SMILES IDX 20 34 21 35REMARK H PARENT 12 23USER                              x       y       z     vdW  Elec       q    TypeUSER                           _______ _______ _______ _____ _____    ______ ____ROOTATOM      1  C   UNL     1      38.587  43.389  22.686 -0.28 +0.01    +0.117 C  ENDROOTBRANCH   1   2ATOM      2  C   UNL     1      37.449  43.210  21.710 -0.37 -0.00    -0.034 A  ATOM      3  C   UNL     1      35.285  42.898  19.897 -0.44 -0.00    +0.001 A  ATOM      4  C   UNL     1      35.855  41.791  20.550 -0.41 -0.00    +0.011 A  ATOM      5  C   UNL     1      35.835  44.163  20.160 -0.38 -0.00    +0.011 A  ATOM      6  C   UNL     1      36.917  41.942  21.449 -0.51 +0.00    +0.006 A  ATOM      7  C   UNL     1      36.895  44.319  21.060 -0.36 +0.00    +0.006 A  BRANCH   3   8ATOM      8  C   UNL     1      34.163  42.711  18.955 -0.35 -0.01    +0.078 A  ATOM      9  C   UNL     1      31.952  42.158  17.386 -0.27 -0.02    +0.071 A  ATOM     10  C   UNL     1      32.087  41.680  18.675 -0.27 -0.01    +0.131 A  ATOM     11  C   UNL     1      32.973  42.958  16.878 -0.32 -0.01    +0.032 A  ATOM     12  N   UNL     1      33.155  41.941  19.462 -0.41 -0.02    -0.254 NA ATOM     13  C   UNL     1      34.109  43.259  17.656 -0.33 -0.00    +0.009 A  BRANCH   9  14ATOM     14  C   UNL     1      30.794  41.846  16.612 -0.30 -0.04    +0.101 C  ATOM     15  N   UNL     1      29.854  41.594  15.982 -0.26 +0.07    -0.192 NA ENDBRANCH   9  14BRANCH  13  16ATOM     16  C   UNL     1      35.141  44.146  17.091 -0.30 +0.01    -0.016 A  ATOM     17  C   UNL     1      36.262  43.613  16.430 -0.39 -0.00    +0.009 A  ATOM     18  C   UNL     1      35.027  45.542  17.181 -0.34 -0.01    +0.009 A  ATOM     19  C   UNL     1      37.241  44.449  15.887 -0.34 -0.00    +0.001 A  ATOM     20  C   UNL     1      36.006  46.379  16.640 -0.36 -0.00    +0.001 A  ATOM     21  C   UNL     1      37.113  45.832  15.994 -0.36 -0.00    +0.000 A  ENDBRANCH  13  16ENDBRANCH   3   8ENDBRANCH   1   2BRANCH   1  22ATOM     22  N   UNL     1      39.405  44.543  22.312 -0.10 -0.01    -0.309 NA ATOM     23  H   UNL     1      39.853  44.901  23.153 +0.06 +0.01    +0.123 HD BRANCH  22  24ATOM     24  C   UNL     1      40.438  44.194  21.336 -0.28 +0.01    +0.117 C  BRANCH  24  25ATOM     25  C   UNL     1      40.492  45.136  20.156 -0.37 -0.00    -0.034 A  ATOM     26  C   UNL     1      39.460  45.160  19.210 -0.41 -0.00    +0.006 A  ATOM     27  C   UNL     1      41.587  45.989  19.976 -0.40 +0.00    +0.006 A  ATOM     28  C   UNL     1      39.518  46.027  18.112 -0.43 -0.00    +0.011 A  ATOM     29  C   UNL     1      41.646  46.855  18.880 -0.50 +0.00    +0.011 A  ATOM     30  C   UNL     1      40.609  46.890  17.936 -0.51 -0.00    +0.003 A  BRANCH  30  31ATOM     31  C   UNL     1      40.700  47.807  16.804 -0.46 -0.02    +0.105 A  ATOM     32  C   UNL     1      40.040  47.637  15.598 -0.43 -0.03    +0.118 A  ATOM     33  N   UNL     1      41.468  48.967  16.878 -0.99 -0.00    -0.138 NA ATOM     34  S   UNL     1      40.446  48.970  14.595 -0.77 +0.01    -0.020 S  ATOM     35  N   UNL     1      41.420  49.669  15.759 -1.11 +0.01    -0.091 NA ENDBRANCH  30  31ENDBRANCH  24  25ENDBRANCH  22  24ENDBRANCH   1  22TORSDOF 8TERENDMDL