MODEL        4USER    Run = 4USERUSER    Estimated Free Energy of Binding    = -12.58 kcal/mol  [=(1)+(2)+(3)-(4)]USERUSER    (1) Final Intermolecular Energy     = -14.37 kcal/molUSER        vdW + Hbond + desolv Energy     = -14.32 kcal/molUSER        Electrostatic Energy            =  -0.04 kcal/molUSER        Moving Ligand-Fixed Receptor    = -14.37 kcal/molUSER        Moving Ligand-Moving Receptor   =  +0.00 kcal/molUSER    (2) Final Total Internal Energy     =  -1.04 kcal/molUSER    (3) Torsional Free Energy           =  +1.79 kcal/molUSER    (4) Unbound System's Energy         =  -1.04 kcal/molUSERUSERREMARK SMILES Cn1ccc2ccc3c4[nH]c5c(CCCN[C@H]6CC[C@H](O)CC6)cccc5c4c4c(c3c21)C(=O)NC4=OREMARK SMILES IDX 15 1 14 2 13 3 12 4 2 5 3 6 32 7 4 8 31 9 5 10 30 11 8 12REMARK SMILES IDX 6 13 29 14 33 15 7 16 9 17 28 18 36 19 35 20 10 21 27 22REMARK SMILES IDX 11 23 26 24 25 25 24 26 1 27 34 28 37 29 16 32 17 34 23 35REMARK SMILES IDX 18 36 22 37 19 38 20 39 21 40REMARK H PARENT 35 30 10 31 16 33 21 41USER                              x       y       z     vdW  Elec       q    TypeUSER                           _______ _______ _______ _____ _____    ______ ____ROOTATOM      1  C   UNL     1      38.160  45.771  25.245 -0.28 +0.00    +0.081 C  ENDROOTBRANCH   1   2ATOM      2  C   UNL     1      38.465  45.568  23.758 -0.34 +0.00    +0.020 C  BRANCH   2   3ATOM      3  C   UNL     1      38.817  44.118  23.409 -0.28 +0.00    +0.039 C  BRANCH   3   4ATOM      4  C   UNL     1      37.848  43.460  22.457 -0.35 -0.00    -0.024 A  ATOM      5  N   UNL     1      37.580  46.956  14.524 -0.15 +0.16    -0.350 N  ATOM      6  C   UNL     1      38.448  47.801  13.874 -0.42 -0.03    +0.086 A  ATOM      7  C   UNL     1      38.129  46.521  15.725 -0.36 -0.02    +0.057 A  ATOM      8  C   UNL     1      39.467  48.098  14.738 -0.51 -0.01    +0.028 A  ATOM      9  C   UNL     1      37.745  45.533  16.707 -0.35 -0.01    +0.022 A  ATOM     10  C   UNL     1      39.237  47.364  15.930 -0.48 -0.00    +0.000 A  ATOM     11  C   UNL     1      36.830  44.476  16.576 -0.30 -0.02    +0.063 A  ATOM     12  C   UNL     1      38.395  45.641  17.976 -0.39 -0.00    +0.009 A  ATOM     13  C   UNL     1      39.908  47.355  17.164 -0.47 -0.00    +0.011 A  ATOM     14  C   UNL     1      36.450  43.668  17.654 -0.23 -0.02    +0.063 A  ATOM     15  C   UNL     1      36.206  43.859  15.392 -0.27 -0.10    +0.259 C  ATOM     16  C   UNL     1      39.453  46.536  18.193 -0.35 -0.00    +0.012 A  ATOM     17  C   UNL     1      37.979  44.804  19.059 -0.33 -0.01    +0.055 A  ATOM     18  C   UNL     1      36.989  43.821  18.934 -0.27 -0.00    +0.022 A  ATOM     19  C   UNL     1      35.506  42.668  17.160 -0.27 -0.09    +0.259 C  ATOM     20  N   UNL     1      35.323  42.931  15.843 -0.26 +0.11    -0.288 N  ATOM     21  N   UNL     1      38.406  44.753  20.368 -0.16 +0.00    -0.354 N  ATOM     22  C   UNL     1      36.825  43.201  20.219 -0.39 -0.00    +0.008 A  ATOM     23  C   UNL     1      37.724  43.808  21.096 -0.34 +0.00    +0.050 A  ATOM     24  C   UNL     1      35.996  42.179  20.728 -0.49 +0.00    +0.011 A  ATOM     25  C   UNL     1      36.093  41.806  22.072 -0.48 +0.00    +0.001 A  ATOM     26  C   UNL     1      37.002  42.435  22.916 -0.45 +0.00    +0.006 A  ATOM     27  C   UNL     1      36.210  46.821  14.072 -0.42 -0.10    +0.149 C  ATOM     28  O   UNL     1      36.493  44.043  14.228 -0.25 +0.09    -0.269 OA ATOM     29  O   UNL     1      35.019  41.739  17.770 -0.45 +0.10    -0.269 OA ATOM     30  H   UNL     1      34.870  42.274  15.227 +0.02 -0.07    +0.173 HD ATOM     31  H   UNL     1      39.115  45.352  20.760 +0.08 +0.00    +0.167 HD ENDBRANCH   3   4ENDBRANCH   2   3ENDBRANCH   1   2BRANCH   1  32ATOM     32  N   UNL     1      36.746  45.480  25.491 -0.53 -0.00    -0.314 NA ATOM     33  H   UNL     1      36.216  46.349  25.553 -0.49 -0.01    +0.122 HD BRANCH  32  34ATOM     34  C   UNL     1      36.532  44.674  26.701 -0.38 -0.01    +0.053 C  ATOM     35  C   UNL     1      35.440  43.597  26.524 -0.48 -0.00    +0.021 C  ATOM     36  C   UNL     1      37.895  44.059  27.079 -0.33 -0.00    +0.021 C  ATOM     37  C   UNL     1      36.019  42.244  26.113 -0.49 -0.01    +0.033 C  ATOM     38  C   UNL     1      37.719  42.816  27.941 -0.37 -0.01    +0.033 C  ATOM     39  C   UNL     1      36.988  41.709  27.175 -0.46 -0.03    +0.114 C  BRANCH  39  40ATOM     40  O   UNL     1      36.274  40.921  28.126 -0.38 +0.17    -0.393 OA ATOM     41  H   UNL     1      36.409  41.323  29.002 -0.45 -0.16    +0.210 HD ENDBRANCH  39  40ENDBRANCH  32  34ENDBRANCH   1  32TORSDOF 6TERENDMDL