MODEL        10USER    Run = 10USERUSER    Estimated Free Energy of Binding    =  -7.12 kcal/mol  [=(1)+(2)+(3)-(4)]USERUSER    (1) Final Intermolecular Energy     = -11.59 kcal/molUSER        vdW + Hbond + desolv Energy     = -11.74 kcal/molUSER        Electrostatic Energy            =  -0.25 kcal/molUSER        Moving Ligand-Fixed Receptor    = -11.99 kcal/molUSER        Moving Ligand-Moving Receptor   =  +0.39 kcal/molUSER    (2) Final Total Internal Energy     =  -2.30 kcal/molUSER    (3) Torsional Free Energy           =  +4.47 kcal/molUSER    (4) Unbound System's Energy         =  -2.30 kcal/molUSERUSERREMARK SMILES COc1ccc(O)c(C(=O)c2ccc(CN[C@@H]3CCCNC[C@H]3NC(=O)c3ccncc3)cc2)c1FREMARK SMILES IDX 16 1 15 3 14 4 11 5 12 6 34 7 13 8 33 9 9 10 10 11 8 12 3 13REMARK SMILES IDX 4 14 35 15 5 16 6 17 36 18 2 19 1 20 7 21 17 23 18 24 23 26REMARK SMILES IDX 22 27 21 28 20 30 19 31 24 33 25 34 26 36 27 37 28 38 32 39REMARK SMILES IDX 29 40 31 41 30 42REMARK H PARENT 16 2 7 22 21 29 24 35REMARK Flexibility Score:   99.900USER                              x       y       z     vdW  Elec       q    TypeUSER                           _______ _______ _______ _____ _____    ______ ____ROOTATOM      1  N   UNL     1      36.473  46.186  16.765 -0.17 +0.19    -0.308 NA ATOM      2  H   UNL     1      35.506  46.295  17.079 +0.07 -0.10    +0.123 HD ENDROOTBRANCH   1   3ATOM      3  C   UNL     1      36.791  44.757  16.718 -0.32 -0.04    +0.117 C  BRANCH   3   4ATOM      4  C   UNL     1      35.678  43.871  17.221 -0.30 +0.01    -0.034 A  ATOM      5  C   UNL     1      33.608  42.205  18.144 -0.38 -0.01    +0.023 A  ATOM      6  C   UNL     1      34.184  41.977  16.890 -0.30 -0.01    +0.012 A  ATOM      7  C   UNL     1      34.049  43.281  18.923 -0.37 -0.00    +0.012 A  ATOM      8  C   UNL     1      35.217  42.801  16.438 -0.45 -0.00    +0.006 A  ATOM      9  C   UNL     1      35.081  44.104  18.468 -0.33 -0.00    +0.006 A  BRANCH   5  10ATOM     10  C   UNL     1      32.482  41.385  18.650 -0.31 -0.02    +0.199 C  ATOM     11  O   UNL     1      32.609  40.791  19.723 -0.58 -0.07    -0.288 OA BRANCH  10  12ATOM     12  C   UNL     1      31.176  41.285  17.963 -0.25 -0.02    +0.104 A  ATOM     13  C   UNL     1      29.233  42.304  16.899 -0.15 -0.04    +0.155 A  ATOM     14  C   UNL     1      28.696  41.036  16.672 -0.27 -0.01    +0.053 A  ATOM     15  C   UNL     1      30.477  42.416  17.539 -0.15 -0.04    +0.179 A  ATOM     16  C   UNL     1      29.404  39.895  17.060 -0.33 +0.01    +0.051 A  ATOM     17  C   UNL     1      30.642  40.021  17.685 -0.28 -0.00    +0.130 A  ATOM     18  F   UNL     1      31.002  43.640  17.717 -0.04 +0.03    -0.202 F  BRANCH  13  19ATOM     19  O   UNL     1      28.645  43.489  16.545 -0.02 +0.16    -0.494 OA ATOM     20  C   UNL     1      29.286  44.259  15.536 -0.13 -0.18    +0.278 C  ENDBRANCH  13  19BRANCH  17  21ATOM     21  O   UNL     1      31.286  38.854  18.001 -0.13 -0.05    -0.507 OA ATOM     22  H   UNL     1      31.805  39.011  18.823 +0.21 +0.03    +0.293 HD ENDBRANCH  17  21ENDBRANCH  10  12ENDBRANCH   5  10ENDBRANCH   3   4ENDBRANCH   1   3BRANCH   1  23ATOM     23  C   UNL     1      36.620  46.876  15.455 -0.40 -0.06    +0.077 C  BRANCH  23  24ATOM     24  C   UNL     1      35.370  46.552  14.627 -0.39 -0.02    +0.022 CG0ATOM     25  G   UNL     1      35.325  47.184  13.237 +0.00 +0.00    +0.000 G0 ENDBRANCH  23  24BRANCH  23  26ATOM     26  C   UNL     1      37.951  46.437  14.770 -0.39 -0.04    +0.113 C  BRANCH  26  27ATOM     27  C   UNL     1      38.383  47.427  13.660 -0.44 -0.03    +0.107 C  BRANCH  27  28ATOM     28  N   UNL     1      37.690  47.389  12.376 -0.88 +0.04    -0.315 NA ATOM     29  H   UNL     1      38.318  46.996  11.671 +0.07 -0.00    +0.122 HD BRANCH  28  30ATOM     30  C   UNL     1      36.424  46.673  12.314 -0.68 -0.04    +0.081 C  BRANCH  30  31ATOM     31  C   UNL     1      35.325  47.189  13.239 -0.39 -0.01    +0.017 CG0ATOM     32  G   UNL     1      35.370  46.554  14.628 +0.00 +0.00    +0.000 G0 ENDBRANCH  30  31ENDBRANCH  28  30ENDBRANCH  27  28ENDBRANCH  26  27BRANCH  26  33ATOM     33  N   UNL     1      39.019  46.337  15.784 -0.16 +0.09    -0.346 N  ATOM     34  C   UNL     1      39.554  47.458  16.380 -0.36 -0.07    +0.251 C  ATOM     35  H   UNL     1      39.284  45.412  16.093 +0.11 -0.03    +0.164 HD ATOM     36  O   UNL     1      39.258  48.600  16.050 -0.36 +0.13    -0.269 OA BRANCH  34  37ATOM     37  C   UNL     1      40.557  47.233  17.452 -0.48 -0.01    +0.042 A  ATOM     38  C   UNL     1      40.428  46.090  18.242 -0.46 -0.00    +0.034 A  ATOM     39  C   UNL     1      41.627  48.103  17.666 -0.42 -0.00    +0.034 A  ATOM     40  C   UNL     1      41.362  45.878  19.238 -0.38 +0.01    +0.112 A  ATOM     41  C   UNL     1      42.510  47.799  18.688 -0.42 +0.00    +0.112 A  ATOM     42  N   UNL     1      42.394  46.715  19.483 -0.31 -0.05    -0.265 NA ENDBRANCH  34  37ENDBRANCH  26  33ENDBRANCH  23  26ENDBRANCH   1  23TORSDOF 9TERENDMDL