MODEL        6USER    Run = 6USERUSER    Estimated Free Energy of Binding    =  -7.18 kcal/mol  [=(1)+(2)+(3)-(4)]USERUSER    (1) Final Intermolecular Energy     = -11.36 kcal/molUSER        vdW + Hbond + desolv Energy     = -11.44 kcal/molUSER        Electrostatic Energy            =  -0.40 kcal/molUSER        Moving Ligand-Fixed Receptor    = -11.84 kcal/molUSER        Moving Ligand-Moving Receptor   =  +0.49 kcal/molUSER    (2) Final Total Internal Energy     =  -2.94 kcal/molUSER    (3) Torsional Free Energy           =  +4.18 kcal/molUSER    (4) Unbound System's Energy         =  -2.94 kcal/molUSERUSERREMARK SMILES COc1ccc(O)c(C(=O)c2ccc(C(=O)N[C@@H]3CCCNC[C@H]3NC(=O)c3ccncc3)cc2)c1FREMARK SMILES IDX 15 1 16 2 17 3 14 5 11 6 12 7 35 8 13 9 34 10 9 11 10 12REMARK SMILES IDX 8 13 3 14 4 15 36 16 5 17 6 18 37 19 2 20 1 21 7 22 18 24REMARK SMILES IDX 19 25 24 27 23 28 22 29 21 31 20 32 25 34 26 35 27 37 28 38REMARK SMILES IDX 29 39 33 40 30 41 32 42 31 43REMARK H PARENT 17 4 7 23 22 30 25 36REMARK Flexibility Score:   88.900USER                              x       y       z     vdW  Elec       q    TypeUSER                           _______ _______ _______ _____ _____    ______ ____ROOTATOM      1  C   UNL     1      39.373  46.638  16.455 -0.33 -0.06    +0.251 C  ATOM      2  O   UNL     1      39.229  47.754  15.969 -0.32 +0.10    -0.269 OA ATOM      3  N   UNL     1      38.733  45.514  15.972 -0.10 +0.09    -0.347 N  ATOM      4  H   UNL     1      38.740  44.682  16.546 +0.11 -0.03    +0.164 HD ENDROOTBRANCH   1   5ATOM      5  C   UNL     1      40.212  46.449  17.671 -0.46 -0.00    +0.039 A  ATOM      6  C   UNL     1      41.752  45.959  19.962 -0.39 +0.00    +0.023 A  ATOM      7  C   UNL     1      40.508  45.338  19.807 -0.40 +0.00    +0.013 A  ATOM      8  C   UNL     1      42.225  46.827  18.971 -0.52 +0.00    +0.013 A  ATOM      9  C   UNL     1      39.736  45.592  18.671 -0.43 -0.00    +0.014 A  ATOM     10  C   UNL     1      41.451  47.081  17.831 -0.44 -0.00    +0.014 A  BRANCH   6  11ATOM     11  C   UNL     1      42.566  45.597  21.142 -0.18 +0.06    +0.199 C  ATOM     12  O   UNL     1      42.756  44.401  21.370 -0.16 -0.08    -0.288 OA BRANCH  11  13ATOM     13  C   UNL     1      43.209  46.583  22.042 -0.25 +0.03    +0.104 A  ATOM     14  C   UNL     1      43.119  48.529  23.511 -0.27 +0.04    +0.155 A  ATOM     15  C   UNL     1      44.492  48.416  23.748 -0.24 +0.01    +0.053 A  ATOM     16  C   UNL     1      42.489  47.606  22.659 -0.20 +0.03    +0.179 A  ATOM     17  C   UNL     1      45.219  47.379  23.157 -0.21 +0.02    +0.051 A  ATOM     18  C   UNL     1      44.578  46.465  22.324 -0.18 +0.08    +0.130 A  ATOM     19  F   UNL     1      41.163  47.708  22.472 +0.18 -0.02    -0.202 F  BRANCH  14  20ATOM     20  O   UNL     1      42.301  49.490  24.044 -0.66 -0.18    -0.494 OA ATOM     21  C   UNL     1      41.573  49.145  25.219 -0.24 +0.05    +0.278 C  ENDBRANCH  14  20BRANCH  18  22ATOM     22  O   UNL     1      45.364  45.465  21.815 -0.14 -0.73    -0.507 OA ATOM     23  H   UNL     1      44.847  44.626  21.871 +0.11 +0.24    +0.293 HD ENDBRANCH  18  22ENDBRANCH  11  13ENDBRANCH   6  11ENDBRANCH   1   5BRANCH   3  24ATOM     24  C   UNL     1      37.673  45.626  14.962 -0.36 -0.04    +0.106 C  BRANCH  24  25ATOM     25  C   UNL     1      38.159  46.493  13.794 -0.47 -0.01    +0.028 CG0ATOM     26  G   UNL     1      37.180  47.578  13.317 +0.00 +0.00    +0.000 G0 ENDBRANCH  24  25BRANCH  24  27ATOM     27  C   UNL     1      36.354  46.128  15.615 -0.35 -0.08    +0.118 C  BRANCH  27  28ATOM     28  C   UNL     1      35.078  45.893  14.772 -0.36 -0.09    +0.108 C  BRANCH  28  29ATOM     29  N   UNL     1      34.787  46.865  13.714 -0.16 +0.28    -0.315 NA ATOM     30  H   UNL     1      33.931  46.604  13.229 -0.37 -0.11    +0.122 HD BRANCH  29  31ATOM     31  C   UNL     1      35.851  47.100  12.744 -0.63 -0.05    +0.081 C  BRANCH  31  32ATOM     32  C   UNL     1      37.183  47.577  13.318 -0.64 -0.01    +0.017 CG0ATOM     33  G   UNL     1      38.160  46.492  13.800 +0.00 +0.00    +0.000 G0 ENDBRANCH  31  32ENDBRANCH  29  31ENDBRANCH  28  29ENDBRANCH  27  28BRANCH  27  34ATOM     34  N   UNL     1      36.208  45.559  16.962 -0.11 +0.18    -0.346 N  ATOM     35  C   UNL     1      36.513  44.244  17.225 -0.22 -0.08    +0.251 C  ATOM     36  H   UNL     1      36.150  46.209  17.730 +0.10 -0.09    +0.164 HD ATOM     37  O   UNL     1      36.834  43.436  16.364 -0.27 +0.08    -0.269 OA BRANCH  35  38ATOM     38  C   UNL     1      36.466  43.829  18.649 -0.29 -0.01    +0.042 A  ATOM     39  C   UNL     1      35.780  42.659  18.974 -0.33 -0.00    +0.034 A  ATOM     40  C   UNL     1      37.059  44.587  19.660 -0.28 -0.00    +0.034 A  ATOM     41  C   UNL     1      35.736  42.281  20.302 -0.38 -0.00    +0.112 A  ATOM     42  C   UNL     1      36.956  44.123  20.959 -0.32 +0.00    +0.112 A  ATOM     43  N   UNL     1      36.313  42.983  21.300 -0.26 -0.01    -0.265 NA ENDBRANCH  35  38ENDBRANCH  27  34ENDBRANCH  24  27ENDBRANCH   3  24TORSDOF 8TERENDMDL