MODEL        7USER    Run = 7USERUSER    Estimated Free Energy of Binding    =  -7.02 kcal/mol  [=(1)+(2)+(3)-(4)]USERUSER    (1) Final Intermolecular Energy     = -11.49 kcal/molUSER        vdW + Hbond + desolv Energy     = -11.34 kcal/molUSER        Electrostatic Energy            =  -0.22 kcal/molUSER        Moving Ligand-Fixed Receptor    = -11.55 kcal/molUSER        Moving Ligand-Moving Receptor   =  +0.06 kcal/molUSER    (2) Final Total Internal Energy     =  -2.55 kcal/molUSER    (3) Torsional Free Energy           =  +4.47 kcal/molUSER    (4) Unbound System's Energy         =  -2.55 kcal/molUSERUSERREMARK SMILES COc1ccc(O)c(C(=O)c2ccc(CO[C@@H]3CCCNC[C@@H]3NC(=O)c3ccncc3)cc2)c1FREMARK SMILES IDX 16 1 15 2 14 3 11 4 12 5 34 6 13 7 33 8 9 9 10 10 8 11 3 12REMARK SMILES IDX 4 13 35 14 5 15 6 16 36 17 2 18 1 19 7 20 17 22 18 23 23 25REMARK SMILES IDX 22 26 21 27 20 29 19 30 24 32 25 33 26 35 27 36 28 37 32 38REMARK SMILES IDX 29 39 31 40 30 41REMARK H PARENT 7 21 21 28 24 34REMARK Flexibility Score:   99.900USER                              x       y       z     vdW  Elec       q    TypeUSER                           _______ _______ _______ _____ _____    ______ ____ROOTATOM      1  O   UNL     1      37.288  44.797  18.777 -0.17 +0.06    -0.371 OA ENDROOTBRANCH   1   2ATOM      2  C   UNL     1      37.397  43.509  19.379 -0.03 -0.02    +0.196 C  BRANCH   2   3ATOM      3  C   UNL     1      37.296  43.677  20.873 -0.38 -0.00    -0.022 A  ATOM      4  C   UNL     1      37.074  43.986  23.657 -0.28 +0.00    +0.023 A  ATOM      5  C   UNL     1      36.558  42.845  23.037 -0.29 +0.00    +0.012 A  ATOM      6  C   UNL     1      37.730  44.956  22.891 -0.26 +0.00    +0.012 A  ATOM      7  C   UNL     1      36.663  42.697  21.652 -0.45 +0.00    +0.007 A  ATOM      8  C   UNL     1      37.835  44.805  21.507 -0.31 +0.00    +0.007 A  BRANCH   4   9ATOM      9  C   UNL     1      37.016  44.171  25.127 -0.26 +0.01    +0.199 C  ATOM     10  O   UNL     1      37.139  45.306  25.593 -0.41 -0.00    -0.288 OA BRANCH   9  11ATOM     11  C   UNL     1      36.880  43.049  26.080 -0.30 -0.01    +0.104 A  ATOM     12  C   UNL     1      37.752  41.055  27.180 -0.33 -0.02    +0.155 A  ATOM     13  C   UNL     1      36.571  40.949  27.918 -0.45 -0.02    +0.053 A  ATOM     14  C   UNL     1      37.891  42.105  26.260 -0.23 -0.01    +0.179 A  ATOM     15  C   UNL     1      35.538  41.869  27.722 -0.53 -0.02    +0.051 A  ATOM     16  C   UNL     1      35.688  42.902  26.800 -0.39 -0.02    +0.130 A  ATOM     17  F   UNL     1      39.017  42.176  25.531 -0.05 -0.01    -0.202 F  BRANCH  12  18ATOM     18  O   UNL     1      38.822  40.207  27.273 -0.13 -0.01    -0.494 OA ATOM     19  C   UNL     1      39.946  40.653  28.021 -0.20 -0.00    +0.278 C  ENDBRANCH  12  18BRANCH  16  20ATOM     20  O   UNL     1      34.617  43.741  26.647 -0.13 +0.07    -0.507 OA ATOM     21  H   UNL     1      34.956  44.607  26.320 -0.17 -0.12    +0.293 HD ENDBRANCH  16  20ENDBRANCH   9  11ENDBRANCH   4   9ENDBRANCH   2   3ENDBRANCH   1   2BRANCH   1  22ATOM     22  C   UNL     1      35.975  45.072  18.242 -0.30 -0.05    +0.142 C  BRANCH  22  23ATOM     23  C   UNL     1      35.423  43.696  17.842 -0.35 -0.01    +0.035 CG0ATOM     24  G   UNL     1      36.178  42.861  16.814 +0.00 +0.00    +0.000 G0 ENDBRANCH  22  23BRANCH  22  25ATOM     25  C   UNL     1      36.094  46.112  17.102 -0.33 -0.08    +0.125 C  BRANCH  25  26ATOM     26  C   UNL     1      35.464  45.575  15.793 -0.32 -0.08    +0.108 C  BRANCH  26  27ATOM     27  N   UNL     1      36.242  44.592  15.043 -0.16 +0.13    -0.315 NA ATOM     28  H   UNL     1      37.234  44.780  15.198 +0.08 -0.04    +0.122 HD BRANCH  27  29ATOM     29  C   UNL     1      35.927  43.205  15.354 -0.28 -0.03    +0.081 C  BRANCH  29  30ATOM     30  C   UNL     1      36.178  42.860  16.815 -0.29 -0.01    +0.018 CG0ATOM     31  G   UNL     1      35.424  43.697  17.842 +0.00 +0.00    +0.000 G0 ENDBRANCH  29  30ENDBRANCH  27  29ENDBRANCH  26  27ENDBRANCH  25  26BRANCH  25  32ATOM     32  N   UNL     1      37.479  46.584  16.956 -0.15 +0.17    -0.345 N  ATOM     33  C   UNL     1      37.828  47.486  15.972 -0.27 -0.15    +0.251 C  ATOM     34  H   UNL     1      37.990  46.661  17.826 +0.08 -0.06    +0.164 HD ATOM     35  O   UNL     1      37.061  47.873  15.101 -0.33 +0.22    -0.269 OA BRANCH  33  36ATOM     36  C   UNL     1      39.214  48.024  16.036 -0.46 -0.02    +0.042 A  ATOM     37  C   UNL     1      39.650  48.852  15.002 -0.49 -0.01    +0.034 A  ATOM     38  C   UNL     1      40.088  47.698  17.073 -0.43 -0.01    +0.034 A  ATOM     39  C   UNL     1      40.945  49.334  15.058 -0.55 -0.03    +0.112 A  ATOM     40  C   UNL     1      41.364  48.231  17.035 -0.37 -0.01    +0.112 A  ATOM     41  N   UNL     1      41.808  49.045  16.054 -0.65 -0.04    -0.265 NA ENDBRANCH  33  36ENDBRANCH  25  32ENDBRANCH  22  25ENDBRANCH   1  22TORSDOF 9TERENDMDL