MODEL        6USER    Run = 6USERUSER    Estimated Free Energy of Binding    =  -7.35 kcal/mol  [=(1)+(2)+(3)-(4)]USERUSER    (1) Final Intermolecular Energy     = -11.83 kcal/molUSER        vdW + Hbond + desolv Energy     = -12.24 kcal/molUSER        Electrostatic Energy            =  -0.26 kcal/molUSER        Moving Ligand-Fixed Receptor    = -12.50 kcal/molUSER        Moving Ligand-Moving Receptor   =  +0.67 kcal/molUSER    (2) Final Total Internal Energy     =  -3.21 kcal/molUSER    (3) Torsional Free Energy           =  +4.47 kcal/molUSER    (4) Unbound System's Energy         =  -3.21 kcal/molUSERUSERREMARK SMILES COc1ccc(O)c(C(=O)c2ccc(NC[C@@H]3CCCNC[C@@H]3NC(=O)c3ccncc3)cc2)c1FREMARK SMILES IDX 16 1 15 2 14 4 11 5 12 6 34 7 13 8 33 9 9 10 10 11 8 12 3 13REMARK SMILES IDX 4 14 35 15 5 16 6 17 36 18 2 19 1 20 7 21 17 23 18 24 23 26REMARK SMILES IDX 22 27 21 28 20 30 19 31 24 33 25 34 26 36 27 37 28 38 32 39REMARK SMILES IDX 29 40 31 41 30 42REMARK H PARENT 15 3 7 22 21 29 24 35REMARK Flexibility Score:   99.900USER                              x       y       z     vdW  Elec       q    TypeUSER                           _______ _______ _______ _____ _____    ______ ____ROOTATOM      1  C   UNL     1      37.599  44.328  23.633 -0.31 +0.01    +0.118 C  ENDROOTBRANCH   1   2ATOM      2  N   UNL     1      38.971  44.751  23.338 -0.06 -0.02    -0.385 N  ATOM      3  H   UNL     1      39.347  45.399  24.023 +0.08 +0.01    +0.160 HD BRANCH   2   4ATOM      4  C   UNL     1      39.422  44.983  22.041 -0.29 +0.00    +0.034 A  ATOM      5  C   UNL     1      40.201  45.563  19.383 -0.42 -0.00    +0.023 A  ATOM      6  C   UNL     1      41.154  45.495  20.401 -0.37 +0.00    +0.014 A  ATOM      7  C   UNL     1      38.852  45.397  19.697 -0.35 -0.00    +0.014 A  ATOM      8  C   UNL     1      40.764  45.216  21.717 -0.27 +0.00    +0.026 A  ATOM      9  C   UNL     1      38.475  45.116  21.017 -0.29 +0.00    +0.026 A  BRANCH   5  10ATOM     10  C   UNL     1      40.655  45.894  18.011 -0.40 -0.01    +0.199 C  ATOM     11  O   UNL     1      41.767  45.516  17.639 -0.27 -0.00    -0.288 OA BRANCH  10  12ATOM     12  C   UNL     1      39.859  46.712  17.068 -0.40 -0.02    +0.104 A  ATOM     13  C   UNL     1      37.870  47.085  15.707 -0.31 -0.08    +0.155 A  ATOM     14  C   UNL     1      38.389  48.313  15.291 -0.48 -0.03    +0.053 A  ATOM     15  C   UNL     1      38.618  46.290  16.589 -0.28 -0.05    +0.179 A  ATOM     16  C   UNL     1      39.645  48.730  15.738 -0.51 -0.02    +0.051 A  ATOM     17  C   UNL     1      40.379  47.927  16.608 -0.43 -0.03    +0.130 A  ATOM     18  F   UNL     1      38.128  45.092  16.947 -0.08 +0.05    -0.202 F  BRANCH  13  19ATOM     19  O   UNL     1      36.663  46.564  15.323 -0.07 +0.33    -0.494 OA ATOM     20  C   UNL     1      35.660  46.436  16.324 -0.19 -0.27    +0.278 C  ENDBRANCH  13  19BRANCH  17  21ATOM     21  O   UNL     1      41.613  48.395  16.971 -0.59 -0.00    -0.507 OA ATOM     22  H   UNL     1      42.178  47.618  17.187 -0.35 -0.05    +0.293 HD ENDBRANCH  17  21ENDBRANCH  10  12ENDBRANCH   5  10ENDBRANCH   2   4ENDBRANCH   1   2BRANCH   1  23ATOM     23  C   UNL     1      37.530  43.413  24.881 -0.35 +0.00    +0.032 C  BRANCH  23  24ATOM     24  C   UNL     1      36.170  42.688  24.932 -0.27 +0.00    +0.009 CG0ATOM     25  G   UNL     1      35.760  41.986  26.227 +0.00 +0.00    +0.000 G0 ENDBRANCH  23  24BRANCH  23  26ATOM     26  C   UNL     1      37.905  44.209  26.153 -0.24 -0.00    +0.101 C  BRANCH  26  27ATOM     27  C   UNL     1      37.567  43.419  27.439 -0.33 -0.02    +0.106 C  BRANCH  27  28ATOM     28  N   UNL     1      36.227  43.664  27.986 -0.22 +0.09    -0.315 NA ATOM     29  H   UNL     1      36.247  43.399  28.974 -0.43 -0.08    +0.122 HD BRANCH  28  30ATOM     30  C   UNL     1      35.187  42.870  27.329 -0.58 -0.02    +0.081 C  BRANCH  30  31ATOM     31  C   UNL     1      35.760  41.984  26.230 -0.54 -0.00    +0.016 CG0ATOM     32  G   UNL     1      36.176  42.681  24.934 +0.00 +0.00    +0.000 G0 ENDBRANCH  30  31ENDBRANCH  28  30ENDBRANCH  27  28ENDBRANCH  26  27BRANCH  26  33ATOM     33  N   UNL     1      37.279  45.527  26.211 -0.14 +0.03    -0.348 N  ATOM     34  C   UNL     1      37.942  46.692  25.905 -0.23 +0.00    +0.251 C  ATOM     35  H   UNL     1      36.348  45.538  26.610 -0.29 -0.05    +0.164 HD ATOM     36  O   UNL     1      39.118  46.720  25.564 -0.12 -0.01    -0.269 OA BRANCH  34  37ATOM     37  C   UNL     1      37.169  47.956  26.029 -0.38 -0.00    +0.042 A  ATOM     38  C   UNL     1      37.255  48.882  24.987 -0.42 +0.00    +0.034 A  ATOM     39  C   UNL     1      36.349  48.230  27.124 -0.34 -0.00    +0.034 A  ATOM     40  C   UNL     1      36.534  50.056  25.096 -0.30 -0.00    +0.112 A  ATOM     41  C   UNL     1      35.667  49.434  27.136 -0.22 -0.00    +0.112 A  ATOM     42  N   UNL     1      35.746  50.353  26.152 -0.23 -0.00    -0.265 NA ENDBRANCH  34  37ENDBRANCH  26  33ENDBRANCH  23  26ENDBRANCH   1  23TORSDOF 9TERENDMDL