MODEL        3USER    Run = 3USERUSER    Estimated Free Energy of Binding    = -13.40 kcal/mol  [=(1)+(2)+(3)-(4)]USERUSER    (1) Final Intermolecular Energy     = -15.19 kcal/molUSER        vdW + Hbond + desolv Energy     = -15.07 kcal/molUSER        Electrostatic Energy            =  -0.12 kcal/molUSER        Moving Ligand-Fixed Receptor    = -15.19 kcal/molUSER        Moving Ligand-Moving Receptor   =  +0.00 kcal/molUSER    (2) Final Total Internal Energy     =  -2.75 kcal/molUSER    (3) Torsional Free Energy           =  +1.79 kcal/molUSER    (4) Unbound System's Energy         =  -2.75 kcal/molUSERUSERREMARK SMILES Oc1nc2ccccc2n1C1CCN(Cc2ccc(-c3nc4ccccc4nc3-c3ccccc3)cc2)CC1REMARK SMILES IDX 11 1 12 2 13 3 14 4 38 5 39 6 10 7 2 8 3 9 4 10 9 11 5 12REMARK SMILES IDX 8 13 6 14 7 15 1 16 15 18 16 19 17 20 37 21 18 22 36 23REMARK SMILES IDX 19 24 20 25 21 26 29 27 22 28 28 29 23 30 27 31 24 32 26 33REMARK SMILES IDX 25 34 30 35 31 36 35 37 32 38 34 39 33 40REMARK H PARENT 1 17USER                              x       y       z     vdW  Elec       q    TypeUSER                           _______ _______ _______ _____ _____    ______ ____ROOTATOM      1  C   UNL     1      38.520  47.188  15.300 -0.45 -0.04    +0.095 C  ATOM      2  C   UNL     1      37.614  48.375  14.933 -0.57 -0.03    +0.041 C  ATOM      3  C   UNL     1      37.087  48.269  13.502 -0.56 -0.04    +0.087 C  ATOM      4  N   UNL     1      36.628  46.925  13.138 -0.34 +0.14    -0.299 NA ATOM      5  C   UNL     1      37.666  45.897  13.321 -0.41 -0.03    +0.087 C  ATOM      6  C   UNL     1      38.919  46.370  14.066 -0.36 -0.01    +0.041 C  ENDROOTBRANCH   1   7ATOM      7  N   UNL     1      39.660  47.584  16.112 -0.27 +0.08    -0.291 N  ATOM      8  C   UNL     1      40.451  48.682  15.920 -0.33 -0.07    +0.295 A  ATOM      9  N   UNL     1      41.400  48.799  16.807 -0.94 +0.00    -0.195 NA ATOM     10  C   UNL     1      41.220  47.721  17.640 -0.45 -0.01    +0.092 A  ATOM     11  C   UNL     1      40.134  46.941  17.237 -0.44 -0.01    +0.072 A  ATOM     12  C   UNL     1      41.952  47.348  18.778 -0.49 +0.00    +0.031 A  ATOM     13  C   UNL     1      39.737  45.789  17.931 -0.43 -0.00    +0.029 A  ATOM     14  C   UNL     1      41.571  46.199  19.482 -0.45 +0.00    +0.002 A  ATOM     15  C   UNL     1      40.481  45.435  19.063 -0.45 -0.00    +0.002 A  BRANCH   8  16ATOM     16  O   UNL     1      40.293  49.563  14.954 -0.20 +0.21    -0.480 OA ATOM     17  H   UNL     1      39.703  50.211  15.379 -0.19 -0.23    +0.296 HD ENDBRANCH   8  16ENDBRANCH   1   7BRANCH   4  18ATOM     18  C   UNL     1      35.358  46.531  13.774 -0.44 -0.09    +0.120 C  BRANCH  18  19ATOM     19  C   UNL     1      35.529  45.881  15.130 -0.35 +0.03    -0.034 A  ATOM     20  C   UNL     1      35.751  44.503  15.239 -0.32 -0.00    +0.006 A  ATOM     21  C   UNL     1      35.450  46.646  16.300 -0.19 -0.01    +0.006 A  ATOM     22  C   UNL     1      35.912  43.909  16.496 -0.36 -0.00    +0.011 A  ATOM     23  C   UNL     1      35.612  46.049  17.554 -0.36 -0.01    +0.011 A  ATOM     24  C   UNL     1      35.862  44.673  17.674 -0.32 -0.00    +0.002 A  BRANCH  24  25ATOM     25  C   UNL     1      36.053  44.031  18.985 -0.30 -0.02    +0.097 A  ATOM     26  N   UNL     1      37.225  44.368  19.597 -0.22 +0.02    -0.244 NA ATOM     27  C   UNL     1      35.153  43.134  19.582 -0.35 -0.01    +0.097 A  ATOM     28  C   UNL     1      37.501  43.782  20.775 -0.32 -0.00    +0.089 A  ATOM     29  N   UNL     1      35.447  42.535  20.773 -0.31 -0.01    -0.244 NA ATOM     30  C   UNL     1      38.689  44.086  21.429 -0.31 +0.00    +0.030 A  ATOM     31  C   UNL     1      36.609  42.859  21.364 -0.39 +0.00    +0.089 A  ATOM     32  C   UNL     1      39.016  43.498  22.652 -0.28 +0.00    +0.002 A  ATOM     33  C   UNL     1      36.943  42.278  22.581 -0.47 +0.00    +0.030 A  ATOM     34  C   UNL     1      38.139  42.589  23.230 -0.34 +0.00    +0.002 A  BRANCH  27  35ATOM     35  C   UNL     1      33.834  42.761  19.037 -0.40 -0.00    +0.002 A  ATOM     36  C   UNL     1      33.674  41.557  18.328 -0.36 -0.00    +0.010 A  ATOM     37  C   UNL     1      32.695  43.564  19.227 -0.42 -0.00    +0.010 A  ATOM     38  C   UNL     1      32.433  41.182  17.805 -0.38 -0.00    +0.001 A  ATOM     39  C   UNL     1      31.454  43.193  18.702 -0.27 -0.00    +0.001 A  ATOM     40  C   UNL     1      31.324  42.003  17.989 -0.30 -0.00    +0.000 A  ENDBRANCH  27  35ENDBRANCH  24  25ENDBRANCH  18  19ENDBRANCH   4  18TORSDOF 6TERENDMDL