MODEL        2USER    Run = 2USERUSER    Estimated Free Energy of Binding    =  -6.99 kcal/mol  [=(1)+(2)+(3)-(4)]USERUSER    (1) Final Intermolecular Energy     = -11.47 kcal/molUSER        vdW + Hbond + desolv Energy     = -12.40 kcal/molUSER        Electrostatic Energy            =  -0.19 kcal/molUSER        Moving Ligand-Fixed Receptor    = -12.59 kcal/molUSER        Moving Ligand-Moving Receptor   =  +1.12 kcal/molUSER    (2) Final Total Internal Energy     =  -3.09 kcal/molUSER    (3) Torsional Free Energy           =  +4.47 kcal/molUSER    (4) Unbound System's Energy         =  -3.09 kcal/molUSERUSERREMARK SMILES COc1ccc(O)c(C(=O)c2ccc(C(=O)O[C@@H]3CCCNC[C@H]3NC(=O)c3ccncc3)cc2)c1FREMARK SMILES IDX 17 1 15 2 16 3 14 4 11 5 12 6 35 7 13 8 34 9 9 10 10 11 8 12REMARK SMILES IDX 3 13 4 14 36 15 5 16 6 17 37 18 2 19 1 20 7 21 18 23 24 25REMARK SMILES IDX 23 26 22 27 21 29 20 30 19 31 25 33 26 34 27 36 28 37 29 38REMARK SMILES IDX 33 39 30 40 32 41 31 42REMARK H PARENT 7 22 22 28 25 35REMARK Flexibility Score:   99.900USER                              x       y       z     vdW  Elec       q    TypeUSER                           _______ _______ _______ _____ _____    ______ ____ROOTATOM      1  O   UNL     1      37.563  44.090  19.745 -0.11 +0.03    -0.457 OA ENDROOTBRANCH   1   2ATOM      2  C   UNL     1      38.425  44.882  20.431 -0.18 -0.00    +0.338 C  ATOM      3  O   UNL     1      39.001  45.875  20.010 -0.28 +0.00    -0.246 OA BRANCH   2   4ATOM      4  C   UNL     1      38.546  44.395  21.827 -0.30 +0.00    +0.060 A  ATOM      5  C   UNL     1      38.696  43.469  24.473 -0.22 +0.00    +0.023 A  ATOM      6  C   UNL     1      39.834  43.993  23.846 -0.18 +0.00    +0.013 A  ATOM      7  C   UNL     1      37.483  43.415  23.772 -0.34 +0.00    +0.013 A  ATOM      8  C   UNL     1      39.759  44.455  22.527 -0.24 +0.00    +0.016 A  ATOM      9  C   UNL     1      37.405  43.885  22.458 -0.37 +0.00    +0.016 A  BRANCH   5  10ATOM     10  C   UNL     1      38.728  42.940  25.865 -0.17 -0.00    +0.199 C  ATOM     11  O   UNL     1      39.779  42.883  26.494 -0.11 +0.01    -0.288 OA BRANCH  10  12ATOM     12  C   UNL     1      37.499  42.469  26.514 -0.28 -0.01    +0.104 A  ATOM     13  C   UNL     1      35.264  42.959  27.319 -0.43 -0.04    +0.155 A  ATOM     14  C   UNL     1      35.163  41.645  27.793 -0.54 -0.02    +0.053 A  ATOM     15  C   UNL     1      36.445  43.363  26.684 -0.28 -0.03    +0.179 A  ATOM     16  C   UNL     1      36.218  40.741  27.607 -0.49 -0.02    +0.051 A  ATOM     17  C   UNL     1      37.381  41.153  26.960 -0.34 -0.03    +0.130 A  ATOM     18  F   UNL     1      36.541  44.611  26.197 -0.10 +0.02    -0.202 F  BRANCH  13  19ATOM     19  O   UNL     1      34.281  43.909  27.397 -0.25 +0.08    -0.494 OA ATOM     20  C   UNL     1      34.011  44.466  28.678 -0.43 -0.04    +0.278 C  ENDBRANCH  13  19BRANCH  17  21ATOM     21  O   UNL     1      38.403  40.271  26.757 -0.09 +0.01    -0.507 OA ATOM     22  H   UNL     1      39.239  40.751  26.638 +0.09 -0.01    +0.293 HD ENDBRANCH  17  21ENDBRANCH  10  12ENDBRANCH   5  10ENDBRANCH   2   4ENDBRANCH   1   2BRANCH   1  23ATOM     23  C   UNL     1      36.340  44.715  19.274 -0.22 -0.03    +0.200 CG0ATOM     24  G   UNL     1      35.203  43.726  19.529 +0.00 +0.00    +0.000 G0 BRANCH  23  25ATOM     25  C   UNL     1      36.554  45.068  17.788 -0.30 -0.04    +0.137 C  BRANCH  25  26ATOM     26  C   UNL     1      35.340  45.728  17.104 -0.34 -0.07    +0.109 C  BRANCH  26  27ATOM     27  N   UNL     1      34.441  46.433  18.021 -0.34 +0.27    -0.315 NA ATOM     28  H   UNL     1      33.888  47.096  17.477 -0.44 -0.23    +0.122 HD BRANCH  27  29ATOM     29  C   UNL     1      33.527  45.590  18.798 -0.41 -0.04    +0.081 C  BRANCH  29  30ATOM     30  C   UNL     1      33.847  44.094  18.916 -0.44 -0.00    +0.019 C  BRANCH  30  31ATOM     31  C   UNL     1      35.204  43.730  19.530 -0.43 -0.01    +0.049 CG0ATOM     32  G   UNL     1      36.344  44.718  19.291 +0.00 +0.00    +0.000 G0 ENDBRANCH  30  31ENDBRANCH  29  30ENDBRANCH  27  29ENDBRANCH  26  27ENDBRANCH  25  26BRANCH  25  33ATOM     33  N   UNL     1      37.736  45.931  17.664 -0.16 +0.10    -0.344 N  ATOM     34  C   UNL     1      38.102  46.507  16.472 -0.28 -0.10    +0.251 C  ATOM     35  H   UNL     1      38.081  46.331  18.526 +0.08 -0.03    +0.164 HD ATOM     36  O   UNL     1      37.518  46.319  15.413 -0.21 +0.13    -0.269 OA BRANCH  34  37ATOM     37  C   UNL     1      39.275  47.412  16.525 -0.43 -0.01    +0.042 A  ATOM     38  C   UNL     1      39.357  48.453  15.602 -0.51 -0.01    +0.034 A  ATOM     39  C   UNL     1      40.301  47.215  17.447 -0.47 -0.01    +0.034 A  ATOM     40  C   UNL     1      40.464  49.278  15.658 -0.53 -0.03    +0.112 A  ATOM     41  C   UNL     1      41.369  48.093  17.415 -0.40 -0.01    +0.112 A  ATOM     42  N   UNL     1      41.469  49.123  16.547 -0.93 -0.01    -0.265 NA ENDBRANCH  34  37ENDBRANCH  25  33ENDBRANCH  23  25ENDBRANCH   1  23TORSDOF 9TERENDMDL