MODEL        4USER    Run = 4USERUSER    Estimated Free Energy of Binding    = -12.10 kcal/mol  [=(1)+(2)+(3)-(4)]USERUSER    (1) Final Intermolecular Energy     = -13.89 kcal/molUSER        vdW + Hbond + desolv Energy     = -13.63 kcal/molUSER        Electrostatic Energy            =  -0.26 kcal/molUSER        Moving Ligand-Fixed Receptor    = -13.89 kcal/molUSER        Moving Ligand-Moving Receptor   =  +0.00 kcal/molUSER    (2) Final Total Internal Energy     =  -1.79 kcal/molUSER    (3) Torsional Free Energy           =  +1.79 kcal/molUSER    (4) Unbound System's Energy         =  -1.79 kcal/molUSERUSERREMARK SMILES Oc1nc2ccccc2n1C1CCN(Cc2ccc(-c3cc4ccccc4nc3-c3ccccc3)cc2)CC1REMARK SMILES IDX 11 1 12 2 13 3 14 4 38 5 39 6 10 7 2 8 3 9 4 10 9 11 5 12REMARK SMILES IDX 8 13 6 14 7 15 1 16 15 18 16 19 17 20 37 21 18 22 36 23REMARK SMILES IDX 19 24 20 25 21 26 29 27 22 28 28 29 23 30 27 31 24 32 26 33REMARK SMILES IDX 25 34 30 35 31 36 35 37 32 38 34 39 33 40REMARK H PARENT 1 17USER                              x       y       z     vdW  Elec       q    TypeUSER                           _______ _______ _______ _____ _____    ______ ____ROOTATOM      1  C   UNL     1      27.845  41.710  16.197 -0.25 -0.03    +0.095 C  ATOM      2  C   UNL     1      28.950  41.048  15.360 -0.36 -0.02    +0.041 C  ATOM      3  C   UNL     1      30.285  40.894  16.080 -0.32 -0.03    +0.087 C  ATOM      4  N   UNL     1      30.717  42.090  16.806 -0.13 +0.10    -0.299 NA ATOM      5  C   UNL     1      29.714  42.484  17.799 -0.11 -0.01    +0.087 C  ATOM      6  C   UNL     1      28.325  42.747  17.223 -0.24 -0.01    +0.041 C  ENDROOTBRANCH   1   7ATOM      7  N   UNL     1      26.840  40.778  16.705 -0.12 +0.00    -0.291 N  ATOM      8  C   UNL     1      26.182  39.869  15.911 -0.11 +0.06    +0.295 A  ATOM      9  N   UNL     1      25.305  39.150  16.552 -0.72 -0.03    -0.195 NA ATOM     10  C   UNL     1      25.385  39.597  17.843 -0.29 -0.00    +0.092 A  ATOM     11  C   UNL     1      26.344  40.611  17.982 -0.21 -0.00    +0.072 A  ATOM     12  C   UNL     1      24.651  39.165  18.961 -0.35 -0.01    +0.031 A  ATOM     13  C   UNL     1      26.596  41.200  19.227 -0.20 -0.00    +0.029 A  ATOM     14  C   UNL     1      24.896  39.754  20.203 -0.32 -0.00    +0.002 A  ATOM     15  C   UNL     1      25.855  40.755  20.330 -0.34 -0.00    +0.002 A  BRANCH   8  16ATOM     16  O   UNL     1      26.387  39.706  14.620 -0.70 -0.09    -0.480 OA ATOM     17  H   UNL     1      26.438  40.632  14.320 +0.15 -0.15    +0.296 HD ENDBRANCH   8  16ENDBRANCH   1   7BRANCH   4  18ATOM     18  C   UNL     1      31.117  43.178  15.899 -0.32 -0.06    +0.120 C  BRANCH  18  19ATOM     19  C   UNL     1      32.523  43.678  16.151 -0.31 +0.02    -0.034 A  ATOM     20  C   UNL     1      32.798  45.050  16.218 -0.33 -0.00    +0.006 A  ATOM     21  C   UNL     1      33.576  42.769  16.321 -0.28 -0.00    +0.006 A  ATOM     22  C   UNL     1      34.101  45.502  16.449 -0.30 -0.01    +0.009 A  ATOM     23  C   UNL     1      34.879  43.224  16.542 -0.40 -0.00    +0.009 A  ATOM     24  C   UNL     1      35.161  44.596  16.605 -0.30 +0.01    -0.016 A  BRANCH  24  25ATOM     25  C   UNL     1      36.531  45.071  16.848 -0.33 -0.00    +0.009 A  ATOM     26  C   UNL     1      37.098  44.902  18.120 -0.34 -0.01    +0.021 A  ATOM     27  C   UNL     1      37.340  45.664  15.864 -0.31 -0.03    +0.079 A  ATOM     28  C   UNL     1      38.416  45.299  18.379 -0.39 -0.00    +0.001 A  ATOM     29  N   UNL     1      38.629  46.043  16.099 -0.21 +0.07    -0.247 NA ATOM     30  C   UNL     1      39.004  45.136  19.645 -0.38 -0.00    +0.010 A  ATOM     31  C   UNL     1      39.150  45.868  17.324 -0.37 -0.01    +0.071 A  ATOM     32  C   UNL     1      40.320  45.537  19.869 -0.40 +0.00    +0.001 A  ATOM     33  C   UNL     1      40.460  46.258  17.571 -0.47 -0.00    +0.029 A  ATOM     34  C   UNL     1      41.051  46.099  18.828 -0.48 +0.00    +0.002 A  BRANCH  27  35ATOM     35  C   UNL     1      36.892  45.942  14.486 -0.41 -0.00    +0.001 A  ATOM     36  C   UNL     1      36.352  47.197  14.152 -0.46 -0.01    +0.010 A  ATOM     37  C   UNL     1      36.967  44.969  13.474 -0.44 -0.00    +0.010 A  ATOM     38  C   UNL     1      35.927  47.476  12.850 -0.60 -0.00    +0.001 A  ATOM     39  C   UNL     1      36.541  45.246  12.172 -0.55 -0.00    +0.001 A  ATOM     40  C   UNL     1      36.025  46.502  11.860 -0.62 -0.00    +0.000 A  ENDBRANCH  27  35ENDBRANCH  24  25ENDBRANCH  18  19ENDBRANCH   4  18TORSDOF 6TERENDMDL