MODEL        8USER    Run = 8USERUSER    Estimated Free Energy of Binding    = -10.08 kcal/mol  [=(1)+(2)+(3)-(4)]USERUSER    (1) Final Intermolecular Energy     = -12.77 kcal/molUSER        vdW + Hbond + desolv Energy     = -12.85 kcal/molUSER        Electrostatic Energy            =  +0.09 kcal/molUSER        Moving Ligand-Fixed Receptor    = -12.77 kcal/molUSER        Moving Ligand-Moving Receptor   =  +0.00 kcal/molUSER    (2) Final Total Internal Energy     =  -2.72 kcal/molUSER    (3) Torsional Free Energy           =  +2.68 kcal/molUSER    (4) Unbound System's Energy         =  -2.72 kcal/molUSERUSERREMARK SMILES O=S(=O)(Nc1cccc(-c2cn3ccccc3n2)c1CCN1CCN(CC2CC2)CC1)C(F)(F)FREMARK SMILES IDX 5 1 6 2 7 3 8 4 9 5 19 6 4 7 2 9 1 10 3 11 32 12 33 13 34 14REMARK SMILES IDX 35 15 20 16 21 17 22 18 23 19 31 20 24 21 30 22 25 23 26 24REMARK SMILES IDX 27 25 28 26 29 27 10 28 11 29 18 30 12 31 17 32 13 33 16 34REMARK SMILES IDX 14 35 15 36REMARK H PARENT 4 8USER                              x       y       z     vdW  Elec       q    TypeUSER                           _______ _______ _______ _____ _____    ______ ____ROOTATOM      1  C   UNL     1      39.160  47.253  14.775 -0.44 -0.01    +0.053 A  ATOM      2  C   UNL     1      40.083  48.297  14.687 -0.51 -0.01    +0.027 A  ATOM      3  C   UNL     1      40.891  48.613  15.775 -0.59 -0.00    +0.003 A  ATOM      4  C   UNL     1      40.803  47.857  16.937 -0.52 -0.00    +0.011 A  ATOM      5  C   UNL     1      39.910  46.776  17.027 -0.48 -0.00    +0.007 A  ATOM      6  C   UNL     1      39.044  46.475  15.949 -0.42 +0.00    -0.013 A  ENDROOTBRANCH   1   7ATOM      7  N   UNL     1      38.396  46.975  13.591 -0.26 +0.07    -0.276 N  ATOM      8  H   UNL     1      38.867  47.159  12.709 +0.15 -0.01    +0.180 HD BRANCH   7   9ATOM      9  S   UNL     1      36.827  47.667  13.525 -0.53 -0.17    +0.333 S  ATOM     10  O   UNL     1      36.548  48.311  14.800 -0.38 +0.20    -0.197 OA ATOM     11  O   UNL     1      36.878  48.491  12.327 -0.97 +0.03    -0.197 OA BRANCH   9  12ATOM     12  C   UNL     1      35.699  46.216  13.244 -0.14 -0.30    +0.516 C  ATOM     13  F   UNL     1      34.505  46.353  13.887 -0.18 +0.14    -0.155 F  ATOM     14  F   UNL     1      36.245  45.050  13.693 -0.14 +0.07    -0.155 F  ATOM     15  F   UNL     1      35.415  46.038  11.924 -0.24 +0.09    -0.155 F  ENDBRANCH   9  12ENDBRANCH   7   9ENDBRANCH   1   7BRANCH   6  16ATOM     16  C   UNL     1      38.000  45.377  16.062 -0.37 -0.02    +0.054 C  BRANCH  16  17ATOM     17  C   UNL     1      36.621  45.896  16.521 -0.36 -0.05    +0.089 C  BRANCH  17  18ATOM     18  N   UNL     1      35.749  44.937  17.216 -0.11 +0.13    -0.300 NA ATOM     19  C   UNL     1      35.157  45.437  18.469 -0.36 -0.04    +0.100 C  ATOM     20  C   UNL     1      36.384  43.624  17.405 -0.29 -0.03    +0.100 C  ATOM     21  C   UNL     1      34.230  44.389  19.136 -0.39 -0.02    +0.100 C  ATOM     22  C   UNL     1      35.420  42.610  18.064 -0.36 -0.03    +0.100 C  ATOM     23  N   UNL     1      34.846  43.056  19.354 -0.20 +0.03    -0.301 NA BRANCH  23  24ATOM     24  C   UNL     1      35.845  43.098  20.439 -0.44 -0.00    +0.088 C  BRANCH  24  25ATOM     25  C   UNL     1      35.824  41.803  21.214 -0.54 +0.00    +0.003 C  ATOM     26  C   UNL     1      36.458  41.713  22.578 -0.59 +0.00    +0.005 C  ATOM     27  C   UNL     1      37.096  41.009  21.411 -0.52 +0.00    +0.005 C  ENDBRANCH  24  25ENDBRANCH  23  24ENDBRANCH  17  18ENDBRANCH  16  17ENDBRANCH   6  16BRANCH   5  28ATOM     28  C   UNL     1      39.925  46.022  18.263 -0.39 -0.01    +0.090 A  ATOM     29  C   UNL     1      41.031  45.413  18.822 -0.37 +0.00    +0.121 A  ATOM     30  N   UNL     1      38.818  45.877  19.063 -0.25 +0.02    -0.229 NA ATOM     31  N   UNL     1      40.582  44.853  19.992 -0.19 -0.01    -0.306 N  ATOM     32  C   UNL     1      39.223  45.149  20.083 -0.29 -0.00    +0.137 A  ATOM     33  C   UNL     1      41.268  44.103  20.944 -0.28 +0.01    +0.093 A  ATOM     34  C   UNL     1      38.523  44.653  21.219 -0.33 +0.00    +0.048 A  ATOM     35  C   UNL     1      40.603  43.633  22.016 -0.28 +0.00    +0.018 A  ATOM     36  C   UNL     1      39.183  43.927  22.147 -0.28 +0.00    +0.005 A  ENDBRANCH   5  28TORSDOF 9TERENDMDL