REMARK SMILES O=S(=O)(Nc1cccc(-c2cn3ccccc3n2)c1CCN1CCN(CC2CC2)CC1)C(F)(F)F
REMARK SMILES IDX 5 1 6 2 7 3 8 4 9 5 19 6 4 7 2 9 1 10 3 11 32 12 33 13 34 14
REMARK SMILES IDX 35 15 20 16 21 17 22 18 23 19 31 20 24 21 30 22 25 23 26 24
REMARK SMILES IDX 27 25 28 26 29 27 10 28 11 29 18 30 12 31 17 32 13 33 16 34
REMARK SMILES IDX 14 35 15 36
REMARK H PARENT 4 8
ROOT
ATOM      1  C   UNL     1      -1.507   1.709  -2.116  1.00  0.00     0.053 A 
ATOM      2  C   UNL     1      -2.422   2.105  -3.094  1.00  0.00     0.027 A 
ATOM      3  C   UNL     1      -3.642   1.449  -3.221  1.00  0.00     0.003 A 
ATOM      4  C   UNL     1      -3.963   0.421  -2.343  1.00  0.00     0.011 A 
ATOM      5  C   UNL     1      -3.072   0.038  -1.327  1.00  0.00     0.007 A 
ATOM      6  C   UNL     1      -1.806   0.660  -1.217  1.00  0.00    -0.013 A 
ENDROOT
BRANCH   1   7
ATOM      7  N   UNL     1      -0.291   2.468  -2.034  1.00  0.00    -0.276 N 
ATOM      8  H   UNL     1       0.560   1.925  -1.913  1.00  0.00     0.180 HD
BRANCH   7   9
ATOM      9  S   UNL     1      -0.280   3.757  -0.902  1.00  0.00     0.333 S 
ATOM     10  O   UNL     1      -1.317   3.514   0.090  1.00  0.00    -0.197 OA
ATOM     11  O   UNL     1       1.106   3.800  -0.462  1.00  0.00    -0.197 OA
BRANCH   9  12
ATOM     12  C   UNL     1      -0.664   5.264  -1.921  1.00  0.00     0.516 C 
ATOM     13  F   UNL     1      -1.852   5.157  -2.581  1.00  0.00    -0.155 F 
ATOM     14  F   UNL     1       0.285   5.491  -2.874  1.00  0.00    -0.155 F 
ATOM     15  F   UNL     1      -0.739   6.390  -1.160  1.00  0.00    -0.155 F 
ENDBRANCH   9  12
ENDBRANCH   7   9
ENDBRANCH   1   7
BRANCH   6  16
ATOM     16  C   UNL     1      -0.786   0.193  -0.191  1.00  0.00     0.054 C 
BRANCH  16  17
ATOM     17  C   UNL     1      -0.242  -1.222  -0.478  1.00  0.00     0.089 C 
BRANCH  17  18
ATOM     18  N   UNL     1       1.122  -1.515  -0.013  1.00  0.00    -0.300 NA
ATOM     19  C   UNL     1       1.400  -1.113   1.377  1.00  0.00     0.100 C 
ATOM     20  C   UNL     1       2.156  -1.019  -0.934  1.00  0.00     0.100 C 
ATOM     21  C   UNL     1       2.843  -1.473   1.812  1.00  0.00     0.100 C 
ATOM     22  C   UNL     1       3.577  -1.409  -0.465  1.00  0.00     0.100 C 
ATOM     23  N   UNL     1       3.912  -0.975   0.910  1.00  0.00    -0.301 NA
BRANCH  23  24
ATOM     24  C   UNL     1       4.071   0.487   1.024  1.00  0.00     0.088 C 
BRANCH  24  25
ATOM     25  C   UNL     1       5.388   0.914   0.421  1.00  0.00     0.003 C 
ATOM     26  C   UNL     1       6.655   0.875   1.236  1.00  0.00     0.005 C 
ATOM     27  C   UNL     1       6.049   2.201   0.861  1.00  0.00     0.005 C 
ENDBRANCH  24  25
ENDBRANCH  23  24
ENDBRANCH  17  18
ENDBRANCH  16  17
ENDBRANCH   6  16
BRANCH   5  28
ATOM     28  C   UNL     1      -3.517  -1.012  -0.434  1.00  0.00     0.090 A 
ATOM     29  C   UNL     1      -3.777  -0.867   0.914  1.00  0.00     0.121 A 
ATOM     30  N   UNL     1      -3.791  -2.288  -0.861  1.00  0.00    -0.229 NA
ATOM     31  N   UNL     1      -4.200  -2.103   1.335  1.00  0.00    -0.306 N 
ATOM     32  C   UNL     1      -4.173  -2.938   0.219  1.00  0.00     0.137 A 
ATOM     33  C   UNL     1      -4.576  -2.534   2.605  1.00  0.00     0.093 A 
ATOM     34  C   UNL     1      -4.559  -4.295   0.411  1.00  0.00     0.048 A 
ATOM     35  C   UNL     1      -4.938  -3.818   2.784  1.00  0.00     0.018 A 
ATOM     36  C   UNL     1      -4.927  -4.718   1.640  1.00  0.00     0.005 A 
ENDBRANCH   5  28
TORSDOF 9
