MODEL        10USER    Run = 10USERUSER    Estimated Free Energy of Binding    = -13.63 kcal/mol  [=(1)+(2)+(3)-(4)]USERUSER    (1) Final Intermolecular Energy     = -16.32 kcal/molUSER        vdW + Hbond + desolv Energy     = -15.85 kcal/molUSER        Electrostatic Energy            =  -0.47 kcal/molUSER        Moving Ligand-Fixed Receptor    = -16.32 kcal/molUSER        Moving Ligand-Moving Receptor   =  +0.00 kcal/molUSER    (2) Final Total Internal Energy     =  -2.42 kcal/molUSER    (3) Torsional Free Energy           =  +2.68 kcal/molUSER    (4) Unbound System's Energy         =  -2.42 kcal/molUSERUSERREMARK SMILES Oc1nc2ccccc2n1C1CCN(Cc2ccc(-c3nc4ccccc4nc3-c3ccc(N4CC[C@@H](O)[C@H](O)C4)nc3)cc2)CC1REMARK SMILES IDX 16 1 17 2 18 3 19 4 44 5 45 6 15 7 14 8 11 9 12 10 47 11REMARK SMILES IDX 13 12 46 13 10 14 2 15 3 16 4 17 9 18 5 19 8 20 6 21 7 22REMARK SMILES IDX 1 23 20 25 21 26 29 27 22 28 28 29 23 30 27 31 24 32 26 33REMARK SMILES IDX 25 34 30 35 31 36 43 37 32 38 42 39 33 40 34 41 35 42 41 43REMARK SMILES IDX 36 44 39 45 37 46 40 47 38 49REMARK H PARENT 1 24 40 48 38 50USER                              x       y       z     vdW  Elec       q    TypeUSER                           _______ _______ _______ _____ _____    ______ ____ROOTATOM      1  C   UNL     1      41.252  45.474  20.242 -0.36 -0.00    -0.034 A  ATOM      2  C   UNL     1      40.650  46.264  21.231 -0.04 +0.00    +0.006 A  ATOM      3  C   UNL     1      39.927  45.670  22.272 -0.28 +0.00    +0.011 A  ATOM      4  C   UNL     1      39.802  44.272  22.366 -0.25 +0.00    +0.002 A  ATOM      5  C   UNL     1      40.431  43.491  21.379 +0.10 +0.00    +0.011 A  ATOM      6  C   UNL     1      41.146  44.080  20.335 -0.31 +0.00    +0.006 A  ENDROOTBRANCH   1   7ATOM      7  C   UNL     1      41.940  46.099  19.043 -0.40 +0.01    +0.120 C  BRANCH   7   8ATOM      8  N   UNL     1      40.987  46.374  17.956 -0.28 +0.02    -0.299 NA ATOM      9  C   UNL     1      38.793  47.609  16.510 -0.38 -0.04    +0.095 C  ATOM     10  C   UNL     1      38.646  46.238  17.181 -0.44 -0.01    +0.041 C  ATOM     11  C   UNL     1      40.260  47.904  16.178 -0.58 -0.01    +0.041 C  ATOM     12  C   UNL     1      39.602  46.108  18.367 -0.43 -0.01    +0.087 C  ATOM     13  C   UNL     1      41.139  47.730  17.423 -0.52 -0.01    +0.087 C  BRANCH   9  14ATOM     14  N   UNL     1      37.926  47.780  15.354 -0.25 +0.17    -0.291 N  ATOM     15  C   UNL     1      37.263  48.917  14.980 -0.24 -0.27    +0.295 A  ATOM     16  N   UNL     1      36.557  48.773  13.892 -0.34 +0.14    -0.195 NA ATOM     17  C   UNL     1      36.742  47.457  13.540 -0.49 -0.05    +0.092 A  ATOM     18  C   UNL     1      37.587  46.802  14.438 -0.39 -0.03    +0.072 A  ATOM     19  C   UNL     1      36.206  46.749  12.454 -0.64 -0.02    +0.031 A  ATOM     20  C   UNL     1      37.918  45.445  14.301 -0.37 -0.01    +0.029 A  ATOM     21  C   UNL     1      36.523  45.394  12.306 -0.56 -0.00    +0.002 A  ATOM     22  C   UNL     1      37.365  44.757  13.216 -0.34 -0.00    +0.002 A  BRANCH  15  23ATOM     23  O   UNL     1      37.298  50.061  15.635 -0.16 +0.51    -0.480 OA ATOM     24  H   UNL     1      36.354  50.198  15.836 -0.16 -0.64    +0.296 HD ENDBRANCH  15  23ENDBRANCH   9  14ENDBRANCH   7   8ENDBRANCH   1   7BRANCH   4  25ATOM     25  C   UNL     1      38.975  43.624  23.402 -0.20 +0.01    +0.097 A  ATOM     26  N   UNL     1      39.587  43.564  24.621 -0.09 -0.01    -0.244 NA ATOM     27  C   UNL     1      37.704  43.069  23.207 -0.30 +0.01    +0.099 A  ATOM     28  C   UNL     1      38.948  42.923  25.613 -0.18 -0.00    +0.089 A  ATOM     29  N   UNL     1      37.064  42.409  24.217 -0.26 -0.01    -0.244 NA ATOM     30  C   UNL     1      39.547  42.828  26.864 -0.21 -0.00    +0.030 A  ATOM     31  C   UNL     1      37.681  42.336  25.410 -0.28 -0.00    +0.089 A  ATOM     32  C   UNL     1      38.920  42.166  27.920 -0.35 -0.00    +0.002 A  ATOM     33  C   UNL     1      37.064  41.680  26.467 -0.39 -0.01    +0.030 A  ATOM     34  C   UNL     1      37.673  41.590  27.720 -0.46 -0.00    +0.002 A  BRANCH  27  35ATOM     35  C   UNL     1      36.912  43.140  21.970 -0.41 +0.00    +0.021 A  ATOM     36  C   UNL     1      36.942  44.226  21.096 -0.37 +0.00    +0.016 A  ATOM     37  C   UNL     1      36.026  42.125  21.629 -0.36 +0.01    +0.124 A  ATOM     38  C   UNL     1      36.137  44.235  19.952 -0.35 -0.00    +0.047 A  ATOM     39  N   UNL     1      35.243  42.106  20.520 -0.32 -0.01    -0.239 NA ATOM     40  C   UNL     1      35.296  43.159  19.678 -0.33 -0.01    +0.128 A  BRANCH  40  41ATOM     41  N   UNL     1      34.446  43.206  18.549 -0.10 +0.07    -0.354 N  ATOM     42  C   UNL     1      33.042  43.473  18.916 -0.37 -0.02    +0.121 C  ATOM     43  C   UNL     1      34.946  44.158  17.527 -0.26 -0.06    +0.152 C  ATOM     44  C   UNL     1      32.154  43.280  17.685 -0.33 -0.01    +0.056 C  ATOM     45  C   UNL     1      34.118  43.974  16.242 -0.28 -0.08    +0.162 C  ATOM     46  C   UNL     1      32.617  44.162  16.521 -0.28 -0.06    +0.146 C  BRANCH  45  47ATOM     47  O   UNL     1      34.354  42.662  15.713 -0.18 +0.19    -0.389 OA ATOM     48  H   UNL     1      33.558  42.144  15.961 -0.42 -0.14    +0.211 HD ENDBRANCH  45  47BRANCH  46  49ATOM     49  O   UNL     1      32.311  45.525  16.829 -0.41 +0.20    -0.390 OA ATOM     50  H   UNL     1      32.787  46.083  16.192 -0.23 -0.28    +0.211 HD ENDBRANCH  46  49ENDBRANCH  40  41ENDBRANCH  27  35ENDBRANCH   4  25TORSDOF 9TERENDMDL