REMARK SMILES Oc1nc2ccccc2n1C1CCN(Cc2ccc(-c3nc4ccccc4nc3-c3ccc(N4CC[C@@H](O)[C@H](O)C4)nc3)cc2)CC1
REMARK SMILES IDX 16 1 17 2 18 3 19 4 44 5 45 6 15 7 14 8 11 9 12 10 47 11
REMARK SMILES IDX 13 12 46 13 10 14 2 15 3 16 4 17 9 18 5 19 8 20 6 21 7 22
REMARK SMILES IDX 1 23 20 25 21 26 29 27 22 28 28 29 23 30 27 31 24 32 26 33
REMARK SMILES IDX 25 34 30 35 31 36 43 37 32 38 42 39 33 40 34 41 35 42 41 43
REMARK SMILES IDX 36 44 39 45 37 46 40 47 38 49
REMARK H PARENT 1 24 40 48 38 50
ROOT
ATOM      1  C   UNL     1      -0.845   0.144  -1.095  1.00  0.00    -0.034 A 
ATOM      2  C   UNL     1       0.039   0.544  -0.083  1.00  0.00     0.006 A 
ATOM      3  C   UNL     1       0.885  -0.388   0.529  1.00  0.00     0.011 A 
ATOM      4  C   UNL     1       0.888  -1.738   0.135  1.00  0.00     0.002 A 
ATOM      5  C   UNL     1       0.012  -2.120  -0.897  1.00  0.00     0.011 A 
ATOM      6  C   UNL     1      -0.839  -1.195  -1.505  1.00  0.00     0.006 A 
ENDROOT
BRANCH   1   7
ATOM      7  C   UNL     1      -1.852   1.110  -1.690  1.00  0.00     0.120 C 
BRANCH   7   8
ATOM      8  N   UNL     1      -3.228   0.763  -1.302  1.00  0.00    -0.299 NA
ATOM      9  C   UNL     1      -5.978   1.105  -0.435  1.00  0.00     0.095 C 
ATOM     10  C   UNL     1      -4.883   0.623   0.525  1.00  0.00     0.041 C 
ATOM     11  C   UNL     1      -5.613   0.787  -1.889  1.00  0.00     0.041 C 
ATOM     12  C   UNL     1      -3.512   1.139   0.089  1.00  0.00     0.087 C 
ATOM     13  C   UNL     1      -4.217   1.328  -2.224  1.00  0.00     0.087 C 
BRANCH   9  14
ATOM     14  N   UNL     1      -7.305   0.620  -0.086  1.00  0.00    -0.291 N 
ATOM     15  C   UNL     1      -7.688  -0.682   0.090  1.00  0.00     0.295 A 
ATOM     16  N   UNL     1      -8.948  -0.814   0.402  1.00  0.00    -0.195 NA
ATOM     17  C   UNL     1      -9.434   0.472   0.406  1.00  0.00     0.092 A 
ATOM     18  C   UNL     1      -8.434   1.396   0.096  1.00  0.00     0.072 A 
ATOM     19  C   UNL     1     -10.736   0.924   0.664  1.00  0.00     0.031 A 
ATOM     20  C   UNL     1      -8.685   2.775   0.022  1.00  0.00     0.029 A 
ATOM     21  C   UNL     1     -11.004   2.296   0.591  1.00  0.00     0.002 A 
ATOM     22  C   UNL     1      -9.993   3.202   0.275  1.00  0.00     0.002 A 
BRANCH  15  23
ATOM     23  O   UNL     1      -6.896  -1.727  -0.045  1.00  0.00    -0.480 OA
ATOM     24  H   UNL     1      -7.505  -2.459   0.162  1.00  0.00     0.296 HD
ENDBRANCH  15  23
ENDBRANCH   9  14
ENDBRANCH   7   8
ENDBRANCH   1   7
BRANCH   4  25
ATOM     25  C   UNL     1       1.706  -2.756   0.821  1.00  0.00     0.097 A 
ATOM     26  N   UNL     1       0.986  -3.843   1.226  1.00  0.00    -0.244 NA
ATOM     27  C   UNL     1       3.076  -2.657   1.098  1.00  0.00     0.099 A 
ATOM     28  C   UNL     1       1.625  -4.793   1.929  1.00  0.00     0.089 A 
ATOM     29  N   UNL     1       3.717  -3.621   1.823  1.00  0.00    -0.244 NA
ATOM     30  C   UNL     1       0.921  -5.907   2.371  1.00  0.00     0.030 A 
ATOM     31  C   UNL     1       2.997  -4.679   2.236  1.00  0.00     0.089 A 
ATOM     32  C   UNL     1       1.544  -6.913   3.110  1.00  0.00     0.002 A 
ATOM     33  C   UNL     1       3.610  -5.686   2.971  1.00  0.00     0.030 A 
ATOM     34  C   UNL     1       2.895  -6.801   3.410  1.00  0.00     0.002 A 
BRANCH  27  35
ATOM     35  C   UNL     1       3.971  -1.581   0.648  1.00  0.00     0.021 A 
ATOM     36  C   UNL     1       4.006  -1.103  -0.662  1.00  0.00     0.016 A 
ATOM     37  C   UNL     1       4.893  -1.008   1.516  1.00  0.00     0.124 A 
ATOM     38  C   UNL     1       4.907  -0.096  -1.023  1.00  0.00     0.047 A 
ATOM     39  N   UNL     1       5.769  -0.022   1.192  1.00  0.00    -0.239 NA
ATOM     40  C   UNL     1       5.779   0.438  -0.076  1.00  0.00     0.128 A 
BRANCH  40  41
ATOM     41  N   UNL     1       6.723   1.415  -0.468  1.00  0.00    -0.354 N 
ATOM     42  C   UNL     1       6.081   2.654  -0.945  1.00  0.00     0.121 C 
ATOM     43  C   UNL     1       7.716   1.677   0.603  1.00  0.00     0.152 C 
ATOM     44  C   UNL     1       7.142   3.565  -1.565  1.00  0.00     0.056 C 
ATOM     45  C   UNL     1       8.840   2.553   0.021  1.00  0.00     0.162 C 
ATOM     46  C   UNL     1       8.274   3.854  -0.574  1.00  0.00     0.146 C 
BRANCH  45  47
ATOM     47  O   UNL     1       9.535   1.816  -0.994  1.00  0.00    -0.389 OA
ATOM     48  H   UNL     1       8.835   1.312  -1.462  1.00  0.00     0.211 HD
ENDBRANCH  45  47
BRANCH  46  49
ATOM     49  O   UNL     1       7.777   4.722   0.449  1.00  0.00    -0.390 OA
ATOM     50  H   UNL     1       8.530   4.977   1.008  1.00  0.00     0.211 HD
ENDBRANCH  46  49
ENDBRANCH  40  41
ENDBRANCH  27  35
ENDBRANCH   4  25
TORSDOF 9
