MODEL        3USER    Run = 3USERUSER    Estimated Free Energy of Binding    = -12.50 kcal/mol  [=(1)+(2)+(3)-(4)]USERUSER    (1) Final Intermolecular Energy     = -15.19 kcal/molUSER        vdW + Hbond + desolv Energy     = -15.04 kcal/molUSER        Electrostatic Energy            =  -0.15 kcal/molUSER        Moving Ligand-Fixed Receptor    = -15.19 kcal/molUSER        Moving Ligand-Moving Receptor   =  +0.00 kcal/molUSER    (2) Final Total Internal Energy     =  -2.54 kcal/molUSER    (3) Torsional Free Energy           =  +2.68 kcal/molUSER    (4) Unbound System's Energy         =  -2.54 kcal/molUSERUSERREMARK SMILES Oc1nc2ncccc2n1C1CCN(Cc2ccc(-c3nc4ncccc4nc3-c3ccnc(N4CC[C@@H](O)[C@H](O)C4)c3)cc2)CC1REMARK SMILES IDX 16 1 17 2 18 3 19 4 44 5 45 6 15 7 14 8 11 9 12 10 47 11REMARK SMILES IDX 13 12 46 13 10 14 2 15 3 16 4 17 9 18 5 19 8 20 6 21 7 22REMARK SMILES IDX 1 23 20 25 21 26 29 27 22 28 28 29 23 30 27 31 24 32 26 33REMARK SMILES IDX 25 34 30 35 31 36 43 37 32 38 34 39 33 40 35 41 36 42 42 43REMARK SMILES IDX 37 44 40 45 38 46 41 47 39 49REMARK H PARENT 1 24 41 48 39 50USER                              x       y       z     vdW  Elec       q    TypeUSER                           _______ _______ _______ _____ _____    ______ ____ROOTATOM      1  C   UNL     1      33.745  43.607  17.216 -0.29 +0.01    -0.034 A  ATOM      2  C   UNL     1      33.867  44.747  18.022 -0.36 -0.00    +0.006 A  ATOM      3  C   UNL     1      34.832  44.806  19.034 -0.39 -0.00    +0.011 A  ATOM      4  C   UNL     1      35.694  43.724  19.275 -0.38 -0.00    +0.002 A  ATOM      5  C   UNL     1      35.580  42.595  18.444 -0.31 -0.00    +0.011 A  ATOM      6  C   UNL     1      34.617  42.534  17.432 -0.41 -0.00    +0.006 A  ENDROOTBRANCH   1   7ATOM      7  C   UNL     1      32.716  43.550  16.107 -0.31 -0.06    +0.120 C  BRANCH   7   8ATOM      8  N   UNL     1      31.331  43.361  16.578 -0.12 +0.11    -0.299 NA ATOM      9  C   UNL     1      31.262  40.614  17.451 -0.34 -0.02    +0.095 C  ATOM     10  C   UNL     1      30.159  41.112  16.510 -0.40 -0.01    +0.041 C  ATOM     11  C   UNL     1      31.730  41.709  18.425 -0.36 -0.01    +0.041 C  ATOM     12  C   UNL     1      30.625  42.364  15.757 -0.34 -0.04    +0.087 C  ATOM     13  C   UNL     1      31.221  43.091  18.016 -0.27 -0.01    +0.087 C  BRANCH   9  14ATOM     14  N   UNL     1      30.906  39.375  18.129 -0.21 -0.02    -0.289 N  ATOM     15  C   UNL     1      31.752  38.318  18.334 -0.23 +0.04    +0.296 A  ATOM     16  N   UNL     1      31.199  37.324  18.972 -0.87 -0.07    -0.175 NA ATOM     17  C   UNL     1      29.919  37.750  19.201 -0.26 +0.06    +0.181 A  ATOM     18  C   UNL     1      29.697  39.031  18.689 -0.29 +0.02    +0.091 A  ATOM     19  N   UNL     1      28.975  37.033  19.847 -0.15 -0.03    -0.235 NA ATOM     20  C   UNL     1      28.456  39.658  18.821 -0.21 +0.00    +0.032 A  ATOM     21  C   UNL     1      27.781  37.652  19.961 -0.24 -0.01    +0.114 A  ATOM     22  C   UNL     1      27.476  38.921  19.482 -0.25 -0.00    +0.022 A  BRANCH  15  23ATOM     23  O   UNL     1      33.008  38.274  17.938 -0.19 +0.06    -0.480 OA ATOM     24  H   UNL     1      33.395  37.669  18.598 +0.25 -0.01    +0.296 HD ENDBRANCH  15  23ENDBRANCH   9  14ENDBRANCH   7   8ENDBRANCH   1   7BRANCH   4  25ATOM     25  C   UNL     1      36.708  43.755  20.346 -0.34 -0.00    +0.099 A  ATOM     26  N   UNL     1      36.303  43.133  21.491 -0.26 -0.02    -0.224 NA ATOM     27  C   UNL     1      37.979  44.344  20.244 -0.30 -0.00    +0.098 A  ATOM     28  C   UNL     1      37.152  43.062  22.517 -0.29 +0.01    +0.178 A  ATOM     29  N   UNL     1      38.859  44.257  21.278 -0.18 -0.01    -0.242 NA ATOM     30  N   UNL     1      36.745  42.450  23.635 -0.29 -0.02    -0.235 NA ATOM     31  C   UNL     1      38.440  43.624  22.394 -0.25 +0.01    +0.108 A  ATOM     32  C   UNL     1      37.603  42.371  24.674 -0.27 +0.00    +0.114 A  ATOM     33  C   UNL     1      39.294  43.520  23.481 -0.22 +0.00    +0.034 A  ATOM     34  C   UNL     1      38.882  42.885  24.647 -0.23 +0.00    +0.022 A  BRANCH  27  35ATOM     35  C   UNL     1      38.485  45.118  19.093 -0.38 -0.00    +0.008 A  ATOM     36  C   UNL     1      39.723  45.763  19.112 -0.40 -0.00    +0.030 A  ATOM     37  C   UNL     1      37.742  45.193  17.903 -0.33 -0.01    +0.057 A  ATOM     38  C   UNL     1      40.124  46.462  17.991 -0.39 -0.01    +0.114 A  ATOM     39  C   UNL     1      38.210  45.917  16.803 -0.30 -0.04    +0.129 A  ATOM     40  N   UNL     1      39.397  46.554  16.860 -0.27 +0.06    -0.239 NA BRANCH  39  41ATOM     41  N   UNL     1      37.447  45.969  15.617 -0.11 +0.16    -0.354 N  ATOM     42  C   UNL     1      36.246  45.123  15.665 -0.33 -0.06    +0.121 C  ATOM     43  C   UNL     1      37.254  47.346  15.113 -0.39 -0.10    +0.152 C  ATOM     44  C   UNL     1      35.252  45.477  14.558 -0.34 -0.04    +0.056 C  ATOM     45  C   UNL     1      36.677  47.345  13.684 -0.48 -0.09    +0.162 C  ATOM     46  C   UNL     1      35.980  46.022  13.342 -0.45 -0.08    +0.146 C  BRANCH  45  47ATOM     47  O   UNL     1      37.695  47.593  12.701 -0.87 +0.06    -0.389 OA ATOM     48  H   UNL     1      37.319  47.290  11.854 +0.13 -0.04    +0.211 HD ENDBRANCH  45  47BRANCH  46  49ATOM     49  O   UNL     1      35.056  46.253  12.271 -0.22 +0.27    -0.390 OA ATOM     50  H   UNL     1      34.187  46.431  12.676 -0.33 -0.19    +0.211 HD ENDBRANCH  46  49ENDBRANCH  39  41ENDBRANCH  27  35ENDBRANCH   4  25TORSDOF 9TERENDMDL