
     RDKit          3D

 38 41  0  0  0  0  0  0  0  0999 V2000
    5.3907   -2.8809    2.1070 N   0  0  0  0  0  0  0  0  0  0  0  0
    4.5820   -2.1920    1.6411 C   0  0  0  0  0  0  0  0  0  0  0  0
    3.4969   -1.3989    1.1580 C   0  0  0  0  0  0  0  0  0  0  0  0
    3.6560   -0.3659    0.2257 C   0  0  0  0  0  0  0  0  0  0  0  0
    4.9395   -0.0395   -0.3840 C   0  0  0  0  0  0  0  0  0  0  0  0
    5.9684   -0.9380   -0.5189 N   0  0  0  0  0  0  0  0  0  0  0  0
    6.9579   -0.3039   -1.1294 N   0  0  0  0  0  0  0  0  0  0  0  0
    6.4906    0.9297   -1.3386 N   0  0  0  0  0  0  0  0  0  0  0  0
    5.2389    1.1617   -0.9112 N   0  0  0  0  0  0  0  0  0  0  0  0
    2.5298    0.3898   -0.1462 C   0  0  0  0  0  0  0  0  0  0  0  0
    1.2855    0.1019    0.4022 C   0  0  0  0  0  0  0  0  0  0  0  0
    0.0558    0.8482    0.0624 C   0  0  0  0  0  0  0  0  0  0  0  0
    0.0768    2.2085   -0.2887 C   0  0  0  0  0  0  0  0  0  0  0  0
   -1.0989    2.8914   -0.6076 C   0  0  0  0  0  0  0  0  0  0  0  0
   -2.3246    2.2277   -0.5774 C   0  0  0  0  0  0  0  0  0  0  0  0
   -2.4002    0.8735   -0.2246 C   0  0  0  0  0  0  0  0  0  0  0  0
   -3.6938    0.1691   -0.1795 C   0  0  0  0  0  0  0  0  0  0  0  0
   -4.5835    0.2153   -1.2690 C   0  0  0  0  0  0  0  0  0  0  0  0
   -5.8102   -0.4527   -1.2251 C   0  0  0  0  0  0  0  0  0  0  0  0
   -6.1574   -1.1727   -0.0900 C   0  0  0  0  0  0  0  0  0  0  0  0
   -7.3333   -1.8125   -0.0478 F   0  0  0  0  0  0  0  0  0  0  0  0
   -5.3019   -1.2386    1.0010 C   0  0  0  0  0  0  0  0  0  0  0  0
   -4.0753   -0.5706    0.9555 C   0  0  0  0  0  0  0  0  0  0  0  0
   -1.2007    0.2076    0.0914 C   0  0  0  0  0  0  0  0  0  0  0  0
    1.1351   -0.9100    1.2868 N   0  0  0  0  0  0  0  0  0  0  0  0
    2.2165   -1.6268    1.6484 C   0  0  0  0  0  0  0  0  0  0  0  0
    1.9148   -2.6020    2.5567 O   0  0  0  0  0  0  0  0  0  0  0  0
    7.0521    1.6432   -1.7963 H   0  0  0  0  0  0  0  0  0  0  0  0
    2.6305    1.1854   -0.8805 H   0  0  0  0  0  0  0  0  0  0  0  0
    1.0100    2.7673   -0.2995 H   0  0  0  0  0  0  0  0  0  0  0  0
   -1.0610    3.9461   -0.8688 H   0  0  0  0  0  0  0  0  0  0  0  0
   -3.2297    2.7841   -0.8130 H   0  0  0  0  0  0  0  0  0  0  0  0
   -4.3176    0.7652   -2.1696 H   0  0  0  0  0  0  0  0  0  0  0  0
   -6.4914   -0.4173   -2.0689 H   0  0  0  0  0  0  0  0  0  0  0  0
   -5.5910   -1.8057    1.8798 H   0  0  0  0  0  0  0  0  0  0  0  0
   -3.4166   -0.6229    1.8211 H   0  0  0  0  0  0  0  0  0  0  0  0
   -1.2407   -0.8492    0.3602 H   0  0  0  0  0  0  0  0  0  0  0  0
    2.6996   -3.1156    2.8049 H   0  0  0  0  0  0  0  0  0  0  0  0
  1  2  3  0
  2  3  1  0
  3  4  2  0
  4  5  1  0
  5  6  1  0
  6  7  2  0
  7  8  1  0
  8  9  1  0
  4 10  1  0
 10 11  2  0
 11 12  1  0
 12 13  2  0
 13 14  1  0
 14 15  2  0
 15 16  1  0
 16 17  1  0
 17 18  2  0
 18 19  1  0
 19 20  2  0
 20 21  1  0
 20 22  1  0
 22 23  2  0
 16 24  2  0
 11 25  1  0
 25 26  2  0
 26 27  1  0
 26  3  1  0
  9  5  2  0
 24 12  1  0
 23 17  1  0
  8 28  1  0
 10 29  1  0
 13 30  1  0
 14 31  1  0
 15 32  1  0
 18 33  1  0
 19 34  1  0
 22 35  1  0
 23 36  1  0
 24 37  1  0
 27 38  1  0
M  END
$$$$
