
     RDKit          3D

 37 40  0  0  0  0  0  0  0  0999 V2000
   -4.2007   -3.4844   -0.3530 O   0  0  0  0  0  0  0  0  0  0  0  0
   -3.5823   -2.2823   -0.2215 C   0  0  0  0  0  0  0  0  0  0  0  0
   -2.3022   -2.2967   -0.6345 N   0  0  0  0  0  0  0  0  0  0  0  0
   -1.6072   -1.1364   -0.5267 C   0  0  0  0  0  0  0  0  0  0  0  0
   -0.2023   -1.1864   -0.9821 C   0  0  0  0  0  0  0  0  0  0  0  0
    0.1759   -2.0199   -2.0485 C   0  0  0  0  0  0  0  0  0  0  0  0
    1.4977   -2.0779   -2.4923 C   0  0  0  0  0  0  0  0  0  0  0  0
    2.4757   -1.3028   -1.8723 C   0  0  0  0  0  0  0  0  0  0  0  0
    2.1504   -0.4618   -0.7994 C   0  0  0  0  0  0  0  0  0  0  0  0
    3.1819    0.3519   -0.1360 C   0  0  0  0  0  0  0  0  0  0  0  0
    4.3369   -0.2445    0.4021 C   0  0  0  0  0  0  0  0  0  0  0  0
    5.3156    0.5271    1.0337 C   0  0  0  0  0  0  0  0  0  0  0  0
    5.1464    1.9018    1.1302 C   0  0  0  0  0  0  0  0  0  0  0  0
    6.0844    2.6421    1.7350 F   0  0  0  0  0  0  0  0  0  0  0  0
    4.0179    2.5196    0.6081 C   0  0  0  0  0  0  0  0  0  0  0  0
    3.0391    1.7470   -0.0222 C   0  0  0  0  0  0  0  0  0  0  0  0
    0.8096   -0.4198   -0.3693 C   0  0  0  0  0  0  0  0  0  0  0  0
   -2.1999    0.0245   -0.0245 C   0  0  0  0  0  0  0  0  0  0  0  0
   -3.5413    0.0067    0.3959 C   0  0  0  0  0  0  0  0  0  0  0  0
   -4.1612    1.2116    0.9201 C   0  0  0  0  0  0  0  0  0  0  0  0
   -5.4744    1.2863    1.3207 N   0  0  0  0  0  0  0  0  0  0  0  0
   -5.6836    2.5268    1.7362 N   0  0  0  0  0  0  0  0  0  0  0  0
   -4.5086    3.1385    1.5724 N   0  0  0  0  0  0  0  0  0  0  0  0
   -3.5173    2.3859    1.0701 N   0  0  0  0  0  0  0  0  0  0  0  0
   -4.2457   -1.1853    0.2934 C   0  0  0  0  0  0  0  0  0  0  0  0
   -5.5266   -1.2890    0.6749 F   0  0  0  0  0  0  0  0  0  0  0  0
   -3.4730   -4.0204   -0.7152 H   0  0  0  0  0  0  0  0  0  0  0  0
   -0.5712   -2.6346   -2.5489 H   0  0  0  0  0  0  0  0  0  0  0  0
    1.7631   -2.7273   -3.3227 H   0  0  0  0  0  0  0  0  0  0  0  0
    3.4993   -1.3544   -2.2383 H   0  0  0  0  0  0  0  0  0  0  0  0
    4.4746   -1.3226    0.3414 H   0  0  0  0  0  0  0  0  0  0  0  0
    6.2037    0.0634    1.4508 H   0  0  0  0  0  0  0  0  0  0  0  0
    3.9072    3.5959    0.6909 H   0  0  0  0  0  0  0  0  0  0  0  0
    2.1646    2.2434   -0.4384 H   0  0  0  0  0  0  0  0  0  0  0  0
    0.5639    0.2079    0.4865 H   0  0  0  0  0  0  0  0  0  0  0  0
   -1.6310    0.9494    0.0275 H   0  0  0  0  0  0  0  0  0  0  0  0
   -4.3793    4.1167    1.8157 H   0  0  0  0  0  0  0  0  0  0  0  0
  1  2  1  0
  2  3  2  0
  3  4  1  0
  4  5  1  0
  5  6  2  0
  6  7  1  0
  7  8  2  0
  8  9  1  0
  9 10  1  0
 10 11  2  0
 11 12  1  0
 12 13  2  0
 13 14  1  0
 13 15  1  0
 15 16  2  0
  9 17  2  0
  4 18  2  0
 18 19  1  0
 19 20  1  0
 20 21  1  0
 21 22  2  0
 22 23  1  0
 23 24  1  0
 19 25  2  0
 25 26  1  0
 25  2  1  0
 17  5  1  0
 24 20  2  0
 16 10  1  0
  1 27  1  0
  6 28  1  0
  7 29  1  0
  8 30  1  0
 11 31  1  0
 12 32  1  0
 15 33  1  0
 16 34  1  0
 17 35  1  0
 18 36  1  0
 23 37  1  0
M  END
$$$$
