
     RDKit          3D

 40 43  0  0  0  0  0  0  0  0999 V2000
   -5.3022   -0.9155    0.7481 C   0  0  0  0  0  0  0  0  0  0  0  0
   -3.8535   -0.9219    0.3570 C   0  0  0  0  0  0  0  0  0  0  0  0
   -3.1112    0.2422    0.1008 C   0  0  0  0  0  0  0  0  0  0  0  0
   -3.6813    1.5871    0.1659 C   0  0  0  0  0  0  0  0  0  0  0  0
   -5.0271    1.8581    0.0779 N   0  0  0  0  0  0  0  0  0  0  0  0
   -5.1669    3.1723    0.1640 N   0  0  0  0  0  0  0  0  0  0  0  0
   -3.9203    3.6337    0.2888 N   0  0  0  0  0  0  0  0  0  0  0  0
   -2.9475    2.7107    0.2884 N   0  0  0  0  0  0  0  0  0  0  0  0
   -1.7511    0.1167   -0.2394 C   0  0  0  0  0  0  0  0  0  0  0  0
   -1.1632   -1.1411   -0.3344 C   0  0  0  0  0  0  0  0  0  0  0  0
    0.2582   -1.3394   -0.6851 C   0  0  0  0  0  0  0  0  0  0  0  0
    0.6621   -2.4565   -1.4361 C   0  0  0  0  0  0  0  0  0  0  0  0
    2.0002   -2.6574   -1.7773 C   0  0  0  0  0  0  0  0  0  0  0  0
    2.9687   -1.7428   -1.3680 C   0  0  0  0  0  0  0  0  0  0  0  0
    2.6175   -0.6173   -0.6101 C   0  0  0  0  0  0  0  0  0  0  0  0
    3.6385    0.3467   -0.1683 C   0  0  0  0  0  0  0  0  0  0  0  0
    4.7583   -0.0752    0.5715 C   0  0  0  0  0  0  0  0  0  0  0  0
    5.7271    0.8395    0.9924 C   0  0  0  0  0  0  0  0  0  0  0  0
    5.5830    2.1834    0.6749 C   0  0  0  0  0  0  0  0  0  0  0  0
    6.5113    3.0607    1.0776 F   0  0  0  0  0  0  0  0  0  0  0  0
    4.4894    2.6303   -0.0545 C   0  0  0  0  0  0  0  0  0  0  0  0
    3.5206    1.7150   -0.4740 C   0  0  0  0  0  0  0  0  0  0  0  0
    1.2605   -0.4357   -0.2783 C   0  0  0  0  0  0  0  0  0  0  0  0
   -1.8796   -2.2673   -0.1209 N   0  0  0  0  0  0  0  0  0  0  0  0
   -3.1715   -2.1207    0.2128 C   0  0  0  0  0  0  0  0  0  0  0  0
   -3.7863   -3.3134    0.4121 O   0  0  0  0  0  0  0  0  0  0  0  0
   -5.6438   -1.8958    1.0958 H   0  0  0  0  0  0  0  0  0  0  0  0
   -5.9252   -0.6356   -0.1072 H   0  0  0  0  0  0  0  0  0  0  0  0
   -5.4755   -0.2232    1.5784 H   0  0  0  0  0  0  0  0  0  0  0  0
   -3.7260    4.6274    0.3767 H   0  0  0  0  0  0  0  0  0  0  0  0
   -1.1635    1.0064   -0.4511 H   0  0  0  0  0  0  0  0  0  0  0  0
   -0.0784   -3.1834   -1.7668 H   0  0  0  0  0  0  0  0  0  0  0  0
    2.2854   -3.5271   -2.3637 H   0  0  0  0  0  0  0  0  0  0  0  0
    4.0056   -1.9115   -1.6519 H   0  0  0  0  0  0  0  0  0  0  0  0
    4.8754   -1.1248    0.8354 H   0  0  0  0  0  0  0  0  0  0  0  0
    6.5876    0.5110    1.5660 H   0  0  0  0  0  0  0  0  0  0  0  0
    4.3976    3.6844   -0.2951 H   0  0  0  0  0  0  0  0  0  0  0  0
    2.6736    2.0747   -1.0550 H   0  0  0  0  0  0  0  0  0  0  0  0
    0.9908    0.4200    0.3397 H   0  0  0  0  0  0  0  0  0  0  0  0
   -3.0372   -3.9147    0.2495 H   0  0  0  0  0  0  0  0  0  0  0  0
  1  2  1  0
  2  3  2  0
  3  4  1  0
  4  5  1  0
  5  6  2  0
  6  7  1  0
  7  8  1  0
  3  9  1  0
  9 10  2  0
 10 11  1  0
 11 12  2  0
 12 13  1  0
 13 14  2  0
 14 15  1  0
 15 16  1  0
 16 17  2  0
 17 18  1  0
 18 19  2  0
 19 20  1  0
 19 21  1  0
 21 22  2  0
 15 23  2  0
 10 24  1  0
 24 25  2  0
 25 26  1  0
 25  2  1  0
  8  4  2  0
 23 11  1  0
 22 16  1  0
  1 27  1  0
  1 28  1  0
  1 29  1  0
  7 30  1  0
  9 31  1  0
 12 32  1  0
 13 33  1  0
 14 34  1  0
 17 35  1  0
 18 36  1  0
 21 37  1  0
 22 38  1  0
 23 39  1  0
 26 40  1  0
M  END
$$$$
