
     RDKit          3D

 34 37  0  0  0  0  0  0  0  0999 V2000
    4.2165    0.0675   -2.8498 O   0  0  0  0  0  0  0  0  0  0  0  0
    3.4550    0.0001   -1.7260 C   0  0  0  0  0  0  0  0  0  0  0  0
    2.1925    0.4132   -1.9459 N   0  0  0  0  0  0  0  0  0  0  0  0
    1.3327    0.3627   -0.9019 C   0  0  0  0  0  0  0  0  0  0  0  0
   -0.0472    0.8076   -1.1829 C   0  0  0  0  0  0  0  0  0  0  0  0
   -0.2935    1.8377   -2.1073 C   0  0  0  0  0  0  0  0  0  0  0  0
   -1.5910    2.2734   -2.3820 C   0  0  0  0  0  0  0  0  0  0  0  0
   -2.6764    1.6810   -1.7395 C   0  0  0  0  0  0  0  0  0  0  0  0
   -2.4778    0.6427   -0.8222 C   0  0  0  0  0  0  0  0  0  0  0  0
   -3.6055    0.0053   -0.1298 C   0  0  0  0  0  0  0  0  0  0  0  0
   -3.7361   -0.2911    1.2156 C   0  0  0  0  0  0  0  0  0  0  0  0
   -4.9718   -0.9327    1.5213 C   0  0  0  0  0  0  0  0  0  0  0  0
   -5.7463   -1.1153    0.3989 C   0  0  0  0  0  0  0  0  0  0  0  0
   -4.9855   -0.5171   -1.0094 S   0  0  0  0  0  0  0  0  0  0  0  0
   -1.1631    0.2204   -0.5536 C   0  0  0  0  0  0  0  0  0  0  0  0
    1.7472   -0.0743    0.3549 C   0  0  0  0  0  0  0  0  0  0  0  0
    3.0784   -0.4865    0.5626 C   0  0  0  0  0  0  0  0  0  0  0  0
    3.4603   -0.9188    1.8985 C   0  0  0  0  0  0  0  0  0  0  0  0
    4.7015   -0.7082    2.4490 N   0  0  0  0  0  0  0  0  0  0  0  0
    4.6689   -1.2020    3.6779 N   0  0  0  0  0  0  0  0  0  0  0  0
    3.4276   -1.6734    3.8179 N   0  0  0  0  0  0  0  0  0  0  0  0
    2.6132   -1.5096    2.7636 N   0  0  0  0  0  0  0  0  0  0  0  0
    3.9621   -0.4594   -0.5173 C   0  0  0  0  0  0  0  0  0  0  0  0
    5.5986   -1.0053   -0.4307 Cl  0  0  0  0  0  0  0  0  0  0  0  0
    3.5605    0.3997   -3.4885 H   0  0  0  0  0  0  0  0  0  0  0  0
    0.5386    2.3158   -2.6224 H   0  0  0  0  0  0  0  0  0  0  0  0
   -1.7541    3.0757   -3.0972 H   0  0  0  0  0  0  0  0  0  0  0  0
   -3.6785    2.0424   -1.9599 H   0  0  0  0  0  0  0  0  0  0  0  0
   -2.9812   -0.0494    1.9541 H   0  0  0  0  0  0  0  0  0  0  0  0
   -5.2757   -1.2438    2.5132 H   0  0  0  0  0  0  0  0  0  0  0  0
   -6.7239   -1.5732    0.3351 H   0  0  0  0  0  0  0  0  0  0  0  0
   -1.0159   -0.6065    0.1392 H   0  0  0  0  0  0  0  0  0  0  0  0
    1.0476   -0.0781    1.1876 H   0  0  0  0  0  0  0  0  0  0  0  0
    3.1222   -2.1228    4.6769 H   0  0  0  0  0  0  0  0  0  0  0  0
  1  2  1  0
  2  3  2  0
  3  4  1  0
  4  5  1  0
  5  6  2  0
  6  7  1  0
  7  8  2  0
  8  9  1  0
  9 10  1  0
 10 11  2  0
 11 12  1  0
 12 13  2  0
 13 14  1  0
  9 15  2  0
  4 16  2  0
 16 17  1  0
 17 18  1  0
 18 19  1  0
 19 20  2  0
 20 21  1  0
 21 22  1  0
 17 23  2  0
 23 24  1  0
 23  2  1  0
 15  5  1  0
 22 18  2  0
 14 10  1  0
  1 25  1  0
  6 26  1  0
  7 27  1  0
  8 28  1  0
 11 29  1  0
 12 30  1  0
 13 31  1  0
 15 32  1  0
 16 33  1  0
 21 34  1  0
M  END
$$$$
