
     RDKit          3D

 36 39  0  0  0  0  0  0  0  0999 V2000
    3.5567    2.4574    2.8330 O   0  0  0  0  0  0  0  0  0  0  0  0
    3.1145    1.6856    1.8054 C   0  0  0  0  0  0  0  0  0  0  0  0
    1.7930    1.8356    1.5925 N   0  0  0  0  0  0  0  0  0  0  0  0
    1.2340    1.0906    0.6101 C   0  0  0  0  0  0  0  0  0  0  0  0
   -0.2186    1.2691    0.4148 C   0  0  0  0  0  0  0  0  0  0  0  0
   -0.8188    2.5240    0.6129 C   0  0  0  0  0  0  0  0  0  0  0  0
   -2.1895    2.7100    0.4296 C   0  0  0  0  0  0  0  0  0  0  0  0
   -2.9936    1.6376    0.0480 C   0  0  0  0  0  0  0  0  0  0  0  0
   -2.4437    0.3640   -0.1528 C   0  0  0  0  0  0  0  0  0  0  0  0
   -3.2916   -0.7730   -0.5445 C   0  0  0  0  0  0  0  0  0  0  0  0
   -4.4151   -1.1314    0.2097 C   0  0  0  0  0  0  0  0  0  0  0  0
   -5.1828   -2.2116   -0.1972 C   0  0  0  0  0  0  0  0  0  0  0  0
   -4.9163   -2.9515   -1.2928 N   0  0  0  0  0  0  0  0  0  0  0  0
   -3.8322   -2.5957   -2.0116 C   0  0  0  0  0  0  0  0  0  0  0  0
   -3.0029   -1.5342   -1.6832 C   0  0  0  0  0  0  0  0  0  0  0  0
   -1.0573    0.2009    0.0369 C   0  0  0  0  0  0  0  0  0  0  0  0
    2.0010    0.2236   -0.1659 C   0  0  0  0  0  0  0  0  0  0  0  0
    3.3837    0.1002    0.0675 C   0  0  0  0  0  0  0  0  0  0  0  0
    4.1316   -0.8073   -0.7840 C   0  0  0  0  0  0  0  0  0  0  0  0
    3.6105   -2.0097   -1.2077 N   0  0  0  0  0  0  0  0  0  0  0  0
    4.5190   -2.5648   -1.9966 N   0  0  0  0  0  0  0  0  0  0  0  0
    5.5252   -1.6835   -2.0228 N   0  0  0  0  0  0  0  0  0  0  0  0
    5.3372   -0.5579   -1.3194 N   0  0  0  0  0  0  0  0  0  0  0  0
    3.9619    0.8455    1.0957 C   0  0  0  0  0  0  0  0  0  0  0  0
    5.6262    0.7268    1.5445 Cl  0  0  0  0  0  0  0  0  0  0  0  0
    2.7246    2.8846    3.1042 H   0  0  0  0  0  0  0  0  0  0  0  0
   -0.2100    3.3764    0.9112 H   0  0  0  0  0  0  0  0  0  0  0  0
   -2.6290    3.6923    0.5835 H   0  0  0  0  0  0  0  0  0  0  0  0
   -4.0589    1.8055   -0.0994 H   0  0  0  0  0  0  0  0  0  0  0  0
   -4.6863   -0.5885    1.1095 H   0  0  0  0  0  0  0  0  0  0  0  0
   -6.0581   -2.5193    0.3678 H   0  0  0  0  0  0  0  0  0  0  0  0
   -3.6394   -3.2042   -2.8906 H   0  0  0  0  0  0  0  0  0  0  0  0
   -2.1534   -1.3017   -2.3171 H   0  0  0  0  0  0  0  0  0  0  0  0
   -0.6343   -0.7958   -0.0847 H   0  0  0  0  0  0  0  0  0  0  0  0
    1.5375   -0.3423   -0.9709 H   0  0  0  0  0  0  0  0  0  0  0  0
    6.3755   -1.8570   -2.5521 H   0  0  0  0  0  0  0  0  0  0  0  0
  1  2  1  0
  2  3  2  0
  3  4  1  0
  4  5  1  0
  5  6  2  0
  6  7  1  0
  7  8  2  0
  8  9  1  0
  9 10  1  0
 10 11  2  0
 11 12  1  0
 12 13  2  0
 13 14  1  0
 14 15  2  0
  9 16  2  0
  4 17  2  0
 17 18  1  0
 18 19  1  0
 19 20  1  0
 20 21  2  0
 21 22  1  0
 22 23  1  0
 18 24  2  0
 24 25  1  0
 24  2  1  0
 16  5  1  0
 23 19  2  0
 15 10  1  0
  1 26  1  0
  6 27  1  0
  7 28  1  0
  8 29  1  0
 11 30  1  0
 12 31  1  0
 14 32  1  0
 15 33  1  0
 16 34  1  0
 17 35  1  0
 22 36  1  0
M  END
$$$$
