
     RDKit          3D

 70 75  0  0  0  0  0  0  0  0999 V2000
   -7.9884   -5.3389   -2.4572 N   0  0  0  0  0  0  0  0  0  0  0  0
   -7.2085   -4.6389   -1.9600 C   0  0  0  0  0  0  0  0  0  0  0  0
   -6.2398   -3.7764   -1.3507 C   0  0  0  0  0  0  0  0  0  0  0  0
   -4.9444   -4.2436   -1.0991 C   0  0  0  0  0  0  0  0  0  0  0  0
   -3.9937   -3.3995   -0.5193 C   0  0  0  0  0  0  0  0  0  0  0  0
   -4.3394   -2.0823   -0.1822 C   0  0  0  0  0  0  0  0  0  0  0  0
   -3.3220   -1.2122    0.4608 C   0  0  0  0  0  0  0  0  0  0  0  0
   -3.5975   -0.5963    1.4883 O   0  0  0  0  0  0  0  0  0  0  0  0
   -1.9503   -1.1306   -0.0957 C   0  0  0  0  0  0  0  0  0  0  0  0
   -0.8694   -1.0859    0.7899 C   0  0  0  0  0  0  0  0  0  0  0  0
    0.4355   -1.0323    0.2962 C   0  0  0  0  0  0  0  0  0  0  0  0
    0.6713   -0.9992   -1.0873 C   0  0  0  0  0  0  0  0  0  0  0  0
    2.0875   -0.9394   -1.6271 C   0  0  0  0  0  0  0  0  0  0  0  0
    2.3925    0.3303   -2.3125 N   0  0  0  0  0  0  0  0  0  0  0  0
    3.7098    0.2422   -2.9899 C   0  0  0  0  0  0  0  0  0  0  0  0
    4.9344    0.8385   -2.2424 C   0  0  0  0  0  0  0  0  0  0  0  0
    4.7639    0.7317   -0.7879 N   0  0  0  0  0  0  0  0  0  0  0  0
    5.8439    0.7993    0.0355 C   0  0  0  0  0  0  0  0  0  0  0  0
    5.9423    1.4035    1.1986 N   0  0  0  0  0  0  0  0  0  0  0  0
    7.2200    1.1630    1.6418 C   0  0  0  0  0  0  0  0  0  0  0  0
    7.8658    1.5953    2.8104 C   0  0  0  0  0  0  0  0  0  0  0  0
    9.1901    1.1954    3.0338 C   0  0  0  0  0  0  0  0  0  0  0  0
    9.8581    0.3818    2.1140 C   0  0  0  0  0  0  0  0  0  0  0  0
    9.2287   -0.0625    0.9440 C   0  0  0  0  0  0  0  0  0  0  0  0
    7.9114    0.3551    0.7465 C   0  0  0  0  0  0  0  0  0  0  0  0
    7.0053    0.1255   -0.2549 N   0  0  0  0  0  0  0  0  0  0  0  0
    3.5414    1.4001   -0.2831 C   0  0  0  0  0  0  0  0  0  0  0  0
    2.4305    1.4684   -1.3620 C   0  0  0  0  0  0  0  0  0  0  0  0
   -0.4234   -1.0146   -1.9669 C   0  0  0  0  0  0  0  0  0  0  0  0
   -1.7299   -1.0825   -1.4760 C   0  0  0  0  0  0  0  0  0  0  0  0
   -5.6472   -1.6250   -0.3974 C   0  0  0  0  0  0  0  0  0  0  0  0
   -5.9521   -0.3226   -0.1147 O   0  0  0  0  0  0  0  0  0  0  0  0
   -7.1144   -0.1304    0.7082 C   0  0  0  0  0  0  0  0  0  0  0  0
   -6.7092    0.4388    2.0688 C   0  0  0  0  0  0  0  0  0  0  0  0
   -6.0561    1.7659    1.9424 C   0  0  0  0  0  0  0  0  0  0  0  0
   -6.6134    2.9590    1.9606 N   0  0  0  0  0  0  0  0  0  0  0  0
   -5.5558    3.7953    1.7756 C   0  0  0  0  0  0  0  0  0  0  0  0
   -5.7828    5.1043    1.7303 N   0  0  0  0  0  0  0  0  0  0  0  0
   -4.3685    3.2064    1.6887 N   0  0  0  0  0  0  0  0  0  0  0  0
   -4.7060    1.9077    1.7698 N   0  0  0  0  0  0  0  0  0  0  0  0
   -6.5858   -2.4641   -1.0102 C   0  0  0  0  0  0  0  0  0  0  0  0
   -4.6662   -5.2644   -1.3540 H   0  0  0  0  0  0  0  0  0  0  0  0
   -2.9916   -3.7824   -0.3269 H   0  0  0  0  0  0  0  0  0  0  0  0
   -1.0381   -1.1031    1.8645 H   0  0  0  0  0  0  0  0  0  0  0  0
    1.2682   -1.0060    0.9973 H   0  0  0  0  0  0  0  0  0  0  0  0
    2.1711   -1.7720   -2.3392 H   0  0  0  0  0  0  0  0  0  0  0  0
    2.8068   -1.1666   -0.8312 H   0  0  0  0  0  0  0  0  0  0  0  0
    3.9313   -0.7990   -3.2654 H   0  0  0  0  0  0  0  0  0  0  0  0
    3.6250    0.7696   -3.9488 H   0  0  0  0  0  0  0  0  0  0  0  0
    5.8314    0.3191   -2.5972 H   0  0  0  0  0  0  0  0  0  0  0  0
    5.0477    1.8986   -2.5079 H   0  0  0  0  0  0  0  0  0  0  0  0
    7.3412    2.2261    3.5193 H   0  0  0  0  0  0  0  0  0  0  0  0
    9.7034    1.5258    3.9348 H   0  0  0  0  0  0  0  0  0  0  0  0
   10.8872    0.0853    2.3124 H   0  0  0  0  0  0  0  0  0  0  0  0
    9.7458   -0.6954    0.2312 H   0  0  0  0  0  0  0  0  0  0  0  0
    7.1438   -0.4710   -1.0531 H   0  0  0  0  0  0  0  0  0  0  0  0
    3.1690    0.8400    0.5832 H   0  0  0  0  0  0  0  0  0  0  0  0
    3.7639    2.4233    0.0453 H   0  0  0  0  0  0  0  0  0  0  0  0
    2.5832    2.3815   -1.9554 H   0  0  0  0  0  0  0  0  0  0  0  0
    1.4588    1.6192   -0.8807 H   0  0  0  0  0  0  0  0  0  0  0  0
   -0.2514   -0.9571   -3.0421 H   0  0  0  0  0  0  0  0  0  0  0  0
   -2.5595   -1.0755   -2.1782 H   0  0  0  0  0  0  0  0  0  0  0  0
   -7.7771    0.5642    0.1747 H   0  0  0  0  0  0  0  0  0  0  0  0
   -7.6761   -1.0594    0.8744 H   0  0  0  0  0  0  0  0  0  0  0  0
   -6.0320   -0.2572    2.5762 H   0  0  0  0  0  0  0  0  0  0  0  0
   -7.6009    0.5353    2.6973 H   0  0  0  0  0  0  0  0  0  0  0  0
   -4.9883    5.6936    1.9424 H   0  0  0  0  0  0  0  0  0  0  0  0
   -6.6509    5.4109    2.1487 H   0  0  0  0  0  0  0  0  0  0  0  0
   -3.9969    1.1779    1.7082 H   0  0  0  0  0  0  0  0  0  0  0  0
   -7.5828   -2.0914   -1.2388 H   0  0  0  0  0  0  0  0  0  0  0  0
  1  2  3  0
  2  3  1  0
  3  4  2  0
  4  5  1  0
  5  6  2  0
  6  7  1  0
  7  8  2  0
  7  9  1  0
  9 10  2  0
 10 11  1  0
 11 12  2  0
 12 13  1  0
 13 14  1  0
 14 15  1  0
 15 16  1  0
 16 17  1  0
 17 18  1  0
 18 19  2  0
 19 20  1  0
 20 21  2  0
 21 22  1  0
 22 23  2  0
 23 24  1  0
 24 25  2  0
 25 26  1  0
 17 27  1  0
 27 28  1  0
 12 29  1  0
 29 30  2  0
  6 31  1  0
 31 32  1  0
 32 33  1  0
 33 34  1  0
 34 35  1  0
 35 36  2  0
 36 37  1  0
 37 38  1  0
 37 39  2  0
 39 40  1  0
 31 41  2  0
 41  3  1  0
 30  9  1  0
 40 35  1  0
 28 14  1  0
 26 18  1  0
 25 20  1  0
  4 42  1  0
  5 43  1  0
 10 44  1  0
 11 45  1  0
 13 46  1  0
 13 47  1  0
 15 48  1  0
 15 49  1  0
 16 50  1  0
 16 51  1  0
 21 52  1  0
 22 53  1  0
 23 54  1  0
 24 55  1  0
 26 56  1  0
 27 57  1  0
 27 58  1  0
 28 59  1  0
 28 60  1  0
 29 61  1  0
 30 62  1  0
 33 63  1  0
 33 64  1  0
 34 65  1  0
 34 66  1  0
 38 67  1  0
 38 68  1  0
 40 69  1  0
 41 70  1  0
M  END
$$$$
