
     RDKit          3D

 72 77  0  0  0  0  0  0  0  0999 V2000
   -6.1429    5.4866   -3.7632 N   0  0  0  0  0  0  0  0  0  0  0  0
   -5.6605    4.7843   -2.9763 C   0  0  0  0  0  0  0  0  0  0  0  0
   -5.0638    3.9019   -2.0157 C   0  0  0  0  0  0  0  0  0  0  0  0
   -4.5033    4.4163   -0.8436 C   0  0  0  0  0  0  0  0  0  0  0  0
   -3.9111    3.5546    0.0778 C   0  0  0  0  0  0  0  0  0  0  0  0
   -3.8736    2.1782   -0.1797 C   0  0  0  0  0  0  0  0  0  0  0  0
   -3.2336    1.3132    0.8334 C   0  0  0  0  0  0  0  0  0  0  0  0
   -3.6673    1.3511    1.9823 O   0  0  0  0  0  0  0  0  0  0  0  0
   -2.0759    0.4450    0.4886 C   0  0  0  0  0  0  0  0  0  0  0  0
   -1.2831    0.6837   -0.6387 C   0  0  0  0  0  0  0  0  0  0  0  0
   -0.1791   -0.1299   -0.9013 C   0  0  0  0  0  0  0  0  0  0  0  0
    0.1563   -1.1850   -0.0395 C   0  0  0  0  0  0  0  0  0  0  0  0
    1.3816   -2.0315   -0.3210 C   0  0  0  0  0  0  0  0  0  0  0  0
    2.6117   -1.2360   -0.3390 N   0  0  0  0  0  0  0  0  0  0  0  0
    3.0051   -0.7410    0.9879 C   0  0  0  0  0  0  0  0  0  0  0  0
    4.2549    0.1636    0.9069 C   0  0  0  0  0  0  0  0  0  0  0  0
    5.3614   -0.4677    0.1772 N   0  0  0  0  0  0  0  0  0  0  0  0
    6.6499   -0.0958    0.3785 C   0  0  0  0  0  0  0  0  0  0  0  0
    7.7387   -0.8046    0.1766 N   0  0  0  0  0  0  0  0  0  0  0  0
    8.7893    0.0152    0.5087 C   0  0  0  0  0  0  0  0  0  0  0  0
   10.1695   -0.2327    0.4868 C   0  0  0  0  0  0  0  0  0  0  0  0
   11.0432    0.7873    0.8853 C   0  0  0  0  0  0  0  0  0  0  0  0
   10.5535    2.0304    1.2985 C   0  0  0  0  0  0  0  0  0  0  0  0
    9.1801    2.2990    1.3186 C   0  0  0  0  0  0  0  0  0  0  0  0
    8.3348    1.2624    0.9168 C   0  0  0  0  0  0  0  0  0  0  0  0
    6.9730    1.1675    0.8069 N   0  0  0  0  0  0  0  0  0  0  0  0
    5.1207   -1.8258   -0.3244 C   0  0  0  0  0  0  0  0  0  0  0  0
    3.7288   -1.9486   -0.9966 C   0  0  0  0  0  0  0  0  0  0  0  0
   -0.6443   -1.4225    1.0854 C   0  0  0  0  0  0  0  0  0  0  0  0
   -1.7499   -0.6086    1.3504 C   0  0  0  0  0  0  0  0  0  0  0  0
   -4.4781    1.6428   -1.3277 C   0  0  0  0  0  0  0  0  0  0  0  0
   -4.4519    0.2811   -1.4653 O   0  0  0  0  0  0  0  0  0  0  0  0
   -5.4967   -0.3597   -2.2092 C   0  0  0  0  0  0  0  0  0  0  0  0
   -6.8460   -0.3442   -1.4765 C   0  0  0  0  0  0  0  0  0  0  0  0
   -6.9577   -1.4104   -0.4087 C   0  0  0  0  0  0  0  0  0  0  0  0
   -7.7883   -2.5258   -0.6083 C   0  0  0  0  0  0  0  0  0  0  0  0
   -7.9011   -3.5080    0.3778 C   0  0  0  0  0  0  0  0  0  0  0  0
   -7.1807   -3.3823    1.5581 C   0  0  0  0  0  0  0  0  0  0  0  0
   -7.2916   -4.3274    2.5010 F   0  0  0  0  0  0  0  0  0  0  0  0
   -6.3534   -2.2882    1.7762 C   0  0  0  0  0  0  0  0  0  0  0  0
   -6.2448   -1.3018    0.7935 C   0  0  0  0  0  0  0  0  0  0  0  0
   -5.0516    2.5186   -2.2550 C   0  0  0  0  0  0  0  0  0  0  0  0
   -4.5223    5.4854   -0.6412 H   0  0  0  0  0  0  0  0  0  0  0  0
   -3.4813    3.9508    0.9956 H   0  0  0  0  0  0  0  0  0  0  0  0
   -1.4917    1.5048   -1.3165 H   0  0  0  0  0  0  0  0  0  0  0  0
    0.4421    0.0700   -1.7728 H   0  0  0  0  0  0  0  0  0  0  0  0
    1.2175   -2.4954   -1.3028 H   0  0  0  0  0  0  0  0  0  0  0  0
    1.4601   -2.8523    0.4026 H   0  0  0  0  0  0  0  0  0  0  0  0
    3.2034   -1.5840    1.6662 H   0  0  0  0  0  0  0  0  0  0  0  0
    2.1992   -0.1494    1.4392 H   0  0  0  0  0  0  0  0  0  0  0  0
    4.5580    0.4144    1.9307 H   0  0  0  0  0  0  0  0  0  0  0  0
    3.9903    1.0981    0.3982 H   0  0  0  0  0  0  0  0  0  0  0  0
   10.5448   -1.1970    0.1625 H   0  0  0  0  0  0  0  0  0  0  0  0
   12.1155    0.6060    0.8744 H   0  0  0  0  0  0  0  0  0  0  0  0
   11.2537    2.8044    1.6070 H   0  0  0  0  0  0  0  0  0  0  0  0
    8.7975    3.2636    1.6330 H   0  0  0  0  0  0  0  0  0  0  0  0
    6.3114    1.9032    0.9876 H   0  0  0  0  0  0  0  0  0  0  0  0
    5.8786   -2.1151   -1.0640 H   0  0  0  0  0  0  0  0  0  0  0  0
    5.1875   -2.5351    0.5128 H   0  0  0  0  0  0  0  0  0  0  0  0
    3.5124   -3.0201   -1.1102 H   0  0  0  0  0  0  0  0  0  0  0  0
    3.8029   -1.5399   -2.0134 H   0  0  0  0  0  0  0  0  0  0  0  0
   -0.4072   -2.2326    1.7713 H   0  0  0  0  0  0  0  0  0  0  0  0
   -2.3544   -0.7965    2.2354 H   0  0  0  0  0  0  0  0  0  0  0  0
   -5.1714   -1.3936   -2.3735 H   0  0  0  0  0  0  0  0  0  0  0  0
   -5.5837    0.0782   -3.2083 H   0  0  0  0  0  0  0  0  0  0  0  0
   -7.0449    0.6288   -1.0128 H   0  0  0  0  0  0  0  0  0  0  0  0
   -7.6401   -0.5058   -2.2158 H   0  0  0  0  0  0  0  0  0  0  0  0
   -8.3598   -2.6325   -1.5274 H   0  0  0  0  0  0  0  0  0  0  0  0
   -8.5486   -4.3659    0.2338 H   0  0  0  0  0  0  0  0  0  0  0  0
   -5.8008   -2.2068    2.7064 H   0  0  0  0  0  0  0  0  0  0  0  0
   -5.6023   -0.4453    0.9831 H   0  0  0  0  0  0  0  0  0  0  0  0
   -5.4885    2.1541   -3.1798 H   0  0  0  0  0  0  0  0  0  0  0  0
  1  2  3  0
  2  3  1  0
  3  4  2  0
  4  5  1  0
  5  6  2  0
  6  7  1  0
  7  8  2  0
  7  9  1  0
  9 10  2  0
 10 11  1  0
 11 12  2  0
 12 13  1  0
 13 14  1  0
 14 15  1  0
 15 16  1  0
 16 17  1  0
 17 18  1  0
 18 19  2  0
 19 20  1  0
 20 21  2  0
 21 22  1  0
 22 23  2  0
 23 24  1  0
 24 25  2  0
 25 26  1  0
 17 27  1  0
 27 28  1  0
 12 29  1  0
 29 30  2  0
  6 31  1  0
 31 32  1  0
 32 33  1  0
 33 34  1  0
 34 35  1  0
 35 36  2  0
 36 37  1  0
 37 38  2  0
 38 39  1  0
 38 40  1  0
 40 41  2  0
 31 42  2  0
 42  3  1  0
 30  9  1  0
 41 35  1  0
 28 14  1  0
 26 18  1  0
 25 20  1  0
  4 43  1  0
  5 44  1  0
 10 45  1  0
 11 46  1  0
 13 47  1  0
 13 48  1  0
 15 49  1  0
 15 50  1  0
 16 51  1  0
 16 52  1  0
 21 53  1  0
 22 54  1  0
 23 55  1  0
 24 56  1  0
 26 57  1  0
 27 58  1  0
 27 59  1  0
 28 60  1  0
 28 61  1  0
 29 62  1  0
 30 63  1  0
 33 64  1  0
 33 65  1  0
 34 66  1  0
 34 67  1  0
 36 68  1  0
 37 69  1  0
 40 70  1  0
 41 71  1  0
 42 72  1  0
M  END
$$$$
