
     RDKit          3D

 68 73  0  0  0  0  0  0  0  0999 V2000
    8.3911   -4.9341    2.5428 N   0  0  0  0  0  0  0  0  0  0  0  0
    7.6032   -4.4647    1.8354 C   0  0  0  0  0  0  0  0  0  0  0  0
    6.6335   -3.8452    0.9775 C   0  0  0  0  0  0  0  0  0  0  0  0
    5.9379   -4.6040    0.0314 C   0  0  0  0  0  0  0  0  0  0  0  0
    5.0167   -3.9878   -0.8206 C   0  0  0  0  0  0  0  0  0  0  0  0
    4.7698   -2.6125   -0.7147 C   0  0  0  0  0  0  0  0  0  0  0  0
    3.8086   -2.0205   -1.6716 C   0  0  0  0  0  0  0  0  0  0  0  0
    3.9545   -2.2575   -2.8692 O   0  0  0  0  0  0  0  0  0  0  0  0
    2.6728   -1.1823   -1.2101 C   0  0  0  0  0  0  0  0  0  0  0  0
    2.0731   -1.3702    0.0409 C   0  0  0  0  0  0  0  0  0  0  0  0
    1.0276   -0.5349    0.4474 C   0  0  0  0  0  0  0  0  0  0  0  0
    0.5615    0.4836   -0.3972 C   0  0  0  0  0  0  0  0  0  0  0  0
   -0.5574    1.4088    0.0374 C   0  0  0  0  0  0  0  0  0  0  0  0
   -1.8197    1.1592   -0.6721 N   0  0  0  0  0  0  0  0  0  0  0  0
   -2.8181    2.2226   -0.4106 C   0  0  0  0  0  0  0  0  0  0  0  0
   -4.0283    1.8243    0.4687 C   0  0  0  0  0  0  0  0  0  0  0  0
   -4.6971    0.6220   -0.0534 N   0  0  0  0  0  0  0  0  0  0  0  0
   -6.0499    0.6281   -0.1444 C   0  0  0  0  0  0  0  0  0  0  0  0
   -6.8863    1.5234    0.3343 N   0  0  0  0  0  0  0  0  0  0  0  0
   -8.1426    1.1019   -0.0256 C   0  0  0  0  0  0  0  0  0  0  0  0
   -9.3935    1.6848    0.2238 C   0  0  0  0  0  0  0  0  0  0  0  0
  -10.5418    1.0511   -0.2740 C   0  0  0  0  0  0  0  0  0  0  0  0
  -10.4440   -0.1376   -1.0040 C   0  0  0  0  0  0  0  0  0  0  0  0
   -9.2043   -0.7424   -1.2489 C   0  0  0  0  0  0  0  0  0  0  0  0
   -8.0795   -0.0866   -0.7423 C   0  0  0  0  0  0  0  0  0  0  0  0
   -6.7398   -0.3700   -0.7894 N   0  0  0  0  0  0  0  0  0  0  0  0
   -3.8517   -0.3314   -0.7752 C   0  0  0  0  0  0  0  0  0  0  0  0
   -2.3705   -0.1776   -0.3701 C   0  0  0  0  0  0  0  0  0  0  0  0
    1.1362    0.6305   -1.6676 C   0  0  0  0  0  0  0  0  0  0  0  0
    2.1841   -0.1975   -2.0735 C   0  0  0  0  0  0  0  0  0  0  0  0
    5.4581   -1.8500    0.2384 C   0  0  0  0  0  0  0  0  0  0  0  0
    5.3204   -0.4867    0.2662 O   0  0  0  0  0  0  0  0  0  0  0  0
    4.8225    0.0180    1.5187 C   0  0  0  0  0  0  0  0  0  0  0  0
    5.7837    1.0587    2.0813 C   0  0  0  0  0  0  0  0  0  0  0  0
    5.6612    2.3539    1.3668 C   0  0  0  0  0  0  0  0  0  0  0  0
    4.7256    3.2672    1.5303 N   0  0  0  0  0  0  0  0  0  0  0  0
    5.0210    4.3253    0.7013 N   0  0  0  0  0  0  0  0  0  0  0  0
    6.1192    4.0281    0.0454 C   0  0  0  0  0  0  0  0  0  0  0  0
    6.5452    2.7905    0.4156 N   0  0  0  0  0  0  0  0  0  0  0  0
    6.3997   -2.4677    1.0730 C   0  0  0  0  0  0  0  0  0  0  0  0
    6.1183   -5.6736   -0.0643 H   0  0  0  0  0  0  0  0  0  0  0  0
    4.5000   -4.5763   -1.5782 H   0  0  0  0  0  0  0  0  0  0  0  0
    2.4037   -2.1552    0.7167 H   0  0  0  0  0  0  0  0  0  0  0  0
    0.5837   -0.6783    1.4279 H   0  0  0  0  0  0  0  0  0  0  0  0
   -0.2110    2.4278   -0.1744 H   0  0  0  0  0  0  0  0  0  0  0  0
   -0.7001    1.3589    1.1236 H   0  0  0  0  0  0  0  0  0  0  0  0
   -3.2045    2.5293   -1.3922 H   0  0  0  0  0  0  0  0  0  0  0  0
   -2.3508    3.1186    0.0179 H   0  0  0  0  0  0  0  0  0  0  0  0
   -3.6923    1.6266    1.4929 H   0  0  0  0  0  0  0  0  0  0  0  0
   -4.7058    2.6848    0.5154 H   0  0  0  0  0  0  0  0  0  0  0  0
   -9.4577    2.6077    0.7899 H   0  0  0  0  0  0  0  0  0  0  0  0
  -11.5181    1.4954   -0.0929 H   0  0  0  0  0  0  0  0  0  0  0  0
  -11.3508   -0.6058   -1.3841 H   0  0  0  0  0  0  0  0  0  0  0  0
   -9.1264   -1.6623   -1.8171 H   0  0  0  0  0  0  0  0  0  0  0  0
   -6.3255   -1.1716   -1.2330 H   0  0  0  0  0  0  0  0  0  0  0  0
   -4.1599   -1.3605   -0.5484 H   0  0  0  0  0  0  0  0  0  0  0  0
   -3.9563   -0.1760   -1.8563 H   0  0  0  0  0  0  0  0  0  0  0  0
   -2.2881   -0.3942    0.7047 H   0  0  0  0  0  0  0  0  0  0  0  0
   -1.7903   -0.9388   -0.9040 H   0  0  0  0  0  0  0  0  0  0  0  0
    0.7692    1.3990   -2.3461 H   0  0  0  0  0  0  0  0  0  0  0  0
    2.6216   -0.0654   -3.0600 H   0  0  0  0  0  0  0  0  0  0  0  0
    3.8426    0.4641    1.3272 H   0  0  0  0  0  0  0  0  0  0  0  0
    4.6712   -0.7838    2.2532 H   0  0  0  0  0  0  0  0  0  0  0  0
    5.5476    1.2313    3.1378 H   0  0  0  0  0  0  0  0  0  0  0  0
    6.8155    0.6975    2.0296 H   0  0  0  0  0  0  0  0  0  0  0  0
    6.6295    4.6516   -0.6778 H   0  0  0  0  0  0  0  0  0  0  0  0
    7.3580    2.3010    0.0695 H   0  0  0  0  0  0  0  0  0  0  0  0
    6.9740   -1.8725    1.7786 H   0  0  0  0  0  0  0  0  0  0  0  0
  1  2  3  0
  2  3  1  0
  3  4  2  0
  4  5  1  0
  5  6  2  0
  6  7  1  0
  7  8  2  0
  7  9  1  0
  9 10  2  0
 10 11  1  0
 11 12  2  0
 12 13  1  0
 13 14  1  0
 14 15  1  0
 15 16  1  0
 16 17  1  0
 17 18  1  0
 18 19  2  0
 19 20  1  0
 20 21  2  0
 21 22  1  0
 22 23  2  0
 23 24  1  0
 24 25  2  0
 25 26  1  0
 17 27  1  0
 27 28  1  0
 12 29  1  0
 29 30  2  0
  6 31  1  0
 31 32  1  0
 32 33  1  0
 33 34  1  0
 34 35  1  0
 35 36  2  0
 36 37  1  0
 37 38  2  0
 38 39  1  0
 31 40  2  0
 40  3  1  0
 30  9  1  0
 39 35  1  0
 28 14  1  0
 26 18  1  0
 25 20  1  0
  4 41  1  0
  5 42  1  0
 10 43  1  0
 11 44  1  0
 13 45  1  0
 13 46  1  0
 15 47  1  0
 15 48  1  0
 16 49  1  0
 16 50  1  0
 21 51  1  0
 22 52  1  0
 23 53  1  0
 24 54  1  0
 26 55  1  0
 27 56  1  0
 27 57  1  0
 28 58  1  0
 28 59  1  0
 29 60  1  0
 30 61  1  0
 33 62  1  0
 33 63  1  0
 34 64  1  0
 34 65  1  0
 38 66  1  0
 39 67  1  0
 40 68  1  0
M  END
$$$$
