
     RDKit          3D

 69 74  0  0  0  0  0  0  0  0999 V2000
   -8.1075   -4.1714   -2.8702 N   0  0  0  0  0  0  0  0  0  0  0  0
   -7.2896   -3.8148   -2.1256 C   0  0  0  0  0  0  0  0  0  0  0  0
   -6.2644   -3.4008   -1.2145 C   0  0  0  0  0  0  0  0  0  0  0  0
   -5.5576   -4.3561   -0.4761 C   0  0  0  0  0  0  0  0  0  0  0  0
   -4.5380   -3.9590    0.3938 C   0  0  0  0  0  0  0  0  0  0  0  0
   -4.2078   -2.6056    0.5204 C   0  0  0  0  0  0  0  0  0  0  0  0
   -3.1118   -2.2475    1.4464 C   0  0  0  0  0  0  0  0  0  0  0  0
   -3.1213   -2.7470    2.5699 O   0  0  0  0  0  0  0  0  0  0  0  0
   -2.0233   -1.3094    1.0592 C   0  0  0  0  0  0  0  0  0  0  0  0
   -1.3276   -0.6469    2.0788 C   0  0  0  0  0  0  0  0  0  0  0  0
   -0.3247    0.2749    1.7671 C   0  0  0  0  0  0  0  0  0  0  0  0
    0.0098    0.5396    0.4313 C   0  0  0  0  0  0  0  0  0  0  0  0
    1.0599    1.5750    0.0858 C   0  0  0  0  0  0  0  0  0  0  0  0
    2.4177    1.0906   -0.1123 N   0  0  0  0  0  0  0  0  0  0  0  0
    3.1612    0.7169    1.0954 C   0  0  0  0  0  0  0  0  0  0  0  0
    4.1526   -0.4575    0.9080 C   0  0  0  0  0  0  0  0  0  0  0  0
    4.9413   -0.3152   -0.3207 N   0  0  0  0  0  0  0  0  0  0  0  0
    6.2266    0.1371   -0.3161 C   0  0  0  0  0  0  0  0  0  0  0  0
    6.8681    0.7338   -1.3002 N   0  0  0  0  0  0  0  0  0  0  0  0
    8.1158    1.0404   -0.8159 C   0  0  0  0  0  0  0  0  0  0  0  0
    9.1810    1.7139   -1.4359 C   0  0  0  0  0  0  0  0  0  0  0  0
   10.3634    1.9126   -0.7101 C   0  0  0  0  0  0  0  0  0  0  0  0
   10.4810    1.4480    0.6031 C   0  0  0  0  0  0  0  0  0  0  0  0
    9.4300    0.7673    1.2333 C   0  0  0  0  0  0  0  0  0  0  0  0
    8.2608    0.5937    0.4889 C   0  0  0  0  0  0  0  0  0  0  0  0
    7.0553    0.0031    0.7706 N   0  0  0  0  0  0  0  0  0  0  0  0
    4.1485    0.0025   -1.5343 C   0  0  0  0  0  0  0  0  0  0  0  0
    2.6373    0.1777   -1.2361 C   0  0  0  0  0  0  0  0  0  0  0  0
   -0.6719   -0.1533   -0.5823 C   0  0  0  0  0  0  0  0  0  0  0  0
   -1.6755   -1.0773   -0.2743 C   0  0  0  0  0  0  0  0  0  0  0  0
   -4.9567   -1.6474   -0.1746 C   0  0  0  0  0  0  0  0  0  0  0  0
   -4.7001   -0.3097   -0.0632 O   0  0  0  0  0  0  0  0  0  0  0  0
   -5.4582    0.2719    1.0119 C   0  0  0  0  0  0  0  0  0  0  0  0
   -5.5668    1.7752    0.7651 C   0  0  0  0  0  0  0  0  0  0  0  0
   -6.5062    2.0774   -0.2983 N   0  0  0  0  0  0  0  0  0  0  0  0
   -7.8160    2.4358   -0.1459 C   0  0  0  0  0  0  0  0  0  0  0  0
   -8.2956    2.5660   -1.4280 C   0  0  0  0  0  0  0  0  0  0  0  0
   -7.3080    2.3088   -2.3459 N   0  0  0  0  0  0  0  0  0  0  0  0
   -6.2377    2.0304   -1.6360 C   0  0  0  0  0  0  0  0  0  0  0  0
   -5.9622   -2.0430   -1.0625 C   0  0  0  0  0  0  0  0  0  0  0  0
   -5.7887   -5.4169   -0.5794 H   0  0  0  0  0  0  0  0  0  0  0  0
   -3.9933   -4.7089    0.9648 H   0  0  0  0  0  0  0  0  0  0  0  0
   -1.5754   -0.8391    3.1213 H   0  0  0  0  0  0  0  0  0  0  0  0
    0.1862    0.7931    2.5763 H   0  0  0  0  0  0  0  0  0  0  0  0
    1.0618    2.3530    0.8615 H   0  0  0  0  0  0  0  0  0  0  0  0
    0.7371    2.1079   -0.8198 H   0  0  0  0  0  0  0  0  0  0  0  0
    3.7264    1.5978    1.4239 H   0  0  0  0  0  0  0  0  0  0  0  0
    2.4924    0.4473    1.9192 H   0  0  0  0  0  0  0  0  0  0  0  0
    4.7705   -0.5515    1.8061 H   0  0  0  0  0  0  0  0  0  0  0  0
    3.5888   -1.3965    0.8398 H   0  0  0  0  0  0  0  0  0  0  0  0
    9.0750    2.0749   -2.4529 H   0  0  0  0  0  0  0  0  0  0  0  0
   11.1940    2.4412   -1.1776 H   0  0  0  0  0  0  0  0  0  0  0  0
   11.4086    1.6177    1.1479 H   0  0  0  0  0  0  0  0  0  0  0  0
    9.5274    0.4028    2.2506 H   0  0  0  0  0  0  0  0  0  0  0  0
    6.8241   -0.4658    1.6300 H   0  0  0  0  0  0  0  0  0  0  0  0
    4.2827   -0.8028   -2.2689 H   0  0  0  0  0  0  0  0  0  0  0  0
    4.5013    0.9342   -2.0019 H   0  0  0  0  0  0  0  0  0  0  0  0
    2.1925   -0.8051   -1.0318 H   0  0  0  0  0  0  0  0  0  0  0  0
    2.1583    0.5681   -2.1420 H   0  0  0  0  0  0  0  0  0  0  0  0
   -0.4284    0.0305   -1.6275 H   0  0  0  0  0  0  0  0  0  0  0  0
   -2.1714   -1.5974   -1.0907 H   0  0  0  0  0  0  0  0  0  0  0  0
   -6.4570   -0.1747    1.0954 H   0  0  0  0  0  0  0  0  0  0  0  0
   -4.9137    0.0989    1.9480 H   0  0  0  0  0  0  0  0  0  0  0  0
   -5.9206    2.2860    1.6673 H   0  0  0  0  0  0  0  0  0  0  0  0
   -4.6012    2.2032    0.4746 H   0  0  0  0  0  0  0  0  0  0  0  0
   -8.2884    2.5594    0.8177 H   0  0  0  0  0  0  0  0  0  0  0  0
   -9.2988    2.8292   -1.7390 H   0  0  0  0  0  0  0  0  0  0  0  0
   -5.2657    1.7734   -2.0365 H   0  0  0  0  0  0  0  0  0  0  0  0
   -6.5070   -1.2906   -1.6305 H   0  0  0  0  0  0  0  0  0  0  0  0
  1  2  3  0
  2  3  1  0
  3  4  2  0
  4  5  1  0
  5  6  2  0
  6  7  1  0
  7  8  2  0
  7  9  1  0
  9 10  2  0
 10 11  1  0
 11 12  2  0
 12 13  1  0
 13 14  1  0
 14 15  1  0
 15 16  1  0
 16 17  1  0
 17 18  1  0
 18 19  2  0
 19 20  1  0
 20 21  2  0
 21 22  1  0
 22 23  2  0
 23 24  1  0
 24 25  2  0
 25 26  1  0
 17 27  1  0
 27 28  1  0
 12 29  1  0
 29 30  2  0
  6 31  1  0
 31 32  1  0
 32 33  1  0
 33 34  1  0
 34 35  1  0
 35 36  1  0
 36 37  2  0
 37 38  1  0
 38 39  2  0
 31 40  2  0
 40  3  1  0
 30  9  1  0
 39 35  1  0
 28 14  1  0
 26 18  1  0
 25 20  1  0
  4 41  1  0
  5 42  1  0
 10 43  1  0
 11 44  1  0
 13 45  1  0
 13 46  1  0
 15 47  1  0
 15 48  1  0
 16 49  1  0
 16 50  1  0
 21 51  1  0
 22 52  1  0
 23 53  1  0
 24 54  1  0
 26 55  1  0
 27 56  1  0
 27 57  1  0
 28 58  1  0
 28 59  1  0
 29 60  1  0
 30 61  1  0
 33 62  1  0
 33 63  1  0
 34 64  1  0
 34 65  1  0
 36 66  1  0
 37 67  1  0
 39 68  1  0
 40 69  1  0
M  END
$$$$
