REMARK SMILES N#Cc1c(O)cccc1-c1cncc(C=Cc2ccccc2CNCCOC(F)F)n1
REMARK SMILES IDX 17 1 18 2 19 3 20 4 21 5 22 6 16 7 15 8 14 9 10 10 11 11
REMARK SMILES IDX 31 12 12 13 13 14 9 15 3 16 4 17 6 18 8 19 7 20 2 21 1 22
REMARK SMILES IDX 5 23 23 25 24 26 25 28 26 29 27 30 28 31 29 32 30 33
REMARK H PARENT 5 24 24 27
ROOT
ATOM      1  C   UNL     1       1.134   0.110  -0.724  1.00  0.00    -0.021 A 
ATOM      2  C   UNL     1       0.408   0.868  -1.658  1.00  0.00     0.008 A 
ATOM      3  C   UNL     1       0.910   2.075  -2.144  1.00  0.00     0.001 A 
ATOM      4  C   UNL     1       2.148   2.534  -1.710  1.00  0.00     0.000 A 
ATOM      5  C   UNL     1       2.887   1.784  -0.795  1.00  0.00     0.005 A 
ATOM      6  C   UNL     1       2.399   0.562  -0.294  1.00  0.00    -0.027 A 
ENDROOT
BRANCH   1   7
ATOM      7  C   UNL     1       0.557  -1.153  -0.240  1.00  0.00     0.011 C 
BRANCH   7   8
ATOM      8  C   UNL     1      -0.602  -1.315   0.422  1.00  0.00     0.030 C 
BRANCH   8   9
ATOM      9  C   UNL     1      -1.559  -0.297   0.863  1.00  0.00     0.082 A 
ATOM     10  C   UNL     1      -3.777   0.248   1.176  1.00  0.00     0.091 A 
ATOM     11  C   UNL     1      -3.394   1.465   1.735  1.00  0.00     0.140 A 
ATOM     12  N   UNL     1      -2.862  -0.656   0.749  1.00  0.00    -0.245 NA
ATOM     13  N   UNL     1      -2.099   1.826   1.887  1.00  0.00    -0.260 NA
ATOM     14  C   UNL     1      -1.195   0.919   1.437  1.00  0.00     0.139 A 
BRANCH  10  15
ATOM     15  C   UNL     1      -5.179  -0.150   1.028  1.00  0.00     0.023 A 
ATOM     16  C   UNL     1      -5.990   0.317  -0.029  1.00  0.00     0.103 A 
ATOM     17  C   UNL     1      -7.329  -0.096  -0.113  1.00  0.00     0.134 A 
ATOM     18  C   UNL     1      -7.864  -0.969   0.832  1.00  0.00     0.047 A 
ATOM     19  C   UNL     1      -5.736  -1.044   1.963  1.00  0.00     0.012 A 
ATOM     20  C   UNL     1      -7.067  -1.448   1.868  1.00  0.00     0.005 A 
BRANCH  16  21
ATOM     21  C   UNL     1      -5.455   1.207  -1.018  1.00  0.00     0.104 C 
ATOM     22  N   UNL     1      -5.084   1.945  -1.833  1.00  0.00    -0.192 NA
ENDBRANCH  16  21
BRANCH  17  23
ATOM     23  O   UNL     1      -8.196   0.308  -1.095  1.00  0.00    -0.507 OA
ATOM     24  H   UNL     1      -7.754   0.874  -1.752  1.00  0.00     0.293 HD
ENDBRANCH  17  23
ENDBRANCH  10  15
ENDBRANCH   8   9
ENDBRANCH   7   8
ENDBRANCH   1   7
BRANCH   6  25
ATOM     25  C   UNL     1       3.250  -0.208   0.696  1.00  0.00     0.117 C 
BRANCH  25  26
ATOM     26  N   UNL     1       3.796  -1.466   0.182  1.00  0.00    -0.310 NA
ATOM     27  H   UNL     1       4.316  -1.920   0.937  1.00  0.00     0.123 HD
BRANCH  26  28
ATOM     28  C   UNL     1       4.721  -1.318  -0.951  1.00  0.00     0.110 C 
BRANCH  28  29
ATOM     29  C   UNL     1       6.050  -0.632  -0.605  1.00  0.00     0.182 C 
BRANCH  29  30
ATOM     30  O   UNL     1       6.646  -1.297   0.510  1.00  0.00    -0.322 OA
BRANCH  30  31
ATOM     31  C   UNL     1       7.889  -0.710   0.842  1.00  0.00     0.484 C 
ATOM     32  F   UNL     1       8.419  -1.427   1.860  1.00  0.00    -0.179 F 
ATOM     33  F   UNL     1       8.725  -0.833  -0.214  1.00  0.00    -0.179 F 
ENDBRANCH  30  31
ENDBRANCH  29  30
ENDBRANCH  28  29
ENDBRANCH  26  28
ENDBRANCH  25  26
ENDBRANCH   6  25
TORSDOF 12
