MODEL        1USER    Run = 1USERUSER    Estimated Free Energy of Binding    =  -8.10 kcal/mol  [=(1)+(2)+(3)-(4)]USERUSER    (1) Final Intermolecular Energy     = -10.78 kcal/molUSER        vdW + Hbond + desolv Energy     = -10.60 kcal/molUSER        Electrostatic Energy            =  -0.19 kcal/molUSER        Moving Ligand-Fixed Receptor    = -10.78 kcal/molUSER        Moving Ligand-Moving Receptor   =  +0.00 kcal/molUSER    (2) Final Total Internal Energy     =  -2.18 kcal/molUSER    (3) Torsional Free Energy           =  +2.68 kcal/molUSER    (4) Unbound System's Energy         =  -2.18 kcal/molUSERUSERREMARK SMILES COc1ccc(O)c(C(=O)c2ccc(/C=C/[C@H]3CCN[C@@H]3NC(=O)c3ccncc3)cc2)c1FREMARK SMILES IDX 11 1 12 2 13 3 14 4 31 5 32 6 9 7 10 8 8 9 3 10 4 11 33 12REMARK SMILES IDX 5 13 6 14 34 15 2 16 1 17 7 18 15 20 16 21 17 22 18 23 21 24REMARK SMILES IDX 19 25 20 26 22 28 23 29 24 31 25 32 26 33 30 34 27 35 29 36REMARK SMILES IDX 28 37REMARK H PARENT 7 19 20 27 22 30USER                              x       y       z     vdW  Elec       q    TypeUSER                           _______ _______ _______ _____ _____    ______ ____ROOTATOM      1  C   UNL     1      12.292 -16.619 -13.306 -0.25 -0.00    +0.023 A  ATOM      2  C   UNL     1      11.576 -17.582 -14.024 -0.23 -0.00    +0.013 A  ATOM      3  C   UNL     1      11.210 -17.334 -15.352 -0.22 -0.00    +0.009 A  ATOM      4  C   UNL     1      11.579 -16.139 -15.986 -0.23 +0.00    -0.026 A  ATOM      5  C   UNL     1      12.302 -15.184 -15.259 -0.27 -0.00    +0.009 A  ATOM      6  C   UNL     1      12.667 -15.425 -13.931 -0.22 -0.00    +0.013 A  ENDROOTBRANCH   1   7ATOM      7  C   UNL     1      12.730 -16.851 -11.909 -0.29 -0.04    +0.199 C  ATOM      8  O   UNL     1      12.389 -17.893 -11.345 -0.28 +0.07    -0.288 OA BRANCH   7   9ATOM      9  C   UNL     1      13.513 -15.868 -11.126 -0.26 -0.03    +0.104 A  ATOM     10  C   UNL     1      15.382 -14.316 -10.885 -0.23 -0.05    +0.155 A  ATOM     11  C   UNL     1      14.958 -14.008  -9.590 -0.32 -0.02    +0.053 A  ATOM     12  C   UNL     1      14.658 -15.253 -11.638 -0.18 -0.05    +0.179 A  ATOM     13  C   UNL     1      13.833 -14.639  -9.054 -0.26 -0.04    +0.051 A  ATOM     14  C   UNL     1      13.126 -15.571  -9.813 -0.38 -0.07    +0.130 A  ATOM     15  F   UNL     1      15.103 -15.570 -12.866 -0.08 +0.07    -0.202 F  BRANCH  10  16ATOM     16  O   UNL     1      16.476 -13.775 -11.510 -0.16 +0.13    -0.494 OA ATOM     17  C   UNL     1      17.744 -13.977 -10.901 -0.24 -0.05    +0.278 C  ENDBRANCH  10  16BRANCH  14  18ATOM     18  O   UNL     1      12.052 -16.162  -9.200 -0.80 +0.23    -0.507 OA ATOM     19  H   UNL     1      12.087 -17.129  -9.394 -0.35 -0.14    +0.293 HD ENDBRANCH  14  18ENDBRANCH   7   9ENDBRANCH   1   7BRANCH   4  20ATOM     20  C   UNL     1      11.186 -15.826 -17.370 -0.33 +0.00    +0.004 C  BRANCH  20  21ATOM     21  C   UNL     1      10.283 -14.889 -17.699 -0.35 +0.00    -0.019 C  BRANCH  21  22ATOM     22  C   UNL     1       9.234 -14.256 -16.812 -0.26 -0.02    +0.050 C  ATOM     23  C   UNL     1       7.878 -14.917 -17.068 -0.30 -0.00    +0.026 C  ATOM     24  C   UNL     1       9.369 -14.305 -15.269 -0.19 -0.06    +0.157 C  ATOM     25  C   UNL     1       7.113 -14.656 -15.790 -0.36 +0.00    +0.083 C  ATOM     26  N   UNL     1       8.115 -14.847 -14.733 -0.18 +0.01    -0.297 NA ATOM     27  H   UNL     1       8.256 -15.854 -14.624 +0.03 +0.01    +0.124 HD BRANCH  24  28ATOM     28  N   UNL     1       9.431 -13.012 -14.653 -0.06 +0.26    -0.336 N  ATOM     29  C   UNL     1       9.755 -12.869 -13.324 -0.20 -0.10    +0.252 C  ATOM     30  H   UNL     1       8.881 -12.314 -15.127 -0.14 -0.22    +0.165 HD ATOM     31  O   UNL     1      10.090 -13.809 -12.607 -0.59 +0.02    -0.269 OA BRANCH  29  32ATOM     32  C   UNL     1       9.656 -11.498 -12.753 -0.33 -0.02    +0.042 A  ATOM     33  C   UNL     1       8.703 -10.573 -13.182 -0.06 -0.02    +0.034 A  ATOM     34  C   UNL     1      10.580 -11.126 -11.773 -0.52 -0.01    +0.034 A  ATOM     35  C   UNL     1       8.704  -9.322 -12.593 -0.36 -0.03    +0.112 A  ATOM     36  C   UNL     1      10.498  -9.850 -11.247 -0.26 -0.02    +0.112 A  ATOM     37  N   UNL     1       9.574  -8.943 -11.631 -0.89 +0.02    -0.265 NA ENDBRANCH  29  32ENDBRANCH  24  28ENDBRANCH  21  22ENDBRANCH  20  21ENDBRANCH   4  20TORSDOF 9TERENDMDL