REMARK SMILES COc1ccc(O)c(C(=O)c2ccc(/C=C/[C@H]3CCN[C@@H]3NC(=O)c3ccncc3)cc2)c1F
REMARK SMILES IDX 11 1 12 2 13 3 14 4 31 5 32 6 9 7 10 8 8 9 3 10 4 11 33 12
REMARK SMILES IDX 5 13 6 14 34 15 2 16 1 17 7 18 15 20 16 21 17 22 18 23 21 24
REMARK SMILES IDX 19 25 20 26 22 28 23 29 24 31 25 32 26 33 30 34 27 35 29 36
REMARK SMILES IDX 28 37
REMARK H PARENT 7 19 20 27 22 30
ROOT
ATOM      1  C   UNL     1      -2.882   1.633  -0.631  1.00  0.00     0.023 A 
ATOM      2  C   UNL     1      -2.649   0.918   0.549  1.00  0.00     0.013 A 
ATOM      3  C   UNL     1      -1.445   0.225   0.719  1.00  0.00     0.009 A 
ATOM      4  C   UNL     1      -0.451   0.262  -0.269  1.00  0.00    -0.026 A 
ATOM      5  C   UNL     1      -0.692   0.987  -1.444  1.00  0.00     0.009 A 
ATOM      6  C   UNL     1      -1.895   1.678  -1.621  1.00  0.00     0.013 A 
ENDROOT
BRANCH   1   7
ATOM      7  C   UNL     1      -4.127   2.408  -0.842  1.00  0.00     0.199 C 
ATOM      8  O   UNL     1      -4.056   3.509  -1.394  1.00  0.00    -0.288 OA
BRANCH   7   9
ATOM      9  C   UNL     1      -5.458   1.957  -0.374  1.00  0.00     0.104 A 
ATOM     10  C   UNL     1      -7.067   0.196   0.146  1.00  0.00     0.155 A 
ATOM     11  C   UNL     1      -8.001   1.163   0.525  1.00  0.00     0.053 A 
ATOM     12  C   UNL     1      -5.804   0.605  -0.310  1.00  0.00     0.179 A 
ATOM     13  C   UNL     1      -7.679   2.519   0.435  1.00  0.00     0.051 A 
ATOM     14  C   UNL     1      -6.422   2.911  -0.023  1.00  0.00     0.130 A 
ATOM     15  F   UNL     1      -4.931  -0.335  -0.710  1.00  0.00    -0.202 F 
BRANCH  10  16
ATOM     16  O   UNL     1      -7.273  -1.159   0.175  1.00  0.00    -0.494 OA
ATOM     17  C   UNL     1      -8.541  -1.619   0.622  1.00  0.00     0.278 C 
ENDBRANCH  10  16
BRANCH  14  18
ATOM     18  O   UNL     1      -6.200   4.261  -0.105  1.00  0.00    -0.507 OA
ATOM     19  H   UNL     1      -5.374   4.401  -0.626  1.00  0.00     0.293 HD
ENDBRANCH  14  18
ENDBRANCH   7   9
ENDBRANCH   1   7
BRANCH   4  20
ATOM     20  C   UNL     1       0.815  -0.479  -0.142  1.00  0.00     0.004 C 
BRANCH  20  21
ATOM     21  C   UNL     1       1.475  -0.643   1.016  1.00  0.00    -0.019 C 
BRANCH  21  22
ATOM     22  C   UNL     1       2.777  -1.377   1.248  1.00  0.00     0.050 C 
ATOM     23  C   UNL     1       2.517  -2.633   2.082  1.00  0.00     0.026 C 
ATOM     24  C   UNL     1       3.609  -1.909   0.053  1.00  0.00     0.157 C 
ATOM     25  C   UNL     1       3.686  -3.529   1.742  1.00  0.00     0.083 C 
ATOM     26  N   UNL     1       3.875  -3.331   0.299  1.00  0.00    -0.297 NA
ATOM     27  H   UNL     1       3.138  -3.852  -0.181  1.00  0.00     0.124 HD
BRANCH  24  28
ATOM     28  N   UNL     1       4.930  -1.358  -0.021  1.00  0.00    -0.336 N 
ATOM     29  C   UNL     1       5.143  -0.069  -0.453  1.00  0.00     0.252 C 
ATOM     30  H   UNL     1       5.653  -2.055  -0.105  1.00  0.00     0.165 HD
ATOM     31  O   UNL     1       4.233   0.712  -0.718  1.00  0.00    -0.269 OA
BRANCH  29  32
ATOM     32  C   UNL     1       6.559   0.356  -0.624  1.00  0.00     0.042 A 
ATOM     33  C   UNL     1       7.620  -0.296   0.007  1.00  0.00     0.034 A 
ATOM     34  C   UNL     1       6.818   1.473  -1.423  1.00  0.00     0.034 A 
ATOM     35  C   UNL     1       8.898   0.187  -0.211  1.00  0.00     0.112 A 
ATOM     36  C   UNL     1       8.131   1.877  -1.577  1.00  0.00     0.112 A 
ATOM     37  N   UNL     1       9.177   1.253  -0.993  1.00  0.00    -0.265 NA
ENDBRANCH  29  32
ENDBRANCH  24  28
ENDBRANCH  21  22
ENDBRANCH  20  21
ENDBRANCH   4  20
TORSDOF 9
