MODEL        1USER    Run = 1USERUSER    Estimated Free Energy of Binding    =  -7.29 kcal/mol  [=(1)+(2)+(3)-(4)]USERUSER    (1) Final Intermolecular Energy     = -10.87 kcal/molUSER        vdW + Hbond + desolv Energy     = -10.46 kcal/molUSER        Electrostatic Energy            =  -0.42 kcal/molUSER        Moving Ligand-Fixed Receptor    = -10.87 kcal/molUSER        Moving Ligand-Moving Receptor   =  +0.00 kcal/molUSER    (2) Final Total Internal Energy     =  -2.46 kcal/molUSER    (3) Torsional Free Energy           =  +3.58 kcal/molUSER    (4) Unbound System's Energy         =  -2.46 kcal/molUSERUSERREMARK SMILES N#Cc1c(O)cccc1-c1cncc(C=Cc2ccccc2CNCCOC(F)F)n1REMARK SMILES IDX 17 1 18 2 19 3 20 4 21 5 22 6 16 7 15 8 14 9 10 10 11 11REMARK SMILES IDX 31 12 12 13 13 14 9 15 3 16 4 17 6 18 8 19 7 20 2 21 1 22REMARK SMILES IDX 5 23 23 25 24 26 25 28 26 29 27 30 28 31 29 32 30 33REMARK H PARENT 5 24 24 27USER                              x       y       z     vdW  Elec       q    TypeUSER                           _______ _______ _______ _____ _____    ______ ____ROOTATOM      1  C   UNL     1      17.315 -14.235  -9.647 -0.35 +0.00    -0.021 A  ATOM      2  C   UNL     1      17.866 -15.376  -9.040 -0.36 -0.00    +0.008 A  ATOM      3  C   UNL     1      18.051 -15.432  -7.659 -0.42 +0.00    +0.001 A  ATOM      4  C   UNL     1      17.677 -14.353  -6.867 -0.41 -0.00    +0.000 A  ATOM      5  C   UNL     1      17.113 -13.220  -7.454 -0.39 -0.00    +0.005 A  ATOM      6  C   UNL     1      16.917 -13.145  -8.847 -0.35 +0.01    -0.027 A  ENDROOTBRANCH   1   7ATOM      7  C   UNL     1      17.146 -14.226 -11.108 -0.52 -0.00    +0.011 C  BRANCH   7   8ATOM      8  C   UNL     1      15.988 -14.227 -11.792 -0.47 -0.01    +0.030 C  BRANCH   8   9ATOM      9  C   UNL     1      14.623 -14.392 -11.287 -0.25 -0.03    +0.082 A  ATOM     10  C   UNL     1      12.464 -13.585 -11.286 -0.26 -0.06    +0.091 A  ATOM     11  C   UNL     1      12.067 -14.659 -10.494 -0.18 -0.10    +0.140 A  ATOM     12  N   UNL     1      13.745 -13.448 -11.707 -0.17 +0.11    -0.245 NA ATOM     13  N   UNL     1      12.922 -15.628 -10.093 -0.30 +0.12    -0.260 NA ATOM     14  C   UNL     1      14.205 -15.467 -10.506 -0.24 -0.05    +0.139 A  BRANCH  10  15ATOM     15  C   UNL     1      11.534 -12.545 -11.735 -0.39 -0.01    +0.023 A  ATOM     16  C   UNL     1      10.472 -12.815 -12.625 -0.29 -0.03    +0.103 A  ATOM     17  C   UNL     1       9.618 -11.774 -13.024 -0.23 -0.07    +0.134 A  ATOM     18  C   UNL     1       9.803 -10.479 -12.544 -0.47 -0.02    +0.047 A  ATOM     19  C   UNL     1      11.694 -11.233 -11.251 -0.44 -0.01    +0.012 A  ATOM     20  C   UNL     1      10.838 -10.208 -11.653 -0.54 -0.00    +0.005 A  BRANCH  16  21ATOM     21  C   UNL     1      10.257 -14.143 -13.122 -0.26 -0.01    +0.104 C  ATOM     22  N   UNL     1      10.111 -15.241 -13.468 -0.23 -0.00    -0.192 NA ENDBRANCH  16  21BRANCH  17  23ATOM     23  O   UNL     1       8.566 -11.934 -13.888 -0.05 +0.30    -0.507 OA ATOM     24  H   UNL     1       8.664 -11.375 -14.679 -0.26 -0.50    +0.293 HD ENDBRANCH  17  23ENDBRANCH  10  15ENDBRANCH   8   9ENDBRANCH   7   8ENDBRANCH   1   7BRANCH   6  25ATOM     25  C   UNL     1      16.298 -11.888  -9.425 -0.39 -0.03    +0.117 C  BRANCH  25  26ATOM     26  N   UNL     1      16.929 -10.640  -8.988 -0.27 +0.06    -0.310 NA ATOM     27  H   UNL     1      17.437 -10.827  -8.120 +0.08 -0.02    +0.123 HD BRANCH  26  28ATOM     28  C   UNL     1      15.993  -9.541  -8.713 -0.64 -0.03    +0.110 C  BRANCH  28  29ATOM     29  C   UNL     1      15.346  -9.586  -7.321 -0.61 -0.06    +0.182 C  BRANCH  29  30ATOM     30  O   UNL     1      16.077 -10.492  -6.492 -0.35 +0.08    -0.322 OA BRANCH  30  31ATOM     31  C   UNL     1      15.210 -11.191  -5.622 -0.14 -0.22    +0.484 C  ATOM     32  F   UNL     1      14.687 -12.229  -6.315 -0.13 +0.13    -0.179 F  ATOM     33  F   UNL     1      15.937 -11.711  -4.607 -0.18 +0.03    -0.179 F  ENDBRANCH  30  31ENDBRANCH  29  30ENDBRANCH  28  29ENDBRANCH  26  28ENDBRANCH  25  26ENDBRANCH   6  25TORSDOF 12TERENDMDL