MODEL        3USER    Run = 3USERUSER    Estimated Free Energy of Binding    =  -4.30 kcal/mol  [=(1)+(2)+(3)-(4)]USERUSER    (1) Final Intermolecular Energy     =  -8.78 kcal/molUSER        vdW + Hbond + desolv Energy     =  -8.80 kcal/molUSER        Electrostatic Energy            =  -0.24 kcal/molUSER        Moving Ligand-Fixed Receptor    =  -9.04 kcal/molUSER        Moving Ligand-Moving Receptor   =  +0.26 kcal/molUSER    (2) Final Total Internal Energy     =  -3.19 kcal/molUSER    (3) Torsional Free Energy           =  +4.47 kcal/molUSER    (4) Unbound System's Energy         =  -3.19 kcal/molUSERUSERREMARK SMILES COc1ccc(O)c(C(=O)c2ccc(CO[C@@H]3CCCNC[C@@H]3NC(=O)c3ccncc3)cc2)c1FREMARK SMILES IDX 16 1 15 2 14 3 11 4 12 5 34 6 13 7 33 8 9 9 10 10 8 11 3 12REMARK SMILES IDX 4 13 35 14 5 15 6 16 36 17 2 18 1 19 7 20 17 22 18 23 23 25REMARK SMILES IDX 22 26 21 27 20 29 19 30 24 32 25 33 26 35 27 36 28 37 32 38REMARK SMILES IDX 29 39 31 40 30 41REMARK H PARENT 7 21 21 28 24 34REMARK Flexibility Score:   99.900USER                              x       y       z     vdW  Elec       q    TypeUSER                           _______ _______ _______ _____ _____    ______ ____ROOTATOM      1  O   UNL     1      39.737  27.474  14.923 -0.15 +0.13    -0.371 OA ENDROOTBRANCH   1   2ATOM      2  C   UNL     1      38.796  27.163  13.897 -0.20 -0.09    +0.196 C  BRANCH   2   3ATOM      3  C   UNL     1      37.493  26.783  14.551 -0.39 +0.01    -0.022 A  ATOM      4  C   UNL     1      35.073  26.092  15.799 -0.35 -0.01    +0.023 A  ATOM      5  C   UNL     1      35.463  27.432  15.724 -0.38 -0.00    +0.012 A  ATOM      6  C   UNL     1      35.875  25.102  15.221 -0.15 -0.01    +0.012 A  ATOM      7  C   UNL     1      36.670  27.772  15.110 -0.46 -0.00    +0.007 A  ATOM      8  C   UNL     1      37.081  25.445  14.606 -0.36 -0.00    +0.007 A  BRANCH   4   9ATOM      9  C   UNL     1      33.785  25.686  16.411 -0.34 -0.17    +0.199 C  ATOM     10  O   UNL     1      32.823  26.456  16.349 -0.34 +0.25    -0.288 OA BRANCH   9  11ATOM     11  C   UNL     1      33.603  24.421  17.154 -0.25 -0.13    +0.104 A  ATOM     12  C   UNL     1      34.484  22.555  18.454 -0.07 -0.19    +0.155 A  ATOM     13  C   UNL     1      33.195  22.029  18.568 -0.13 -0.06    +0.053 A  ATOM     14  C   UNL     1      34.676  23.746  17.739 -0.06 -0.22    +0.179 A  ATOM     15  C   UNL     1      32.118  22.678  17.958 -0.22 -0.06    +0.051 A  ATOM     16  C   UNL     1      32.325  23.857  17.246 -0.27 -0.17    +0.130 A  ATOM     17  F   UNL     1      35.924  24.223  17.606 -0.02 +0.17    -0.202 F  BRANCH  12  18ATOM     18  O   UNL     1      35.615  22.003  18.993 -0.01 +0.39    -0.494 OA ATOM     19  C   UNL     1      36.542  21.406  18.095 -0.02 -0.15    +0.278 C  ENDBRANCH  12  18BRANCH  16  20ATOM     20  O   UNL     1      31.222  24.411  16.654 -0.19 +0.53    -0.507 OA ATOM     21  H   UNL     1      31.116  25.324  17.008 -0.28 -0.38    +0.293 HD ENDBRANCH  16  20ENDBRANCH   9  11ENDBRANCH   4   9ENDBRANCH   2   3ENDBRANCH   1   2BRANCH   1  22ATOM     22  C   UNL     1      39.917  28.892  15.128 -0.33 -0.02    +0.142 C  BRANCH  22  23ATOM     23  C   UNL     1      41.019  29.290  14.136 -0.47 -0.02    +0.035 CG0ATOM     24  G   UNL     1      42.387  28.625  14.236 +0.00 +0.00    +0.000 G0 ENDBRANCH  22  23BRANCH  22  25ATOM     25  C   UNL     1      40.220  29.160  16.621 -0.27 +0.03    +0.125 C  BRANCH  25  26ATOM     26  C   UNL     1      41.690  28.810  16.960 -0.25 +0.05    +0.108 C  BRANCH  26  27ATOM     27  N   UNL     1      42.717  29.712  16.444 -0.13 -0.15    -0.315 NA ATOM     28  H   UNL     1      43.407  29.870  17.180 +0.05 +0.11    +0.122 HD BRANCH  27  29ATOM     29  C   UNL     1      43.365  29.256  15.222 -0.42 -0.01    +0.081 C  BRANCH  29  30ATOM     30  C   UNL     1      42.387  28.626  14.240 -0.24 -0.01    +0.018 CG0ATOM     31  G   UNL     1      41.019  29.290  14.136 +0.00 +0.00    +0.000 G0 ENDBRANCH  29  30ENDBRANCH  27  29ENDBRANCH  26  27ENDBRANCH  25  26BRANCH  25  32ATOM     32  N   UNL     1      39.229  28.507  17.490 -0.09 -0.06    -0.345 N  ATOM     33  C   UNL     1      38.560  29.212  18.469 -0.18 +0.05    +0.251 C  ATOM     34  H   UNL     1      38.703  27.766  17.043 +0.08 -0.01    +0.164 HD ATOM     35  O   UNL     1      38.806  30.375  18.758 -0.39 -0.10    -0.269 OA BRANCH  33  36ATOM     36  C   UNL     1      37.457  28.491  19.160 -0.23 -0.00    +0.042 A  ATOM     37  C   UNL     1      37.010  28.984  20.386 -0.28 -0.01    +0.034 A  ATOM     38  C   UNL     1      36.889  27.329  18.637 -0.24 -0.01    +0.034 A  ATOM     39  C   UNL     1      35.997  28.300  21.032 -0.28 -0.04    +0.112 A  ATOM     40  C   UNL     1      35.882  26.718  19.363 -0.25 -0.09    +0.112 A  ATOM     41  N   UNL     1      35.422  27.181  20.544 -0.24 +0.22    -0.265 NA ENDBRANCH  33  36ENDBRANCH  25  32ENDBRANCH  22  25ENDBRANCH   1  22TORSDOF 9TERENDMDL