MODEL        1USER    Run = 1USERUSER    Estimated Free Energy of Binding    = -12.86 kcal/mol  [=(1)+(2)+(3)-(4)]USERUSER    (1) Final Intermolecular Energy     = -15.25 kcal/molUSER        vdW + Hbond + desolv Energy     = -15.13 kcal/molUSER        Electrostatic Energy            =  -0.12 kcal/molUSER        Moving Ligand-Fixed Receptor    = -15.25 kcal/molUSER        Moving Ligand-Moving Receptor   =  +0.00 kcal/molUSER    (2) Final Total Internal Energy     =  -2.51 kcal/molUSER    (3) Torsional Free Energy           =  +2.39 kcal/molUSER    (4) Unbound System's Energy         =  -2.51 kcal/molUSERUSERREMARK SMILES N#Cc1cnc(-c2ccc(CNCc3ccc(-c4csnn4)cc3)cc2)c(-c2ccccc2)c1REMARK SMILES IDX 11 1 10 2 7 3 8 4 26 5 9 6 25 7 6 8 3 9 4 10 34 11 5 12REMARK SMILES IDX 27 13 2 14 1 15 28 16 29 17 33 18 30 19 32 20 31 21 12 22REMARK SMILES IDX 13 24 14 25 15 26 24 27 16 28 23 29 17 30 18 31 19 32 22 33REMARK SMILES IDX 20 34 21 35REMARK H PARENT 12 23USER                              x       y       z     vdW  Elec       q    TypeUSER                           _______ _______ _______ _____ _____    ______ ____ROOTATOM      1  C   UNL     1      36.345  43.371  20.391 -0.41 -0.00    +0.117 C  ENDROOTBRANCH   1   2ATOM      2  C   UNL     1      35.469  43.878  19.271 -0.36 +0.01    -0.034 A  ATOM      3  C   UNL     1      33.850  44.820  17.136 -0.32 -0.00    +0.001 A  ATOM      4  C   UNL     1      34.202  45.657  18.209 -0.45 -0.01    +0.011 A  ATOM      5  C   UNL     1      34.313  43.495  17.165 -0.33 -0.00    +0.011 A  ATOM      6  C   UNL     1      35.005  45.198  19.259 -0.21 -0.00    +0.006 A  ATOM      7  C   UNL     1      35.118  43.032  18.212 -0.36 -0.00    +0.006 A  BRANCH   3   8ATOM      8  C   UNL     1      33.003  45.331  16.039 -0.25 -0.06    +0.078 A  ATOM      9  C   UNL     1      31.180  46.189  14.143 -0.51 -0.05    +0.071 A  ATOM     10  C   UNL     1      30.796  45.717  15.383 -0.36 -0.06    +0.131 A  ATOM     11  C   UNL     1      32.544  46.239  13.858 -0.15 -0.03    +0.032 A  ATOM     12  N   UNL     1      31.668  45.298  16.327 -0.67 +0.10    -0.254 NA ATOM     13  C   UNL     1      33.494  45.812  14.807 -0.14 -0.01    +0.009 A  BRANCH   9  14ATOM     14  C   UNL     1      30.205  46.620  13.194 -0.58 -0.06    +0.101 C  ATOM     15  N   UNL     1      29.413  46.970  12.423 -0.72 +0.09    -0.192 NA ENDBRANCH   9  14BRANCH  13  16ATOM     16  C   UNL     1      34.925  45.926  14.477 -0.35 +0.01    -0.016 A  ATOM     17  C   UNL     1      35.852  44.989  14.966 -0.35 -0.00    +0.009 A  ATOM     18  C   UNL     1      35.400  46.959  13.653 -0.43 -0.01    +0.009 A  ATOM     19  C   UNL     1      37.209  45.089  14.652 -0.39 -0.00    +0.001 A  ATOM     20  C   UNL     1      36.758  47.061  13.340 -0.57 -0.00    +0.001 A  ATOM     21  C   UNL     1      37.662  46.127  13.840 -0.45 -0.00    +0.000 A  ENDBRANCH  13  16ENDBRANCH   3   8ENDBRANCH   1   2BRANCH   1  22ATOM     22  N   UNL     1      37.378  44.355  20.719 -0.20 +0.00    -0.309 NA ATOM     23  H   UNL     1      37.466  44.397  21.733 +0.06 +0.01    +0.123 HD BRANCH  22  24ATOM     24  C   UNL     1      38.676  44.004  20.144 -0.21 -0.00    +0.117 C  BRANCH  24  25ATOM     25  C   UNL     1      39.199  45.033  19.169 -0.38 +0.00    -0.034 A  ATOM     26  C   UNL     1      40.517  45.498  19.255 -0.44 +0.00    +0.006 A  ATOM     27  C   UNL     1      38.367  45.556  18.172 -0.38 -0.00    +0.006 A  ATOM     28  C   UNL     1      40.995  46.459  18.356 -0.50 -0.00    +0.011 A  ATOM     29  C   UNL     1      38.843  46.517  17.275 -0.41 -0.00    +0.011 A  ATOM     30  C   UNL     1      40.166  46.976  17.350 -0.50 -0.00    +0.003 A  BRANCH  30  31ATOM     31  C   UNL     1      40.634  47.978  16.397 -0.47 -0.02    +0.105 A  ATOM     32  C   UNL     1      40.325  47.985  15.046 -0.44 -0.02    +0.118 A  ATOM     33  N   UNL     1      41.433  49.043  16.807 -1.02 -0.00    -0.138 NA ATOM     34  S   UNL     1      41.089  49.355  14.350 -0.83 +0.00    -0.020 S  ATOM     35  N   UNL     1      41.748  49.845  15.805 -1.05 -0.00    -0.091 NA ENDBRANCH  30  31ENDBRANCH  24  25ENDBRANCH  22  24ENDBRANCH   1  22TORSDOF 8TERENDMDL