MODEL        10USER    Run = 10USERUSER    Estimated Free Energy of Binding    =  -6.95 kcal/mol  [=(1)+(2)+(3)-(4)]USERUSER    (1) Final Intermolecular Energy     = -11.43 kcal/molUSER        vdW + Hbond + desolv Energy     = -12.14 kcal/molUSER        Electrostatic Energy            =  -0.25 kcal/molUSER        Moving Ligand-Fixed Receptor    = -12.39 kcal/molUSER        Moving Ligand-Moving Receptor   =  +0.96 kcal/molUSER    (2) Final Total Internal Energy     =  -3.15 kcal/molUSER    (3) Torsional Free Energy           =  +4.47 kcal/molUSER    (4) Unbound System's Energy         =  -3.15 kcal/molUSERUSERREMARK SMILES COc1ccc(O)c(C(=O)c2ccc(CN[C@@H]3CCCNC[C@H]3NC(=O)c3ccncc3)cc2)c1FREMARK SMILES IDX 16 1 15 3 14 4 11 5 12 6 34 7 13 8 33 9 9 10 10 11 8 12 3 13REMARK SMILES IDX 4 14 35 15 5 16 6 17 36 18 2 19 1 20 7 21 17 23 18 24 23 26REMARK SMILES IDX 22 27 21 28 20 30 19 31 24 33 25 34 26 36 27 37 28 38 32 39REMARK SMILES IDX 29 40 31 41 30 42REMARK H PARENT 16 2 7 22 21 29 24 35REMARK Flexibility Score:   99.900USER                              x       y       z     vdW  Elec       q    TypeUSER                           _______ _______ _______ _____ _____    ______ ____ROOTATOM      1  N   UNL     1      38.390  45.055  19.470 -0.19 +0.02    -0.308 NA ATOM      2  H   UNL     1      37.964  45.983  19.509 +0.07 -0.01    +0.123 HD ENDROOTBRANCH   1   3ATOM      3  C   UNL     1      37.325  44.054  19.372 -0.32 -0.01    +0.117 C  BRANCH   3   4ATOM      4  C   UNL     1      36.244  44.416  18.383 -0.31 +0.01    -0.034 A  ATOM      5  C   UNL     1      34.222  45.110  16.555 -0.30 -0.02    +0.023 A  ATOM      6  C   UNL     1      34.194  45.621  17.856 -0.42 -0.01    +0.012 A  ATOM      7  C   UNL     1      35.245  44.233  16.177 -0.33 -0.01    +0.012 A  ATOM      8  C   UNL     1      35.204  45.281  18.760 -0.33 -0.00    +0.006 A  ATOM      9  C   UNL     1      36.252  43.894  17.083 -0.33 -0.00    +0.006 A  BRANCH   5  10ATOM     10  C   UNL     1      33.152  45.407  15.573 -0.22 -0.18    +0.199 C  ATOM     11  O   UNL     1      33.418  46.103  14.591 -0.25 +0.33    -0.288 OA BRANCH  10  12ATOM     12  C   UNL     1      31.782  44.860  15.674 -0.30 -0.06    +0.104 A  ATOM     13  C   UNL     1      30.237  43.012  16.051 -0.21 -0.07    +0.155 A  ATOM     14  C   UNL     1      29.159  43.874  15.843 -0.24 -0.03    +0.053 A  ATOM     15  C   UNL     1      31.543  43.518  15.971 -0.22 -0.08    +0.179 A  ATOM     16  C   UNL     1      29.385  45.229  15.580 -0.26 -0.02    +0.051 A  ATOM     17  C   UNL     1      30.687  45.718  15.513 -0.34 -0.05    +0.130 A  ATOM     18  F   UNL     1      32.571  42.687  16.212 -0.06 +0.11    -0.202 F  BRANCH  13  19ATOM     19  O   UNL     1      30.139  41.676  16.337 -0.10 +0.17    -0.494 OA ATOM     20  C   UNL     1      29.023  40.976  15.802 -0.27 -0.07    +0.278 C  ENDBRANCH  13  19BRANCH  17  21ATOM     21  O   UNL     1      30.821  47.062  15.287 -0.66 +0.18    -0.507 OA ATOM     22  H   UNL     1      31.784  47.271  15.282 -0.35 -0.47    +0.293 HD ENDBRANCH  17  21ENDBRANCH  10  12ENDBRANCH   5  10ENDBRANCH   3   4ENDBRANCH   1   3BRANCH   1  23ATOM     23  C   UNL     1      39.345  45.028  18.328 -0.42 -0.01    +0.077 C  BRANCH  23  24ATOM     24  C   UNL     1      40.603  44.291  18.805 -0.43 +0.00    +0.022 CG0ATOM     25  G   UNL     1      41.152  44.744  20.157 +0.00 +0.00    +0.000 G0 ENDBRANCH  23  24BRANCH  23  26ATOM     26  C   UNL     1      39.625  46.482  17.836 -0.43 -0.02    +0.113 C  BRANCH  26  27ATOM     27  C   UNL     1      41.136  46.820  17.866 -0.49 -0.01    +0.107 C  BRANCH  27  28ATOM     28  N   UNL     1      41.799  46.962  19.158 -0.29 -0.02    -0.315 NA ATOM     29  H   UNL     1      41.857  47.955  19.395 +0.05 +0.00    +0.122 HD BRANCH  28  30ATOM     30  C   UNL     1      41.225  46.252  20.292 -0.34 +0.01    +0.081 C  BRANCH  30  31ATOM     31  C   UNL     1      41.153  44.734  20.155 -0.42 +0.00    +0.017 CG0ATOM     32  G   UNL     1      40.598  44.284  18.804 +0.00 +0.00    +0.000 G0 ENDBRANCH  30  31ENDBRANCH  28  30ENDBRANCH  27  28ENDBRANCH  26  27BRANCH  26  33ATOM     33  N   UNL     1      39.109  46.646  16.462 -0.19 +0.10    -0.346 N  ATOM     34  C   UNL     1      37.775  46.889  16.219 -0.27 -0.13    +0.251 C  ATOM     35  H   UNL     1      39.783  46.663  15.710 +0.12 -0.03    +0.164 HD ATOM     36  O   UNL     1      36.921  46.890  17.096 -0.13 +0.17    -0.269 OA BRANCH  34  37ATOM     37  C   UNL     1      37.385  47.127  14.805 -0.41 -0.02    +0.042 A  ATOM     38  C   UNL     1      37.502  46.068  13.905 -0.42 -0.01    +0.034 A  ATOM     39  C   UNL     1      36.884  48.353  14.367 -0.46 -0.03    +0.034 A  ATOM     40  C   UNL     1      37.139  46.287  12.590 -0.47 -0.04    +0.112 A  ATOM     41  C   UNL     1      36.546  48.471  13.030 -0.38 -0.05    +0.112 A  ATOM     42  N   UNL     1      36.672  47.470  12.133 -0.81 +0.10    -0.265 NA ENDBRANCH  34  37ENDBRANCH  26  33ENDBRANCH  23  26ENDBRANCH   1  23TORSDOF 9TERENDMDL