MODEL        1USER    Run = 1USERUSER    Estimated Free Energy of Binding    =  -7.11 kcal/mol  [=(1)+(2)+(3)-(4)]USERUSER    (1) Final Intermolecular Energy     = -11.59 kcal/molUSER        vdW + Hbond + desolv Energy     = -11.79 kcal/molUSER        Electrostatic Energy            =  -0.30 kcal/molUSER        Moving Ligand-Fixed Receptor    = -12.09 kcal/molUSER        Moving Ligand-Moving Receptor   =  +0.50 kcal/molUSER    (2) Final Total Internal Energy     =  -3.12 kcal/molUSER    (3) Torsional Free Energy           =  +4.47 kcal/molUSER    (4) Unbound System's Energy         =  -3.12 kcal/molUSERUSERREMARK SMILES COc1ccc(O)c(C(=O)c2ccc(NC[C@@H]3CCCNC[C@@H]3NC(=O)c3ccncc3)cc2)c1FREMARK SMILES IDX 16 1 15 2 14 4 11 5 12 6 34 7 13 8 33 9 9 10 10 11 8 12 3 13REMARK SMILES IDX 4 14 35 15 5 16 6 17 36 18 2 19 1 20 7 21 17 23 18 24 23 26REMARK SMILES IDX 22 27 21 28 20 30 19 31 24 33 25 34 26 36 27 37 28 38 32 39REMARK SMILES IDX 29 40 31 41 30 42REMARK H PARENT 15 3 7 22 21 29 24 35REMARK Flexibility Score:   99.900USER                              x       y       z     vdW  Elec       q    TypeUSER                           _______ _______ _______ _____ _____    ______ ____ROOTATOM      1  C   UNL     1      38.837  47.116  16.362 -0.41 -0.04    +0.118 C  ENDROOTBRANCH   1   2ATOM      2  N   UNL     1      39.942  46.242  16.764 -0.16 +0.06    -0.385 N  ATOM      3  H   UNL     1      39.755  45.257  16.601 +0.12 -0.02    +0.160 HD BRANCH   2   4ATOM      4  C   UNL     1      40.717  46.483  17.895 -0.48 -0.00    +0.034 A  ATOM      5  C   UNL     1      42.315  46.799  20.211 -0.38 +0.00    +0.023 A  ATOM      6  C   UNL     1      42.481  47.648  19.114 -0.44 +0.00    +0.014 A  ATOM      7  C   UNL     1      41.391  45.756  20.133 -0.39 +0.00    +0.014 A  ATOM      8  C   UNL     1      41.694  47.483  17.968 -0.47 -0.00    +0.026 A  ATOM      9  C   UNL     1      40.609  45.603  18.981 -0.44 -0.00    +0.026 A  BRANCH   5  10ATOM     10  C   UNL     1      43.192  46.988  21.390 -0.31 +0.06    +0.199 C  ATOM     11  O   UNL     1      44.363  46.608  21.334 -0.61 -0.27    -0.288 OA BRANCH  10  12ATOM     12  C   UNL     1      42.721  47.565  22.669 -0.26 +0.02    +0.104 A  ATOM     13  C   UNL     1      41.038  47.812  24.418 -0.20 +0.02    +0.155 A  ATOM     14  C   UNL     1      41.886  48.682  25.106 -0.30 +0.01    +0.053 A  ATOM     15  C   UNL     1      41.463  47.267  23.196 -0.16 +0.02    +0.179 A  ATOM     16  C   UNL     1      43.133  49.014  24.571 -0.31 +0.01    +0.051 A  ATOM     17  C   UNL     1      43.538  48.471  23.355 -0.26 +0.03    +0.130 A  ATOM     18  F   UNL     1      40.622  46.466  22.523 -0.05 -0.02    -0.202 F  BRANCH  13  19ATOM     19  O   UNL     1      39.791  47.428  24.832 -0.05 -0.05    -0.494 OA ATOM     20  C   UNL     1      38.694  48.248  24.446 -0.29 +0.04    +0.278 C  ENDBRANCH  13  19BRANCH  17  21ATOM     21  O   UNL     1      44.760  48.874  22.885 -0.01 -0.15    -0.507 OA ATOM     22  H   UNL     1      44.809  48.639  21.931 -0.42 +0.04    +0.293 HD ENDBRANCH  17  21ENDBRANCH  10  12ENDBRANCH   5  10ENDBRANCH   2   4ENDBRANCH   1   2BRANCH   1  23ATOM     23  C   UNL     1      38.447  46.912  14.877 -0.48 -0.01    +0.032 C  BRANCH  23  24ATOM     24  C   UNL     1      37.683  48.146  14.355 -0.61 -0.00    +0.009 CG0ATOM     25  G   UNL     1      36.953  48.045  13.016 +0.00 +0.00    +0.000 G0 ENDBRANCH  23  24BRANCH  23  26ATOM     26  C   UNL     1      37.724  45.557  14.692 -0.38 -0.04    +0.101 C  BRANCH  26  27ATOM     27  C   UNL     1      37.052  45.455  13.303 -0.47 -0.04    +0.106 C  BRANCH  27  28ATOM     28  N   UNL     1      35.669  45.945  13.241 -0.23 +0.17    -0.315 NA ATOM     29  H   UNL     1      35.216  45.483  12.450 +0.08 -0.06    +0.122 HD BRANCH  28  30ATOM     30  C   UNL     1      35.584  47.390  13.025 -0.46 -0.05    +0.081 C  BRANCH  30  31ATOM     31  C   UNL     1      36.960  48.044  13.012 -0.62 -0.01    +0.016 CG0ATOM     32  G   UNL     1      37.684  48.147  14.354 +0.00 +0.00    +0.000 G0 ENDBRANCH  30  31ENDBRANCH  28  30ENDBRANCH  27  28ENDBRANCH  26  27BRANCH  26  33ATOM     33  N   UNL     1      36.735  45.288  15.733 -0.11 +0.16    -0.348 N  ATOM     34  C   UNL     1      37.004  44.539  16.854 -0.23 -0.08    +0.251 C  ATOM     35  H   UNL     1      35.795  45.593  15.515 +0.12 -0.11    +0.164 HD ATOM     36  O   UNL     1      38.097  44.029  17.070 -0.19 +0.05    -0.269 OA BRANCH  34  37ATOM     37  C   UNL     1      35.885  44.342  17.814 -0.29 -0.01    +0.042 A  ATOM     38  C   UNL     1      34.730  45.106  17.640 -0.33 -0.02    +0.034 A  ATOM     39  C   UNL     1      35.942  43.410  18.850 -0.33 -0.01    +0.034 A  ATOM     40  C   UNL     1      33.686  44.921  18.527 -0.33 -0.04    +0.112 A  ATOM     41  C   UNL     1      34.843  43.300  19.683 -0.34 -0.01    +0.112 A  ATOM     42  N   UNL     1      33.721  44.037  19.548 -0.31 +0.04    -0.265 NA ENDBRANCH  34  37ENDBRANCH  26  33ENDBRANCH  23  26ENDBRANCH   1  23TORSDOF 9TERENDMDL