MODEL        5USER    Run = 5USERUSER    Estimated Free Energy of Binding    =  -7.47 kcal/mol  [=(1)+(2)+(3)-(4)]USERUSER    (1) Final Intermolecular Energy     = -11.95 kcal/molUSER        vdW + Hbond + desolv Energy     = -12.43 kcal/molUSER        Electrostatic Energy            =  -0.46 kcal/molUSER        Moving Ligand-Fixed Receptor    = -12.88 kcal/molUSER        Moving Ligand-Moving Receptor   =  +0.93 kcal/molUSER    (2) Final Total Internal Energy     =  -2.01 kcal/molUSER    (3) Torsional Free Energy           =  +4.47 kcal/molUSER    (4) Unbound System's Energy         =  -2.01 kcal/molUSERUSERREMARK SMILES COc1ccc(O)c(C(=O)c2ccc(/C=C/[C@@H]3CCCNC[C@H]3NC(=O)c3ccncc3)cc2)c1FREMARK SMILES IDX 16 1 15 2 14 3 11 4 12 5 34 6 13 7 33 8 9 9 10 10 8 11 3 12REMARK SMILES IDX 4 13 35 14 5 15 6 16 36 17 2 18 1 19 7 20 17 22 18 23 23 25REMARK SMILES IDX 22 26 21 27 20 29 19 30 24 32 25 33 26 35 27 36 28 37 32 38REMARK SMILES IDX 29 39 31 40 30 41REMARK H PARENT 7 21 21 28 24 34REMARK Flexibility Score:   99.900USER                              x       y       z     vdW  Elec       q    TypeUSER                           _______ _______ _______ _____ _____    ______ ____ROOTATOM      1  C   UNL     1      31.946  43.740  16.836 -0.35 +0.01    -0.021 C  ENDROOTBRANCH   1   2ATOM      2  C   UNL     1      31.218  42.734  16.326 -0.38 -0.00    +0.004 C  BRANCH   2   3ATOM      3  C   UNL     1      30.953  41.482  17.045 -0.30 +0.01    -0.026 A  ATOM      4  C   UNL     1      30.455  39.127  18.490 -0.37 +0.00    +0.023 A  ATOM      5  C   UNL     1      31.363  40.070  18.982 -0.37 +0.00    +0.013 A  ATOM      6  C   UNL     1      29.766  39.376  17.299 -0.29 +0.00    +0.013 A  ATOM      7  C   UNL     1      31.605  41.244  18.261 -0.34 -0.00    +0.009 A  ATOM      8  C   UNL     1      30.021  40.544  16.578 -0.38 -0.00    +0.009 A  BRANCH   4   9ATOM      9  C   UNL     1      30.151  37.890  19.239 -0.33 +0.06    +0.199 C  ATOM     10  O   UNL     1      30.817  36.879  19.013 -0.75 -0.18    -0.288 OA BRANCH   9  11ATOM     11  C   UNL     1      29.043  37.794  20.217 -0.26 +0.01    +0.104 A  ATOM     12  C   UNL     1      26.863  38.502  21.052 -0.20 -0.05    +0.155 A  ATOM     13  C   UNL     1      26.967  37.578  22.093 -0.30 -0.02    +0.053 A  ATOM     14  C   UNL     1      27.908  38.603  20.121 -0.17 -0.01    +0.179 A  ATOM     15  C   UNL     1      28.111  36.784  22.214 -0.30 -0.01    +0.051 A  ATOM     16  C   UNL     1      29.144  36.903  21.291 -0.25 -0.01    +0.130 A  ATOM     17  F   UNL     1      27.815  39.522  19.147 -0.04 -0.01    -0.202 F  BRANCH  12  18ATOM     18  O   UNL     1      25.805  39.344  20.842 -0.07 +0.18    -0.494 OA ATOM     19  C   UNL     1      24.505  38.767  20.820 -0.19 -0.22    +0.278 C  ENDBRANCH  12  18BRANCH  16  20ATOM     20  O   UNL     1      30.241  36.109  21.502 -0.07 -0.01    -0.507 OA ATOM     21  H   UNL     1      30.386  35.574  20.687 -0.20 -0.01    +0.293 HD ENDBRANCH  16  20ENDBRANCH   9  11ENDBRANCH   4   9ENDBRANCH   2   3ENDBRANCH   1   2BRANCH   1  22ATOM     22  C   UNL     1      33.429  43.997  16.577 -0.35 -0.02    +0.035 C  BRANCH  22  23ATOM     23  C   UNL     1      34.207  42.874  17.292 -0.43 -0.00    +0.011 CG0ATOM     24  G   UNL     1      34.131  42.794  18.812 +0.00 +0.00    +0.000 G0 ENDBRANCH  22  23BRANCH  22  25ATOM     25  C   UNL     1      33.952  45.433  16.884 -0.32 -0.08    +0.103 C  BRANCH  25  26ATOM     26  C   UNL     1      34.907  45.434  18.113 -0.39 -0.05    +0.106 C  BRANCH  26  27ATOM     27  N   UNL     1      34.335  45.173  19.428 -0.09 +0.11    -0.315 NA ATOM     28  H   UNL     1      33.813  45.993  19.738 -0.40 -0.08    +0.122 HD BRANCH  27  29ATOM     29  C   UNL     1      33.509  43.979  19.519 -0.44 -0.01    +0.081 C  BRANCH  29  30ATOM     30  C   UNL     1      34.138  42.786  18.816 -0.44 -0.00    +0.016 CG0ATOM     31  G   UNL     1      34.206  42.880  17.296 +0.00 +0.00    +0.000 G0 ENDBRANCH  29  30ENDBRANCH  27  29ENDBRANCH  26  27ENDBRANCH  25  26BRANCH  25  32ATOM     32  N   UNL     1      34.673  45.996  15.734 -0.07 +0.38    -0.347 N  ATOM     33  C   UNL     1      35.823  45.418  15.243 -0.24 -0.15    +0.251 C  ATOM     34  H   UNL     1      34.205  46.707  15.188 -0.08 -0.31    +0.164 HD ATOM     35  O   UNL     1      36.332  44.411  15.718 -0.23 +0.11    -0.269 OA BRANCH  33  36ATOM     36  C   UNL     1      36.426  46.070  14.053 -0.41 -0.02    +0.042 A  ATOM     37  C   UNL     1      35.787  46.066  12.813 -0.48 -0.02    +0.034 A  ATOM     38  C   UNL     1      37.645  46.727  14.203 -0.42 -0.01    +0.034 A  ATOM     39  C   UNL     1      36.419  46.705  11.762 -0.55 -0.05    +0.112 A  ATOM     40  C   UNL     1      38.195  47.333  13.090 -0.26 -0.02    +0.112 A  ATOM     41  N   UNL     1      37.612  47.327  11.871 -0.90 +0.03    -0.265 NA ENDBRANCH  33  36ENDBRANCH  25  32ENDBRANCH  22  25ENDBRANCH   1  22TORSDOF 9TERENDMDL