MODEL        7USER    Run = 7USERUSER    Estimated Free Energy of Binding    = -12.52 kcal/mol  [=(1)+(2)+(3)-(4)]USERUSER    (1) Final Intermolecular Energy     = -14.31 kcal/molUSER        vdW + Hbond + desolv Energy     = -14.19 kcal/molUSER        Electrostatic Energy            =  -0.11 kcal/molUSER        Moving Ligand-Fixed Receptor    = -14.31 kcal/molUSER        Moving Ligand-Moving Receptor   =  +0.00 kcal/molUSER    (2) Final Total Internal Energy     =  -1.93 kcal/molUSER    (3) Torsional Free Energy           =  +1.79 kcal/molUSER    (4) Unbound System's Energy         =  -1.93 kcal/molUSERUSERREMARK SMILES Oc1nc2ccccc2n1C1CCN(Cc2ccc(-c3cc4ccccc4nc3-c3ccccc3)cc2)CC1REMARK SMILES IDX 11 1 12 2 13 3 14 4 38 5 39 6 10 7 2 8 3 9 4 10 9 11 5 12REMARK SMILES IDX 8 13 6 14 7 15 1 16 15 18 16 19 17 20 37 21 18 22 36 23REMARK SMILES IDX 19 24 20 25 21 26 29 27 22 28 28 29 23 30 27 31 24 32 26 33REMARK SMILES IDX 25 34 30 35 31 36 35 37 32 38 34 39 33 40REMARK H PARENT 1 17USER                              x       y       z     vdW  Elec       q    TypeUSER                           _______ _______ _______ _____ _____    ______ ____ROOTATOM      1  C   UNL     1      31.492  40.332  17.283 -0.24 -0.02    +0.095 C  ATOM      2  C   UNL     1      32.619  41.200  17.861 -0.43 -0.01    +0.041 C  ATOM      3  C   UNL     1      32.165  42.551  18.405 -0.34 -0.01    +0.087 C  ATOM      4  N   UNL     1      31.243  43.273  17.525 -0.10 +0.06    -0.299 NA ATOM      5  C   UNL     1      30.046  42.470  17.259 -0.25 -0.02    +0.087 C  ATOM      6  C   UNL     1      30.328  41.103  16.641 -0.38 -0.01    +0.041 C  ENDROOTBRANCH   1   7ATOM      7  N   UNL     1      31.080  39.229  18.150 -0.22 -0.02    -0.291 N  ATOM      8  C   UNL     1      31.887  38.155  18.439 -0.24 +0.04    +0.295 A  ATOM      9  N   UNL     1      31.324  37.267  19.208 -0.83 -0.07    -0.195 NA ATOM     10  C   UNL     1      30.077  37.778  19.451 -0.34 +0.02    +0.092 A  ATOM     11  C   UNL     1      29.890  39.013  18.813 -0.31 +0.01    +0.072 A  ATOM     12  C   UNL     1      29.044  37.223  20.225 -0.30 +0.00    +0.031 A  ATOM     13  C   UNL     1      28.686  39.716  18.942 -0.17 +0.00    +0.029 A  ATOM     14  C   UNL     1      27.840  37.919  20.351 -0.29 -0.00    +0.002 A  ATOM     15  C   UNL     1      27.668  39.147  19.719 -0.25 -0.00    +0.002 A  BRANCH   8  16ATOM     16  O   UNL     1      33.120  37.995  18.002 -0.13 +0.04    -0.480 OA ATOM     17  H   UNL     1      33.389  38.921  17.860 +0.04 -0.10    +0.296 HD ENDBRANCH   8  16ENDBRANCH   1   7BRANCH   4  18ATOM     18  C   UNL     1      31.909  43.772  16.310 -0.30 -0.05    +0.120 C  BRANCH  18  19ATOM     19  C   UNL     1      33.321  44.256  16.560 -0.30 +0.02    -0.034 A  ATOM     20  C   UNL     1      33.561  45.472  17.213 -0.34 -0.00    +0.006 A  ATOM     21  C   UNL     1      34.416  43.490  16.139 -0.35 -0.00    +0.006 A  ATOM     22  C   UNL     1      34.869  45.911  17.437 -0.39 -0.01    +0.009 A  ATOM     23  C   UNL     1      35.722  43.936  16.356 -0.36 -0.00    +0.009 A  ATOM     24  C   UNL     1      35.968  45.154  17.003 -0.32 +0.01    -0.016 A  BRANCH  24  25ATOM     25  C   UNL     1      37.343  45.617  17.240 -0.35 -0.00    +0.009 A  ATOM     26  C   UNL     1      37.969  45.308  18.456 -0.35 -0.00    +0.021 A  ATOM     27  C   UNL     1      38.101  46.331  16.297 -0.34 -0.03    +0.079 A  ATOM     28  C   UNL     1      39.294  45.689  18.702 -0.42 -0.00    +0.001 A  ATOM     29  N   UNL     1      39.397  46.697  16.518 -0.26 +0.06    -0.247 NA ATOM     30  C   UNL     1      39.941  45.387  19.913 -0.39 +0.00    +0.010 A  ATOM     31  C   UNL     1      39.975  46.388  17.689 -0.42 -0.01    +0.071 A  ATOM     32  C   UNL     1      41.262  45.777  20.123 -0.40 +0.00    +0.001 A  ATOM     33  C   UNL     1      41.291  46.764  17.922 -0.47 -0.00    +0.029 A  ATOM     34  C   UNL     1      41.940  46.467  19.124 -0.49 +0.00    +0.002 A  BRANCH  27  35ATOM     35  C   UNL     1      37.589  46.762  14.983 -0.42 -0.00    +0.001 A  ATOM     36  C   UNL     1      37.351  45.819  13.967 -0.43 -0.00    +0.010 A  ATOM     37  C   UNL     1      37.344  48.115  14.692 -0.52 -0.01    +0.010 A  ATOM     38  C   UNL     1      36.863  46.211  12.717 -0.60 -0.00    +0.001 A  ATOM     39  C   UNL     1      36.857  48.509  13.443 -0.53 -0.00    +0.001 A  ATOM     40  C   UNL     1      36.613  47.556  12.457 -0.67 -0.00    +0.000 A  ENDBRANCH  27  35ENDBRANCH  24  25ENDBRANCH  18  19ENDBRANCH   4  18TORSDOF 6TERENDMDL