MODEL        7USER    Run = 7USERUSER    Estimated Free Energy of Binding    =  -7.59 kcal/mol  [=(1)+(2)+(3)-(4)]USERUSER    (1) Final Intermolecular Energy     = -11.77 kcal/molUSER        vdW + Hbond + desolv Energy     = -12.34 kcal/molUSER        Electrostatic Energy            =  -0.06 kcal/molUSER        Moving Ligand-Fixed Receptor    = -12.40 kcal/molUSER        Moving Ligand-Moving Receptor   =  +0.63 kcal/molUSER    (2) Final Total Internal Energy     =  -2.83 kcal/molUSER    (3) Torsional Free Energy           =  +4.18 kcal/molUSER    (4) Unbound System's Energy         =  -2.83 kcal/molUSERUSERREMARK SMILES COc1ccc(O)c(C(=O)c2ccc(C(=O)N[C@@H]3CCCNC[C@H]3NC(=O)c3ccncc3)cc2)c1FREMARK SMILES IDX 15 1 16 2 17 3 14 5 11 6 12 7 35 8 13 9 34 10 9 11 10 12REMARK SMILES IDX 8 13 3 14 4 15 36 16 5 17 6 18 37 19 2 20 1 21 7 22 18 24REMARK SMILES IDX 19 25 24 27 23 28 22 29 21 31 20 32 25 34 26 35 27 37 28 38REMARK SMILES IDX 29 39 33 40 30 41 32 42 31 43REMARK H PARENT 17 4 7 23 22 30 25 36REMARK Flexibility Score:   88.900USER                              x       y       z     vdW  Elec       q    TypeUSER                           _______ _______ _______ _____ _____    ______ ____ROOTATOM      1  C   UNL     1      36.924  44.400  17.029 -0.23 -0.08    +0.251 C  ATOM      2  O   UNL     1      37.646  43.986  16.128 -0.22 +0.07    -0.269 OA ATOM      3  N   UNL     1      37.384  45.182  18.069 -0.14 +0.08    -0.347 N  ATOM      4  H   UNL     1      36.781  45.307  18.871 +0.10 -0.03    +0.164 HD ENDROOTBRANCH   1   5ATOM      5  C   UNL     1      35.489  44.004  17.085 -0.29 -0.01    +0.039 A  ATOM      6  C   UNL     1      32.828  43.134  17.237 -0.31 -0.01    +0.023 A  ATOM      7  C   UNL     1      33.833  42.248  16.835 -0.34 -0.01    +0.013 A  ATOM      8  C   UNL     1      33.153  44.456  17.562 -0.31 -0.00    +0.013 A  ATOM      9  C   UNL     1      35.158  42.685  16.748 -0.43 -0.01    +0.014 A  ATOM     10  C   UNL     1      34.481  44.895  17.475 -0.32 -0.01    +0.014 A  BRANCH   6  11ATOM     11  C   UNL     1      31.456  42.602  17.391 -0.22 -0.05    +0.199 C  ATOM     12  O   UNL     1      30.517  43.309  17.022 -0.16 +0.07    -0.288 OA BRANCH  11  13ATOM     13  C   UNL     1      31.142  41.254  17.917 -0.25 -0.02    +0.104 A  ATOM     14  C   UNL     1      31.403  39.478  19.571 -0.30 +0.02    +0.155 A  ATOM     15  C   UNL     1      30.492  38.686  18.867 -0.37 +0.01    +0.053 A  ATOM     16  C   UNL     1      31.718  40.760  19.088 -0.23 +0.00    +0.179 A  ATOM     17  C   UNL     1      29.888  39.180  17.708 -0.31 +0.01    +0.051 A  ATOM     18  C   UNL     1      30.201  40.457  17.248 -0.27 -0.01    +0.130 A  ATOM     19  F   UNL     1      32.567  41.521  19.797 -0.05 -0.03    -0.202 F  BRANCH  14  20ATOM     20  O   UNL     1      32.045  39.110  20.724 -1.06 -0.20    -0.494 OA ATOM     21  C   UNL     1      31.337  38.258  21.619 -0.35 +0.03    +0.278 C  ENDBRANCH  14  20BRANCH  18  22ATOM     22  O   UNL     1      29.537  40.868  16.122 -0.15 +0.10    -0.507 OA ATOM     23  H   UNL     1      29.592  41.853  16.091 +0.17 -0.11    +0.293 HD ENDBRANCH  18  22ENDBRANCH  11  13ENDBRANCH   6  11ENDBRANCH   1   5BRANCH   3  24ATOM     24  C   UNL     1      38.822  45.399  18.269 -0.39 -0.02    +0.106 C  BRANCH  24  25ATOM     25  C   UNL     1      39.090  45.785  19.729 -0.32 -0.00    +0.028 CG0ATOM     26  G   UNL     1      40.505  45.485  20.250 +0.00 +0.00    +0.000 G0 ENDBRANCH  24  25BRANCH  24  27ATOM     27  C   UNL     1      39.364  46.427  17.235 -0.42 -0.03    +0.118 C  BRANCH  27  28ATOM     28  C   UNL     1      40.902  46.439  17.072 -0.37 -0.01    +0.108 C  BRANCH  28  29ATOM     29  N   UNL     1      41.703  46.556  18.294 -0.28 +0.00    -0.315 NA ATOM     30  H   UNL     1      42.675  46.744  18.056 -0.41 -0.01    +0.122 HD BRANCH  29  31ATOM     31  C   UNL     1      41.632  45.432  19.221 -0.36 +0.01    +0.081 C  BRANCH  31  32ATOM     32  C   UNL     1      40.505  45.485  20.249 -0.43 +0.00    +0.017 CG0ATOM     33  G   UNL     1      39.093  45.784  19.718 +0.00 +0.00    +0.000 G0 ENDBRANCH  31  32ENDBRANCH  29  31ENDBRANCH  28  29ENDBRANCH  27  28BRANCH  27  34ATOM     34  N   UNL     1      38.698  46.239  15.939 -0.15 +0.10    -0.346 N  ATOM     35  C   UNL     1      37.844  47.186  15.424 -0.31 -0.13    +0.251 C  ATOM     36  H   UNL     1      39.088  45.546  15.319 +0.11 -0.03    +0.164 HD ATOM     37  O   UNL     1      37.505  48.196  16.028 -0.26 +0.23    -0.269 OA BRANCH  35  38ATOM     38  C   UNL     1      37.351  46.948  14.045 -0.44 -0.02    +0.042 A  ATOM     39  C   UNL     1      36.907  48.043  13.303 -0.57 -0.01    +0.034 A  ATOM     40  C   UNL     1      37.296  45.669  13.490 -0.45 -0.01    +0.034 A  ATOM     41  C   UNL     1      36.445  47.815  12.022 -0.35 -0.05    +0.112 A  ATOM     42  C   UNL     1      36.815  45.546  12.199 -0.48 -0.04    +0.112 A  ATOM     43  N   UNL     1      36.394  46.592  11.451 -0.42 +0.12    -0.265 NA ENDBRANCH  35  38ENDBRANCH  27  34ENDBRANCH  24  27ENDBRANCH   3  24TORSDOF 8TERENDMDL