MODEL        3USER    Run = 3USERUSER    Estimated Free Energy of Binding    = -12.23 kcal/mol  [=(1)+(2)+(3)-(4)]USERUSER    (1) Final Intermolecular Energy     = -14.02 kcal/molUSER        vdW + Hbond + desolv Energy     = -13.98 kcal/molUSER        Electrostatic Energy            =  -0.04 kcal/molUSER        Moving Ligand-Fixed Receptor    = -14.02 kcal/molUSER        Moving Ligand-Moving Receptor   =  +0.00 kcal/molUSER    (2) Final Total Internal Energy     =  -0.63 kcal/molUSER    (3) Torsional Free Energy           =  +1.79 kcal/molUSER    (4) Unbound System's Energy         =  -0.63 kcal/molUSERUSERREMARK SMILES Cn1ccc2ccc3c4[nH]c5c(CCCN[C@H]6CC[C@H](O)CC6)cccc5c4c4c(c3c21)C(=O)NC4=OREMARK SMILES IDX 15 1 14 2 13 3 12 4 2 5 3 6 32 7 4 8 31 9 5 10 30 11 8 12REMARK SMILES IDX 6 13 29 14 33 15 7 16 9 17 28 18 36 19 35 20 10 21 27 22REMARK SMILES IDX 11 23 26 24 25 25 24 26 1 27 34 28 37 29 16 32 17 34 23 35REMARK SMILES IDX 18 36 22 37 19 38 20 39 21 40REMARK H PARENT 35 30 10 31 16 33 21 41USER                              x       y       z     vdW  Elec       q    TypeUSER                           _______ _______ _______ _____ _____    ______ ____ROOTATOM      1  C   UNL     1      38.883  44.572  25.379 -0.17 +0.00    +0.081 C  ENDROOTBRANCH   1   2ATOM      2  C   UNL     1      38.039  44.451  24.108 -0.32 +0.00    +0.020 C  BRANCH   2   3ATOM      3  C   UNL     1      38.595  43.425  23.113 -0.32 +0.00    +0.039 C  BRANCH   3   4ATOM      4  C   UNL     1      37.694  43.159  21.933 -0.36 -0.00    -0.024 A  ATOM      5  N   UNL     1      39.227  48.102  14.973 -0.24 +0.13    -0.350 N  ATOM      6  C   UNL     1      40.310  48.877  14.630 -0.49 -0.03    +0.086 A  ATOM      7  C   UNL     1      39.505  47.348  16.108 -0.45 -0.02    +0.057 A  ATOM      8  C   UNL     1      41.217  48.804  15.652 -0.52 -0.00    +0.028 A  ATOM      9  C   UNL     1      38.820  46.281  16.799 -0.40 -0.01    +0.022 A  ATOM     10  C   UNL     1      40.689  47.911  16.621 -0.55 -0.00    +0.000 A  ATOM     11  C   UNL     1      37.779  45.461  16.334 -0.32 -0.02    +0.063 A  ATOM     12  C   UNL     1      39.274  46.017  18.129 -0.42 -0.00    +0.009 A  ATOM     13  C   UNL     1      41.150  47.538  17.894 -0.51 -0.00    +0.011 A  ATOM     14  C   UNL     1      37.111  44.548  17.159 -0.30 -0.02    +0.063 A  ATOM     15  C   UNL     1      37.255  45.213  14.979 -0.25 -0.10    +0.259 C  ATOM     16  C   UNL     1      40.415  46.637  18.659 -0.41 -0.00    +0.012 A  ATOM     17  C   UNL     1      38.566  45.082  18.947 -0.36 -0.01    +0.055 A  ATOM     18  C   UNL     1      37.462  44.346  18.496 -0.33 -0.00    +0.022 A  ATOM     19  C   UNL     1      36.107  43.859  16.350 -0.26 -0.09    +0.259 C  ATOM     20  N   UNL     1      36.176  44.401  15.109 -0.19 +0.12    -0.288 N  ATOM     21  N   UNL     1      38.770  44.700  20.256 -0.15 +0.00    -0.354 N  ATOM     22  C   UNL     1      37.003  43.533  19.587 -0.31 -0.00    +0.008 A  ATOM     23  C   UNL     1      37.840  43.780  20.675 -0.30 -0.00    +0.050 A  ATOM     24  C   UNL     1      35.952  42.609  19.760 -0.41 -0.00    +0.011 A  ATOM     25  C   UNL     1      35.778  41.972  20.992 -0.48 +0.00    +0.001 A  ATOM     26  C   UNL     1      36.633  42.243  22.055 -0.50 +0.00    +0.006 A  ATOM     27  C   UNL     1      37.941  48.319  14.343 -0.49 -0.08    +0.149 C  ATOM     28  O   UNL     1      37.746  45.561  13.925 -0.28 +0.09    -0.269 OA ATOM     29  O   UNL     1      35.388  42.940  16.682 -0.30 +0.10    -0.269 OA ATOM     30  H   UNL     1      35.725  43.972  14.316 +0.14 -0.06    +0.173 HD ATOM     31  H   UNL     1      39.497  45.067  20.850 +0.09 +0.00    +0.167 HD ENDBRANCH   3   4ENDBRANCH   2   3ENDBRANCH   1   2BRANCH   1  32ATOM     32  N   UNL     1      38.021  44.393  26.549 -0.08 +0.02    -0.314 NA ATOM     33  H   UNL     1      38.505  43.849  27.261 +0.06 -0.01    +0.122 HD BRANCH  32  34ATOM     34  C   UNL     1      36.738  43.757  26.218 -0.38 -0.00    +0.053 C  ATOM     35  C   UNL     1      36.877  42.257  25.882 -0.45 -0.00    +0.021 C  ATOM     36  C   UNL     1      35.794  43.997  27.414 -0.54 -0.01    +0.021 C  ATOM     37  C   UNL     1      36.639  41.364  27.099 -0.57 -0.01    +0.033 C  ATOM     38  C   UNL     1      34.673  42.966  27.447 -0.64 -0.01    +0.033 C  ATOM     39  C   UNL     1      35.224  41.553  27.659 -0.60 -0.05    +0.114 C  BRANCH  39  40ATOM     40  O   UNL     1      34.329  40.639  27.029 -0.38 +0.22    -0.393 OA ATOM     41  H   UNL     1      34.183  39.899  27.644 -0.24 -0.20    +0.210 HD ENDBRANCH  39  40ENDBRANCH  32  34ENDBRANCH   1  32TORSDOF 6TERENDMDL