MODEL        5USER    Run = 5USERUSER    Estimated Free Energy of Binding    = -12.78 kcal/mol  [=(1)+(2)+(3)-(4)]USERUSER    (1) Final Intermolecular Energy     = -14.57 kcal/molUSER        vdW + Hbond + desolv Energy     = -14.54 kcal/molUSER        Electrostatic Energy            =  -0.03 kcal/molUSER        Moving Ligand-Fixed Receptor    = -14.57 kcal/molUSER        Moving Ligand-Moving Receptor   =  +0.00 kcal/molUSER    (2) Final Total Internal Energy     =  -2.07 kcal/molUSER    (3) Torsional Free Energy           =  +1.79 kcal/molUSER    (4) Unbound System's Energy         =  -2.07 kcal/molUSERUSERREMARK SMILES Oc1nc2ccccc2n1C1CCN(Cc2ccc(-c3nc4ccccc4nc3-c3ccccc3)cc2)CC1REMARK SMILES IDX 11 1 12 2 13 3 14 4 38 5 39 6 10 7 2 8 3 9 4 10 9 11 5 12REMARK SMILES IDX 8 13 6 14 7 15 1 16 15 18 16 19 17 20 37 21 18 22 36 23REMARK SMILES IDX 19 24 20 25 21 26 29 27 22 28 28 29 23 30 27 31 24 32 26 33REMARK SMILES IDX 25 34 30 35 31 36 35 37 32 38 34 39 33 40REMARK H PARENT 1 17USER                              x       y       z     vdW  Elec       q    TypeUSER                           _______ _______ _______ _____ _____    ______ ____ROOTATOM      1  C   UNL     1      39.396  47.250  15.833 -0.48 -0.03    +0.095 C  ATOM      2  C   UNL     1      38.039  46.924  16.480 -0.42 -0.02    +0.041 C  ATOM      3  C   UNL     1      36.883  47.614  15.755 -0.36 -0.08    +0.087 C  ATOM      4  N   UNL     1      36.975  47.545  14.294 -0.25 +0.18    -0.299 NA ATOM      5  C   UNL     1      38.236  48.098  13.773 -0.48 -0.03    +0.087 C  ATOM      6  C   UNL     1      39.292  48.411  14.838 -0.58 -0.02    +0.041 C  ENDROOTBRANCH   1   7ATOM      7  N   UNL     1      40.453  47.436  16.816 -0.30 +0.05    -0.291 N  ATOM      8  C   UNL     1      41.359  48.459  16.851 -0.21 -0.01    +0.295 A  ATOM      9  N   UNL     1      42.191  48.381  17.852 -0.49 -0.01    -0.195 NA ATOM     10  C   UNL     1      41.807  47.246  18.524 -0.46 -0.00    +0.092 A  ATOM     11  C   UNL     1      40.717  46.630  17.905 -0.46 -0.01    +0.072 A  ATOM     12  C   UNL     1      42.349  46.679  19.688 -0.44 +0.01    +0.031 A  ATOM     13  C   UNL     1      40.130  45.459  18.406 -0.44 -0.00    +0.029 A  ATOM     14  C   UNL     1      41.777  45.508  20.201 -0.36 +0.00    +0.002 A  ATOM     15  C   UNL     1      40.687  44.911  19.568 -0.41 +0.00    +0.002 A  BRANCH   8  16ATOM     16  O   UNL     1      41.408  49.450  15.984 -0.85 +0.02    -0.480 OA ATOM     17  H   UNL     1      41.143  50.205  16.540 +0.12 -0.06    +0.296 HD ENDBRANCH   8  16ENDBRANCH   1   7BRANCH   4  18ATOM     18  C   UNL     1      36.699  46.208  13.737 -0.45 -0.06    +0.120 C  BRANCH  18  19ATOM     19  C   UNL     1      35.980  45.283  14.695 -0.35 +0.02    -0.034 A  ATOM     20  C   UNL     1      34.684  45.576  15.135 -0.34 -0.00    +0.006 A  ATOM     21  C   UNL     1      36.607  44.124  15.169 -0.35 -0.00    +0.006 A  ATOM     22  C   UNL     1      34.024  44.714  16.017 -0.31 -0.01    +0.011 A  ATOM     23  C   UNL     1      35.944  43.264  16.048 -0.44 -0.00    +0.011 A  ATOM     24  C   UNL     1      34.634  43.535  16.476 -0.37 -0.00    +0.002 A  BRANCH  24  25ATOM     25  C   UNL     1      33.914  42.631  17.389 -0.31 -0.04    +0.097 A  ATOM     26  N   UNL     1      32.824  42.035  16.825 -0.06 +0.13    -0.244 NA ATOM     27  C   UNL     1      34.265  42.389  18.726 -0.34 -0.02    +0.097 A  ATOM     28  C   UNL     1      32.080  41.236  17.609 -0.29 -0.03    +0.089 A  ATOM     29  N   UNL     1      33.497  41.585  19.518 -0.24 -0.02    -0.244 NA ATOM     30  C   UNL     1      30.953  40.616  17.082 -0.29 -0.01    +0.030 A  ATOM     31  C   UNL     1      32.416  41.012  18.962 -0.32 +0.00    +0.089 A  ATOM     32  C   UNL     1      30.150  39.782  17.861 -0.35 +0.00    +0.002 A  ATOM     33  C   UNL     1      31.611  40.181  19.731 -0.29 +0.00    +0.030 A  ATOM     34  C   UNL     1      30.481  39.563  19.192 -0.31 +0.00    +0.002 A  BRANCH  27  35ATOM     35  C   UNL     1      35.459  42.927  19.404 -0.42 -0.00    +0.002 A  ATOM     36  C   UNL     1      36.105  42.179  20.405 -0.47 -0.00    +0.010 A  ATOM     37  C   UNL     1      36.010  44.176  19.064 -0.36 -0.00    +0.010 A  ATOM     38  C   UNL     1      37.240  42.668  21.058 -0.37 +0.00    +0.001 A  ATOM     39  C   UNL     1      37.142  44.669  19.718 -0.27 -0.00    +0.001 A  ATOM     40  C   UNL     1      37.755  43.916  20.717 -0.37 -0.00    +0.000 A  ENDBRANCH  27  35ENDBRANCH  24  25ENDBRANCH  18  19ENDBRANCH   4  18TORSDOF 6TERENDMDL