MODEL        10USER    Run = 10USERUSER    Estimated Free Energy of Binding    = -10.66 kcal/mol  [=(1)+(2)+(3)-(4)]USERUSER    (1) Final Intermolecular Energy     = -11.55 kcal/molUSER        vdW + Hbond + desolv Energy     = -11.44 kcal/molUSER        Electrostatic Energy            =  -0.12 kcal/molUSER        Moving Ligand-Fixed Receptor    = -11.55 kcal/molUSER        Moving Ligand-Moving Receptor   =  +0.00 kcal/molUSER    (2) Final Total Internal Energy     =  -0.90 kcal/molUSER    (3) Torsional Free Energy           =  +0.89 kcal/molUSER    (4) Unbound System's Energy         =  -0.90 kcal/molUSERUSERREMARK SMILES Cc1cc(-c2n[nH]c3cnc(-c4cccnc4)cc23)ccc1-n1ccnn1REMARK SMILES IDX 5 1 6 2 7 3 8 4 9 5 10 6 11 7 18 8 19 9 4 11 2 12 3 13 22 14REMARK SMILES IDX 21 15 20 16 1 17 23 18 24 19 27 20 25 21 26 22 12 23 13 24REMARK SMILES IDX 17 25 14 26 16 27 15 28REMARK H PARENT 7 10USER                              x       y       z     vdW  Elec       q    TypeUSER                           _______ _______ _______ _____ _____    ______ ____ROOTATOM      1  C   UNL     1      41.241  47.239  18.077 -0.45 -0.01    +0.100 A  ATOM      2  N   UNL     1      42.391  47.932  18.022 -0.42 +0.00    -0.174 NA ATOM      3  N   UNL     1      42.974  47.707  19.209 -0.38 -0.02    -0.276 N  ATOM      4  C   UNL     1      42.268  46.878  20.029 -0.35 +0.01    +0.084 A  ATOM      5  C   UNL     1      42.520  46.404  21.303 -0.26 +0.03    +0.140 A  ATOM      6  N   UNL     1      41.621  45.568  21.873 -0.13 -0.03    -0.254 NA ATOM      7  C   UNL     1      40.501  45.188  21.200 -0.28 +0.00    +0.073 A  ATOM      8  C   UNL     1      40.211  45.654  19.915 -0.36 +0.00    +0.041 A  ATOM      9  C   UNL     1      41.127  46.537  19.318 -0.38 +0.00    +0.031 A  ATOM     10  H   UNL     1      43.867  48.152  19.393 -0.49 -0.00    +0.190 HD ENDROOTBRANCH   1  11ATOM     11  C   UNL     1      40.304  47.256  16.953 -0.51 -0.00    +0.003 A  ATOM     12  C   UNL     1      38.414  46.227  15.755 -0.38 +0.01    -0.025 A  ATOM     13  C   UNL     1      39.342  46.247  16.821 -0.43 -0.00    +0.016 A  ATOM     14  C   UNL     1      38.467  47.260  14.786 -0.42 -0.03    +0.069 A  ATOM     15  C   UNL     1      39.449  48.263  14.920 -0.52 -0.01    +0.029 A  ATOM     16  C   UNL     1      40.355  48.259  15.987 -0.56 -0.00    +0.013 A  ATOM     17  C   UNL     1      37.433  45.083  15.740 -0.38 -0.02    +0.047 C  BRANCH  14  18ATOM     18  N   UNL     1      37.570  47.329  13.674 -0.34 +0.09    -0.221 N  ATOM     19  C   UNL     1      36.188  47.364  13.684 -0.41 -0.09    +0.137 A  ATOM     20  N   UNL     1      37.985  47.364  12.384 -0.97 +0.00    -0.062 NA ATOM     21  C   UNL     1      35.819  47.423  12.363 -0.46 -0.09    +0.157 A  ATOM     22  N   UNL     1      36.930  47.421  11.584 -1.00 +0.05    -0.139 NA ENDBRANCH  14  18ENDBRANCH   1  11BRANCH   7  23ATOM     23  C   UNL     1      39.615  44.261  21.929 -0.27 +0.00    +0.018 A  ATOM     24  C   UNL     1      38.270  44.093  21.567 -0.34 +0.00    +0.013 A  ATOM     25  C   UNL     1      40.042  43.504  23.022 -0.19 +0.01    +0.121 A  ATOM     26  C   UNL     1      37.447  43.205  22.263 -0.38 +0.00    +0.021 A  ATOM     27  N   UNL     1      39.274  42.625  23.716 -0.10 -0.02    -0.264 NA ATOM     28  C   UNL     1      37.993  42.499  23.318 -0.28 +0.01    +0.111 A  ENDBRANCH   7  23TORSDOF 3TERENDMDL