MODEL        9USER    Run = 9USERUSER    Estimated Free Energy of Binding    =  -8.59 kcal/mol  [=(1)+(2)+(3)-(4)]USERUSER    (1) Final Intermolecular Energy     =  -9.18 kcal/molUSER        vdW + Hbond + desolv Energy     =  -9.13 kcal/molUSER        Electrostatic Energy            =  -0.05 kcal/molUSER        Moving Ligand-Fixed Receptor    =  -9.18 kcal/molUSER        Moving Ligand-Moving Receptor   =  +0.00 kcal/molUSER    (2) Final Total Internal Energy     =  -0.58 kcal/molUSER    (3) Torsional Free Energy           =  +0.60 kcal/molUSER    (4) Unbound System's Energy         =  -0.58 kcal/molUSERUSERREMARK SMILES c1ccc(-c2n[nH]c3cnc(-c4cccnc4)cc23)cc1REMARK SMILES IDX 5 1 6 2 7 3 8 4 9 5 10 6 11 7 18 8 19 9 4 11 1 12 2 13 21 14REMARK SMILES IDX 3 15 20 16 12 17 13 18 17 19 14 20 16 21 15 22REMARK H PARENT 7 10USER                              x       y       z     vdW  Elec       q    TypeUSER                           _______ _______ _______ _____ _____    ______ ____ROOTATOM      1  C   UNL     1      38.379  47.035  15.229 -0.36 -0.04    +0.100 A  ATOM      2  N   UNL     1      38.139  46.458  16.420 -0.27 +0.07    -0.174 NA ATOM      3  N   UNL     1      39.092  46.946  17.226 -0.26 +0.08    -0.276 N  ATOM      4  C   UNL     1      39.965  47.793  16.610 -0.43 -0.02    +0.084 A  ATOM      5  C   UNL     1      41.075  48.475  17.074 -0.31 -0.01    +0.140 A  ATOM      6  N   UNL     1      41.771  49.245  16.207 -0.86 -0.04    -0.254 NA ATOM      7  C   UNL     1      41.387  49.349  14.906 -0.58 -0.01    +0.073 A  ATOM      8  C   UNL     1      40.275  48.668  14.401 -0.42 -0.01    +0.041 A  ATOM      9  C   UNL     1      39.537  47.874  15.294 -0.51 -0.01    +0.031 A  ATOM     10  H   UNL     1      39.094  46.650  18.195 +0.10 -0.04    +0.190 HD ENDROOTBRANCH   1  11ATOM     11  C   UNL     1      37.518  46.762  14.077 -0.46 -0.00    +0.003 A  ATOM     12  C   UNL     1      35.852  46.263  11.875 -0.56 -0.00    +0.000 A  ATOM     13  C   UNL     1      36.555  45.216  12.469 -0.53 -0.00    +0.001 A  ATOM     14  C   UNL     1      35.984  47.560  12.368 -0.63 -0.00    +0.001 A  ATOM     15  C   UNL     1      37.387  45.465  13.564 -0.45 -0.00    +0.010 A  ATOM     16  C   UNL     1      36.816  47.808  13.462 -0.59 -0.00    +0.010 A  ENDBRANCH   1  11BRANCH   7  17ATOM     17  C   UNL     1      42.236  50.218  14.067 -0.67 -0.00    +0.018 A  ATOM     18  C   UNL     1      42.173  50.180  12.666 -0.48 -0.00    +0.013 A  ATOM     19  C   UNL     1      43.158  51.120  14.601 -0.03 -0.02    +0.121 A  ATOM     20  C   UNL     1      42.980  51.011  11.890 -0.48 -0.01    +0.021 A  ATOM     21  N   UNL     1      43.956  51.949  13.879 -0.11 +0.09    -0.264 NA ATOM     22  C   UNL     1      43.846  51.872  12.537 -0.24 -0.05    +0.111 A  ENDBRANCH   7  17TORSDOF 2TERENDMDL