MODEL        8USER    Run = 8USERUSER    Estimated Free Energy of Binding    =  -9.57 kcal/mol  [=(1)+(2)+(3)-(4)]USERUSER    (1) Final Intermolecular Energy     = -10.77 kcal/molUSER        vdW + Hbond + desolv Energy     = -10.66 kcal/molUSER        Electrostatic Energy            =  -0.10 kcal/molUSER        Moving Ligand-Fixed Receptor    = -10.77 kcal/molUSER        Moving Ligand-Moving Receptor   =  +0.00 kcal/molUSER    (2) Final Total Internal Energy     =  -0.70 kcal/molUSER    (3) Torsional Free Energy           =  +1.19 kcal/molUSER    (4) Unbound System's Energy         =  -0.70 kcal/molUSERUSERREMARK SMILES Cc1cc(-c2n[nH]c3cnc(-c4ccc(F)nc4)cc23)ccc1C(=O)OREMARK SMILES IDX 1 1 2 2 3 3 4 4 21 5 22 6 23 7 24 8 25 9 26 10 5 12 6 13REMARK SMILES IDX 20 14 7 15 19 16 8 17 11 18 9 19 10 20 12 22 13 23 18 24REMARK SMILES IDX 14 25 17 26 15 27 16 28REMARK H PARENT 26 11 7 21USER                              x       y       z     vdW  Elec       q    TypeUSER                           _______ _______ _______ _____ _____    ______ ____ROOTATOM      1  C   UNL     1      36.714  46.407  15.712 -0.41 -0.03    +0.045 C  ATOM      2  C   UNL     1      38.043  47.112  15.653 -0.40 +0.02    -0.036 A  ATOM      3  C   UNL     1      38.921  46.974  16.748 -0.43 -0.00    +0.014 A  ATOM      4  C   UNL     1      40.174  47.602  16.770 -0.51 -0.00    +0.003 A  ATOM      5  C   UNL     1      40.565  48.364  15.667 -0.58 -0.00    +0.011 A  ATOM      6  C   UNL     1      39.709  48.510  14.571 -0.52 -0.01    +0.016 A  ATOM      7  C   UNL     1      38.444  47.895  14.550 -0.47 -0.03    +0.062 A  ENDROOTBRANCH   7   8ATOM      8  C   UNL     1      37.559  48.074  13.358 -0.22 -0.11    +0.335 C  ATOM      9  O   UNL     1      37.500  47.371  12.367 -1.07 +0.05    -0.246 OA BRANCH   8  10ATOM     10  O   UNL     1      36.758  49.151  13.467 -0.26 +0.24    -0.478 OA ATOM     11  H   UNL     1      37.346  49.836  13.849 -0.28 -0.21    +0.297 HD ENDBRANCH   8  10ENDBRANCH   7   8BRANCH   4  12ATOM     12  C   UNL     1      41.055  47.440  17.926 -0.45 -0.01    +0.100 A  ATOM     13  N   UNL     1      42.230  48.090  17.990 -0.53 -0.00    -0.174 NA ATOM     14  C   UNL     1      40.860  46.625  19.085 -0.38 -0.00    +0.031 A  ATOM     15  N   UNL     1      42.747  47.732  19.175 -0.38 -0.02    -0.276 N  ATOM     16  C   UNL     1      39.888  45.722  19.551 -0.37 -0.00    +0.041 A  ATOM     17  C   UNL     1      41.976  46.852  19.876 -0.30 +0.01    +0.084 A  ATOM     18  C   UNL     1      40.103  45.121  20.792 -0.31 +0.00    +0.073 A  ATOM     19  C   UNL     1      42.152  46.245  21.105 -0.26 +0.03    +0.140 A  ATOM     20  N   UNL     1      41.201  45.390  21.548 -0.15 -0.03    -0.254 NA ATOM     21  H   UNL     1      43.642  48.125  19.444 -0.50 -0.00    +0.190 HD BRANCH  18  22ATOM     22  C   UNL     1      39.158  44.157  21.385 -0.29 +0.00    +0.019 A  ATOM     23  C   UNL     1      37.871  43.924  20.872 -0.35 +0.00    +0.016 A  ATOM     24  C   UNL     1      39.506  43.398  22.508 -0.20 +0.01    +0.124 A  ATOM     25  C   UNL     1      37.022  42.999  21.483 -0.39 +0.00    +0.061 A  ATOM     26  N   UNL     1      38.702  42.496  23.129 -0.18 -0.02    -0.228 NA ATOM     27  C   UNL     1      37.479  42.321  22.596 -0.30 +0.02    +0.212 A  ATOM     28  F   UNL     1      36.665  41.435  23.185 -0.20 -0.01    -0.185 F  ENDBRANCH  18  22ENDBRANCH   4  12TORSDOF 4TERENDMDL