REMARK SMILES Cc1cc(-c2n[nH]c3cnc(-c4cccnc4)cc23)ccc1-n1ccnn1
REMARK SMILES IDX 5 1 6 2 7 3 8 4 9 5 10 6 11 7 18 8 19 9 4 11 2 12 3 13 22 14
REMARK SMILES IDX 21 15 20 16 1 17 23 18 24 19 27 20 25 21 26 22 12 23 13 24
REMARK SMILES IDX 17 25 14 26 16 27 15 28
REMARK H PARENT 7 10
ROOT
ATOM      1  C   UNL     1       0.104   1.527  -1.307  1.00  0.00     0.100 A 
ATOM      2  N   UNL     1       0.085   2.486  -2.249  1.00  0.00    -0.174 NA
ATOM      3  N   UNL     1       1.378   2.770  -2.463  1.00  0.00    -0.276 N 
ATOM      4  C   UNL     1       2.244   2.024  -1.720  1.00  0.00     0.084 A 
ATOM      5  C   UNL     1       3.624   2.007  -1.650  1.00  0.00     0.140 A 
ATOM      6  N   UNL     1       4.220   1.131  -0.808  1.00  0.00    -0.254 NA
ATOM      7  C   UNL     1       3.477   0.272  -0.059  1.00  0.00     0.073 A 
ATOM      8  C   UNL     1       2.080   0.268  -0.098  1.00  0.00     0.041 A 
ATOM      9  C   UNL     1       1.448   1.185  -0.955  1.00  0.00     0.031 A 
ATOM     10  H   UNL     1       1.601   3.490  -3.142  1.00  0.00     0.190 HD
ENDROOT
BRANCH   1  11
ATOM     11  C   UNL     1      -1.143   0.965  -0.788  1.00  0.00     0.003 A 
ATOM     12  C   UNL     1      -3.423   0.130  -1.200  1.00  0.00    -0.025 A 
ATOM     13  C   UNL     1      -2.203   0.678  -1.657  1.00  0.00     0.016 A 
ATOM     14  C   UNL     1      -3.577  -0.131   0.184  1.00  0.00     0.069 A 
ATOM     15  C   UNL     1      -2.509   0.175   1.053  1.00  0.00     0.029 A 
ATOM     16  C   UNL     1      -1.311   0.717   0.573  1.00  0.00     0.013 A 
ATOM     17  C   UNL     1      -4.476  -0.131  -2.247  1.00  0.00     0.047 C 
BRANCH  14  18
ATOM     18  N   UNL     1      -4.771  -0.687   0.742  1.00  0.00    -0.221 N 
ATOM     19  C   UNL     1      -5.049  -0.975   2.065  1.00  0.00     0.137 A 
ATOM     20  N   UNL     1      -5.851  -1.031  -0.002  1.00  0.00    -0.062 NA
ATOM     21  C   UNL     1      -6.320  -1.493   2.062  1.00  0.00     0.157 A 
ATOM     22  N   UNL     1      -6.793  -1.520   0.791  1.00  0.00    -0.139 NA
ENDBRANCH  14  18
ENDBRANCH   1  11
BRANCH   7  23
ATOM     23  C   UNL     1       4.251  -0.641   0.803  1.00  0.00     0.018 A 
ATOM     24  C   UNL     1       5.505  -0.280   1.318  1.00  0.00     0.013 A 
ATOM     25  C   UNL     1       3.801  -1.915   1.156  1.00  0.00     0.121 A 
ATOM     26  C   UNL     1       6.220  -1.153   2.139  1.00  0.00     0.021 A 
ATOM     27  N   UNL     1       4.464  -2.787   1.958  1.00  0.00    -0.264 NA
ATOM     28  C   UNL     1       5.660  -2.383   2.430  1.00  0.00     0.111 A 
ENDBRANCH   7  23
TORSDOF 3
