MODEL        8USER    Run = 8USERUSER    Estimated Free Energy of Binding    = -12.33 kcal/mol  [=(1)+(2)+(3)-(4)]USERUSER    (1) Final Intermolecular Energy     = -14.42 kcal/molUSER        vdW + Hbond + desolv Energy     = -14.18 kcal/molUSER        Electrostatic Energy            =  -0.24 kcal/molUSER        Moving Ligand-Fixed Receptor    = -14.42 kcal/molUSER        Moving Ligand-Moving Receptor   =  +0.00 kcal/molUSER    (2) Final Total Internal Energy     =  -1.43 kcal/molUSER    (3) Torsional Free Energy           =  +2.09 kcal/molUSER    (4) Unbound System's Energy         =  -1.43 kcal/molUSERUSERREMARK SMILES Oc1ccc2nc(-c3ccc(CN4CCC(n5c(O)nc6ccccc65)CC4)cc3)c(-c3ccncc3)nc2c1REMARK SMILES IDX 12 1 11 2 8 3 9 4 30 5 10 6 29 7 7 8 2 9 3 10 40 11 4 12REMARK SMILES IDX 39 13 5 14 38 15 6 16 31 17 1 18 32 20 33 21 37 22 34 23REMARK SMILES IDX 36 24 35 25 13 26 14 27 28 28 15 29 27 30 16 31 17 32 18 33REMARK SMILES IDX 26 34 20 35 25 36 21 37 24 38 22 39 23 40 19 41REMARK H PARENT 1 19 19 42USER                              x       y       z     vdW  Elec       q    TypeUSER                           _______ _______ _______ _____ _____    ______ ____ROOTATOM      1  C   UNL     1      32.039  44.249  16.499 -0.30 -0.05    +0.120 C  ENDROOTBRANCH   1   2ATOM      2  C   UNL     1      33.473  44.699  16.691 -0.30 +0.02    -0.034 A  ATOM      3  C   UNL     1      36.154  45.561  17.047 -0.34 -0.00    +0.002 A  ATOM      4  C   UNL     1      35.154  45.904  17.972 -0.40 -0.01    +0.011 A  ATOM      5  C   UNL     1      35.785  44.761  15.952 -0.33 -0.01    +0.011 A  ATOM      6  C   UNL     1      33.831  45.488  17.793 -0.40 -0.00    +0.006 A  ATOM      7  C   UNL     1      34.463  44.341  15.770 -0.30 -0.00    +0.006 A  BRANCH   3   8ATOM      8  C   UNL     1      37.554  45.992  17.215 -0.30 -0.04    +0.097 A  ATOM      9  C   UNL     1      41.981  46.766  19.244 -0.41 +0.01    +0.117 A  ATOM     10  C   UNL     1      41.278  45.991  20.151 -0.36 +0.00    +0.048 A  ATOM     11  C   UNL     1      41.397  47.157  18.045 -0.47 -0.01    +0.076 A  ATOM     12  C   UNL     1      39.974  45.601  19.845 -0.36 +0.00    +0.034 A  ATOM     13  C   UNL     1      40.098  46.774  17.736 -0.41 -0.01    +0.093 A  ATOM     14  C   UNL     1      39.372  45.979  18.652 -0.35 -0.01    +0.090 A  ATOM     15  N   UNL     1      39.557  47.163  16.568 -0.29 +0.06    -0.244 NA ATOM     16  N   UNL     1      38.113  45.588  18.392 -0.23 +0.04    -0.244 NA ATOM     17  C   UNL     1      38.283  46.762  16.295 -0.34 -0.04    +0.097 A  BRANCH   9  18ATOM     18  O   UNL     1      43.254  47.128  19.570 -0.24 -0.16    -0.508 OA ATOM     19  H   UNL     1      43.314  48.098  19.594 -0.37 -0.01    +0.293 HD ENDBRANCH   9  18BRANCH  17  20ATOM     20  C   UNL     1      37.800  47.192  14.971 -0.44 -0.00    +0.005 A  ATOM     21  C   UNL     1      37.816  46.301  13.888 -0.42 -0.01    +0.030 A  ATOM     22  C   UNL     1      37.288  48.475  14.742 -0.51 -0.02    +0.030 A  ATOM     23  C   UNL     1      37.358  46.729  12.652 -0.47 -0.03    +0.111 A  ATOM     24  C   UNL     1      36.856  48.813  13.468 -0.27 -0.05    +0.111 A  ATOM     25  N   UNL     1      36.887  47.970  12.418 -0.98 +0.07    -0.265 NA ENDBRANCH  17  20ENDBRANCH   3   8ENDBRANCH   1   2BRANCH   1  26ATOM     26  N   UNL     1      31.695  43.041  17.274 -0.11 +0.09    -0.299 NA ATOM     27  C   UNL     1      30.617  42.305  16.598 -0.31 -0.03    +0.087 C  ATOM     28  C   UNL     1      32.873  42.181  17.477 -0.35 -0.03    +0.087 C  ATOM     29  C   UNL     1      30.170  41.102  17.428 -0.32 -0.01    +0.041 C  ATOM     30  C   UNL     1      32.522  40.975  18.347 -0.45 -0.01    +0.041 C  ATOM     31  C   UNL     1      31.359  40.188  17.738 -0.38 -0.01    +0.095 C  BRANCH  31  32ATOM     32  N   UNL     1      30.988  39.024  18.529 -0.22 -0.04    -0.291 N  ATOM     33  C   UNL     1      31.788  37.932  18.733 -0.29 +0.06    +0.295 A  ATOM     34  C   UNL     1      29.812  38.788  19.211 -0.31 +0.01    +0.072 A  ATOM     35  N   UNL     1      31.239  37.018  19.483 -0.74 -0.07    -0.195 NA ATOM     36  C   UNL     1      28.624  39.514  19.383 -0.16 +0.00    +0.029 A  ATOM     37  C   UNL     1      30.003  37.532  19.793 -0.29 +0.02    +0.092 A  ATOM     38  C   UNL     1      27.618  38.930  20.162 -0.25 -0.00    +0.002 A  ATOM     39  C   UNL     1      28.984  36.967  20.574 -0.29 -0.00    +0.031 A  ATOM     40  C   UNL     1      27.791  37.677  20.749 -0.29 -0.00    +0.002 A  BRANCH  33  41ATOM     41  O   UNL     1      32.997  37.781  18.233 -0.09 +0.00    -0.480 OA ATOM     42  H   UNL     1      33.489  37.480  19.020 +0.27 +0.02    +0.296 HD ENDBRANCH  33  41ENDBRANCH  31  32ENDBRANCH   1  26TORSDOF 7TERENDMDL