REMARK SMILES Oc1ccc2nc(-c3ccc(CN4CCC(n5c(O)nc6ccccc65)CC4)cc3)c(-c3ccncc3)nc2c1
REMARK SMILES IDX 12 1 11 2 8 3 9 4 30 5 10 6 29 7 7 8 2 9 3 10 40 11 4 12
REMARK SMILES IDX 39 13 5 14 38 15 6 16 31 17 1 18 32 20 33 21 37 22 34 23
REMARK SMILES IDX 36 24 35 25 13 26 14 27 28 28 15 29 27 30 16 31 17 32 18 33
REMARK SMILES IDX 26 34 20 35 25 36 21 37 24 38 22 39 23 40 19 41
REMARK H PARENT 1 19 19 42
ROOT
ATOM      1  C   UNL     1       0.800  -2.695  -0.784  1.00  0.00     0.120 C 
ENDROOT
BRANCH   1   2
ATOM      2  C   UNL     1      -0.454  -1.866  -0.599  1.00  0.00    -0.034 A 
ATOM      3  C   UNL     1      -2.811  -0.325  -0.239  1.00  0.00     0.002 A 
ATOM      4  C   UNL     1      -1.821  -0.378   0.756  1.00  0.00     0.011 A 
ATOM      5  C   UNL     1      -2.585  -1.044  -1.425  1.00  0.00     0.011 A 
ATOM      6  C   UNL     1      -0.664  -1.144   0.584  1.00  0.00     0.006 A 
ATOM      7  C   UNL     1      -1.428  -1.810  -1.602  1.00  0.00     0.006 A 
BRANCH   3   8
ATOM      8  C   UNL     1      -4.039   0.474  -0.076  1.00  0.00     0.097 A 
ATOM      9  C   UNL     1      -7.548   3.846  -0.875  1.00  0.00     0.117 A 
ATOM     10  C   UNL     1      -6.701   3.912  -1.969  1.00  0.00     0.048 A 
ATOM     11  C   UNL     1      -7.305   2.944   0.154  1.00  0.00     0.076 A 
ATOM     12  C   UNL     1      -5.600   3.058  -2.029  1.00  0.00     0.034 A 
ATOM     13  C   UNL     1      -6.208   2.093   0.101  1.00  0.00     0.093 A 
ATOM     14  C   UNL     1      -5.339   2.148  -1.012  1.00  0.00     0.090 A 
ATOM     15  N   UNL     1      -5.997   1.228   1.109  1.00  0.00    -0.244 NA
ATOM     16  N   UNL     1      -4.267   1.343  -1.102  1.00  0.00    -0.244 NA
ATOM     17  C   UNL     1      -4.915   0.402   1.019  1.00  0.00     0.097 A 
BRANCH   9  18
ATOM     18  O   UNL     1      -8.617   4.690  -0.847  1.00  0.00    -0.508 OA
ATOM     19  H   UNL     1      -9.145   4.510  -0.051  1.00  0.00     0.293 HD
ENDBRANCH   9  18
BRANCH  17  20
ATOM     20  C   UNL     1      -4.801  -0.544   2.143  1.00  0.00     0.005 A 
ATOM     21  C   UNL     1      -4.884  -0.085   3.465  1.00  0.00     0.030 A 
ATOM     22  C   UNL     1      -4.637  -1.921   1.948  1.00  0.00     0.030 A 
ATOM     23  C   UNL     1      -4.773  -0.993   4.506  1.00  0.00     0.111 A 
ATOM     24  C   UNL     1      -4.532  -2.752   3.053  1.00  0.00     0.111 A 
ATOM     25  N   UNL     1      -4.590  -2.317   4.327  1.00  0.00    -0.265 NA
ENDBRANCH  17  20
ENDBRANCH   3   8
ENDBRANCH   1   2
BRANCH   1  26
ATOM     26  N   UNL     1       2.045  -1.917  -0.631  1.00  0.00    -0.299 NA
ATOM     27  C   UNL     1       3.196  -2.828  -0.552  1.00  0.00     0.087 C 
ATOM     28  C   UNL     1       2.212  -0.952  -1.730  1.00  0.00     0.087 C 
ATOM     29  C   UNL     1       4.489  -2.057  -0.293  1.00  0.00     0.041 C 
ATOM     30  C   UNL     1       3.462  -0.098  -1.519  1.00  0.00     0.041 C 
ATOM     31  C   UNL     1       4.701  -0.983  -1.364  1.00  0.00     0.095 C 
BRANCH  31  32
ATOM     32  N   UNL     1       5.922  -0.216  -1.164  1.00  0.00    -0.291 N 
ATOM     33  C   UNL     1       6.981  -0.194  -2.032  1.00  0.00     0.295 A 
ATOM     34  C   UNL     1       6.253   0.613  -0.112  1.00  0.00     0.072 A 
ATOM     35  N   UNL     1       7.959   0.573  -1.639  1.00  0.00    -0.195 NA
ATOM     36  C   UNL     1       5.599   0.997   1.068  1.00  0.00     0.029 A 
ATOM     37  C   UNL     1       7.526   1.087  -0.441  1.00  0.00     0.092 A 
ATOM     38  C   UNL     1       6.273   1.878   1.922  1.00  0.00     0.002 A 
ATOM     39  C   UNL     1       8.182   1.973   0.427  1.00  0.00     0.031 A 
ATOM     40  C   UNL     1       7.544   2.360   1.611  1.00  0.00     0.002 A 
BRANCH  33  41
ATOM     41  O   UNL     1       7.043  -0.871  -3.160  1.00  0.00    -0.480 OA
ATOM     42  H   UNL     1       7.918  -0.599  -3.494  1.00  0.00     0.296 HD
ENDBRANCH  33  41
ENDBRANCH  31  32
ENDBRANCH   1  26
TORSDOF 7
