REMARK SMILES COc1ccc(O)c(C(=O)c2ccc(CN3CCN(C)C[C@@H]3n3c(O)nc4ccccc43)cc2)c1F
REMARK SMILES IDX 11 1 12 2 13 3 14 4 33 5 34 6 9 7 10 8 8 9 3 10 4 11 35 12
REMARK SMILES IDX 5 13 6 14 36 15 2 16 1 17 7 18 15 20 16 21 17 22 22 23 18 24
REMARK SMILES IDX 21 25 19 26 20 27 23 28 24 29 32 30 26 31 31 32 27 33 30 34
REMARK SMILES IDX 28 35 29 36 25 37
REMARK H PARENT 7 19 25 38
ROOT
ATOM      1  C   UNL     1       2.610   1.950  -0.943  1.00  0.00     0.023 A 
ATOM      2  C   UNL     1       1.670   2.986  -0.905  1.00  0.00     0.012 A 
ATOM      3  C   UNL     1       0.316   2.718  -1.115  1.00  0.00     0.006 A 
ATOM      4  C   UNL     1      -0.118   1.409  -1.370  1.00  0.00    -0.034 A 
ATOM      5  C   UNL     1       0.830   0.378  -1.417  1.00  0.00     0.006 A 
ATOM      6  C   UNL     1       2.188   0.646  -1.218  1.00  0.00     0.012 A 
ENDROOT
BRANCH   1   7
ATOM      7  C   UNL     1       4.041   2.303  -0.763  1.00  0.00     0.199 C 
ATOM      8  O   UNL     1       4.433   3.412  -1.135  1.00  0.00    -0.288 OA
BRANCH   7   9
ATOM      9  C   UNL     1       5.054   1.374  -0.217  1.00  0.00     0.104 A 
ATOM     10  C   UNL     1       5.736  -0.404   1.304  1.00  0.00     0.155 A 
ATOM     11  C   UNL     1       7.028  -0.359   0.773  1.00  0.00     0.053 A 
ATOM     12  C   UNL     1       4.760   0.473   0.806  1.00  0.00     0.179 A 
ATOM     13  C   UNL     1       7.341   0.561  -0.230  1.00  0.00     0.051 A 
ATOM     14  C   UNL     1       6.364   1.431  -0.707  1.00  0.00     0.130 A 
ATOM     15  F   UNL     1       3.531   0.447   1.348  1.00  0.00    -0.202 F 
BRANCH  10  16
ATOM     16  O   UNL     1       5.316  -1.251   2.295  1.00  0.00    -0.494 OA
ATOM     17  C   UNL     1       6.285  -2.125   2.861  1.00  0.00     0.278 C 
ENDBRANCH  10  16
BRANCH  14  18
ATOM     18  O   UNL     1       6.761   2.327  -1.663  1.00  0.00    -0.507 OA
ATOM     19  H   UNL     1       6.075   3.032  -1.709  1.00  0.00     0.293 HD
ENDBRANCH  14  18
ENDBRANCH   7   9
ENDBRANCH   1   7
BRANCH   4  20
ATOM     20  C   UNL     1      -1.587   1.117  -1.603  1.00  0.00     0.122 C 
BRANCH  20  21
ATOM     21  N   UNL     1      -2.182   0.232  -0.590  1.00  0.00    -0.276 NA
ATOM     22  C   UNL     1      -2.198   0.835   0.762  1.00  0.00     0.102 C 
ATOM     23  C   UNL     1      -3.579  -0.142  -0.977  1.00  0.00     0.177 C 
ATOM     24  C   UNL     1      -3.159   2.032   0.929  1.00  0.00     0.100 C 
ATOM     25  C   UNL     1      -4.606   1.021  -0.754  1.00  0.00     0.126 C 
ATOM     26  N   UNL     1      -4.538   1.686   0.564  1.00  0.00    -0.302 NA
ATOM     27  C   UNL     1      -5.420   2.845   0.627  1.00  0.00     0.105 C 
BRANCH  23  28
ATOM     28  N   UNL     1      -3.869  -1.442  -0.357  1.00  0.00    -0.277 N 
ATOM     29  C   UNL     1      -4.913  -1.795   0.457  1.00  0.00     0.296 A 
ATOM     30  C   UNL     1      -3.149  -2.611  -0.584  1.00  0.00     0.073 A 
ATOM     31  N   UNL     1      -4.877  -3.043   0.842  1.00  0.00    -0.195 NA
ATOM     32  C   UNL     1      -2.027  -2.914  -1.370  1.00  0.00     0.029 A 
ATOM     33  C   UNL     1      -3.786  -3.570   0.201  1.00  0.00     0.093 A 
ATOM     34  C   UNL     1      -1.545  -4.227  -1.328  1.00  0.00     0.002 A 
ATOM     35  C   UNL     1      -3.285  -4.881   0.234  1.00  0.00     0.031 A 
ATOM     36  C   UNL     1      -2.160  -5.197  -0.537  1.00  0.00     0.002 A 
BRANCH  29  37
ATOM     37  O   UNL     1      -5.909  -1.016   0.827  1.00  0.00    -0.480 OA
ATOM     38  H   UNL     1      -6.392  -1.601   1.437  1.00  0.00     0.296 HD
ENDBRANCH  29  37
ENDBRANCH  23  28
ENDBRANCH  20  21
ENDBRANCH   4  20
TORSDOF 8
