MODEL        6USER    Run = 6USERUSER    Estimated Free Energy of Binding    =  -9.32 kcal/mol  [=(1)+(2)+(3)-(4)]USERUSER    (1) Final Intermolecular Energy     = -11.71 kcal/molUSER        vdW + Hbond + desolv Energy     = -11.69 kcal/molUSER        Electrostatic Energy            =  -0.02 kcal/molUSER        Moving Ligand-Fixed Receptor    = -11.71 kcal/molUSER        Moving Ligand-Moving Receptor   =  +0.00 kcal/molUSER    (2) Final Total Internal Energy     =  -2.72 kcal/molUSER    (3) Torsional Free Energy           =  +2.39 kcal/molUSER    (4) Unbound System's Energy         =  -2.72 kcal/molUSERUSERREMARK SMILES COc1ccc(O)c(C(=O)c2ccc(CN3CCN(C)C[C@@H]3n3c(O)nc4ccccc43)cc2)c1FREMARK SMILES IDX 11 1 12 2 13 3 14 4 33 5 34 6 9 7 10 8 8 9 3 10 4 11 35 12REMARK SMILES IDX 5 13 6 14 36 15 2 16 1 17 7 18 15 20 16 21 17 22 22 23 18 24REMARK SMILES IDX 21 25 19 26 20 27 23 28 24 29 32 30 26 31 31 32 27 33 30 34REMARK SMILES IDX 28 35 29 36 25 37REMARK H PARENT 7 19 25 38USER                              x       y       z     vdW  Elec       q    TypeUSER                           _______ _______ _______ _____ _____    ______ ____ROOTATOM      1  C   UNL     1      39.545  47.145  16.367 -0.46 -0.01    +0.023 A  ATOM      2  C   UNL     1      40.640  47.688  17.048 -0.53 -0.00    +0.012 A  ATOM      3  C   UNL     1      41.075  47.123  18.249 -0.51 -0.00    +0.006 A  ATOM      4  C   UNL     1      40.417  46.008  18.788 -0.44 +0.00    -0.034 A  ATOM      5  C   UNL     1      39.315  45.476  18.106 -0.42 -0.00    +0.006 A  ATOM      6  C   UNL     1      38.871  46.047  16.909 -0.40 -0.00    +0.012 A  ENDROOTBRANCH   1   7ATOM      7  C   UNL     1      39.097  47.819  15.122 -0.42 -0.07    +0.199 C  ATOM      8  O   UNL     1      39.564  48.926  14.842 -0.35 +0.13    -0.288 OA BRANCH   7   9ATOM      9  C   UNL     1      38.066  47.270  14.215 -0.40 -0.04    +0.104 A  ATOM     10  C   UNL     1      37.110  45.451  12.904 -0.36 -0.05    +0.155 A  ATOM     11  C   UNL     1      36.074  46.295  12.494 -0.58 -0.03    +0.053 A  ATOM     12  C   UNL     1      38.104  45.953  13.759 -0.23 -0.05    +0.179 A  ATOM     13  C   UNL     1      36.044  47.625  12.920 -0.55 -0.03    +0.051 A  ATOM     14  C   UNL     1      37.043  48.110  13.760 -0.46 -0.07    +0.130 A  ATOM     15  F   UNL     1      39.115  45.144  14.119 -0.05 +0.04    -0.202 F  BRANCH  10  16ATOM     16  O   UNL     1      37.252  44.138  12.543 -0.12 +0.15    -0.494 OA ATOM     17  C   UNL     1      36.975  43.800  11.189 -0.25 -0.08    +0.278 C  ENDBRANCH  10  16BRANCH  14  18ATOM     18  O   UNL     1      36.961  49.433  14.102 -0.17 +0.38    -0.507 OA ATOM     19  H   UNL     1      37.874  49.743  14.302 -0.33 -0.27    +0.293 HD ENDBRANCH  14  18ENDBRANCH   7   9ENDBRANCH   1   7BRANCH   4  20ATOM     20  C   UNL     1      40.885  45.396  20.094 -0.37 +0.01    +0.122 C  BRANCH  20  21ATOM     21  N   UNL     1      39.961  44.390  20.639 -0.16 -0.01    -0.276 NA ATOM     22  C   UNL     1      40.535  43.643  21.782 -0.26 +0.00    +0.102 C  ATOM     23  C   UNL     1      38.679  45.033  21.067 -0.28 +0.01    +0.177 C  ATOM     24  C   UNL     1      40.734  44.474  23.068 -0.18 +0.00    +0.100 C  ATOM     25  C   UNL     1      38.814  45.829  22.411 -0.31 +0.01    +0.126 C  ATOM     26  N   UNL     1      39.486  45.108  23.513 -0.07 -0.02    -0.302 NA ATOM     27  C   UNL     1      39.701  45.971  24.667 -0.17 +0.01    +0.105 C  BRANCH  23  28ATOM     28  N   UNL     1      37.628  44.011  20.978 -0.21 -0.00    -0.277 N  ATOM     29  C   UNL     1      37.344  42.988  21.845 -0.21 +0.01    +0.296 A  ATOM     30  C   UNL     1      36.639  43.968  20.000 -0.35 -0.01    +0.073 A  ATOM     31  N   UNL     1      36.335  42.249  21.469 -0.36 -0.01    -0.195 NA ATOM     32  C   UNL     1      36.347  44.774  18.890 -0.31 -0.01    +0.029 A  ATOM     33  C   UNL     1      35.879  42.846  20.322 -0.39 -0.00    +0.093 A  ATOM     34  C   UNL     1      35.262  44.401  18.088 -0.32 -0.00    +0.002 A  ATOM     35  C   UNL     1      34.797  42.484  19.504 -0.41 -0.00    +0.031 A  ATOM     36  C   UNL     1      34.499  43.273  18.386 -0.35 -0.00    +0.002 A  BRANCH  29  37ATOM     37  O   UNL     1      37.962  42.737  22.981 -0.10 -0.04    -0.480 OA ATOM     38  H   UNL     1      38.453  43.567  23.119 +0.17 +0.02    +0.296 HD ENDBRANCH  29  37ENDBRANCH  23  28ENDBRANCH  20  21ENDBRANCH   4  20TORSDOF 8TERENDMDL