MODEL        10USER    Run = 10USERUSER    Estimated Free Energy of Binding    = -12.75 kcal/mol  [=(1)+(2)+(3)-(4)]USERUSER    (1) Final Intermolecular Energy     = -14.84 kcal/molUSER        vdW + Hbond + desolv Energy     = -14.70 kcal/molUSER        Electrostatic Energy            =  -0.13 kcal/molUSER        Moving Ligand-Fixed Receptor    = -14.84 kcal/molUSER        Moving Ligand-Moving Receptor   =  +0.00 kcal/molUSER    (2) Final Total Internal Energy     =  -1.55 kcal/molUSER    (3) Torsional Free Energy           =  +2.09 kcal/molUSER    (4) Unbound System's Energy         =  -1.55 kcal/molUSERUSERREMARK SMILES CS(=O)(=O)c1ccc(-c2nc3ccccc3nc2-c2ccc(CN3CC[C@@H](n4c(O)nc5ccccc54)C[C@@H]3F)cc2)cc1REMARK SMILES IDX 19 1 20 2 21 3 22 4 41 5 42 6 18 7 9 8 10 9 11 10 17 11REMARK SMILES IDX 12 12 16 13 13 14 15 15 14 16 8 17 5 18 6 19 44 20 7 21REMARK SMILES IDX 43 22 2 23 1 24 3 25 4 26 23 27 24 28 25 29 39 30 26 31REMARK SMILES IDX 38 32 27 33 40 34 28 35 29 36 37 37 31 38 36 39 32 40 35 41REMARK SMILES IDX 33 42 34 43 30 44REMARK H PARENT 30 45USER                              x       y       z     vdW  Elec       q    TypeUSER                           _______ _______ _______ _____ _____    ______ ____ROOTATOM      1  C   UNL     1      38.826  45.115  19.862 -0.38 -0.00    +0.002 A  ATOM      2  C   UNL     1      39.604  45.644  20.906 -0.29 +0.00    +0.011 A  ATOM      3  C   UNL     1      39.685  45.007  22.148 -0.28 +0.00    +0.006 A  ATOM      4  C   UNL     1      38.977  43.822  22.390 -0.27 -0.00    -0.034 A  ATOM      5  C   UNL     1      38.193  43.291  21.359 -0.22 +0.00    +0.006 A  ATOM      6  C   UNL     1      38.111  43.933  20.119 -0.29 -0.00    +0.011 A  ENDROOTBRANCH   1   7ATOM      7  C   UNL     1      38.759  45.802  18.560 -0.31 -0.01    +0.097 A  ATOM      8  C   UNL     1      37.665  45.762  17.679 -0.29 -0.03    +0.097 A  ATOM      9  N   UNL     1      37.662  46.487  16.525 -0.22 +0.11    -0.244 NA ATOM     10  C   UNL     1      38.757  47.217  16.246 -0.37 -0.03    +0.089 A  ATOM     11  N   UNL     1      39.871  46.529  18.261 -0.29 +0.03    -0.244 NA ATOM     12  C   UNL     1      38.800  47.968  15.078 -0.49 -0.01    +0.030 A  ATOM     13  C   UNL     1      39.869  47.232  17.115 -0.41 -0.02    +0.089 A  ATOM     14  C   UNL     1      39.920  48.732  14.746 -0.53 -0.00    +0.002 A  ATOM     15  C   UNL     1      40.981  47.995  16.776 -0.51 -0.00    +0.030 A  ATOM     16  C   UNL     1      41.015  48.745  15.600 -0.60 -0.00    +0.002 A  BRANCH   8  17ATOM     17  C   UNL     1      36.452  44.945  17.869 -0.33 -0.00    +0.002 A  ATOM     18  C   UNL     1      34.118  43.423  18.246 -0.29 -0.02    +0.067 A  ATOM     19  C   UNL     1      34.216  44.688  18.823 -0.39 -0.01    +0.021 A  ATOM     20  C   UNL     1      35.168  42.900  17.491 -0.37 -0.01    +0.021 A  ATOM     21  C   UNL     1      35.373  45.445  18.623 -0.28 -0.00    +0.012 A  ATOM     22  C   UNL     1      36.322  43.665  17.298 -0.31 -0.00    +0.012 A  BRANCH  18  23ATOM     23  S   UNL     1      32.653  42.451  18.509 -0.41 -0.03    +0.175 S  ATOM     24  C   UNL     1      31.534  43.062  17.277 -0.24 -0.05    +0.163 C  ATOM     25  O   UNL     1      32.975  41.075  18.181 -0.35 +0.05    -0.224 OA ATOM     26  O   UNL     1      32.129  42.802  19.815 -0.63 -0.02    -0.224 OA ENDBRANCH  18  23ENDBRANCH   8  17ENDBRANCH   1   7BRANCH   4  27ATOM     27  C   UNL     1      39.062  43.126  23.733 -0.23 +0.01    +0.122 C  BRANCH  27  28ATOM     28  N   UNL     1      38.245  43.683  24.811 -0.10 -0.01    -0.270 NA ATOM     29  C   UNL     1      37.396  44.805  24.448 -0.30 +0.01    +0.090 C  ATOM     30  C   UNL     1      37.564  42.677  25.613 -0.23 -0.01    +0.239 C  ATOM     31  C   UNL     1      37.018  45.586  25.711 -0.34 -0.00    +0.041 C  ATOM     32  C   UNL     1      36.441  43.242  26.484 -0.41 -0.01    +0.080 C  ATOM     33  C   UNL     1      36.794  44.664  26.927 -0.37 -0.02    +0.098 C  ATOM     34  F   UNL     1      38.499  42.138  26.443 -0.04 +0.01    -0.230 F  BRANCH  33  35ATOM     35  N   UNL     1      35.840  45.215  27.878 -0.18 +0.09    -0.291 N  ATOM     36  C   UNL     1      34.829  44.539  28.500 -0.34 -0.08    +0.295 A  ATOM     37  C   UNL     1      35.781  46.521  28.320 -0.14 -0.02    +0.072 A  ATOM     38  N   UNL     1      34.123  45.287  29.304 -0.40 +0.04    -0.195 NA ATOM     39  C   UNL     1      36.537  47.669  28.047 -0.31 -0.01    +0.029 A  ATOM     40  C   UNL     1      34.703  46.529  29.209 -0.37 -0.02    +0.092 A  ATOM     41  C   UNL     1      36.172  48.848  28.709 -0.29 -0.00    +0.002 A  ATOM     42  C   UNL     1      34.356  47.720  29.863 -0.38 -0.00    +0.031 A  ATOM     43  C   UNL     1      35.102  48.876  29.604 -0.29 -0.00    +0.002 A  BRANCH  36  44ATOM     44  O   UNL     1      34.559  43.261  28.328 -0.30 +0.14    -0.480 OA ATOM     45  H   UNL     1      35.107  42.858  29.026 -0.31 -0.20    +0.296 HD ENDBRANCH  36  44ENDBRANCH  33  35ENDBRANCH  27  28ENDBRANCH   4  27TORSDOF 7TERENDMDL