MODEL        6USER    Run = 6USERUSER    Estimated Free Energy of Binding    = -12.33 kcal/mol  [=(1)+(2)+(3)-(4)]USERUSER    (1) Final Intermolecular Energy     = -14.71 kcal/molUSER        vdW + Hbond + desolv Energy     = -14.27 kcal/molUSER        Electrostatic Energy            =  -0.44 kcal/molUSER        Moving Ligand-Fixed Receptor    = -14.71 kcal/molUSER        Moving Ligand-Moving Receptor   =  +0.00 kcal/molUSER    (2) Final Total Internal Energy     =  -2.32 kcal/molUSER    (3) Torsional Free Energy           =  +2.39 kcal/molUSER    (4) Unbound System's Energy         =  -2.32 kcal/molUSERUSERREMARK SMILES N#Cc1ccc(-c2nc3ccccc3nc2-c2ccc(CN3CCC(n4c(O)nc5ccccc54)CC3)cc2)cc1N1CCOCC1REMARK SMILES IDX 17 1 18 2 19 3 20 4 38 5 39 6 16 7 7 8 8 9 9 10 15 11 10 12REMARK SMILES IDX 14 13 11 14 13 15 12 16 6 17 3 18 4 19 41 20 5 21 40 22 2 23REMARK SMILES IDX 1 24 42 25 43 26 47 27 44 28 46 29 45 30 21 31 22 32 23 33REMARK SMILES IDX 37 34 24 35 36 36 25 37 26 38 27 39 35 40 29 41 34 42 30 43REMARK SMILES IDX 33 44 31 45 32 46 28 47REMARK H PARENT 28 48USER                              x       y       z     vdW  Elec       q    TypeUSER                           _______ _______ _______ _____ _____    ______ ____ROOTATOM      1  C   UNL     1      35.774  44.737  18.594 -0.36 -0.00    +0.002 A  ATOM      2  C   UNL     1      35.601  43.842  17.527 -0.31 -0.00    +0.011 A  ATOM      3  C   UNL     1      34.574  44.015  16.595 -0.33 -0.00    +0.006 A  ATOM      4  C   UNL     1      33.699  45.104  16.699 -0.30 +0.02    -0.034 A  ATOM      5  C   UNL     1      33.866  46.005  17.758 -0.41 -0.00    +0.006 A  ATOM      6  C   UNL     1      34.892  45.826  18.691 -0.29 -0.00    +0.011 A  ENDROOTBRANCH   1   7ATOM      7  C   UNL     1      36.870  44.541  19.556 -0.25 -0.01    +0.097 A  ATOM      8  C   UNL     1      38.184  45.008  19.393 -0.28 -0.01    +0.097 A  ATOM      9  N   UNL     1      39.150  44.706  20.309 -0.21 +0.00    -0.244 NA ATOM     10  C   UNL     1      38.792  43.976  21.380 -0.25 +0.00    +0.089 A  ATOM     11  N   UNL     1      36.508  43.816  20.651 -0.26 +0.00    -0.244 NA ATOM     12  C   UNL     1      39.742  43.650  22.339 -0.25 +0.00    +0.030 A  ATOM     13  C   UNL     1      37.463  43.534  21.554 -0.33 +0.00    +0.089 A  ATOM     14  C   UNL     1      39.410  42.898  23.468 -0.25 +0.00    +0.002 A  ATOM     15  C   UNL     1      37.140  42.789  22.682 -0.40 +0.00    +0.030 A  ATOM     16  C   UNL     1      38.101  42.467  23.641 -0.30 +0.00    +0.002 A  BRANCH   8  17ATOM     17  C   UNL     1      38.664  45.858  18.283 -0.38 -0.00    +0.005 A  ATOM     18  C   UNL     1      39.531  47.428  16.099 -0.44 -0.02    +0.075 A  ATOM     19  C   UNL     1      40.251  47.409  17.307 -0.47 -0.00    +0.022 A  ATOM     20  C   UNL     1      38.354  46.662  15.944 -0.37 -0.02    +0.055 A  ATOM     21  C   UNL     1      39.826  46.629  18.381 -0.37 -0.00    +0.012 A  ATOM     22  C   UNL     1      37.965  45.883  17.056 -0.36 -0.01    +0.037 A  BRANCH  18  23ATOM     23  C   UNL     1      40.091  48.206  15.030 -0.54 -0.03    +0.101 C  ATOM     24  N   UNL     1      40.576  48.851  14.193 -0.36 +0.05    -0.192 NA ENDBRANCH  18  23BRANCH  20  25ATOM     25  N   UNL     1      37.612  46.628  14.766 -0.12 +0.17    -0.366 N  ATOM     26  C   UNL     1      37.675  45.468  13.857 -0.38 -0.05    +0.145 C  ATOM     27  C   UNL     1      36.390  47.455  14.631 -0.32 -0.12    +0.145 C  ATOM     28  C   UNL     1      36.975  45.814  12.532 -0.48 -0.06    +0.181 C  ATOM     29  C   UNL     1      35.253  46.641  13.986 -0.34 -0.15    +0.181 C  ATOM     30  O   UNL     1      35.579  46.121  12.687 -0.31 +0.21    -0.378 OA ENDBRANCH  20  25ENDBRANCH   8  17ENDBRANCH   1   7BRANCH   4  31ATOM     31  C   UNL     1      32.610  45.320  15.668 -0.32 -0.09    +0.120 C  BRANCH  31  32ATOM     32  N   UNL     1      31.346  44.632  15.998 -0.28 +0.12    -0.299 NA ATOM     33  C   UNL     1      30.174  45.443  15.630 -0.40 -0.03    +0.087 C  ATOM     34  C   UNL     1      31.307  43.314  15.348 -0.37 -0.05    +0.087 C  ATOM     35  C   UNL     1      28.874  44.746  16.027 -0.33 -0.01    +0.041 C  ATOM     36  C   UNL     1      30.044  42.538  15.723 -0.33 -0.02    +0.041 C  ATOM     37  C   UNL     1      28.796  43.359  15.387 -0.04 -0.08    +0.095 C  BRANCH  37  38ATOM     38  N   UNL     1      27.555  42.665  15.698 -0.10 +0.17    -0.291 N  ATOM     39  C   UNL     1      26.324  42.899  15.152 -0.09 -0.16    +0.295 A  ATOM     40  C   UNL     1      27.403  41.620  16.587 -0.19 -0.01    +0.072 A  ATOM     41  N   UNL     1      25.392  42.113  15.614 -0.23 +0.04    -0.195 NA ATOM     42  C   UNL     1      28.287  40.932  17.430 -0.22 -0.00    +0.029 A  ATOM     43  C   UNL     1      26.046  41.300  16.508 -0.24 -0.01    +0.092 A  ATOM     44  C   UNL     1      27.757  39.891  18.203 -0.24 +0.00    +0.002 A  ATOM     45  C   UNL     1      25.536  40.253  17.292 -0.28 +0.00    +0.031 A  ATOM     46  C   UNL     1      26.405  39.554  18.136 -0.27 +0.00    +0.002 A  BRANCH  39  47ATOM     47  O   UNL     1      26.067  43.812  14.238 -0.07 +0.33    -0.480 OA ATOM     48  H   UNL     1      26.840  43.716  13.650 -0.23 -0.59    +0.296 HD ENDBRANCH  39  47ENDBRANCH  37  38ENDBRANCH  31  32ENDBRANCH   4  31TORSDOF 8TERENDMDL