REMARK SMILES CS(=O)(=O)c1ccc(-c2nc3ccccc3nc2-c2ccc(CN3CC[C@@H](n4c(O)nc5ccccc54)C[C@@H]3F)cc2)cc1
REMARK SMILES IDX 19 1 20 2 21 3 22 4 41 5 42 6 18 7 9 8 10 9 11 10 17 11
REMARK SMILES IDX 12 12 16 13 13 14 15 15 14 16 8 17 5 18 6 19 44 20 7 21
REMARK SMILES IDX 43 22 2 23 1 24 3 25 4 26 23 27 24 28 25 29 39 30 26 31
REMARK SMILES IDX 38 32 27 33 40 34 28 35 29 36 37 37 31 38 36 39 32 40 35 41
REMARK SMILES IDX 33 42 34 43 30 44
REMARK H PARENT 30 45
ROOT
ATOM      1  C   UNL     1      -2.151  -0.803   0.345  1.00  0.00     0.002 A 
ATOM      2  C   UNL     1      -1.419  -0.968   1.533  1.00  0.00     0.011 A 
ATOM      3  C   UNL     1      -0.332  -0.143   1.838  1.00  0.00     0.006 A 
ATOM      4  C   UNL     1       0.067   0.868   0.954  1.00  0.00    -0.034 A 
ATOM      5  C   UNL     1      -0.651   1.035  -0.236  1.00  0.00     0.006 A 
ATOM      6  C   UNL     1      -1.736   0.206  -0.540  1.00  0.00     0.011 A 
ENDROOT
BRANCH   1   7
ATOM      7  C   UNL     1      -3.296  -1.682   0.046  1.00  0.00     0.097 A 
ATOM      8  C   UNL     1      -4.574  -1.244  -0.340  1.00  0.00     0.097 A 
ATOM      9  N   UNL     1      -5.555  -2.132  -0.666  1.00  0.00    -0.244 NA
ATOM     10  C   UNL     1      -5.264  -3.442  -0.574  1.00  0.00     0.089 A 
ATOM     11  N   UNL     1      -3.015  -3.011   0.154  1.00  0.00    -0.244 NA
ATOM     12  C   UNL     1      -6.235  -4.384  -0.892  1.00  0.00     0.030 A 
ATOM     13  C   UNL     1      -3.990  -3.883  -0.155  1.00  0.00     0.089 A 
ATOM     14  C   UNL     1      -5.977  -5.753  -0.802  1.00  0.00     0.002 A 
ATOM     15  C   UNL     1      -3.742  -5.248  -0.068  1.00  0.00     0.030 A 
ATOM     16  C   UNL     1      -4.725  -6.186  -0.388  1.00  0.00     0.002 A 
BRANCH   8  17
ATOM     17  C   UNL     1      -5.003   0.165  -0.409  1.00  0.00     0.002 A 
ATOM     18  C   UNL     1      -5.843   2.843  -0.575  1.00  0.00     0.067 A 
ATOM     19  C   UNL     1      -6.000   2.002  -1.676  1.00  0.00     0.021 A 
ATOM     20  C   UNL     1      -5.267   2.373   0.605  1.00  0.00     0.021 A 
ATOM     21  C   UNL     1      -5.591   0.669  -1.584  1.00  0.00     0.012 A 
ATOM     22  C   UNL     1      -4.860   1.038   0.686  1.00  0.00     0.012 A 
BRANCH  18  23
ATOM     23  S   UNL     1      -6.349   4.543  -0.693  1.00  0.00     0.175 S 
ATOM     24  C   UNL     1      -8.064   4.488  -0.243  1.00  0.00     0.163 C 
ATOM     25  O   UNL     1      -5.639   5.284   0.333  1.00  0.00    -0.224 OA
ATOM     26  O   UNL     1      -6.256   4.928  -2.088  1.00  0.00    -0.224 OA
ENDBRANCH  18  23
ENDBRANCH   8  17
ENDBRANCH   1   7
BRANCH   4  27
ATOM     27  C   UNL     1       1.243   1.766   1.279  1.00  0.00     0.122 C 
BRANCH  27  28
ATOM     28  N   UNL     1       2.570   1.256   0.933  1.00  0.00    -0.270 NA
ATOM     29  C   UNL     1       2.994   0.060   1.640  1.00  0.00     0.090 C 
ATOM     30  C   UNL     1       2.824   1.203  -0.500  1.00  0.00     0.239 C 
ATOM     31  C   UNL     1       4.521  -0.053   1.577  1.00  0.00     0.041 C 
ATOM     32  C   UNL     1       4.033   0.345  -0.878  1.00  0.00     0.080 C 
ATOM     33  C   UNL     1       5.090   0.424   0.226  1.00  0.00     0.098 C 
ATOM     34  F   UNL     1       3.082   2.479  -0.900  1.00  0.00    -0.230 F 
BRANCH  33  35
ATOM     35  N   UNL     1       6.330  -0.251  -0.128  1.00  0.00    -0.291 N 
ATOM     36  C   UNL     1       6.480  -1.577  -0.422  1.00  0.00     0.295 A 
ATOM     37  C   UNL     1       7.580   0.325  -0.227  1.00  0.00     0.072 A 
ATOM     38  N   UNL     1       7.710  -1.910  -0.702  1.00  0.00    -0.195 NA
ATOM     39  C   UNL     1       8.061   1.629  -0.045  1.00  0.00     0.029 A 
ATOM     40  C   UNL     1       8.414  -0.736  -0.590  1.00  0.00     0.092 A 
ATOM     41  C   UNL     1       9.431   1.840  -0.245  1.00  0.00     0.002 A 
ATOM     42  C   UNL     1       9.783  -0.502  -0.787  1.00  0.00     0.031 A 
ATOM     43  C   UNL     1      10.280   0.795  -0.611  1.00  0.00     0.002 A 
BRANCH  36  44
ATOM     44  O   UNL     1       5.504  -2.462  -0.427  1.00  0.00    -0.480 OA
ATOM     45  H   UNL     1       5.988  -3.273  -0.670  1.00  0.00     0.296 HD
ENDBRANCH  36  44
ENDBRANCH  33  35
ENDBRANCH  27  28
ENDBRANCH   4  27
TORSDOF 7
