
     RDKit          3D

 41 42  0  0  0  0  0  0  0  0999 V2000
    6.5470   -0.2841    0.0634 C   0  0  0  0  0  0  0  0  0  0  0  0
    5.2816    0.1358    0.7948 C   0  0  0  0  0  0  0  0  0  0  0  0
    4.1055   -0.7780    0.4458 C   0  0  0  0  0  0  0  0  0  0  0  0
    2.8330   -0.4070    1.2078 C   0  0  0  0  0  0  0  0  0  0  0  0
    2.4419    0.9541    1.0492 O   0  0  0  0  0  0  0  0  0  0  0  0
    1.9828    1.3299   -0.2493 C   0  0  0  0  0  0  0  0  0  0  0  0
    0.5694    0.8208   -0.6284 C   0  0  1  0  0  0  0  0  0  0  0  0
    0.6038   -0.5718   -1.1244 N   0  0  0  0  0  0  0  0  0  0  0  0
   -0.4139    0.9811    0.5514 C   0  0  0  0  0  0  0  0  0  0  0  0
   -1.8534    0.7435    0.1694 C   0  0  0  0  0  0  0  0  0  0  0  0
   -2.5894   -0.2679    0.6461 C   0  0  0  0  0  0  0  0  0  0  0  0
   -3.9736   -0.3930    0.2189 C   0  0  0  0  0  0  0  0  0  0  0  0
   -4.7786   -1.4373    0.6886 C   0  0  0  0  0  0  0  0  0  0  0  0
   -6.1072   -1.5449    0.2697 C   0  0  0  0  0  0  0  0  0  0  0  0
   -6.6395   -0.6120   -0.6192 C   0  0  0  0  0  0  0  0  0  0  0  0
   -5.8431    0.4313   -1.0915 C   0  0  0  0  0  0  0  0  0  0  0  0
   -4.5102    0.5400   -0.6716 C   0  0  0  0  0  0  0  0  0  0  0  0
   -3.6717    1.6508   -1.1810 C   0  0  0  0  0  0  0  0  0  0  0  0
   -4.1151    2.4759   -1.9712 O   0  0  0  0  0  0  0  0  0  0  0  0
   -2.3820    1.7007   -0.7293 O   0  0  0  0  0  0  0  0  0  0  0  0
    7.3755    0.3807    0.3272 H   0  0  0  0  0  0  0  0  0  0  0  0
    6.4065   -0.2380   -1.0213 H   0  0  0  0  0  0  0  0  0  0  0  0
    6.8337   -1.3063    0.3301 H   0  0  0  0  0  0  0  0  0  0  0  0
    5.4651    0.1086    1.8751 H   0  0  0  0  0  0  0  0  0  0  0  0
    5.0470    1.1732    0.5310 H   0  0  0  0  0  0  0  0  0  0  0  0
    4.3635   -1.8178    0.6806 H   0  0  0  0  0  0  0  0  0  0  0  0
    3.9246   -0.7351   -0.6338 H   0  0  0  0  0  0  0  0  0  0  0  0
    3.0144   -0.5503    2.2794 H   0  0  0  0  0  0  0  0  0  0  0  0
    2.0126   -1.0817    0.9507 H   0  0  0  0  0  0  0  0  0  0  0  0
    1.9426    2.4260   -0.2365 H   0  0  0  0  0  0  0  0  0  0  0  0
    2.7213    1.0741   -1.0169 H   0  0  0  0  0  0  0  0  0  0  0  0
    0.2268    1.4367   -1.4701 H   0  0  0  0  0  0  0  0  0  0  0  0
   -0.3307   -0.8333   -1.4405 H   0  0  0  0  0  0  0  0  0  0  0  0
    1.2005   -0.6189   -1.9501 H   0  0  0  0  0  0  0  0  0  0  0  0
   -0.3368    2.0004    0.9519 H   0  0  0  0  0  0  0  0  0  0  0  0
   -0.1292    0.3094    1.3715 H   0  0  0  0  0  0  0  0  0  0  0  0
   -2.1786   -0.9942    1.3395 H   0  0  0  0  0  0  0  0  0  0  0  0
   -4.3820   -2.1746    1.3833 H   0  0  0  0  0  0  0  0  0  0  0  0
   -6.7282   -2.3581    0.6387 H   0  0  0  0  0  0  0  0  0  0  0  0
   -7.6739   -0.6963   -0.9441 H   0  0  0  0  0  0  0  0  0  0  0  0
   -6.2618    1.1582   -1.7850 H   0  0  0  0  0  0  0  0  0  0  0  0
  1  2  1  0
  2  3  1  0
  3  4  1  0
  4  5  1  0
  5  6  1  0
  6  7  1  0
  7  8  1  0
  7  9  1  0
  9 10  1  0
 10 11  2  0
 11 12  1  0
 12 13  2  0
 13 14  1  0
 14 15  2  0
 15 16  1  0
 16 17  2  0
 17 18  1  0
 18 19  2  0
 18 20  1  0
 20 10  1  0
 17 12  1  0
  1 21  1  0
  1 22  1  0
  1 23  1  0
  2 24  1  0
  2 25  1  0
  3 26  1  0
  3 27  1  0
  4 28  1  0
  4 29  1  0
  6 30  1  0
  6 31  1  0
  7 32  1  6
  8 33  1  0
  8 34  1  0
  9 35  1  0
  9 36  1  0
 11 37  1  0
 13 38  1  0
 14 39  1  0
 15 40  1  0
 16 41  1  0
M  END
$$$$
