
     RDKit          3D

 26 28  0  0  0  0  0  0  0  0999 V2000
   -3.0484   -3.1307   -0.4222 O   0  0  0  0  0  0  0  0  0  0  0  0
   -3.0282   -1.9083   -0.3915 C   0  0  0  0  0  0  0  0  0  0  0  0
   -1.8125   -1.0789   -0.2285 C   0  0  0  0  0  0  0  0  0  0  0  0
   -1.9671    0.2807   -0.0850 C   0  0  0  0  0  0  0  0  0  0  0  0
   -0.8731    1.1331    0.0713 C   0  0  0  0  0  0  0  0  0  0  0  0
    0.4389    0.6801    0.0934 C   0  0  0  0  0  0  0  0  0  0  0  0
    1.5251    1.5624    0.2467 C   0  0  0  0  0  0  0  0  0  0  0  0
    2.8259    1.0774    0.2667 C   0  0  0  0  0  0  0  0  0  0  0  0
    3.8356    1.9821    0.4158 O   0  0  0  0  0  0  0  0  0  0  0  0
    3.0800   -0.2797    0.1353 C   0  0  0  0  0  0  0  0  0  0  0  0
    2.0022   -1.1564   -0.0216 C   0  0  0  0  0  0  0  0  0  0  0  0
    2.2554   -2.5030   -0.1562 O   0  0  0  0  0  0  0  0  0  0  0  0
    0.6511   -0.7156   -0.0483 C   0  0  0  0  0  0  0  0  0  0  0  0
   -0.4978   -1.5738   -0.2108 C   0  0  0  0  0  0  0  0  0  0  0  0
   -0.3087   -2.9245   -0.3680 O   0  0  0  0  0  0  0  0  0  0  0  0
   -1.3086    2.4320    0.1986 O   0  0  0  0  0  0  0  0  0  0  0  0
   -2.6844    2.3049    0.1123 C   0  0  0  0  0  3  0  0  0  0  0  0
   -3.5349    3.3614    0.2509 O   0  0  0  0  0  0  0  0  0  0  0  0
   -3.1338    1.0060   -0.0610 O   0  0  0  0  0  0  0  0  0  0  0  0
   -3.9740   -1.3498   -0.4856 H   0  0  0  0  0  0  0  0  0  0  0  0
    1.3587    2.6333    0.3510 H   0  0  0  0  0  0  0  0  0  0  0  0
    4.6849    1.5139    0.4762 H   0  0  0  0  0  0  0  0  0  0  0  0
    4.0991   -0.6497    0.1511 H   0  0  0  0  0  0  0  0  0  0  0  0
    3.2184   -2.6464   -0.1647 H   0  0  0  0  0  0  0  0  0  0  0  0
    0.6508   -3.1056   -0.3146 H   0  0  0  0  0  0  0  0  0  0  0  0
   -4.4546    3.0552    0.1888 H   0  0  0  0  0  0  0  0  0  0  0  0
  1  2  2  0
  2  3  1  0
  3  4  2  0
  4  5  1  0
  5  6  2  0
  6  7  1  0
  7  8  2  0
  8  9  1  0
  8 10  1  0
 10 11  2  0
 11 12  1  0
 11 13  1  0
 13 14  2  0
 14 15  1  0
  5 16  1  0
 16 17  1  0
 17 18  1  0
 17 19  1  0
 14  3  1  0
 19  4  1  0
 13  6  1  0
  2 20  1  0
  7 21  1  0
  9 22  1  0
 10 23  1  0
 12 24  1  0
 15 25  1  0
 18 26  1  0
M  RAD  1  17   2
M  END
$$$$
