MODEL        8USER    Run = 8USERUSER    Estimated Free Energy of Binding    =  -9.86 kcal/mol  [=(1)+(2)+(3)-(4)]USERUSER    (1) Final Intermolecular Energy     = -11.65 kcal/molUSER        vdW + Hbond + desolv Energy     = -11.50 kcal/molUSER        Electrostatic Energy            =  -0.15 kcal/molUSER        Moving Ligand-Fixed Receptor    = -11.65 kcal/molUSER        Moving Ligand-Moving Receptor   =  +0.00 kcal/molUSER    (2) Final Total Internal Energy     =  -2.45 kcal/molUSER    (3) Torsional Free Energy           =  +1.79 kcal/molUSER    (4) Unbound System's Energy         =  -2.45 kcal/molUSERUSERREMARK SMILES C=Cc1cc(-n2cc(Cc3ccccc3)nn2)ccc1N1OCC[C@@H](C)[C@@H]1C(N)=OREMARK SMILES IDX 3 1 4 2 5 3 18 4 19 5 20 6 2 7 1 8 21 9 22 10 27 11 23 12REMARK SMILES IDX 25 13 24 14 26 15 28 16 29 17 30 18 6 21 7 22 17 23 8 24REMARK SMILES IDX 16 25 9 26 10 27 11 28 15 29 12 30 14 31 13 32REMARK H PARENT 29 19 29 20USER                              x       y       z     vdW  Elec       q    TypeUSER                           _______ _______ _______ _____ _____    ______ ____ROOTATOM      1  C   UNL     1      38.082  45.058  18.341 -0.38 -0.00    +0.002 A  ATOM      2  C   UNL     1      36.906  44.428  18.807 -0.33 -0.01    +0.038 A  ATOM      3  C   UNL     1      35.741  44.400  18.030 -0.27 -0.02    +0.067 A  ATOM      4  C   UNL     1      35.760  44.979  16.761 -0.30 -0.02    +0.031 A  ATOM      5  C   UNL     1      36.923  45.596  16.291 -0.34 -0.01    +0.031 A  ATOM      6  C   UNL     1      38.093  45.687  17.071 -0.33 -0.02    +0.072 A  ENDROOTBRANCH   1   7ATOM      7  C   UNL     1      39.305  44.894  19.149 -0.45 -0.00    +0.002 C  ATOM      8  C   UNL     1      40.487  44.500  18.658 -0.46 +0.00    +0.009 C  ENDBRANCH   1   7BRANCH   6   9ATOM      9  N   UNL     1      39.218  46.357  16.533 -0.25 +0.06    -0.241 N  ATOM     10  O   UNL     1      39.993  45.718  15.537 -0.13 +0.03    -0.273 OA ATOM     11  C   UNL     1      39.222  47.844  16.487 -0.33 -0.08    +0.204 C  ATOM     12  C   UNL     1      39.927  46.389  14.268 +0.07 -0.02    +0.194 C  ATOM     13  C   UNL     1      38.621  48.340  15.153 -0.58 -0.01    +0.023 C  ATOM     14  C   UNL     1      38.691  47.253  14.073 -0.50 -0.01    +0.037 C  ATOM     15  C   UNL     1      37.175  48.813  15.328 -0.45 -0.01    +0.010 C  BRANCH  11  16ATOM     16  C   UNL     1      40.664  48.363  16.718 -0.36 -0.04    +0.243 C  ATOM     17  N   UNL     1      41.524  47.456  17.286 -0.10 +0.04    -0.368 N  ATOM     18  O   UNL     1      41.040  49.508  16.488 -0.82 +0.04    -0.273 OA ATOM     19  H   UNL     1      41.313  46.479  17.089 -0.12 -0.01    +0.159 HD ATOM     20  H   UNL     1      42.498  47.724  17.305 -0.47 -0.03    +0.159 HD ENDBRANCH  11  16ENDBRANCH   6   9BRANCH   3  21ATOM     21  N   UNL     1      34.558  43.775  18.500 -0.18 +0.06    -0.220 N  ATOM     22  C   UNL     1      33.571  43.139  17.781 -0.23 -0.04    +0.141 A  ATOM     23  N   UNL     1      34.255  43.719  19.819 -0.51 +0.00    -0.062 NA ATOM     24  C   UNL     1      32.647  42.735  18.721 -0.31 -0.01    +0.088 A  ATOM     25  N   UNL     1      33.095  43.093  19.963 -0.84 -0.02    -0.135 NA BRANCH  24  26ATOM     26  C   UNL     1      31.366  42.004  18.557 -0.19 -0.01    +0.095 C  BRANCH  26  27ATOM     27  C   UNL     1      31.674  40.544  18.784 -0.36 +0.00    -0.042 A  ATOM     28  C   UNL     1      31.356  39.925  20.003 -0.27 +0.00    +0.004 A  ATOM     29  C   UNL     1      32.288  39.779  17.779 -0.42 -0.00    +0.004 A  ATOM     30  C   UNL     1      31.641  38.575  20.212 -0.47 +0.00    +0.000 A  ATOM     31  C   UNL     1      32.573  38.429  17.990 -0.35 -0.00    +0.000 A  ATOM     32  C   UNL     1      32.249  37.828  19.205 -0.44 +0.00    +0.000 A  ENDBRANCH  26  27ENDBRANCH  24  26ENDBRANCH   3  21TORSDOF 6TERENDMDL