REMARK SMILES Oc1nc2ccccc2n1C1CCN(Cc2ccc(-c3nn(C4CC4)c4ccccc34)cc2)CC1
REMARK SMILES IDX 11 1 12 2 13 3 14 4 34 5 35 6 10 7 2 8 3 9 4 10 9 11 5 12
REMARK SMILES IDX 8 13 6 14 7 15 1 16 15 18 16 19 17 20 33 21 18 22 32 23
REMARK SMILES IDX 19 24 20 25 21 26 31 27 22 28 30 29 26 30 29 31 27 32 28 33
REMARK SMILES IDX 23 34 24 35 25 36
REMARK H PARENT 1 17
ROOT
ATOM      1  C   UNL     1      -4.338  -0.671  -1.014  1.00  0.00     0.095 C 
ATOM      2  C   UNL     1      -4.479  -1.861  -0.059  1.00  0.00     0.041 C 
ATOM      3  C   UNL     1      -3.198  -2.699  -0.088  1.00  0.00     0.087 C 
ATOM      4  N   UNL     1      -1.955  -1.935   0.115  1.00  0.00    -0.299 NA
ATOM      5  C   UNL     1      -2.182  -0.500   0.319  1.00  0.00     0.087 C 
ATOM      6  C   UNL     1      -3.062   0.147  -0.749  1.00  0.00     0.041 C 
ENDROOT
BRANCH   1   7
ATOM      7  N   UNL     1      -5.543   0.145  -1.070  1.00  0.00    -0.291 N 
ATOM      8  C   UNL     1      -6.343   0.286  -2.172  1.00  0.00     0.295 A 
ATOM      9  N   UNL     1      -7.370   1.065  -1.971  1.00  0.00    -0.195 NA
ATOM     10  C   UNL     1      -7.239   1.466  -0.663  1.00  0.00     0.092 A 
ATOM     11  C   UNL     1      -6.104   0.908  -0.068  1.00  0.00     0.072 A 
ATOM     12  C   UNL     1      -8.066   2.318   0.086  1.00  0.00     0.031 A 
ATOM     13  C   UNL     1      -5.752   1.173   1.263  1.00  0.00     0.029 A 
ATOM     14  C   UNL     1      -7.731   2.588   1.418  1.00  0.00     0.002 A 
ATOM     15  C   UNL     1      -6.591   2.024   1.994  1.00  0.00     0.002 A 
BRANCH   8  16
ATOM     16  O   UNL     1      -6.135  -0.300  -3.334  1.00  0.00    -0.480 OA
ATOM     17  H   UNL     1      -6.890   0.034  -3.853  1.00  0.00     0.296 HD
ENDBRANCH   8  16
ENDBRANCH   1   7
BRANCH   4  18
ATOM     18  C   UNL     1      -0.975  -2.239  -0.943  1.00  0.00     0.120 C 
BRANCH  18  19
ATOM     19  C   UNL     1       0.409  -1.685  -0.684  1.00  0.00    -0.034 A 
ATOM     20  C   UNL     1       0.977  -0.750  -1.560  1.00  0.00     0.006 A 
ATOM     21  C   UNL     1       1.142  -2.093   0.439  1.00  0.00     0.006 A 
ATOM     22  C   UNL     1       2.253  -0.233  -1.317  1.00  0.00     0.011 A 
ATOM     23  C   UNL     1       2.420  -1.578   0.679  1.00  0.00     0.011 A 
ATOM     24  C   UNL     1       2.989  -0.648  -0.200  1.00  0.00     0.003 A 
BRANCH  24  25
ATOM     25  C   UNL     1       4.322  -0.098   0.044  1.00  0.00     0.100 A 
ATOM     26  N   UNL     1       4.559   1.215  -0.111  1.00  0.00    -0.171 NA
ATOM     27  C   UNL     1       5.511  -0.793   0.438  1.00  0.00     0.028 A 
ATOM     28  N   UNL     1       5.844   1.357   0.237  1.00  0.00    -0.261 N 
ATOM     29  C   UNL     1       5.870  -2.134   0.691  1.00  0.00     0.013 A 
ATOM     30  C   UNL     1       6.489   0.192   0.556  1.00  0.00     0.069 A 
ATOM     31  C   UNL     1       7.186  -2.433   1.066  1.00  0.00     0.001 A 
ATOM     32  C   UNL     1       7.811  -0.090   0.931  1.00  0.00     0.028 A 
ATOM     33  C   UNL     1       8.139  -1.424   1.186  1.00  0.00     0.002 A 
BRANCH  28  34
ATOM     34  C   UNL     1       6.503   2.685   0.218  1.00  0.00     0.108 C 
ATOM     35  C   UNL     1       7.013   3.346   1.479  1.00  0.00     0.029 C 
ATOM     36  C   UNL     1       5.828   3.924   0.763  1.00  0.00     0.029 C 
ENDBRANCH  28  34
ENDBRANCH  24  25
ENDBRANCH  18  19
ENDBRANCH   4  18
TORSDOF 6
