MODEL        8USER    Run = 8USERUSER    Estimated Free Energy of Binding    = -11.19 kcal/mol  [=(1)+(2)+(3)-(4)]USERUSER    (1) Final Intermolecular Energy     = -12.98 kcal/molUSER        vdW + Hbond + desolv Energy     = -12.80 kcal/molUSER        Electrostatic Energy            =  -0.18 kcal/molUSER        Moving Ligand-Fixed Receptor    = -12.98 kcal/molUSER        Moving Ligand-Moving Receptor   =  +0.00 kcal/molUSER    (2) Final Total Internal Energy     =  -1.13 kcal/molUSER    (3) Torsional Free Energy           =  +1.79 kcal/molUSER    (4) Unbound System's Energy         =  -1.13 kcal/molUSERUSERREMARK SMILES Oc1nc2ccccc2n1C1CCN(Cc2ccc(-c3nn(C4CC4)c4ccccc34)cc2)CC1REMARK SMILES IDX 11 1 12 2 13 3 14 4 34 5 35 6 10 7 2 8 3 9 4 10 9 11 5 12REMARK SMILES IDX 8 13 6 14 7 15 1 16 15 18 16 19 17 20 33 21 18 22 32 23REMARK SMILES IDX 19 24 20 25 21 26 31 27 22 28 30 29 26 30 29 31 27 32 28 33REMARK SMILES IDX 23 34 24 35 25 36REMARK H PARENT 1 17USER                              x       y       z     vdW  Elec       q    TypeUSER                           _______ _______ _______ _____ _____    ______ ____ROOTATOM      1  C   UNL     1      30.502  39.538  19.490 -0.28 +0.01    +0.095 C  ATOM      2  C   UNL     1      30.013  39.181  18.082 -0.39 +0.01    +0.041 C  ATOM      3  C   UNL     1      30.135  40.404  17.170 -0.36 -0.01    +0.087 C  ATOM      4  N   UNL     1      31.457  41.053  17.179 -0.13 +0.10    -0.299 NA ATOM      5  C   UNL     1      32.422  40.392  18.064 -0.43 -0.02    +0.087 C  ATOM      6  C   UNL     1      31.908  40.163  19.483 -0.32 +0.01    +0.041 C  ENDROOTBRANCH   1   7ATOM      7  N   UNL     1      30.370  38.428  20.424 -0.19 -0.03    -0.291 N  ATOM      8  C   UNL     1      31.288  38.099  21.385 -0.29 +0.03    +0.295 A  ATOM      9  N   UNL     1      30.940  37.068  22.104 -0.35 -0.00    -0.195 NA ATOM     10  C   UNL     1      29.725  36.690  21.586 -0.31 -0.00    +0.092 A  ATOM     11  C   UNL     1      29.337  37.521  20.531 -0.29 +0.00    +0.072 A  ATOM     12  C   UNL     1      28.890  35.631  21.976 -0.35 -0.00    +0.031 A  ATOM     13  C   UNL     1      28.134  37.333  19.836 -0.29 +0.00    +0.029 A  ATOM     14  C   UNL     1      27.683  35.433  21.295 -0.35 -0.00    +0.002 A  ATOM     15  C   UNL     1      27.315  36.272  20.242 -0.33 -0.00    +0.002 A  BRANCH   8  16ATOM     16  O   UNL     1      32.418  38.744  21.599 -0.75 -0.20    -0.480 OA ATOM     17  H   UNL     1      32.454  38.745  22.574 -0.32 -0.03    +0.296 HD ENDBRANCH   8  16ENDBRANCH   1   7BRANCH   4  18ATOM     18  C   UNL     1      31.327  42.502  17.416 -0.27 -0.03    +0.120 C  BRANCH  18  19ATOM     19  C   UNL     1      32.631  43.265  17.323 -0.29 +0.01    -0.034 A  ATOM     20  C   UNL     1      33.366  43.275  16.130 -0.33 -0.00    +0.006 A  ATOM     21  C   UNL     1      33.120  43.978  18.426 -0.35 -0.00    +0.006 A  ATOM     22  C   UNL     1      34.567  43.985  16.042 -0.33 -0.01    +0.011 A  ATOM     23  C   UNL     1      34.323  44.685  18.338 -0.36 -0.00    +0.011 A  ATOM     24  C   UNL     1      35.061  44.690  17.147 -0.31 -0.00    +0.003 A  BRANCH  24  25ATOM     25  C   UNL     1      36.317  45.431  17.042 -0.27 -0.05    +0.100 A  ATOM     26  N   UNL     1      37.246  45.343  18.008 -0.25 +0.05    -0.171 NA ATOM     27  C   UNL     1      36.742  46.315  15.998 -0.36 -0.02    +0.028 A  ATOM     28  N   UNL     1      38.256  46.099  17.559 -0.23 +0.07    -0.261 N  ATOM     29  C   UNL     1      36.189  46.815  14.800 -0.39 -0.01    +0.013 A  ATOM     30  C   UNL     1      38.017  46.734  16.369 -0.35 -0.03    +0.069 A  ATOM     31  C   UNL     1      36.940  47.700  14.015 -0.54 -0.00    +0.001 A  ATOM     32  C   UNL     1      38.782  47.619  15.595 -0.46 -0.01    +0.028 A  ATOM     33  C   UNL     1      38.218  48.092  14.408 -0.54 -0.00    +0.002 A  BRANCH  28  34ATOM     34  C   UNL     1      39.505  46.256  18.341 -0.41 -0.01    +0.108 C  ATOM     35  C   UNL     1      40.871  46.079  17.716 -0.52 -0.00    +0.029 C  ATOM     36  C   UNL     1      40.374  45.074  18.712 -0.49 -0.00    +0.029 C  ENDBRANCH  28  34ENDBRANCH  24  25ENDBRANCH  18  19ENDBRANCH   4  18TORSDOF 6TERENDMDL