REMARK SMILES C=Cc1cc(-n2cc(Cc3ccccc3)nn2)ccc1N1OCC[C@@H](C)[C@@H]1C(N)=O
REMARK SMILES IDX 3 1 4 2 5 3 18 4 19 5 20 6 2 7 1 8 21 9 22 10 27 11 23 12
REMARK SMILES IDX 25 13 24 14 26 15 28 16 29 17 30 18 6 21 7 22 17 23 8 24
REMARK SMILES IDX 16 25 9 26 10 27 11 28 15 29 12 30 14 31 13 32
REMARK H PARENT 29 19 29 20
ROOT
ATOM      1  C   UNL     1      -0.844  -1.011  -0.035  1.00  0.00     0.002 A 
ATOM      2  C   UNL     1       0.318  -0.234  -0.243  1.00  0.00     0.038 A 
ATOM      3  C   UNL     1       0.413   1.074   0.247  1.00  0.00     0.067 A 
ATOM      4  C   UNL     1      -0.650   1.601   0.981  1.00  0.00     0.031 A 
ATOM      5  C   UNL     1      -1.799   0.834   1.197  1.00  0.00     0.031 A 
ATOM      6  C   UNL     1      -1.945  -0.465   0.671  1.00  0.00     0.072 A 
ENDROOT
BRANCH   1   7
ATOM      7  C   UNL     1      -0.792  -2.429  -0.438  1.00  0.00     0.002 C 
ATOM      8  C   UNL     1      -0.398  -2.856  -1.645  1.00  0.00     0.009 C 
ENDBRANCH   1   7
BRANCH   6   9
ATOM      9  N   UNL     1      -3.153  -1.163   0.909  1.00  0.00    -0.241 N 
ATOM     10  O   UNL     1      -3.971  -0.779   1.998  1.00  0.00    -0.273 OA
ATOM     11  C   UNL     1      -3.870  -1.783  -0.238  1.00  0.00     0.204 C 
ATOM     12  C   UNL     1      -5.237  -0.244   1.579  1.00  0.00     0.194 C 
ATOM     13  C   UNL     1      -4.877  -0.781  -0.845  1.00  0.00     0.023 C 
ATOM     14  C   UNL     1      -5.252   0.311   0.164  1.00  0.00     0.037 C 
ATOM     15  C   UNL     1      -4.335  -0.146  -2.129  1.00  0.00     0.010 C 
BRANCH  11  16
ATOM     16  C   UNL     1      -4.546  -3.097   0.227  1.00  0.00     0.243 C 
ATOM     17  N   UNL     1      -3.886  -3.769   1.225  1.00  0.00    -0.368 N 
ATOM     18  O   UNL     1      -5.560  -3.576  -0.272  1.00  0.00    -0.273 OA
ATOM     19  H   UNL     1      -3.332  -3.183   1.847  1.00  0.00     0.159 HD
ATOM     20  H   UNL     1      -4.386  -4.542   1.642  1.00  0.00     0.159 HD
ENDBRANCH  11  16
ENDBRANCH   6   9
BRANCH   3  21
ATOM     21  N   UNL     1       1.575   1.858   0.032  1.00  0.00    -0.220 N 
ATOM     22  C   UNL     1       2.719   1.538  -0.663  1.00  0.00     0.141 A 
ATOM     23  N   UNL     1       1.686   3.119   0.516  1.00  0.00    -0.062 NA
ATOM     24  C   UNL     1       3.534   2.644  -0.542  1.00  0.00     0.088 A 
ATOM     25  N   UNL     1       2.873   3.602   0.176  1.00  0.00    -0.135 NA
BRANCH  24  26
ATOM     26  C   UNL     1       4.896   2.897  -1.074  1.00  0.00     0.095 C 
BRANCH  26  27
ATOM     27  C   UNL     1       5.832   2.006  -0.295  1.00  0.00    -0.042 A 
ATOM     28  C   UNL     1       6.195   2.326   1.023  1.00  0.00     0.004 A 
ATOM     29  C   UNL     1       6.358   0.841  -0.876  1.00  0.00     0.004 A 
ATOM     30  C   UNL     1       7.060   1.501   1.743  1.00  0.00     0.000 A 
ATOM     31  C   UNL     1       7.224   0.018  -0.154  1.00  0.00     0.000 A 
ATOM     32  C   UNL     1       7.574   0.347   1.154  1.00  0.00     0.000 A 
ENDBRANCH  26  27
ENDBRANCH  24  26
ENDBRANCH   3  21
TORSDOF 6
