MODEL        8USER    Run = 8USERUSER    Estimated Free Energy of Binding    = -10.07 kcal/mol  [=(1)+(2)+(3)-(4)]USERUSER    (1) Final Intermolecular Energy     = -12.46 kcal/molUSER        vdW + Hbond + desolv Energy     = -12.24 kcal/molUSER        Electrostatic Energy            =  -0.22 kcal/molUSER        Moving Ligand-Fixed Receptor    = -12.46 kcal/molUSER        Moving Ligand-Moving Receptor   =  +0.00 kcal/molUSER    (2) Final Total Internal Energy     =  -1.05 kcal/molUSER    (3) Torsional Free Energy           =  +2.39 kcal/molUSER    (4) Unbound System's Energy         =  -1.05 kcal/molUSERUSERREMARK SMILES Nc1nccc(-c2ccc(C(=O)CCN3CCC(Nc4nc5ccc(F)cc5s4)CC3)cc2)n1REMARK SMILES IDX 13 1 11 2 12 3 10 4 7 5 8 6 33 7 9 8 32 9 6 10 2 11 3 12REMARK SMILES IDX 34 13 4 14 5 15 1 16 14 19 15 20 16 21 31 22 17 23 30 24REMARK SMILES IDX 18 25 19 26 20 28 21 29 29 30 22 31 28 32 23 33 27 34 24 35REMARK SMILES IDX 25 36 26 37REMARK H PARENT 1 17 1 18 19 27USER                              x       y       z     vdW  Elec       q    TypeUSER                           _______ _______ _______ _____ _____    ______ ____ROOTATOM      1  C   UNL     1      32.782  41.886  18.538 -0.38 -0.01    +0.096 C  ENDROOTBRANCH   1   2ATOM      2  C   UNL     1      33.395  43.184  19.030 -0.34 -0.02    +0.164 C  ATOM      3  O   UNL     1      33.318  43.546  20.200 -0.89 -0.03    -0.294 OA BRANCH   2   4ATOM      4  C   UNL     1      34.117  44.051  18.047 -0.31 -0.01    +0.018 A  ATOM      5  C   UNL     1      35.502  45.612  16.114 -0.34 -0.00    +0.000 A  ATOM      6  C   UNL     1      34.824  46.212  17.192 -0.34 -0.01    +0.011 A  ATOM      7  C   UNL     1      35.477  44.208  16.040 -0.35 -0.00    +0.011 A  ATOM      8  C   UNL     1      34.140  45.445  18.147 -0.42 -0.01    +0.012 A  ATOM      9  C   UNL     1      34.791  43.436  16.986 -0.35 -0.00    +0.012 A  BRANCH   5  10ATOM     10  C   UNL     1      36.221  46.405  15.094 -0.33 -0.06    +0.076 A  ATOM     11  C   UNL     1      36.329  47.043  12.888 -0.45 -0.11    +0.220 A  ATOM     12  N   UNL     1      37.394  47.822  13.081 -0.88 +0.06    -0.222 NA ATOM     13  N   UNL     1      35.709  46.348  13.844 -0.32 +0.14    -0.213 NA ATOM     14  C   UNL     1      37.879  47.867  14.333 -0.43 -0.06    +0.117 A  ATOM     15  C   UNL     1      37.333  47.171  15.384 -0.39 -0.03    +0.049 A  BRANCH  11  16ATOM     16  N   UNL     1      35.803  46.988  11.617 -0.29 +0.22    -0.368 N  ATOM     17  H   UNL     1      34.934  46.473  11.626 -0.19 -0.13    +0.159 HD ATOM     18  H   UNL     1      35.801  47.908  11.203 -0.18 -0.13    +0.159 HD ENDBRANCH  11  16ENDBRANCH   5  10ENDBRANCH   2   4ENDBRANCH   1   2BRANCH   1  19ATOM     19  C   UNL     1      31.976  42.110  17.254 -0.31 -0.03    +0.092 C  BRANCH  19  20ATOM     20  N   UNL     1      30.522  42.166  17.502 -0.09 +0.06    -0.303 NA ATOM     21  C   UNL     1      29.856  40.857  17.391 -0.30 -0.01    +0.086 C  ATOM     22  C   UNL     1      29.909  43.201  16.646 -0.27 -0.03    +0.086 C  ATOM     23  C   UNL     1      29.209  40.606  16.031 -0.44 -0.00    +0.040 C  ATOM     24  C   UNL     1      28.412  42.987  16.455 -0.27 -0.01    +0.040 C  ATOM     25  C   UNL     1      28.162  41.680  15.692 -0.28 -0.04    +0.084 C  BRANCH  25  26ATOM     26  N   UNL     1      26.819  41.177  15.983 -0.10 +0.07    -0.359 N  ATOM     27  H   UNL     1      26.500  40.407  15.404 +0.09 -0.00    +0.163 HD BRANCH  26  28ATOM     28  C   UNL     1      26.360  41.215  17.258 -0.14 -0.01    +0.184 A  ATOM     29  N   UNL     1      26.122  42.314  17.935 -0.15 +0.03    -0.220 NA ATOM     30  S   UNL     1      26.048  39.752  18.110 -0.38 -0.00    -0.097 S  ATOM     31  C   UNL     1      25.646  42.014  19.198 -0.29 -0.01    +0.084 A  ATOM     32  C   UNL     1      25.526  40.651  19.483 -0.25 -0.01    +0.059 A  ATOM     33  C   UNL     1      25.280  42.954  20.188 -0.42 -0.01    +0.033 A  ATOM     34  C   UNL     1      25.047  40.191  20.722 -0.33 -0.02    +0.060 A  ATOM     35  C   UNL     1      24.802  42.508  21.425 -0.55 -0.01    +0.041 A  ATOM     36  C   UNL     1      24.689  41.146  21.674 -0.43 -0.02    +0.124 A  ATOM     37  F   UNL     1      24.226  40.738  22.865 -0.14 +0.03    -0.207 F  ENDBRANCH  26  28ENDBRANCH  25  26ENDBRANCH  19  20ENDBRANCH   1  19TORSDOF 8TERENDMDL