REMARK SMILES Nc1nccc(-c2ccc(C(=O)CCN3CCC(Nc4nc5ccc(F)cc5s4)CC3)cc2)n1
REMARK SMILES IDX 13 1 11 2 12 3 10 4 7 5 8 6 33 7 9 8 32 9 6 10 2 11 3 12
REMARK SMILES IDX 34 13 4 14 5 15 1 16 14 19 15 20 16 21 31 22 17 23 30 24
REMARK SMILES IDX 18 25 19 26 20 28 21 29 29 30 22 31 28 32 23 33 27 34 24 35
REMARK SMILES IDX 25 36 26 37
REMARK H PARENT 1 17 1 18 19 27
ROOT
ATOM      1  C   UNL     1       1.372  -0.562   0.303  1.00  0.00     0.096 C 
ENDROOT
BRANCH   1   2
ATOM      2  C   UNL     1       2.553  -0.372   1.237  1.00  0.00     0.164 C 
ATOM      3  O   UNL     1       2.428  -0.343   2.458  1.00  0.00    -0.294 OA
BRANCH   2   4
ATOM      4  C   UNL     1       3.916  -0.214   0.642  1.00  0.00     0.018 A 
ATOM      5  C   UNL     1       6.550   0.092  -0.389  1.00  0.00     0.000 A 
ATOM      6  C   UNL     1       5.473  -0.264  -1.222  1.00  0.00     0.011 A 
ATOM      7  C   UNL     1       6.267   0.302   0.973  1.00  0.00     0.011 A 
ATOM      8  C   UNL     1       4.173  -0.415  -0.717  1.00  0.00     0.012 A 
ATOM      9  C   UNL     1       4.973   0.147   1.485  1.00  0.00     0.012 A 
BRANCH   5  10
ATOM     10  C   UNL     1       7.928   0.248  -0.902  1.00  0.00     0.076 A 
ATOM     11  C   UNL     1       9.921   1.380  -0.728  1.00  0.00     0.220 A 
ATOM     12  N   UNL     1      10.504   0.665  -1.691  1.00  0.00    -0.222 NA
ATOM     13  N   UNL     1       8.672   1.199  -0.294  1.00  0.00    -0.213 NA
ATOM     14  C   UNL     1       9.746  -0.278  -2.274  1.00  0.00     0.117 A 
ATOM     15  C   UNL     1       8.442  -0.529  -1.921  1.00  0.00     0.049 A 
BRANCH  11  16
ATOM     16  N   UNL     1      10.679   2.345  -0.105  1.00  0.00    -0.368 N 
ATOM     17  H   UNL     1      10.310   2.531   0.817  1.00  0.00     0.159 HD
ATOM     18  H   UNL     1      11.659   2.119  -0.183  1.00  0.00     0.159 HD
ENDBRANCH  11  16
ENDBRANCH   5  10
ENDBRANCH   2   4
ENDBRANCH   1   2
BRANCH   1  19
ATOM     19  C   UNL     1       0.055  -0.613   1.085  1.00  0.00     0.092 C 
BRANCH  19  20
ATOM     20  N   UNL     1      -1.113  -0.842   0.211  1.00  0.00    -0.303 NA
ATOM     21  C   UNL     1      -1.497   0.340  -0.579  1.00  0.00     0.086 C 
ATOM     22  C   UNL     1      -2.229  -1.395   1.004  1.00  0.00     0.086 C 
ATOM     23  C   UNL     1      -2.627   1.158   0.043  1.00  0.00     0.040 C 
ATOM     24  C   UNL     1      -3.580  -1.185   0.332  1.00  0.00     0.040 C 
ATOM     25  C   UNL     1      -3.896   0.314   0.245  1.00  0.00     0.084 C 
BRANCH  25  26
ATOM     26  N   UNL     1      -4.841   0.566  -0.843  1.00  0.00    -0.359 N 
ATOM     27  H   UNL     1      -4.497   0.380  -1.779  1.00  0.00     0.163 HD
BRANCH  26  28
ATOM     28  C   UNL     1      -6.165   0.374  -0.628  1.00  0.00     0.184 A 
ATOM     29  N   UNL     1      -6.716   0.207   0.551  1.00  0.00    -0.220 NA
ATOM     30  S   UNL     1      -7.260   0.332  -1.956  1.00  0.00    -0.097 S 
ATOM     31  C   UNL     1      -8.085   0.053   0.432  1.00  0.00     0.084 A 
ATOM     32  C   UNL     1      -8.580   0.101  -0.874  1.00  0.00     0.059 A 
ATOM     33  C   UNL     1      -8.991  -0.138   1.500  1.00  0.00     0.033 A 
ATOM     34  C   UNL     1      -9.951  -0.029  -1.153  1.00  0.00     0.060 A 
ATOM     35  C   UNL     1     -10.358  -0.269   1.234  1.00  0.00     0.041 A 
ATOM     36  C   UNL     1     -10.818  -0.211  -0.075  1.00  0.00     0.124 A 
ATOM     37  F   UNL     1     -12.133  -0.336  -0.310  1.00  0.00    -0.207 F 
ENDBRANCH  26  28
ENDBRANCH  25  26
ENDBRANCH  19  20
ENDBRANCH   1  19
TORSDOF 8
