MODEL        5USER    Run = 5USERUSER    Estimated Free Energy of Binding    = -12.75 kcal/mol  [=(1)+(2)+(3)-(4)]USERUSER    (1) Final Intermolecular Energy     = -14.84 kcal/molUSER        vdW + Hbond + desolv Energy     = -14.65 kcal/molUSER        Electrostatic Energy            =  -0.19 kcal/molUSER        Moving Ligand-Fixed Receptor    = -14.84 kcal/molUSER        Moving Ligand-Moving Receptor   =  +0.00 kcal/molUSER    (2) Final Total Internal Energy     =  -1.89 kcal/molUSER    (3) Torsional Free Energy           =  +2.09 kcal/molUSER    (4) Unbound System's Energy         =  -1.89 kcal/molUSERUSERREMARK SMILES CS(=O)(=O)c1ccc(-c2cccnc2-c2ccc(CN3CC[C@H](n4c(O)nc5ccccc54)C[C@H]3F)cc2)cc1REMARK SMILES IDX 15 1 16 2 17 3 18 4 37 5 38 6 14 7 9 8 10 9 11 10 13 11REMARK SMILES IDX 12 12 8 13 5 14 6 15 40 16 7 17 39 18 2 19 1 20 3 21 4 22REMARK SMILES IDX 19 23 20 24 21 25 35 26 22 27 34 28 23 29 36 30 24 31 25 32REMARK SMILES IDX 33 33 27 34 32 35 28 36 31 37 29 38 30 39 26 40REMARK H PARENT 26 41USER                              x       y       z     vdW  Elec       q    TypeUSER                           _______ _______ _______ _____ _____    ______ ____ROOTATOM      1  C   UNL     1      39.923  43.568  24.251 -0.19 +0.00    +0.001 A  ATOM      2  C   UNL     1      39.967  44.971  24.222 -0.15 +0.00    +0.011 A  ATOM      3  C   UNL     1      40.807  45.653  23.336 -0.18 +0.00    +0.006 A  ATOM      4  C   UNL     1      41.616  44.950  22.435 -0.20 -0.00    -0.034 A  ATOM      5  C   UNL     1      41.564  43.549  22.447 -0.30 +0.00    +0.006 A  ATOM      6  C   UNL     1      40.726  42.870  23.337 -0.25 +0.00    +0.011 A  ENDROOTBRANCH   1   7ATOM      7  C   UNL     1      39.043  42.869  25.207 -0.18 +0.00    +0.078 A  ATOM      8  C   UNL     1      37.751  42.396  24.891 -0.32 +0.00    +0.008 A  ATOM      9  C   UNL     1      37.032  41.770  25.924 -0.37 -0.00    +0.012 A  ATOM     10  C   UNL     1      37.587  41.627  27.191 -0.43 -0.00    +0.021 A  ATOM     11  N   UNL     1      39.598  42.715  26.444 -0.11 +0.01    -0.256 NA ATOM     12  C   UNL     1      38.864  42.110  27.399 -0.28 -0.01    +0.112 A  BRANCH   8  13ATOM     13  C   UNL     1      37.144  42.499  23.552 -0.41 -0.00    -0.016 A  ATOM     14  C   UNL     1      35.972  42.690  21.007 -0.39 +0.00    +0.067 A  ATOM     15  C   UNL     1      35.956  41.470  21.684 -0.46 +0.00    +0.021 A  ATOM     16  C   UNL     1      36.553  43.819  21.586 -0.33 +0.00    +0.021 A  ATOM     17  C   UNL     1      36.547  41.378  22.948 -0.48 +0.00    +0.010 A  ATOM     18  C   UNL     1      37.142  43.717  22.848 -0.35 +0.00    +0.010 A  BRANCH  14  19ATOM     19  S   UNL     1      35.200  42.821  19.412 -0.48 -0.02    +0.175 S  ATOM     20  C   UNL     1      35.843  44.347  18.775 -0.30 -0.04    +0.163 C  ATOM     21  O   UNL     1      35.708  41.740  18.589 -0.48 +0.04    -0.224 OA ATOM     22  O   UNL     1      33.775  42.986  19.629 -0.63 -0.00    -0.224 OA ENDBRANCH  14  19ENDBRANCH   8  13ENDBRANCH   1   7BRANCH   4  23ATOM     23  C   UNL     1      42.531  45.675  21.472 -0.26 +0.03    +0.122 C  BRANCH  23  24ATOM     24  N   UNL     1      41.917  46.350  20.321 -0.23 -0.04    -0.270 NA ATOM     25  C   UNL     1      42.884  46.916  19.382 -0.45 +0.02    +0.090 C  ATOM     26  C   UNL     1      40.890  45.558  19.659 -0.32 +0.01    +0.239 C  ATOM     27  C   UNL     1      42.183  47.799  18.348 -0.54 -0.00    +0.041 C  ATOM     28  C   UNL     1      40.110  46.392  18.651 -0.42 -0.01    +0.080 C  ATOM     29  C   UNL     1      41.074  47.016  17.638 -0.50 -0.01    +0.098 C  ATOM     30  F   UNL     1      41.463  44.527  18.984 -0.06 -0.03    -0.230 F  BRANCH  29  31ATOM     31  N   UNL     1      40.385  47.801  16.624 -0.31 +0.06    -0.291 N  ATOM     32  C   UNL     1      40.733  49.044  16.173 -0.29 -0.06    +0.295 A  ATOM     33  C   UNL     1      39.240  47.436  15.944 -0.43 -0.02    +0.072 A  ATOM     34  N   UNL     1      39.922  49.512  15.264 -0.27 +0.10    -0.195 NA ATOM     35  C   UNL     1      38.420  46.301  15.973 -0.38 -0.01    +0.029 A  ATOM     36  C   UNL     1      38.981  48.525  15.108 -0.45 -0.04    +0.092 A  ATOM     37  C   UNL     1      37.309  46.290  15.121 -0.39 -0.00    +0.002 A  ATOM     38  C   UNL     1      37.862  48.493  14.260 -0.52 -0.02    +0.031 A  ATOM     39  C   UNL     1      37.032  47.366  14.277 -0.49 -0.00    +0.002 A  BRANCH  32  40ATOM     40  O   UNL     1      41.771  49.736  16.594 -0.82 -0.08    -0.480 OA ATOM     41  H   UNL     1      41.428  50.647  16.535 -0.24 -0.07    +0.296 HD ENDBRANCH  32  40ENDBRANCH  29  31ENDBRANCH  23  24ENDBRANCH   4  23TORSDOF 7TERENDMDL