REMARK SMILES CS(=O)(=O)c1ccc(-c2cccnc2-c2ccc(CN3CC[C@H](n4c(O)nc5ccccc54)C[C@H]3F)cc2)cc1
REMARK SMILES IDX 15 1 16 2 17 3 18 4 37 5 38 6 14 7 9 8 10 9 11 10 13 11
REMARK SMILES IDX 12 12 8 13 5 14 6 15 40 16 7 17 39 18 2 19 1 20 3 21 4 22
REMARK SMILES IDX 19 23 20 24 21 25 35 26 22 27 34 28 23 29 36 30 24 31 25 32
REMARK SMILES IDX 33 33 27 34 32 35 28 36 31 37 29 38 30 39 26 40
REMARK H PARENT 26 41
ROOT
ATOM      1  C   UNL     1       2.145   1.347   0.372  1.00  0.00     0.001 A 
ATOM      2  C   UNL     1       1.432   1.847  -0.729  1.00  0.00     0.011 A 
ATOM      3  C   UNL     1       0.567   1.030  -1.465  1.00  0.00     0.006 A 
ATOM      4  C   UNL     1       0.374  -0.310  -1.108  1.00  0.00    -0.034 A 
ATOM      5  C   UNL     1       1.070  -0.811   0.001  1.00  0.00     0.006 A 
ATOM      6  C   UNL     1       1.937   0.007   0.732  1.00  0.00     0.011 A 
ENDROOT
BRANCH   1   7
ATOM      7  C   UNL     1       3.067   2.221   1.123  1.00  0.00     0.078 A 
ATOM      8  C   UNL     1       4.433   1.933   1.331  1.00  0.00     0.008 A 
ATOM      9  C   UNL     1       5.170   2.859   2.090  1.00  0.00     0.012 A 
ATOM     10  C   UNL     1       4.565   4.004   2.597  1.00  0.00     0.021 A 
ATOM     11  N   UNL     1       2.474   3.351   1.604  1.00  0.00    -0.256 NA
ATOM     12  C   UNL     1       3.226   4.205   2.327  1.00  0.00     0.112 A 
BRANCH   8  13
ATOM     13  C   UNL     1       5.116   0.749   0.781  1.00  0.00    -0.016 A 
ATOM     14  C   UNL     1       6.407  -1.518  -0.259  1.00  0.00     0.067 A 
ATOM     15  C   UNL     1       6.316  -1.349   1.123  1.00  0.00     0.021 A 
ATOM     16  C   UNL     1       5.853  -0.579  -1.130  1.00  0.00     0.021 A 
ATOM     17  C   UNL     1       5.678  -0.216   1.636  1.00  0.00     0.010 A 
ATOM     18  C   UNL     1       5.219   0.551  -0.608  1.00  0.00     0.010 A 
BRANCH  14  19
ATOM     19  S   UNL     1       7.192  -2.969  -0.919  1.00  0.00     0.175 S 
ATOM     20  C   UNL     1       8.864  -2.439  -1.188  1.00  0.00     0.163 C 
ATOM     21  O   UNL     1       7.202  -3.975   0.126  1.00  0.00    -0.224 OA
ATOM     22  O   UNL     1       6.590  -3.242  -2.210  1.00  0.00    -0.224 OA
ENDBRANCH  14  19
ENDBRANCH   8  13
ENDBRANCH   1   7
BRANCH   4  23
ATOM     23  C   UNL     1      -0.558  -1.205  -1.897  1.00  0.00     0.122 C 
BRANCH  23  24
ATOM     24  N   UNL     1      -1.983  -1.191  -1.543  1.00  0.00    -0.270 NA
ATOM     25  C   UNL     1      -2.244  -1.450  -0.128  1.00  0.00     0.090 C 
ATOM     26  C   UNL     1      -2.697  -0.023  -2.040  1.00  0.00     0.239 C 
ATOM     27  C   UNL     1      -3.739  -1.656   0.119  1.00  0.00     0.041 C 
ATOM     28  C   UNL     1      -4.203  -0.183  -1.877  1.00  0.00     0.080 C 
ATOM     29  C   UNL     1      -4.539  -0.460  -0.409  1.00  0.00     0.098 C 
ATOM     30  F   UNL     1      -2.322   1.081  -1.341  1.00  0.00    -0.230 F 
BRANCH  29  31
ATOM     31  N   UNL     1      -5.971  -0.590  -0.180  1.00  0.00    -0.291 N 
ATOM     32  C   UNL     1      -6.798  -1.555  -0.685  1.00  0.00     0.295 A 
ATOM     33  C   UNL     1      -6.758   0.253   0.578  1.00  0.00     0.072 A 
ATOM     34  N   UNL     1      -8.042  -1.415  -0.319  1.00  0.00    -0.195 NA
ATOM     35  C   UNL     1      -6.495   1.407   1.327  1.00  0.00     0.029 A 
ATOM     36  C   UNL     1      -8.041  -0.290   0.468  1.00  0.00     0.092 A 
ATOM     37  C   UNL     1      -7.578   2.013   1.975  1.00  0.00     0.002 A 
ATOM     38  C   UNL     1      -9.113   0.333   1.127  1.00  0.00     0.031 A 
ATOM     39  C   UNL     1      -8.867   1.487   1.879  1.00  0.00     0.002 A 
BRANCH  32  40
ATOM     40  O   UNL     1      -6.416  -2.540  -1.470  1.00  0.00    -0.480 OA
ATOM     41  H   UNL     1      -7.260  -3.008  -1.611  1.00  0.00     0.296 HD
ENDBRANCH  32  40
ENDBRANCH  29  31
ENDBRANCH  23  24
ENDBRANCH   4  23
TORSDOF 7
