MODEL        6USER    Run = 6USERUSER    Estimated Free Energy of Binding    = -13.18 kcal/mol  [=(1)+(2)+(3)-(4)]USERUSER    (1) Final Intermolecular Energy     = -15.27 kcal/molUSER        vdW + Hbond + desolv Energy     = -15.15 kcal/molUSER        Electrostatic Energy            =  -0.12 kcal/molUSER        Moving Ligand-Fixed Receptor    = -15.27 kcal/molUSER        Moving Ligand-Moving Receptor   =  +0.00 kcal/molUSER    (2) Final Total Internal Energy     =  -2.25 kcal/molUSER    (3) Torsional Free Energy           =  +2.09 kcal/molUSER    (4) Unbound System's Energy         =  -2.25 kcal/molUSERUSERREMARK SMILES Oc1nc2ccccc2n1C1CCN(Cc2ccc(-c3nc4ccccc4nc3-c3ccc(N4CCOCC4)cc3)cc2)CC1REMARK SMILES IDX 15 1 14 2 11 3 12 4 45 5 13 6 44 7 10 8 2 9 3 10 4 11 9 12REMARK SMILES IDX 5 13 8 14 6 15 7 16 1 17 16 19 17 20 43 21 18 22 42 23 19 24REMARK SMILES IDX 20 25 21 26 29 27 22 28 28 29 23 30 27 31 24 32 26 33 25 34REMARK SMILES IDX 30 35 31 36 41 37 32 38 40 39 33 40 34 41 35 42 39 43 36 44REMARK SMILES IDX 38 45 37 46REMARK H PARENT 1 18USER                              x       y       z     vdW  Elec       q    TypeUSER                           _______ _______ _______ _____ _____    ______ ____ROOTATOM      1  C   UNL     1      42.074  46.007  19.602 -0.33 +0.02    +0.120 C  ENDROOTBRANCH   1   2ATOM      2  N   UNL     1      41.267  46.262  18.399 -0.28 +0.00    -0.299 NA ATOM      3  C   UNL     1      39.213  47.257  16.614 -0.45 -0.03    +0.095 C  ATOM      4  C   UNL     1      39.199  45.812  17.130 -0.44 -0.01    +0.041 C  ATOM      5  C   UNL     1      40.639  47.811  16.592 -0.59 -0.01    +0.041 C  ATOM      6  C   UNL     1      39.907  45.720  18.483 -0.45 -0.01    +0.087 C  ATOM      7  C   UNL     1      41.290  47.658  17.966 -0.51 -0.01    +0.087 C  BRANCH   3   8ATOM      8  N   UNL     1      38.542  47.439  15.334 -0.23 +0.12    -0.291 N  ATOM      9  C   UNL     1      38.967  48.198  14.280 -0.25 -0.11    +0.295 A  ATOM     10  N   UNL     1      38.145  48.180  13.266 -0.62 +0.04    -0.195 NA ATOM     11  C   UNL     1      37.099  47.398  13.685 -0.47 -0.04    +0.092 A  ATOM     12  C   UNL     1      37.311  46.921  14.981 -0.36 -0.04    +0.072 A  ATOM     13  C   UNL     1      35.919  47.058  13.008 -0.58 -0.02    +0.031 A  ATOM     14  C   UNL     1      36.377  46.115  15.643 -0.35 -0.02    +0.029 A  ATOM     15  C   UNL     1      34.975  46.253  13.655 -0.38 -0.00    +0.002 A  ATOM     16  C   UNL     1      35.203  45.792  14.952 -0.37 -0.00    +0.002 A  BRANCH   9  17ATOM     17  O   UNL     1      40.080  48.901  14.255 -0.21 +0.16    -0.480 OA ATOM     18  H   UNL     1      39.769  49.763  14.588 -0.05 -0.22    +0.296 HD ENDBRANCH   9  17ENDBRANCH   3   8ENDBRANCH   1   2BRANCH   1  19ATOM     19  C   UNL     1      41.390  45.288  20.746 -0.33 -0.00    -0.034 A  ATOM     20  C   UNL     1      41.712  43.954  21.030 -0.33 +0.00    +0.006 A  ATOM     21  C   UNL     1      40.421  45.926  21.532 -0.24 +0.00    +0.006 A  ATOM     22  C   UNL     1      41.073  43.272  22.069 -0.31 +0.00    +0.011 A  ATOM     23  C   UNL     1      39.769  45.236  22.558 -0.26 +0.00    +0.011 A  ATOM     24  C   UNL     1      40.090  43.901  22.850 -0.24 +0.00    +0.002 A  BRANCH  24  25ATOM     25  C   UNL     1      39.400  43.180  23.930 -0.18 +0.01    +0.097 A  ATOM     26  N   UNL     1      40.120  43.092  25.084 -0.10 -0.00    -0.244 NA ATOM     27  C   UNL     1      38.100  42.662  23.839 -0.26 +0.01    +0.097 A  ATOM     28  C   UNL     1      39.521  42.525  26.144 -0.18 -0.00    +0.089 A  ATOM     29  N   UNL     1      37.491  42.104  24.923 -0.22 +0.00    -0.244 NA ATOM     30  C   UNL     1      40.210  42.422  27.346 -0.21 -0.00    +0.030 A  ATOM     31  C   UNL     1      38.197  42.037  26.066 -0.25 -0.00    +0.089 A  ATOM     32  C   UNL     1      39.619  41.849  28.474 -0.26 +0.00    +0.002 A  ATOM     33  C   UNL     1      37.618  41.471  27.196 -0.44 -0.01    +0.030 A  ATOM     34  C   UNL     1      38.318  41.374  28.400 -0.29 -0.00    +0.002 A  BRANCH  27  35ATOM     35  C   UNL     1      37.287  42.630  22.610 -0.43 +0.00    +0.003 A  ATOM     36  C   UNL     1      36.912  43.802  21.938 -0.38 +0.00    +0.012 A  ATOM     37  C   UNL     1      36.898  41.412  22.039 -0.57 +0.00    +0.012 A  ATOM     38  C   UNL     1      36.160  43.756  20.753 -0.39 +0.00    +0.026 A  ATOM     39  C   UNL     1      36.146  41.373  20.857 -0.31 -0.00    +0.026 A  ATOM     40  C   UNL     1      35.751  42.543  20.189 -0.44 -0.00    +0.037 A  BRANCH  40  41ATOM     41  N   UNL     1      35.027  42.447  18.992 -0.16 +0.05    -0.367 N  ATOM     42  C   UNL     1      35.610  43.045  17.773 -0.30 -0.04    +0.145 C  ATOM     43  C   UNL     1      33.583  42.760  19.123 -0.36 -0.01    +0.145 C  ATOM     44  C   UNL     1      34.793  42.620  16.543 -0.37 -0.08    +0.181 C  ATOM     45  C   UNL     1      32.843  42.364  17.832 -0.29 -0.05    +0.181 C  ATOM     46  O   UNL     1      33.412  42.996  16.675 -0.15 +0.17    -0.378 OA ENDBRANCH  40  41ENDBRANCH  27  35ENDBRANCH  24  25ENDBRANCH   1  19TORSDOF 7TERENDMDL