
     RDKit          3D

 29 31  0  0  0  0  0  0  0  0999 V2000
    5.3165   -0.8029   -0.8279 N   0  0  0  0  0  0  0  0  0  0  0  0
    4.3585   -0.0515   -0.2635 C   0  0  0  0  0  0  0  0  0  0  0  0
    4.6245    1.0037    0.5000 N   0  0  0  0  0  0  0  0  0  0  0  0
    3.4102    1.4565    0.8523 N   0  0  0  0  0  0  0  0  0  0  0  0
    2.3683    0.7169    0.3605 C   0  0  0  0  0  0  0  0  0  0  0  0
    0.9813    0.8477    0.5035 C   0  0  0  0  0  0  0  0  0  0  0  0
    0.1556   -0.0871   -0.1515 C   0  0  0  0  0  0  0  0  0  0  0  0
   -1.3097    0.0065   -0.0376 C   0  0  0  0  0  0  0  0  0  0  0  0
   -2.1171    0.1107   -1.1844 C   0  0  0  0  0  0  0  0  0  0  0  0
   -3.5094    0.2008   -1.0834 C   0  0  0  0  0  0  0  0  0  0  0  0
   -4.1104    0.1862    0.1800 C   0  0  0  0  0  0  0  0  0  0  0  0
   -5.5711    0.2800    0.2936 N   0  0  0  0  0  0  0  0  0  0  0  0
   -6.2280    0.3487   -0.7550 O   0  0  0  0  0  0  0  0  0  0  0  0
   -6.0616    0.2856    1.4318 O   0  0  0  0  0  0  0  0  0  0  0  0
   -3.3288    0.0828    1.3360 C   0  0  0  0  0  0  0  0  0  0  0  0
   -1.9375   -0.0057    1.2208 C   0  0  0  0  0  0  0  0  0  0  0  0
    0.7486   -1.1066   -0.9167 C   0  0  0  0  0  0  0  0  0  0  0  0
    2.1415   -1.2216   -1.0460 C   0  0  0  0  0  0  0  0  0  0  0  0
    2.9638   -0.2888   -0.3904 C   0  0  0  0  0  0  0  0  0  0  0  0
    6.2514   -0.6574   -0.4622 H   0  0  0  0  0  0  0  0  0  0  0  0
    5.1224   -1.7709   -1.0504 H   0  0  0  0  0  0  0  0  0  0  0  0
    3.3597    2.2809    1.4388 H   0  0  0  0  0  0  0  0  0  0  0  0
    0.5564    1.6563    1.0912 H   0  0  0  0  0  0  0  0  0  0  0  0
   -1.6588    0.1336   -2.1725 H   0  0  0  0  0  0  0  0  0  0  0  0
   -4.1017    0.2835   -1.9925 H   0  0  0  0  0  0  0  0  0  0  0  0
   -3.7802    0.0662    2.3259 H   0  0  0  0  0  0  0  0  0  0  0  0
   -1.3397   -0.0979    2.1267 H   0  0  0  0  0  0  0  0  0  0  0  0
    0.1221   -1.8400   -1.4224 H   0  0  0  0  0  0  0  0  0  0  0  0
    2.5733   -2.0160   -1.6464 H   0  0  0  0  0  0  0  0  0  0  0  0
  1  2  1  0
  2  3  2  0
  3  4  1  0
  4  5  1  0
  5  6  2  0
  6  7  1  0
  7  8  1  0
  8  9  2  0
  9 10  1  0
 10 11  2  0
 11 12  1  0
 12 13  2  0
 12 14  1  0
 11 15  1  0
 15 16  2  0
  7 17  2  0
 17 18  1  0
 18 19  2  0
 19  2  1  0
 19  5  1  0
 16  8  1  0
  1 20  1  0
  1 21  1  0
  4 22  1  0
  6 23  1  0
  9 24  1  0
 10 25  1  0
 15 26  1  0
 16 27  1  0
 17 28  1  0
 18 29  1  0
M  CHG  2  12   1  14  -1
M  END
$$$$
