
     RDKit          3D

 38 39  0  0  0  0  0  0  0  0999 V2000
   -3.7626   -2.1049   -0.6471 C   0  0  0  0  0  0  0  0  0  0  0  0
   -3.9777   -0.6411   -0.3819 C   0  0  0  0  0  0  0  0  0  0  0  0
   -5.2727   -0.1775   -0.1012 C   0  0  0  0  0  0  0  0  0  0  0  0
   -5.5046    1.1756    0.1313 C   0  0  0  0  0  0  0  0  0  0  0  0
   -6.7842    1.5599    0.4017 O   0  0  0  0  0  0  0  0  0  0  0  0
   -4.4670    2.0988    0.0824 C   0  0  0  0  0  0  0  0  0  0  0  0
   -3.1742    1.6574   -0.2033 C   0  0  0  0  0  0  0  0  0  0  0  0
   -2.9252    0.2930   -0.4298 C   0  0  0  0  0  0  0  0  0  0  0  0
   -1.5389   -0.1357   -0.7503 C   0  0  0  0  0  0  0  0  0  0  0  0
   -1.3204   -0.8108   -1.7463 O   0  0  0  0  0  0  0  0  0  0  0  0
   -0.4876    0.2832    0.2242 C   0  0  0  0  0  0  0  0  0  0  0  0
    0.8431    0.1797    0.0793 C   0  0  0  0  0  0  0  0  0  0  0  0
    1.5758   -0.3404   -1.0557 C   0  0  0  0  0  0  0  0  0  0  0  0
    2.9122   -0.4330   -1.1578 C   0  0  0  0  0  0  0  0  0  0  0  0
    3.8817   -0.0178   -0.1392 C   0  0  0  0  0  0  0  0  0  0  0  0
    4.3656    1.2941   -0.1627 C   0  0  0  0  0  0  0  0  0  0  0  0
    5.2788    1.7129    0.7989 C   0  0  0  0  0  0  0  0  0  0  0  0
    5.6784    0.8018    1.7592 C   0  0  0  0  0  0  0  0  0  0  0  0
    5.2330   -0.4715    1.8180 N   0  0  0  0  0  0  0  0  0  0  0  0
    4.3438   -0.8726    0.8705 C   0  0  0  0  0  0  0  0  0  0  0  0
    3.8748   -2.2959    0.9720 C   0  0  0  0  0  0  0  0  0  0  0  0
   -2.9008   -2.4799   -0.0856 H   0  0  0  0  0  0  0  0  0  0  0  0
   -3.6084   -2.2774   -1.7167 H   0  0  0  0  0  0  0  0  0  0  0  0
   -4.6287   -2.6967   -0.3315 H   0  0  0  0  0  0  0  0  0  0  0  0
   -6.1114   -0.8695   -0.0650 H   0  0  0  0  0  0  0  0  0  0  0  0
   -6.8078    2.5248    0.5095 H   0  0  0  0  0  0  0  0  0  0  0  0
   -4.6450    3.1562    0.2516 H   0  0  0  0  0  0  0  0  0  0  0  0
   -2.3692    2.3857   -0.2698 H   0  0  0  0  0  0  0  0  0  0  0  0
   -0.8618    0.7036    1.1541 H   0  0  0  0  0  0  0  0  0  0  0  0
    1.4480    0.5310    0.9149 H   0  0  0  0  0  0  0  0  0  0  0  0
    0.9953   -0.6937   -1.9062 H   0  0  0  0  0  0  0  0  0  0  0  0
    3.3495   -0.8479   -2.0636 H   0  0  0  0  0  0  0  0  0  0  0  0
    4.0320    1.9910   -0.9276 H   0  0  0  0  0  0  0  0  0  0  0  0
    5.6683    2.7244    0.7981 H   0  0  0  0  0  0  0  0  0  0  0  0
    6.3897    1.0782    2.5322 H   0  0  0  0  0  0  0  0  0  0  0  0
    2.8005   -2.3315    1.1765 H   0  0  0  0  0  0  0  0  0  0  0  0
    4.0896   -2.8384    0.0461 H   0  0  0  0  0  0  0  0  0  0  0  0
    4.3881   -2.8149    1.7885 H   0  0  0  0  0  0  0  0  0  0  0  0
  1  2  1  0
  2  3  2  0
  3  4  1  0
  4  5  1  0
  4  6  2  0
  6  7  1  0
  7  8  2  0
  8  9  1  0
  9 10  2  0
  9 11  1  0
 11 12  2  0
 12 13  1  0
 13 14  2  0
 14 15  1  0
 15 16  2  0
 16 17  1  0
 17 18  2  0
 18 19  1  0
 19 20  2  0
 20 21  1  0
  8  2  1  0
 20 15  1  0
  1 22  1  0
  1 23  1  0
  1 24  1  0
  3 25  1  0
  5 26  1  0
  6 27  1  0
  7 28  1  0
 11 29  1  0
 12 30  1  0
 13 31  1  0
 14 32  1  0
 16 33  1  0
 17 34  1  0
 18 35  1  0
 21 36  1  0
 21 37  1  0
 21 38  1  0
M  END
$$$$
