
     RDKit          3D

 36 39  0  0  0  0  0  0  0  0999 V2000
   -5.4123   -0.0354    0.6270 N   0  0  0  0  0  0  0  0  0  0  0  0
   -4.0894    0.3639    0.3329 C   0  0  0  0  0  0  0  0  0  0  0  0
   -2.9886   -0.3109    0.8619 C   0  0  0  0  0  0  0  0  0  0  0  0
   -1.6809    0.0044    0.4395 C   0  0  0  0  0  0  0  0  0  0  0  0
   -0.4913   -0.7106    1.0617 C   0  0  0  0  0  0  0  0  0  0  0  0
    0.3037    0.2388    1.8388 N   0  0  0  0  0  0  0  0  0  0  0  0
    1.5881    0.5609    1.4375 C   0  0  0  0  0  0  0  0  0  0  0  0
    2.2837   -0.0596    0.4589 C   0  0  0  0  0  0  0  0  0  0  0  0
    3.6152    0.4066    0.1824 C   0  0  0  0  0  0  0  0  0  0  0  0
    4.5481   -0.0552   -0.7447 C   0  0  0  0  0  0  0  0  0  0  0  0
    5.7171    0.7337   -0.6375 C   0  0  0  0  0  0  0  0  0  0  0  0
    5.4582    1.6480    0.3483 C   0  0  0  0  0  0  0  0  0  0  0  0
    4.2123    1.4676    0.8458 O   0  0  0  0  0  0  0  0  0  0  0  0
    1.6240   -1.1309   -0.2369 C   0  0  0  0  0  0  0  0  0  0  0  0
    2.0574   -1.9538   -1.1789 N   0  0  0  0  0  0  0  0  0  0  0  0
    1.0109   -2.7878   -1.4779 C   0  0  0  0  0  0  0  0  0  0  0  0
   -0.0903   -2.4824   -0.7170 C   0  0  0  0  0  0  0  0  0  0  0  0
    0.3013   -1.4194    0.0511 N   0  0  0  0  0  0  0  0  0  0  0  0
   -1.5051    0.9936   -0.5489 C   0  0  0  0  0  0  0  0  0  0  0  0
   -2.6042    1.6383   -1.1151 C   0  0  0  0  0  0  0  0  0  0  0  0
   -3.8769    1.3075   -0.6780 C   0  0  0  0  0  0  0  0  0  0  0  0
   -4.9581    1.9340   -1.2345 O   0  0  0  0  0  0  0  0  0  0  0  0
   -5.4757   -0.4937    1.5341 H   0  0  0  0  0  0  0  0  0  0  0  0
   -5.7386   -0.6863   -0.0895 H   0  0  0  0  0  0  0  0  0  0  0  0
   -3.1438   -1.0848    1.6099 H   0  0  0  0  0  0  0  0  0  0  0  0
   -0.8404   -1.4927    1.7478 H   0  0  0  0  0  0  0  0  0  0  0  0
   -0.2174    0.9967    2.2720 H   0  0  0  0  0  0  0  0  0  0  0  0
    2.0071    1.3920    2.0023 H   0  0  0  0  0  0  0  0  0  0  0  0
    4.3889   -0.8818   -1.4253 H   0  0  0  0  0  0  0  0  0  0  0  0
    6.6297    0.6428   -1.2087 H   0  0  0  0  0  0  0  0  0  0  0  0
    6.0267    2.4532    0.7917 H   0  0  0  0  0  0  0  0  0  0  0  0
    1.1091   -3.5648   -2.2250 H   0  0  0  0  0  0  0  0  0  0  0  0
   -1.0825   -2.9077   -0.6698 H   0  0  0  0  0  0  0  0  0  0  0  0
   -0.5061    1.2605   -0.8916 H   0  0  0  0  0  0  0  0  0  0  0  0
   -2.4693    2.3882   -1.8887 H   0  0  0  0  0  0  0  0  0  0  0  0
   -5.7105    1.6267   -0.6889 H   0  0  0  0  0  0  0  0  0  0  0  0
  1  2  1  0
  2  3  2  0
  3  4  1  0
  4  5  1  0
  5  6  1  0
  6  7  1  0
  7  8  2  0
  8  9  1  0
  9 10  2  0
 10 11  1  0
 11 12  2  0
 12 13  1  0
  8 14  1  0
 14 15  2  0
 15 16  1  0
 16 17  2  0
 17 18  1  0
  4 19  2  0
 19 20  1  0
 20 21  2  0
 21 22  1  0
 21  2  1  0
 18  5  1  0
 13  9  1  0
 18 14  1  0
  1 23  1  0
  1 24  1  0
  3 25  1  0
  5 26  1  0
  6 27  1  0
  7 28  1  0
 10 29  1  0
 11 30  1  0
 12 31  1  0
 16 32  1  0
 17 33  1  0
 19 34  1  0
 20 35  1  0
 22 36  1  0
M  END
$$$$
