
     RDKit          3D

 56 57  0  0  0  0  0  0  0  0999 V2000
    0.7390    0.3930    1.8521 C   0  0  0  0  0  0  0  0  0  0  0  0
    1.5868    0.3222    0.5995 C   0  0  0  0  0  0  0  0  0  0  0  0
    2.9164    0.1694    0.7736 C   0  0  0  0  0  0  0  0  0  0  0  0
    3.8666    0.5290   -0.1179 C   0  0  0  0  0  0  0  0  0  0  0  0
    5.0306   -0.1391   -0.2243 C   0  0  0  0  0  0  0  0  0  0  0  0
    5.1482   -1.4691   -0.0105 C   0  0  0  0  0  0  0  0  0  0  0  0
    6.4036   -1.9898    0.3180 O   0  0  0  0  0  0  0  0  0  0  0  0
    4.1386   -2.3614   -0.1624 C   0  0  0  0  0  0  0  0  0  0  0  0
    2.9931   -2.2307   -0.8811 C   0  0  0  0  0  0  0  0  0  0  0  0
    2.1186   -3.3026   -0.8435 O   0  0  0  0  0  0  0  0  0  0  0  0
    2.5836   -1.3939   -1.8720 N   0  0  0  0  0  0  0  0  0  0  0  0
    1.5538   -0.5102   -1.6545 C   0  0  0  0  0  0  0  0  0  0  0  0
    0.9953    0.2145   -0.6275 C   0  0  0  0  0  0  0  0  0  0  0  0
   -0.2958    0.7665   -0.8461 N   0  0  0  0  0  0  0  0  0  0  0  0
   -1.3330   -0.1364   -1.3937 C   0  0  0  0  0  0  0  0  0  0  0  0
   -1.8661   -1.1132   -0.3626 C   0  0  0  0  0  0  0  0  0  0  0  0
   -2.6712   -0.6889    0.7072 C   0  0  0  0  0  0  0  0  0  0  0  0
   -3.1099   -1.5927    1.6760 C   0  0  0  0  0  0  0  0  0  0  0  0
   -2.7431   -2.9333    1.5942 C   0  0  0  0  0  0  0  0  0  0  0  0
   -1.9427   -3.3719    0.5350 C   0  0  0  0  0  0  0  0  0  0  0  0
   -1.5430   -4.7878    0.4054 C   0  0  0  0  0  0  0  0  0  0  0  0
   -1.2223   -5.3594   -0.6170 O   0  0  0  0  0  0  0  0  0  0  0  0
   -1.5514   -5.4316    1.5870 O   0  0  0  0  0  0  0  0  0  0  0  0
   -1.5132   -2.4674   -0.4394 C   0  0  0  0  0  0  0  0  0  0  0  0
   -0.5162    2.1342   -0.5949 C   0  0  0  0  0  0  0  0  0  0  0  0
    0.3283    2.9082   -0.1372 O   0  0  0  0  0  0  0  0  0  0  0  0
   -1.8866    2.6913   -0.9870 C   0  0  0  0  0  0  0  0  0  0  0  0
   -2.1114    4.1592   -0.5712 C   0  0  0  0  0  0  0  0  0  0  0  0
   -3.3324    4.7284   -1.2968 C   0  0  0  0  0  0  0  0  0  0  0  0
   -2.3011    4.2934    0.9397 C   0  0  0  0  0  0  0  0  0  0  0  0
    1.3468    0.3371    2.7601 H   0  0  0  0  0  0  0  0  0  0  0  0
    0.1710    1.3206    1.9174 H   0  0  0  0  0  0  0  0  0  0  0  0
    0.0511   -0.4516    1.9039 H   0  0  0  0  0  0  0  0  0  0  0  0
    3.2401   -0.3175    1.6909 H   0  0  0  0  0  0  0  0  0  0  0  0
    3.6766    1.3529   -0.8038 H   0  0  0  0  0  0  0  0  0  0  0  0
    5.8889    0.3975   -0.6169 H   0  0  0  0  0  0  0  0  0  0  0  0
    7.0066   -1.2340    0.3805 H   0  0  0  0  0  0  0  0  0  0  0  0
    4.2994   -3.3458    0.2663 H   0  0  0  0  0  0  0  0  0  0  0  0
    1.5275   -3.0153   -1.5665 H   0  0  0  0  0  0  0  0  0  0  0  0
    1.0612   -0.2782   -2.5993 H   0  0  0  0  0  0  0  0  0  0  0  0
   -2.1828    0.4203   -1.7938 H   0  0  0  0  0  0  0  0  0  0  0  0
   -0.9519   -0.6800   -2.2647 H   0  0  0  0  0  0  0  0  0  0  0  0
   -2.9376    0.3560    0.8108 H   0  0  0  0  0  0  0  0  0  0  0  0
   -3.7178   -1.2459    2.5093 H   0  0  0  0  0  0  0  0  0  0  0  0
   -3.0763   -3.6299    2.3572 H   0  0  0  0  0  0  0  0  0  0  0  0
   -1.1552   -6.2985    1.3583 H   0  0  0  0  0  0  0  0  0  0  0  0
   -0.8629   -2.8132   -1.2413 H   0  0  0  0  0  0  0  0  0  0  0  0
   -2.6814    2.0836   -0.5468 H   0  0  0  0  0  0  0  0  0  0  0  0
   -1.9506    2.6214   -2.0817 H   0  0  0  0  0  0  0  0  0  0  0  0
   -1.2427    4.7602   -0.8636 H   0  0  0  0  0  0  0  0  0  0  0  0
   -4.2414    4.1759   -1.0422 H   0  0  0  0  0  0  0  0  0  0  0  0
   -3.4906    5.7806   -1.0318 H   0  0  0  0  0  0  0  0  0  0  0  0
   -3.1956    4.6804   -2.3792 H   0  0  0  0  0  0  0  0  0  0  0  0
   -2.4756    5.3387    1.2176 H   0  0  0  0  0  0  0  0  0  0  0  0
   -3.1522    3.7018    1.2850 H   0  0  0  0  0  0  0  0  0  0  0  0
   -1.4177    3.9532    1.4859 H   0  0  0  0  0  0  0  0  0  0  0  0
  1  2  1  0
  2  3  2  0
  3  4  1  0
  4  5  2  0
  5  6  1  0
  6  7  1  0
  6  8  2  0
  8  9  1  0
  9 10  1  0
  9 11  2  0
 11 12  1  0
 12 13  2  0
 13 14  1  0
 14 15  1  0
 15 16  1  0
 16 17  2  0
 17 18  1  0
 18 19  2  0
 19 20  1  0
 20 21  1  0
 21 22  2  0
 21 23  1  0
 20 24  2  0
 14 25  1  0
 25 26  2  0
 25 27  1  0
 27 28  1  0
 28 29  1  0
 28 30  1  0
 13  2  1  0
 24 16  1  0
  1 31  1  0
  1 32  1  0
  1 33  1  0
  3 34  1  0
  4 35  1  0
  5 36  1  0
  7 37  1  0
  8 38  1  0
 10 39  1  0
 12 40  1  0
 15 41  1  0
 15 42  1  0
 17 43  1  0
 18 44  1  0
 19 45  1  0
 23 46  1  0
 24 47  1  0
 27 48  1  0
 27 49  1  0
 28 50  1  0
 29 51  1  0
 29 52  1  0
 29 53  1  0
 30 54  1  0
 30 55  1  0
 30 56  1  0
M  END
$$$$
