
     RDKit          3D

 55 57  0  0  0  0  0  0  0  0999 V2000
    8.4369    1.4336   -1.6487 C   0  0  0  0  0  0  0  0  0  0  0  0
    7.7779    0.7764   -2.6125 C   0  0  0  0  0  0  0  0  0  0  0  0
    6.3085    0.5482   -2.6532 C   0  0  0  0  0  0  0  0  0  0  0  0
    5.7488    0.4280   -3.7375 O   0  0  0  0  0  0  0  0  0  0  0  0
    5.7005    0.4365   -1.4224 N   0  0  0  0  0  0  0  0  0  0  0  0
    4.3536    0.2144   -1.2652 C   0  0  0  0  0  0  0  0  0  0  0  0
    3.7432    0.0769   -0.0739 C   0  0  0  0  0  0  0  0  0  0  0  0
    4.4037    0.1980    1.2800 C   0  0  0  0  0  0  0  0  0  0  0  0
    4.8166   -1.1596    1.8326 C   0  0  0  0  0  0  0  0  0  0  0  0
    2.2874   -0.1726   -0.0714 C   0  0  0  0  0  0  0  0  0  0  0  0
    1.7719   -1.3664   -0.5730 C   0  0  0  0  0  0  0  0  0  0  0  0
    0.3930   -1.5949   -0.5584 C   0  0  0  0  0  0  0  0  0  0  0  0
   -0.5023   -0.6603   -0.0588 C   0  0  0  0  0  0  0  0  0  0  0  0
   -1.8103   -0.9622   -0.0816 N   0  0  0  0  0  0  0  0  0  0  0  0
   -2.7175   -0.0760    0.3758 C   0  0  0  0  0  0  0  0  0  0  0  0
   -4.0672   -0.4201    0.3551 N   0  0  0  0  0  0  0  0  0  0  0  0
   -4.3696   -1.7952   -0.0771 C   0  0  0  0  0  0  0  0  0  0  0  0
   -5.8803   -2.0685    0.0994 C   0  0  0  0  0  0  0  0  0  0  0  0
   -6.7578   -1.1865   -0.7067 N   0  0  0  0  0  0  0  0  0  0  0  0
   -8.0134   -0.9322   -0.0064 C   0  0  0  0  0  0  0  0  0  0  0  0
   -6.0683    0.0664   -1.0759 C   0  0  0  0  0  0  0  0  0  0  0  0
   -5.0442    0.6071   -0.0484 C   0  0  0  0  0  0  0  0  0  0  0  0
   -2.3020    1.1428    0.9058 C   0  0  0  0  0  0  0  0  0  0  0  0
   -0.9427    1.4802    0.9447 C   0  0  0  0  0  0  0  0  0  0  0  0
   -0.5373    2.8074    1.5228 C   0  0  0  0  0  0  0  0  0  0  0  0
   -0.0011    0.5559    0.4466 C   0  0  0  0  0  0  0  0  0  0  0  0
    1.3970    0.7827    0.4326 C   0  0  0  0  0  0  0  0  0  0  0  0
    9.5102    1.5803   -1.7301 H   0  0  0  0  0  0  0  0  0  0  0  0
    7.9455    1.8725   -0.7879 H   0  0  0  0  0  0  0  0  0  0  0  0
    8.3029    0.4171   -3.4928 H   0  0  0  0  0  0  0  0  0  0  0  0
    6.2830    0.4633   -0.5981 H   0  0  0  0  0  0  0  0  0  0  0  0
    3.7874    0.1457   -2.1956 H   0  0  0  0  0  0  0  0  0  0  0  0
    5.2866    0.8452    1.2254 H   0  0  0  0  0  0  0  0  0  0  0  0
    3.7354    0.6887    1.9973 H   0  0  0  0  0  0  0  0  0  0  0  0
    5.5197   -1.6642    1.1613 H   0  0  0  0  0  0  0  0  0  0  0  0
    3.9495   -1.8133    1.9744 H   0  0  0  0  0  0  0  0  0  0  0  0
    5.3068   -1.0372    2.8039 H   0  0  0  0  0  0  0  0  0  0  0  0
    2.4319   -2.1326   -0.9733 H   0  0  0  0  0  0  0  0  0  0  0  0
    0.0051   -2.5324   -0.9504 H   0  0  0  0  0  0  0  0  0  0  0  0
   -3.8200   -2.5171    0.5402 H   0  0  0  0  0  0  0  0  0  0  0  0
   -4.0815   -1.9510   -1.1252 H   0  0  0  0  0  0  0  0  0  0  0  0
   -6.1088   -1.9612    1.1690 H   0  0  0  0  0  0  0  0  0  0  0  0
   -6.0941   -3.1087   -0.1712 H   0  0  0  0  0  0  0  0  0  0  0  0
   -8.5167   -1.8752    0.2352 H   0  0  0  0  0  0  0  0  0  0  0  0
   -8.7005   -0.3652   -0.6441 H   0  0  0  0  0  0  0  0  0  0  0  0
   -7.8642   -0.3708    0.9231 H   0  0  0  0  0  0  0  0  0  0  0  0
   -6.7916    0.8535   -1.3231 H   0  0  0  0  0  0  0  0  0  0  0  0
   -5.5302   -0.1315   -2.0129 H   0  0  0  0  0  0  0  0  0  0  0  0
   -4.5581    1.4799   -0.5021 H   0  0  0  0  0  0  0  0  0  0  0  0
   -5.5729    0.9523    0.8478 H   0  0  0  0  0  0  0  0  0  0  0  0
   -3.0376    1.8278    1.3147 H   0  0  0  0  0  0  0  0  0  0  0  0
   -1.4068    3.3876    1.8503 H   0  0  0  0  0  0  0  0  0  0  0  0
    0.1073    2.6612    2.3956 H   0  0  0  0  0  0  0  0  0  0  0  0
   -0.0105    3.4049    0.7719 H   0  0  0  0  0  0  0  0  0  0  0  0
    1.7974    1.7205    0.8102 H   0  0  0  0  0  0  0  0  0  0  0  0
  1  2  2  0
  2  3  1  0
  3  4  2  0
  3  5  1  0
  5  6  1  0
  6  7  2  3
  7  8  1  0
  8  9  1  0
  7 10  1  0
 10 11  2  0
 11 12  1  0
 12 13  2  0
 13 14  1  0
 14 15  2  0
 15 16  1  0
 16 17  1  0
 17 18  1  0
 18 19  1  0
 19 20  1  0
 19 21  1  0
 21 22  1  0
 15 23  1  0
 23 24  2  0
 24 25  1  0
 24 26  1  0
 26 27  2  0
 27 10  1  0
 26 13  1  0
 22 16  1  0
  1 28  1  0
  1 29  1  0
  2 30  1  0
  5 31  1  0
  6 32  1  0
  8 33  1  0
  8 34  1  0
  9 35  1  0
  9 36  1  0
  9 37  1  0
 11 38  1  0
 12 39  1  0
 17 40  1  0
 17 41  1  0
 18 42  1  0
 18 43  1  0
 20 44  1  0
 20 45  1  0
 20 46  1  0
 21 47  1  0
 21 48  1  0
 22 49  1  0
 22 50  1  0
 23 51  1  0
 25 52  1  0
 25 53  1  0
 25 54  1  0
 27 55  1  0
M  END
$$$$
