REMARK SMILES Cc1c(C(C#N)=Cc2ccccn2)cccc1-c1ccc(CO)cc1F
REMARK SMILES IDX 1 1 2 2 3 3 14 4 15 5 16 6 17 7 4 8 5 9 6 10 7 11 8 12 9 13
REMARK SMILES IDX 13 14 10 15 12 16 11 17 18 18 19 19 25 20 20 21 24 22 21 23
REMARK SMILES IDX 26 24 22 25 23 26
REMARK H PARENT 23 27
ROOT
ATOM      1  C   UNL     1       0.110   0.575  -0.722  1.00  0.00     0.046 C 
ATOM      2  C   UNL     1       0.168  -0.605   0.223  1.00  0.00    -0.035 A 
ATOM      3  C   UNL     1      -0.984  -1.398   0.458  1.00  0.00    -0.004 A 
ATOM      4  C   UNL     1      -0.914  -2.499   1.328  1.00  0.00     0.010 A 
ATOM      5  C   UNL     1       0.281  -2.831   1.956  1.00  0.00     0.001 A 
ATOM      6  C   UNL     1       1.422  -2.072   1.712  1.00  0.00     0.009 A 
ATOM      7  C   UNL     1       1.393  -0.965   0.843  1.00  0.00    -0.012 A 
ENDROOT
BRANCH   3   8
ATOM      8  C   UNL     1      -2.291  -1.113  -0.178  1.00  0.00     0.062 C 
BRANCH   8   9
ATOM      9  C   UNL     1      -2.504  -1.603  -1.505  1.00  0.00     0.100 C 
ATOM     10  N   UNL     1      -2.599  -2.026  -2.583  1.00  0.00    -0.192 NA
ENDBRANCH   8   9
BRANCH   8  11
ATOM     11  C   UNL     1      -3.185  -0.406   0.544  1.00  0.00     0.048 C 
BRANCH  11  12
ATOM     12  C   UNL     1      -4.543   0.012   0.165  1.00  0.00     0.064 A 
ATOM     13  C   UNL     1      -5.293   0.813   1.023  1.00  0.00     0.028 A 
ATOM     14  N   UNL     1      -5.022  -0.412  -1.021  1.00  0.00    -0.257 NA
ATOM     15  C   UNL     1      -6.579   1.192   0.642  1.00  0.00     0.004 A 
ATOM     16  C   UNL     1      -6.271  -0.032  -1.370  1.00  0.00     0.111 A 
ATOM     17  C   UNL     1      -7.081   0.763  -0.579  1.00  0.00     0.020 A 
ENDBRANCH  11  12
ENDBRANCH   8  11
ENDBRANCH   3   8
BRANCH   7  18
ATOM     18  C   UNL     1       2.647  -0.235   0.601  1.00  0.00     0.018 A 
ATOM     19  C   UNL     1       3.351  -0.400  -0.602  1.00  0.00     0.012 A 
ATOM     20  C   UNL     1       3.187   0.631   1.560  1.00  0.00     0.131 A 
ATOM     21  C   UNL     1       4.546   0.290  -0.833  1.00  0.00     0.007 A 
ATOM     22  C   UNL     1       4.378   1.322   1.336  1.00  0.00     0.046 A 
ATOM     23  C   UNL     1       5.068   1.169   0.127  1.00  0.00    -0.020 A 
ATOM     24  F   UNL     1       2.558   0.816   2.732  1.00  0.00    -0.206 F 
BRANCH  23  25
ATOM     25  C   UNL     1       6.372   1.886  -0.096  1.00  0.00     0.191 C 
BRANCH  25  26
ATOM     26  O   UNL     1       6.507   2.266  -1.458  1.00  0.00    -0.392 OA
ATOM     27  H   UNL     1       7.348   2.746  -1.533  1.00  0.00     0.211 HD
ENDBRANCH  25  26
ENDBRANCH  23  25
ENDBRANCH   7  18
TORSDOF 7
