REMARK SMILES Cc1c(C(C#N)=Cc2ccccn2)cccc1-c1ccc(OCCN2CCNCC2)cc1
REMARK SMILES IDX 18 1 19 2 20 3 21 4 31 5 32 6 17 7 2 8 3 9 14 10 16 11 15 12
REMARK SMILES IDX 1 13 4 14 5 15 6 16 7 17 8 18 9 19 13 20 10 21 12 22 11 23
REMARK SMILES IDX 22 24 23 25 24 26 25 27 26 28 30 29 27 30 29 31 28 32
REMARK H PARENT 28 33
ROOT
ATOM      1  C   UNL     1       0.233  -1.697  -1.081  1.00  0.00    -0.018 A 
ATOM      2  C   UNL     1      -0.372  -0.911  -2.072  1.00  0.00     0.012 A 
ATOM      3  C   UNL     1      -1.761  -0.734  -2.106  1.00  0.00     0.047 A 
ATOM      4  C   UNL     1      -2.569  -1.344  -1.150  1.00  0.00     0.119 A 
ATOM      5  C   UNL     1      -1.974  -2.130  -0.161  1.00  0.00     0.047 A 
ATOM      6  C   UNL     1      -0.588  -2.308  -0.126  1.00  0.00     0.012 A 
ENDROOT
BRANCH   1   7
ATOM      7  C   UNL     1       1.692  -1.884  -1.053  1.00  0.00    -0.015 A 
ATOM      8  C   UNL     1       2.532  -1.209  -0.130  1.00  0.00    -0.035 A 
ATOM      9  C   UNL     1       3.922  -1.486  -0.131  1.00  0.00    -0.004 A 
ATOM     10  C   UNL     1       4.458  -2.389  -1.065  1.00  0.00     0.010 A 
ATOM     11  C   UNL     1       2.265  -2.780  -1.975  1.00  0.00     0.009 A 
ATOM     12  C   UNL     1       3.635  -3.028  -1.985  1.00  0.00     0.001 A 
ATOM     13  C   UNL     1       1.936  -0.255   0.881  1.00  0.00     0.046 C 
BRANCH   9  14
ATOM     14  C   UNL     1       4.861  -0.854   0.824  1.00  0.00     0.062 C 
BRANCH  14  15
ATOM     15  C   UNL     1       4.993  -1.451   2.118  1.00  0.00     0.100 C 
ATOM     16  N   UNL     1       5.045  -1.990   3.146  1.00  0.00    -0.192 NA
ENDBRANCH  14  15
BRANCH  14  17
ATOM     17  C   UNL     1       5.530   0.237   0.399  1.00  0.00     0.048 C 
BRANCH  17  18
ATOM     18  C   UNL     1       6.510   1.054   1.132  1.00  0.00     0.064 A 
ATOM     19  C   UNL     1       7.154   2.113   0.496  1.00  0.00     0.028 A 
ATOM     20  N   UNL     1       6.748   0.742   2.421  1.00  0.00    -0.257 NA
ATOM     21  C   UNL     1       8.077   2.872   1.214  1.00  0.00     0.004 A 
ATOM     22  C   UNL     1       7.646   1.491   3.098  1.00  0.00     0.111 A 
ATOM     23  C   UNL     1       8.330   2.556   2.542  1.00  0.00     0.020 A 
ENDBRANCH  17  18
ENDBRANCH  14  17
ENDBRANCH   9  14
ENDBRANCH   1   7
BRANCH   4  24
ATOM     24  O   UNL     1      -3.929  -1.257  -1.056  1.00  0.00    -0.492 OA
BRANCH  24  25
ATOM     25  C   UNL     1      -4.649  -0.522  -2.045  1.00  0.00     0.245 C 
BRANCH  25  26
ATOM     26  C   UNL     1      -4.715   0.992  -1.750  1.00  0.00     0.126 C 
BRANCH  26  27
ATOM     27  N   UNL     1      -5.522   1.469  -0.617  1.00  0.00    -0.297 NA
ATOM     28  C   UNL     1      -4.923   1.183   0.700  1.00  0.00     0.100 C 
ATOM     29  C   UNL     1      -6.926   1.038  -0.643  1.00  0.00     0.100 C 
ATOM     30  C   UNL     1      -5.853   1.562   1.885  1.00  0.00     0.096 C 
ATOM     31  C   UNL     1      -7.768   1.744   0.454  1.00  0.00     0.096 C 
ATOM     32  N   UNL     1      -6.970   2.440   1.485  1.00  0.00    -0.314 NA
ATOM     33  H   UNL     1      -6.534   3.233   1.007  1.00  0.00     0.122 HD
ENDBRANCH  26  27
ENDBRANCH  25  26
ENDBRANCH  24  25
ENDBRANCH   4  24
TORSDOF 9
