MODEL        8USER    Run = 8USERUSER    Estimated Free Energy of Binding    =  -9.65 kcal/mol  [=(1)+(2)+(3)-(4)]USERUSER    (1) Final Intermolecular Energy     = -11.44 kcal/molUSER        vdW + Hbond + desolv Energy     = -11.24 kcal/molUSER        Electrostatic Energy            =  -0.20 kcal/molUSER        Moving Ligand-Fixed Receptor    = -11.44 kcal/molUSER        Moving Ligand-Moving Receptor   =  +0.00 kcal/molUSER    (2) Final Total Internal Energy     =  -0.58 kcal/molUSER    (3) Torsional Free Energy           =  +1.79 kcal/molUSER    (4) Unbound System's Energy         =  -0.58 kcal/molUSERUSERREMARK SMILES COc1ccc(-c2cccc(C(C#N)=Cc3ccccn3)c2C)cc1REMARK SMILES IDX 7 1 8 2 9 3 10 4 11 5 22 6 23 7 6 8 3 9 4 10 25 11 5 12REMARK SMILES IDX 24 13 2 14 1 15 12 16 13 17 14 18 15 19 16 20 17 21 21 22REMARK SMILES IDX 18 23 20 24 19 25REMARK H PARENTUSER                              x       y       z     vdW  Elec       q    TypeUSER                           _______ _______ _______ _____ _____    ______ ____ROOTATOM      1  C   UNL     1      38.268  44.997  18.805 -0.37 +0.00    -0.015 A  ATOM      2  C   UNL     1      39.329  44.812  19.711 -0.38 -0.00    +0.009 A  ATOM      3  C   UNL     1      40.593  45.339  19.461 -0.43 +0.00    +0.001 A  ATOM      4  C   UNL     1      40.816  46.071  18.301 -0.49 -0.00    +0.010 A  ATOM      5  C   UNL     1      39.783  46.274  17.371 -0.46 +0.00    -0.004 A  ATOM      6  C   UNL     1      38.500  45.718  17.606 -0.37 +0.01    -0.035 A  ATOM      7  C   UNL     1      37.371  45.942  16.623 -0.39 -0.02    +0.046 C  ENDROOTBRANCH   1   8ATOM      8  C   UNL     1      36.951  44.441  19.154 -0.35 +0.00    -0.018 A  ATOM      9  C   UNL     1      34.428  43.373  19.838 -0.32 -0.00    +0.118 A  ATOM     10  C   UNL     1      35.595  42.688  20.175 -0.43 -0.00    +0.047 A  ATOM     11  C   UNL     1      34.525  44.592  19.163 -0.36 -0.01    +0.047 A  ATOM     12  C   UNL     1      36.846  43.220  19.837 -0.34 -0.00    +0.012 A  ATOM     13  C   UNL     1      35.773  45.122  18.825 -0.26 -0.00    +0.012 A  BRANCH   9  14ATOM     14  O   UNL     1      33.150  42.969  20.108 -0.63 -0.10    -0.497 OA ATOM     15  C   UNL     1      32.170  43.232  19.113 -0.24 -0.02    +0.278 C  ENDBRANCH   9  14ENDBRANCH   1   8BRANCH   5  16ATOM     16  C   UNL     1      40.096  47.075  16.164 -0.51 -0.01    +0.062 C  BRANCH  16  17ATOM     17  C   UNL     1      40.780  48.318  16.353 -0.55 -0.02    +0.100 C  ATOM     18  N   UNL     1      41.394  49.299  16.457 -1.04 -0.00    -0.192 NA ENDBRANCH  16  17BRANCH  16  19ATOM     19  C   UNL     1      39.708  46.574  14.974 -0.48 -0.01    +0.048 C  BRANCH  19  20ATOM     20  C   UNL     1      38.538  46.943  14.162 -0.41 -0.02    +0.064 A  ATOM     21  C   UNL     1      38.020  48.234  14.228 -0.52 -0.01    +0.028 A  ATOM     22  N   UNL     1      37.997  45.994  13.373 -0.20 +0.07    -0.257 NA ATOM     23  C   UNL     1      36.910  48.557  13.449 -0.52 -0.00    +0.004 A  ATOM     24  C   UNL     1      36.922  46.329  12.627 -0.52 -0.04    +0.111 A  ATOM     25  C   UNL     1      36.347  47.587  12.631 -0.66 -0.01    +0.020 A  ENDBRANCH  19  20ENDBRANCH  16  19ENDBRANCH   5  16TORSDOF 6TERENDMDL