MODEL        10USER    Run = 10USERUSER    Estimated Free Energy of Binding    =  -9.56 kcal/mol  [=(1)+(2)+(3)-(4)]USERUSER    (1) Final Intermolecular Energy     = -11.65 kcal/molUSER        vdW + Hbond + desolv Energy     = -11.49 kcal/molUSER        Electrostatic Energy            =  -0.16 kcal/molUSER        Moving Ligand-Fixed Receptor    = -11.65 kcal/molUSER        Moving Ligand-Moving Receptor   =  +0.00 kcal/molUSER    (2) Final Total Internal Energy     =  -0.77 kcal/molUSER    (3) Torsional Free Energy           =  +2.09 kcal/molUSER    (4) Unbound System's Energy         =  -0.77 kcal/molUSERUSERREMARK SMILES Cc1c(C(C#N)=Cc2ccccn2)cccc1-c1ccc(CO)cc1FREMARK SMILES IDX 1 1 2 2 3 3 14 4 15 5 16 6 17 7 4 8 5 9 6 10 7 11 8 12 9 13REMARK SMILES IDX 13 14 10 15 12 16 11 17 18 18 19 19 25 20 20 21 24 22 21 23REMARK SMILES IDX 26 24 22 25 23 26REMARK H PARENT 23 27USER                              x       y       z     vdW  Elec       q    TypeUSER                           _______ _______ _______ _____ _____    ______ ____ROOTATOM      1  C   UNL     1      37.167  46.640  16.170 -0.42 -0.03    +0.046 C  ATOM      2  C   UNL     1      38.339  45.996  16.876 -0.37 +0.01    -0.035 A  ATOM      3  C   UNL     1      39.666  46.409  16.595 -0.45 +0.00    -0.004 A  ATOM      4  C   UNL     1      40.746  45.811  17.266 -0.41 -0.00    +0.010 A  ATOM      5  C   UNL     1      40.528  44.822  18.218 -0.37 -0.00    +0.001 A  ATOM      6  C   UNL     1      39.227  44.427  18.517 -0.36 -0.00    +0.009 A  ATOM      7  C   UNL     1      38.119  45.006  17.869 -0.37 +0.00    -0.012 A  ENDROOTBRANCH   3   8ATOM      8  C   UNL     1      39.980  47.461  15.600 -0.53 -0.01    +0.062 C  BRANCH   8   9ATOM      9  C   UNL     1      40.541  48.685  16.082 -0.58 -0.02    +0.100 C  ATOM     10  N   UNL     1      41.066  49.658  16.438 -0.77 +0.03    -0.192 NA ENDBRANCH   8   9BRANCH   8  11ATOM     11  C   UNL     1      39.708  47.185  14.307 -0.35 -0.01    +0.048 C  BRANCH  11  12ATOM     12  C   UNL     1      38.397  47.028  13.660 -0.38 -0.02    +0.064 A  ATOM     13  C   UNL     1      37.884  45.755  13.420 -0.28 -0.01    +0.028 A  ATOM     14  N   UNL     1      37.731  48.146  13.311 -0.73 +0.07    -0.257 NA ATOM     15  C   UNL     1      36.640  45.633  12.802 -0.55 -0.00    +0.004 A  ATOM     16  C   UNL     1      36.527  48.004  12.713 -0.54 -0.05    +0.111 A  ATOM     17  C   UNL     1      35.945  46.779  12.440 -0.63 -0.01    +0.020 A  ENDBRANCH  11  12ENDBRANCH   8  11ENDBRANCH   3   8BRANCH   7  18ATOM     18  C   UNL     1      36.772  44.569  18.266 -0.33 -0.00    +0.018 A  ATOM     19  C   UNL     1      35.804  44.263  17.297 -0.30 -0.00    +0.012 A  ATOM     20  C   UNL     1      36.406  44.458  19.613 -0.25 -0.02    +0.131 A  ATOM     21  C   UNL     1      34.521  43.851  17.672 -0.30 -0.00    +0.007 A  ATOM     22  C   UNL     1      35.128  44.047  19.994 -0.34 -0.00    +0.046 A  ATOM     23  C   UNL     1      34.170  43.725  19.024 -0.37 +0.00    -0.020 A  ATOM     24  F   UNL     1      37.292  44.748  20.580 -0.10 +0.00    -0.206 F  BRANCH  23  25ATOM     25  C   UNL     1      32.781  43.320  19.437 -0.35 -0.01    +0.191 C  BRANCH  25  26ATOM     26  O   UNL     1      32.390  44.007  20.617 -0.66 -0.03    -0.392 OA ATOM     27  H   UNL     1      32.787  44.893  20.570 -0.39 -0.06    +0.211 HD ENDBRANCH  25  26ENDBRANCH  23  25ENDBRANCH   7  18TORSDOF 7TERENDMDL