MODEL        8USER    Run = 8USERUSER    Estimated Free Energy of Binding    = -10.03 kcal/mol  [=(1)+(2)+(3)-(4)]USERUSER    (1) Final Intermolecular Energy     = -12.12 kcal/molUSER        vdW + Hbond + desolv Energy     = -11.93 kcal/molUSER        Electrostatic Energy            =  -0.19 kcal/molUSER        Moving Ligand-Fixed Receptor    = -12.12 kcal/molUSER        Moving Ligand-Moving Receptor   =  +0.00 kcal/molUSER    (2) Final Total Internal Energy     =  -1.06 kcal/molUSER    (3) Torsional Free Energy           =  +2.09 kcal/molUSER    (4) Unbound System's Energy         =  -1.06 kcal/molUSERUSERREMARK SMILES Cc1c(C(=Cc2ccccn2)C(N)=O)cccc1-c1ccc(CO)cc1REMARK SMILES IDX 1 1 2 2 3 3 15 4 16 5 17 6 18 7 4 8 5 9 6 10 7 11 11 12 8 13REMARK SMILES IDX 10 14 9 15 12 16 13 17 14 18 19 21 20 22 26 23 21 24 25 25REMARK SMILES IDX 22 26 23 27 24 28REMARK H PARENT 13 19 13 20 24 29USER                              x       y       z     vdW  Elec       q    TypeUSER                           _______ _______ _______ _____ _____    ______ ____ROOTATOM      1  C   UNL     1      37.983  46.231  17.940 -0.23 -0.01    +0.045 C  ATOM      2  C   UNL     1      37.644  46.578  16.508 -0.36 +0.02    -0.035 A  ATOM      3  C   UNL     1      38.607  47.191  15.669 -0.44 +0.00    -0.009 A  ATOM      4  C   UNL     1      38.279  47.510  14.339 -0.49 -0.00    +0.009 A  ATOM      5  C   UNL     1      37.021  47.213  13.829 -0.52 -0.00    +0.001 A  ATOM      6  C   UNL     1      36.080  46.584  14.639 -0.41 -0.01    +0.009 A  ATOM      7  C   UNL     1      36.371  46.250  15.975 -0.36 +0.01    -0.015 A  ENDROOTBRANCH   3   8ATOM      8  C   UNL     1      39.982  47.495  16.135 -0.55 -0.01    +0.049 C  BRANCH   8   9ATOM      9  C   UNL     1      40.686  46.458  16.634 -0.46 -0.00    +0.042 C  BRANCH   9  10ATOM     10  C   UNL     1      41.245  46.274  17.973 -0.44 -0.00    +0.064 A  ATOM     11  C   UNL     1      40.885  45.216  18.799 -0.43 +0.00    +0.028 A  ATOM     12  N   UNL     1      42.047  47.286  18.384 -0.38 +0.00    -0.257 NA ATOM     13  C   UNL     1      41.410  45.163  20.088 -0.38 +0.00    +0.004 A  ATOM     14  C   UNL     1      42.547  47.203  19.638 -0.40 +0.02    +0.111 A  ATOM     15  C   UNL     1      42.261  46.173  20.517 -0.35 +0.00    +0.020 A  ENDBRANCH   9  10ENDBRANCH   8   9BRANCH   8  16ATOM     16  C   UNL     1      40.514  48.899  16.061 -0.44 -0.06    +0.249 C  ATOM     17  N   UNL     1      39.599  49.854  15.727 -0.05 +0.22    -0.366 N  ATOM     18  O   UNL     1      41.680  49.214  16.258 -1.01 -0.03    -0.270 OA ATOM     19  H   UNL     1      39.920  50.810  15.681 -0.42 -0.11    +0.159 HD ATOM     20  H   UNL     1      38.621  49.658  15.567 -0.23 -0.13    +0.159 HD ENDBRANCH   8  16ENDBRANCH   3   8BRANCH   7  21ATOM     21  C   UNL     1      35.335  45.565  16.763 -0.33 +0.01    -0.018 A  ATOM     22  C   UNL     1      35.039  44.214  16.535 -0.32 -0.00    +0.009 A  ATOM     23  C   UNL     1      34.629  46.243  17.765 -0.45 -0.01    +0.009 A  ATOM     24  C   UNL     1      34.053  43.561  17.283 -0.32 -0.00    +0.007 A  ATOM     25  C   UNL     1      33.645  45.590  18.514 -0.46 -0.00    +0.007 A  ATOM     26  C   UNL     1      33.336  44.245  18.274 -0.34 +0.01    -0.023 A  BRANCH  26  27ATOM     27  C   UNL     1      32.306  43.515  19.096 -0.32 -0.01    +0.191 C  BRANCH  27  28ATOM     28  O   UNL     1      32.472  43.786  20.481 -0.72 -0.04    -0.392 OA ATOM     29  H   UNL     1      32.792  44.700  20.549 -0.34 -0.04    +0.211 HD ENDBRANCH  27  28ENDBRANCH  26  27ENDBRANCH   7  21TORSDOF 7TERENDMDL