MODEL        7USER    Run = 7USERUSER    Estimated Free Energy of Binding    =  -7.62 kcal/mol  [=(1)+(2)+(3)-(4)]USERUSER    (1) Final Intermolecular Energy     =  -9.41 kcal/molUSER        vdW + Hbond + desolv Energy     =  -9.28 kcal/molUSER        Electrostatic Energy            =  -0.13 kcal/molUSER        Moving Ligand-Fixed Receptor    =  -9.41 kcal/molUSER        Moving Ligand-Moving Receptor   =  +0.00 kcal/molUSER    (2) Final Total Internal Energy     =  -0.94 kcal/molUSER    (3) Torsional Free Energy           =  +1.79 kcal/molUSER    (4) Unbound System's Energy         =  -0.94 kcal/molUSERUSERREMARK SMILES C#Cc1cc(NC2CC2)nn1Cc1ccccc1OCREMARK SMILES IDX 12 1 11 2 3 3 4 4 5 5 10 6 2 7 1 8 6 9 7 11 8 12 9 13 13 14REMARK SMILES IDX 14 15 18 16 15 17 17 18 16 19 19 20 20 21REMARK H PARENT 6 10USER                              x       y       z     vdW  Elec       q    TypeUSER                           _______ _______ _______ _____ _____    ______ ____ROOTATOM      1  C   UNL     1      39.460  46.192  14.457 -0.28 -0.03    +0.185 C  ENDROOTBRANCH   1   2ATOM      2  N   UNL     1      40.124  47.321  15.102 -0.30 +0.04    -0.250 N  ATOM      3  C   UNL     1      40.494  47.431  16.417 -0.43 -0.02    +0.113 A  ATOM      4  C   UNL     1      41.050  48.685  16.539 -0.47 -0.01    +0.085 A  ATOM      5  C   UNL     1      40.963  49.264  15.254 -0.52 -0.03    +0.149 A  ATOM      6  N   UNL     1      40.388  48.436  14.381 -0.38 +0.03    -0.154 NA BRANCH   3   7ATOM      7  C   UNL     1      40.333  46.452  17.432 -0.51 +0.01    -0.051 C  ATOM      8  C   UNL     1      40.203  45.625  18.293 -0.51 -0.00    +0.011 C  ENDBRANCH   3   7BRANCH   5   9ATOM      9  N   UNL     1      41.382  50.502  14.911 -0.34 +0.11    -0.366 N  ATOM     10  H   UNL     1      40.633  51.185  14.856 -0.32 -0.10    +0.162 HD BRANCH   9  11ATOM     11  C   UNL     1      42.523  50.679  14.017 -0.65 -0.02    +0.080 C  ATOM     12  C   UNL     1      42.339  50.837  12.534 -0.58 -0.01    +0.027 C  ATOM     13  C   UNL     1      42.921  49.568  13.084 -0.64 -0.01    +0.027 C  ENDBRANCH   9  11ENDBRANCH   5   9ENDBRANCH   1   2BRANCH   1  14ATOM     14  C   UNL     1      37.965  46.209  14.682 -0.40 -0.01    +0.016 A  ATOM     15  C   UNL     1      37.434  45.581  15.826 -0.35 -0.00    +0.009 A  ATOM     16  C   UNL     1      37.088  46.818  13.766 -0.40 -0.06    +0.123 A  ATOM     17  C   UNL     1      36.062  45.572  16.064 -0.35 -0.00    +0.001 A  ATOM     18  C   UNL     1      35.710  46.801  14.014 -0.41 -0.04    +0.047 A  ATOM     19  C   UNL     1      35.201  46.183  15.159 -0.32 -0.00    +0.004 A  BRANCH  16  20ATOM     20  O   UNL     1      37.669  47.387  12.663 -0.78 +0.09    -0.496 OA ATOM     21  C   UNL     1      37.281  46.892  11.388 -0.34 -0.08    +0.278 C  ENDBRANCH  16  20ENDBRANCH   1  14TORSDOF 6TERENDMDL