MODEL        4USER    Run = 4USERUSER    Estimated Free Energy of Binding    =  -7.66 kcal/mol  [=(1)+(2)+(3)-(4)]USERUSER    (1) Final Intermolecular Energy     =  -9.15 kcal/molUSER        vdW + Hbond + desolv Energy     =  -9.14 kcal/molUSER        Electrostatic Energy            =  -0.01 kcal/molUSER        Moving Ligand-Fixed Receptor    =  -9.15 kcal/molUSER        Moving Ligand-Moving Receptor   =  +0.00 kcal/molUSER    (2) Final Total Internal Energy     =  -0.76 kcal/molUSER    (3) Torsional Free Energy           =  +1.49 kcal/molUSER    (4) Unbound System's Energy         =  -0.76 kcal/molUSERUSERREMARK SMILES C#Cc1cc(NC2CC2)nn1Cc1ccccc1FREMARK SMILES IDX 3 1 4 2 5 3 10 4 11 5 2 6 1 7 12 8 13 9 14 10 18 11 15 12REMARK SMILES IDX 17 13 16 14 19 15 6 16 7 18 8 19 9 20REMARK H PARENT 6 17USER                              x       y       z     vdW  Elec       q    TypeUSER                           _______ _______ _______ _____ _____    ______ ____ROOTATOM      1  C   UNL     1      39.982  47.473  16.838 -0.41 -0.03    +0.113 A  ATOM      2  C   UNL     1      41.060  48.293  16.597 -0.47 -0.01    +0.085 A  ATOM      3  C   UNL     1      40.600  49.285  15.694 -0.50 -0.04    +0.149 A  ATOM      4  N   UNL     1      39.313  49.095  15.403 -0.38 +0.08    -0.154 NA ATOM      5  N   UNL     1      38.962  47.983  16.080 -0.29 +0.11    -0.250 N  ENDROOTBRANCH   1   6ATOM      6  C   UNL     1      39.931  46.335  17.687 -0.49 +0.01    -0.051 C  ATOM      7  C   UNL     1      39.887  45.377  18.409 -0.50 -0.00    +0.011 C  ENDBRANCH   1   6BRANCH   5   8ATOM      8  C   UNL     1      37.593  47.493  15.987 -0.30 -0.12    +0.184 C  BRANCH   8   9ATOM      9  C   UNL     1      37.226  47.126  14.574 -0.44 -0.01    +0.009 A  ATOM     10  C   UNL     1      36.850  48.102  13.638 -0.57 -0.00    +0.008 A  ATOM     11  C   UNL     1      37.244  45.788  14.168 -0.33 -0.05    +0.128 A  ATOM     12  C   UNL     1      36.499  47.736  12.335 -0.68 -0.00    +0.001 A  ATOM     13  C   UNL     1      36.896  45.419  12.872 -0.50 -0.01    +0.039 A  ATOM     14  C   UNL     1      36.521  46.396  11.953 -0.68 -0.00    +0.003 A  ATOM     15  F   UNL     1      37.620  44.831  15.029 -0.08 +0.07    -0.207 F  ENDBRANCH   8   9ENDBRANCH   5   8BRANCH   3  16ATOM     16  N   UNL     1      41.427  50.261  15.251 -0.38 +0.08    -0.366 N  ATOM     17  H   UNL     1      41.465  51.124  15.782 -0.40 -0.06    +0.162 HD BRANCH  16  18ATOM     18  C   UNL     1      42.451  50.099  14.215 -0.63 -0.01    +0.080 C  ATOM     19  C   UNL     1      43.183  51.226  13.546 -0.42 -0.01    +0.027 C  ATOM     20  C   UNL     1      42.220  50.378  12.758 -0.68 -0.01    +0.027 C  ENDBRANCH  16  18ENDBRANCH   3  16TORSDOF 5TERENDMDL