REMARK SMILES C#Cc1cc(NC2CC2)nn1Cc1ccccc1OC
REMARK SMILES IDX 12 1 11 2 3 3 4 4 5 5 10 6 2 7 1 8 6 9 7 11 8 12 9 13 13 14
REMARK SMILES IDX 14 15 18 16 15 17 17 18 16 19 19 20 20 21
REMARK H PARENT 6 10
ROOT
ATOM      1  C   UNL     1       1.072  -1.254  -1.076  1.00  0.00     0.185 C 
ENDROOT
BRANCH   1   2
ATOM      2  N   UNL     1      -0.250  -0.791  -0.666  1.00  0.00    -0.250 N 
ATOM      3  C   UNL     1      -0.786  -0.806   0.595  1.00  0.00     0.113 A 
ATOM      4  C   UNL     1      -2.058  -0.298   0.461  1.00  0.00     0.085 A 
ATOM      5  C   UNL     1      -2.209  -0.014  -0.914  1.00  0.00     0.149 A 
ATOM      6  N   UNL     1      -1.110  -0.325  -1.603  1.00  0.00    -0.154 NA
BRANCH   3   7
ATOM      7  C   UNL     1      -0.153  -1.255   1.784  1.00  0.00    -0.051 C 
ATOM      8  C   UNL     1       0.377  -1.633   2.793  1.00  0.00     0.011 C 
ENDBRANCH   3   7
BRANCH   5   9
ATOM      9  N   UNL     1      -3.313   0.495  -1.504  1.00  0.00    -0.366 N 
ATOM     10  H   UNL     1      -3.172   0.758  -2.475  1.00  0.00     0.162 HD
BRANCH   9  11
ATOM     11  C   UNL     1      -4.281   1.267  -0.730  1.00  0.00     0.080 C 
ATOM     12  C   UNL     1      -5.415   0.598  -0.005  1.00  0.00     0.027 C 
ATOM     13  C   UNL     1      -5.691   1.416  -1.232  1.00  0.00     0.027 C 
ENDBRANCH   9  11
ENDBRANCH   5   9
ENDBRANCH   1   2
BRANCH   1  14
ATOM     14  C   UNL     1       2.144  -0.221  -0.808  1.00  0.00     0.016 A 
ATOM     15  C   UNL     1       2.083   1.021  -1.470  1.00  0.00     0.009 A 
ATOM     16  C   UNL     1       3.212  -0.477   0.071  1.00  0.00     0.123 A 
ATOM     17  C   UNL     1       3.054   1.995  -1.252  1.00  0.00     0.001 A 
ATOM     18  C   UNL     1       4.184   0.508   0.281  1.00  0.00     0.047 A 
ATOM     19  C   UNL     1       4.103   1.739  -0.376  1.00  0.00     0.004 A 
BRANCH  16  20
ATOM     20  O   UNL     1       3.223  -1.714   0.661  1.00  0.00    -0.496 OA
ATOM     21  C   UNL     1       4.234  -1.971   1.627  1.00  0.00     0.278 C 
ENDBRANCH  16  20
ENDBRANCH   1  14
TORSDOF 6
