REMARK SMILES C#Cc1cc(NC2CC2)nn1Cc1ccccc1F
REMARK SMILES IDX 3 1 4 2 5 3 10 4 11 5 2 6 1 7 12 8 13 9 14 10 18 11 15 12
REMARK SMILES IDX 17 13 16 14 19 15 6 16 7 18 8 19 9 20
REMARK H PARENT 6 17
ROOT
ATOM      1  C   UNL     1       0.037  -1.480   1.807  1.00  0.00     0.113 A 
ATOM      2  C   UNL     1       1.264  -1.964   1.416  1.00  0.00     0.085 A 
ATOM      3  C   UNL     1       1.869  -0.926   0.663  1.00  0.00     0.149 A 
ATOM      4  N   UNL     1       1.069   0.139   0.602  1.00  0.00    -0.154 NA
ATOM      5  N   UNL     1      -0.043  -0.221   1.275  1.00  0.00    -0.250 N 
ENDROOT
BRANCH   1   6
ATOM      6  C   UNL     1      -0.945  -2.140   2.593  1.00  0.00    -0.051 C 
ATOM      7  C   UNL     1      -1.771  -2.701   3.259  1.00  0.00     0.011 C 
ENDBRANCH   1   6
BRANCH   5   8
ATOM      8  C   UNL     1      -1.136   0.733   1.408  1.00  0.00     0.184 C 
BRANCH   8   9
ATOM      9  C   UNL     1      -2.001   0.767   0.177  1.00  0.00     0.009 A 
ATOM     10  C   UNL     1      -2.908  -0.265  -0.110  1.00  0.00     0.008 A 
ATOM     11  C   UNL     1      -1.907   1.836  -0.719  1.00  0.00     0.128 A 
ATOM     12  C   UNL     1      -3.691  -0.220  -1.267  1.00  0.00     0.001 A 
ATOM     13  C   UNL     1      -2.685   1.887  -1.872  1.00  0.00     0.039 A 
ATOM     14  C   UNL     1      -3.579   0.855  -2.148  1.00  0.00     0.003 A 
ATOM     15  F   UNL     1      -1.068   2.851  -0.466  1.00  0.00    -0.207 F 
ENDBRANCH   8   9
ENDBRANCH   5   8
BRANCH   3  16
ATOM     16  N   UNL     1       3.102  -1.083   0.126  1.00  0.00    -0.366 N 
ATOM     17  H   UNL     1       3.540  -1.994   0.209  1.00  0.00     0.162 HD
BRANCH  16  18
ATOM     18  C   UNL     1       3.763  -0.133  -0.773  1.00  0.00     0.080 C 
ATOM     19  C   UNL     1       3.656   1.361  -0.675  1.00  0.00     0.027 C 
ATOM     20  C   UNL     1       3.051   0.637  -1.848  1.00  0.00     0.027 C 
ENDBRANCH  16  18
ENDBRANCH   3  16
TORSDOF 5
