REMARK SMILES COc1ccc(-c2cccc(C(C#N)=Cc3ccccn3)c2C)cc1
REMARK SMILES IDX 7 1 8 2 9 3 10 4 11 5 22 6 23 7 6 8 3 9 4 10 25 11 5 12
REMARK SMILES IDX 24 13 2 14 1 15 12 16 13 17 14 18 15 19 16 20 17 21 21 22
REMARK SMILES IDX 18 23 20 24 19 25
REMARK H PARENT
ROOT
ATOM      1  C   UNL     1      -1.302  -0.819  -0.767  1.00  0.00    -0.015 A 
ATOM      2  C   UNL     1      -1.274  -1.361  -2.066  1.00  0.00     0.009 A 
ATOM      3  C   UNL     1      -0.076  -1.730  -2.670  1.00  0.00     0.001 A 
ATOM      4  C   UNL     1       1.120  -1.571  -1.980  1.00  0.00     0.010 A 
ATOM      5  C   UNL     1       1.133  -1.030  -0.683  1.00  0.00    -0.004 A 
ATOM      6  C   UNL     1      -0.081  -0.628  -0.071  1.00  0.00    -0.035 A 
ATOM      7  C   UNL     1      -0.086  -0.060   1.331  1.00  0.00     0.046 C 
ENDROOT
BRANCH   1   8
ATOM      8  C   UNL     1      -2.610  -0.486  -0.181  1.00  0.00    -0.018 A 
ATOM      9  C   UNL     1      -5.126   0.152   0.931  1.00  0.00     0.118 A 
ATOM     10  C   UNL     1      -4.551   0.984  -0.029  1.00  0.00     0.047 A 
ATOM     11  C   UNL     1      -4.443  -0.999   1.331  1.00  0.00     0.047 A 
ATOM     12  C   UNL     1      -3.304   0.665  -0.581  1.00  0.00     0.012 A 
ATOM     13  C   UNL     1      -3.199  -1.317   0.780  1.00  0.00     0.012 A 
BRANCH   9  14
ATOM     14  O   UNL     1      -6.331   0.345   1.547  1.00  0.00    -0.497 OA
ATOM     15  C   UNL     1      -7.064   1.505   1.176  1.00  0.00     0.278 C 
ENDBRANCH   9  14
ENDBRANCH   1   8
BRANCH   5  16
ATOM     16  C   UNL     1       2.446  -0.904  -0.008  1.00  0.00     0.062 C 
BRANCH  16  17
ATOM     17  C   UNL     1       2.820  -1.934   0.913  1.00  0.00     0.100 C 
ATOM     18  N   UNL     1       3.050  -2.803   1.649  1.00  0.00    -0.192 NA
ENDBRANCH  16  17
BRANCH  16  19
ATOM     19  C   UNL     1       3.192   0.178  -0.310  1.00  0.00     0.048 C 
BRANCH  19  20
ATOM     20  C   UNL     1       4.520   0.548   0.204  1.00  0.00     0.064 A 
ATOM     21  C   UNL     1       5.111   1.748  -0.185  1.00  0.00     0.028 A 
ATOM     22  N   UNL     1       5.129  -0.310   1.045  1.00  0.00    -0.257 NA
ATOM     23  C   UNL     1       6.370   2.074   0.315  1.00  0.00     0.004 A 
ATOM     24  C   UNL     1       6.349   0.026   1.518  1.00  0.00     0.111 A 
ATOM     25  C   UNL     1       7.005   1.197   1.185  1.00  0.00     0.020 A 
ENDBRANCH  19  20
ENDBRANCH  16  19
ENDBRANCH   5  16
TORSDOF 6
