MODEL        7USER    Run = 7USERUSER    Estimated Free Energy of Binding    =  -7.70 kcal/mol  [=(1)+(2)+(3)-(4)]USERUSER    (1) Final Intermolecular Energy     =  -9.49 kcal/molUSER        vdW + Hbond + desolv Energy     =  -9.46 kcal/molUSER        Electrostatic Energy            =  -0.03 kcal/molUSER        Moving Ligand-Fixed Receptor    =  -9.49 kcal/molUSER        Moving Ligand-Moving Receptor   =  +0.00 kcal/molUSER    (2) Final Total Internal Energy     =  -1.17 kcal/molUSER    (3) Torsional Free Energy           =  +1.79 kcal/molUSER    (4) Unbound System's Energy         =  -1.17 kcal/molUSERUSERREMARK SMILES C#Cc1cc(NC2CC2)nn1Cc1ccccc1C(F)(F)FREMARK SMILES IDX 12 1 11 2 3 3 4 4 5 5 10 6 2 7 1 8 6 9 7 11 8 12 9 13 13 14REMARK SMILES IDX 14 15 18 16 15 17 17 18 16 19 19 20 20 21 21 22 22 23REMARK H PARENT 6 10USER                              x       y       z     vdW  Elec       q    TypeUSER                           _______ _______ _______ _____ _____    ______ ____ROOTATOM      1  C   UNL     1      37.565  47.765  16.003 -0.24 -0.13    +0.181 C  ENDROOTBRANCH   1   2ATOM      2  N   UNL     1      38.978  48.137  16.076 -0.30 +0.12    -0.250 N  ATOM      3  C   UNL     1      39.961  47.520  16.805 -0.41 -0.03    +0.113 A  ATOM      4  C   UNL     1      41.103  48.253  16.572 -0.45 -0.01    +0.085 A  ATOM      5  C   UNL     1      40.714  49.292  15.697 -0.51 -0.04    +0.149 A  ATOM      6  N   UNL     1      39.416  49.221  15.399 -0.37 +0.09    -0.154 NA BRANCH   3   7ATOM      7  C   UNL     1      39.816  46.369  17.623 -0.49 +0.01    -0.051 C  ATOM      8  C   UNL     1      39.695  45.397  18.315 -0.49 -0.00    +0.011 C  ENDBRANCH   3   7BRANCH   5   9ATOM      9  N   UNL     1      41.516  50.262  15.208 -0.38 +0.08    -0.366 N  ATOM     10  H   UNL     1      41.510  51.117  15.754 -0.39 -0.06    +0.162 HD BRANCH   9  11ATOM     11  C   UNL     1      41.758  50.377  13.772 -0.60 -0.02    +0.080 C  ATOM     12  C   UNL     1      42.882  49.634  13.106 -0.67 -0.01    +0.027 C  ATOM     13  C   UNL     1      42.968  51.121  13.276 -0.58 -0.01    +0.027 C  ENDBRANCH   9  11ENDBRANCH   5   9ENDBRANCH   1   2BRANCH   1  14ATOM     14  C   UNL     1      37.133  47.337  14.611 -0.45 +0.01    -0.014 A  ATOM     15  C   UNL     1      36.958  48.312  13.607 -0.57 -0.00    +0.006 A  ATOM     16  C   UNL     1      36.829  45.987  14.304 -0.37 -0.03    +0.061 A  ATOM     17  C   UNL     1      36.545  47.961  12.322 -0.59 -0.00    +0.000 A  ATOM     18  C   UNL     1      36.419  45.654  12.997 -0.51 -0.01    +0.013 A  ATOM     19  C   UNL     1      36.283  46.633  12.014 -0.69 -0.00    +0.001 A  BRANCH  16  20ATOM     20  C   UNL     1      36.926  44.886  15.338 -0.13 -0.16    +0.416 C  ATOM     21  F   UNL     1      36.141  45.120  16.425 -0.06 +0.08    -0.166 F  ATOM     22  F   UNL     1      36.535  43.676  14.847 -0.15 +0.06    -0.166 F  ATOM     23  F   UNL     1      38.185  44.695  15.825 -0.06 +0.04    -0.166 F  ENDBRANCH  16  20ENDBRANCH   1  14TORSDOF 6TERENDMDL