REMARK SMILES C#Cc1cc(NC2CC2)nn1Cc1ccccc1C(F)(F)F
REMARK SMILES IDX 12 1 11 2 3 3 4 4 5 5 10 6 2 7 1 8 6 9 7 11 8 12 9 13 13 14
REMARK SMILES IDX 14 15 18 16 15 17 17 18 16 19 19 20 20 21 21 22 22 23
REMARK H PARENT 6 10
ROOT
ATOM      1  C   UNL     1      -1.255   1.352  -0.467  1.00  0.00     0.181 C 
ENDROOT
BRANCH   1   2
ATOM      2  N   UNL     1       0.088   0.822  -0.232  1.00  0.00    -0.250 N 
ATOM      3  C   UNL     1       0.674   0.553   0.977  1.00  0.00     0.113 A 
ATOM      4  C   UNL     1       1.941   0.107   0.678  1.00  0.00     0.085 A 
ATOM      5  C   UNL     1       2.033   0.144  -0.731  1.00  0.00     0.149 A 
ATOM      6  N   UNL     1       0.902   0.585  -1.284  1.00  0.00    -0.154 NA
BRANCH   3   7
ATOM      7  C   UNL     1       0.084   0.707   2.259  1.00  0.00    -0.051 C 
ATOM      8  C   UNL     1      -0.416   0.836   3.342  1.00  0.00     0.011 C 
ENDBRANCH   3   7
BRANCH   5   9
ATOM      9  N   UNL     1       3.111  -0.201  -1.467  1.00  0.00    -0.366 N 
ATOM     10  H   UNL     1       2.935  -0.238  -2.466  1.00  0.00     0.162 HD
BRANCH   9  11
ATOM     11  C   UNL     1       4.128  -1.099  -0.926  1.00  0.00     0.080 C 
ATOM     12  C   UNL     1       5.285  -0.576  -0.121  1.00  0.00     0.027 C 
ATOM     13  C   UNL     1       5.515  -1.095  -1.509  1.00  0.00     0.027 C 
ENDBRANCH   9  11
ENDBRANCH   5   9
ENDBRANCH   1   2
BRANCH   1  14
ATOM     14  C   UNL     1      -2.347   0.312  -0.279  1.00  0.00    -0.014 A 
ATOM     15  C   UNL     1      -2.190  -0.970  -0.845  1.00  0.00     0.006 A 
ATOM     16  C   UNL     1      -3.559   0.613   0.392  1.00  0.00     0.061 A 
ATOM     17  C   UNL     1      -3.177  -1.946  -0.710  1.00  0.00     0.000 A 
ATOM     18  C   UNL     1      -4.540  -0.391   0.522  1.00  0.00     0.013 A 
ATOM     19  C   UNL     1      -4.348  -1.660  -0.021  1.00  0.00     0.001 A 
BRANCH  16  20
ATOM     20  C   UNL     1      -3.838   1.982   0.973  1.00  0.00     0.416 C 
ATOM     21  F   UNL     1      -3.026   2.278   2.025  1.00  0.00    -0.166 F 
ATOM     22  F   UNL     1      -3.651   2.980   0.064  1.00  0.00    -0.166 F 
ATOM     23  F   UNL     1      -5.111   2.138   1.434  1.00  0.00    -0.166 F 
ENDBRANCH  16  20
ENDBRANCH   1  14
TORSDOF 6
