MODEL        6USER    Run = 6USERUSER    Estimated Free Energy of Binding    = -11.36 kcal/mol  [=(1)+(2)+(3)-(4)]USERUSER    (1) Final Intermolecular Energy     = -14.05 kcal/molUSER        vdW + Hbond + desolv Energy     = -13.87 kcal/molUSER        Electrostatic Energy            =  -0.18 kcal/molUSER        Moving Ligand-Fixed Receptor    = -14.05 kcal/molUSER        Moving Ligand-Moving Receptor   =  +0.00 kcal/molUSER    (2) Final Total Internal Energy     =  -1.31 kcal/molUSER    (3) Torsional Free Energy           =  +2.68 kcal/molUSER    (4) Unbound System's Energy         =  -1.31 kcal/molUSERUSERREMARK SMILES Cc1c(C(C#N)=Cc2ccccn2)cccc1-c1ccc(OCCN2CCNCC2)cc1REMARK SMILES IDX 18 1 19 2 20 3 21 4 31 5 32 6 17 7 2 8 3 9 14 10 16 11 15 12REMARK SMILES IDX 1 13 4 14 5 15 6 16 7 17 8 18 9 19 13 20 10 21 12 22 11 23REMARK SMILES IDX 22 24 23 25 24 26 25 27 26 28 30 29 27 30 29 31 28 32REMARK H PARENT 28 33USER                              x       y       z     vdW  Elec       q    TypeUSER                           _______ _______ _______ _____ _____    ______ ____ROOTATOM      1  C   UNL     1      36.800  44.553  18.861 -0.34 +0.00    -0.018 A  ATOM      2  C   UNL     1      36.642  43.275  19.416 -0.30 -0.00    +0.012 A  ATOM      3  C   UNL     1      35.377  42.795  19.775 -0.41 -0.00    +0.047 A  ATOM      4  C   UNL     1      34.247  43.588  19.589 -0.32 -0.01    +0.119 A  ATOM      5  C   UNL     1      34.397  44.863  19.040 -0.37 -0.02    +0.047 A  ATOM      6  C   UNL     1      35.659  45.343  18.681 -0.21 -0.00    +0.012 A  ENDROOTBRANCH   1   7ATOM      7  C   UNL     1      38.133  45.055  18.490 -0.38 +0.00    -0.015 A  ATOM      8  C   UNL     1      38.369  45.791  17.301 -0.37 +0.01    -0.035 A  ATOM      9  C   UNL     1      39.671  46.287  17.042 -0.45 +0.00    -0.004 A  ATOM     10  C   UNL     1      40.718  46.014  17.939 -0.48 -0.00    +0.010 A  ATOM     11  C   UNL     1      39.206  44.799  19.364 -0.39 -0.00    +0.009 A  ATOM     12  C   UNL     1      40.488  45.269  19.090 -0.44 +0.00    +0.001 A  ATOM     13  C   UNL     1      37.227  46.093  16.356 -0.40 -0.02    +0.046 C  BRANCH   9  14ATOM     14  C   UNL     1      39.992  47.097  15.845 -0.51 -0.01    +0.062 C  BRANCH  14  15ATOM     15  C   UNL     1      40.683  48.334  16.046 -0.57 -0.02    +0.100 C  ATOM     16  N   UNL     1      41.311  49.295  16.222 -0.98 +0.01    -0.192 NA ENDBRANCH  14  15BRANCH  14  17ATOM     17  C   UNL     1      39.615  46.602  14.648 -0.47 -0.01    +0.048 C  BRANCH  17  18ATOM     18  C   UNL     1      38.406  46.912  13.869 -0.41 -0.02    +0.064 A  ATOM     19  C   UNL     1      37.889  48.205  13.863 -0.51 -0.01    +0.028 A  ATOM     20  N   UNL     1      37.836  45.910  13.170 -0.18 +0.07    -0.257 NA ATOM     21  C   UNL     1      36.743  48.472  13.115 -0.47 -0.00    +0.004 A  ATOM     22  C   UNL     1      36.727  46.191  12.452 -0.53 -0.04    +0.111 A  ATOM     23  C   UNL     1      36.148  47.445  12.394 -0.67 -0.01    +0.020 A  ENDBRANCH  17  18ENDBRANCH  14  17ENDBRANCH   9  14ENDBRANCH   1   7BRANCH   4  24ATOM     24  O   UNL     1      32.957  43.252  19.886 -0.69 -0.04    -0.492 OA BRANCH  24  25ATOM     25  C   UNL     1      31.891  43.994  19.295 -0.07 -0.01    +0.245 C  BRANCH  25  26ATOM     26  C   UNL     1      31.636  43.621  17.818 -0.26 -0.02    +0.126 C  BRANCH  26  27ATOM     27  N   UNL     1      31.517  44.691  16.817 -0.52 +0.07    -0.297 NA ATOM     28  C   UNL     1      30.151  44.858  16.287 -0.29 -0.02    +0.100 C  ATOM     29  C   UNL     1      32.485  44.606  15.715 -0.34 -0.06    +0.100 C  ATOM     30  C   UNL     1      30.072  45.890  15.129 -0.41 -0.04    +0.096 C  ATOM     31  C   UNL     1      32.448  45.871  14.815 -0.32 -0.09    +0.096 C  ATOM     32  N   UNL     1      31.273  46.741  15.030 -0.38 +0.22    -0.314 NA ATOM     33  H   UNL     1      31.397  47.146  15.962 -0.43 -0.11    +0.122 HD ENDBRANCH  26  27ENDBRANCH  25  26ENDBRANCH  24  25ENDBRANCH   4  24TORSDOF 9TERENDMDL