REMARK SMILES Cc1c(C(=Cc2ccccn2)C(N)=O)cccc1-c1ccc(CO)cc1
REMARK SMILES IDX 1 1 2 2 3 3 15 4 16 5 17 6 18 7 4 8 5 9 6 10 7 11 11 12 8 13
REMARK SMILES IDX 10 14 9 15 12 16 13 17 14 18 19 21 20 22 26 23 21 24 25 25
REMARK SMILES IDX 22 26 23 27 24 28
REMARK H PARENT 13 19 13 20 24 29
ROOT
ATOM      1  C   UNL     1      -0.513   0.327  -0.774  1.00  0.00     0.045 C 
ATOM      2  C   UNL     1       0.480  -0.218   0.228  1.00  0.00    -0.035 A 
ATOM      3  C   UNL     1       0.033  -0.795   1.442  1.00  0.00    -0.009 A 
ATOM      4  C   UNL     1       0.966  -1.298   2.366  1.00  0.00     0.009 A 
ATOM      5  C   UNL     1       2.328  -1.252   2.094  1.00  0.00     0.001 A 
ATOM      6  C   UNL     1       2.772  -0.713   0.890  1.00  0.00     0.009 A 
ATOM      7  C   UNL     1       1.869  -0.199  -0.059  1.00  0.00    -0.015 A 
ENDROOT
BRANCH   3   8
ATOM      8  C   UNL     1      -1.408  -0.917   1.776  1.00  0.00     0.049 C 
BRANCH   8   9
ATOM      9  C   UNL     1      -1.874  -0.078   2.724  1.00  0.00     0.042 C 
BRANCH   9  10
ATOM     10  C   UNL     1      -3.215   0.018   3.300  1.00  0.00     0.064 A 
ATOM     11  C   UNL     1      -4.328   0.387   2.554  1.00  0.00     0.028 A 
ATOM     12  N   UNL     1      -3.258  -0.162   4.642  1.00  0.00    -0.257 NA
ATOM     13  C   UNL     1      -5.553   0.527   3.202  1.00  0.00     0.004 A 
ATOM     14  C   UNL     1      -4.462  -0.026   5.242  1.00  0.00     0.111 A 
ATOM     15  C   UNL     1      -5.625   0.313   4.573  1.00  0.00     0.020 A 
ENDBRANCH   9  10
ENDBRANCH   8   9
BRANCH   8  16
ATOM     16  C   UNL     1      -2.259  -1.948   1.090  1.00  0.00     0.249 C 
ATOM     17  N   UNL     1      -1.580  -2.996   0.541  1.00  0.00    -0.366 N 
ATOM     18  O   UNL     1      -3.477  -1.890   0.986  1.00  0.00    -0.270 OA
ATOM     19  H   UNL     1      -2.123  -3.714   0.083  1.00  0.00     0.159 HD
ATOM     20  H   UNL     1      -0.578  -3.107   0.606  1.00  0.00     0.159 HD
ENDBRANCH   8  16
ENDBRANCH   3   8
BRANCH   7  21
ATOM     21  C   UNL     1       2.410   0.332  -1.319  1.00  0.00    -0.018 A 
ATOM     22  C   UNL     1       3.016   1.595  -1.363  1.00  0.00     0.009 A 
ATOM     23  C   UNL     1       2.341  -0.416  -2.502  1.00  0.00     0.009 A 
ATOM     24  C   UNL     1       3.530   2.102  -2.561  1.00  0.00     0.007 A 
ATOM     25  C   UNL     1       2.856   0.090  -3.700  1.00  0.00     0.007 A 
ATOM     26  C   UNL     1       3.445   1.360  -3.747  1.00  0.00    -0.023 A 
BRANCH  26  27
ATOM     27  C   UNL     1       4.039   1.905  -5.019  1.00  0.00     0.191 C 
BRANCH  27  28
ATOM     28  O   UNL     1       3.325   1.441  -6.157  1.00  0.00    -0.392 OA
ATOM     29  H   UNL     1       3.726   1.870  -6.930  1.00  0.00     0.211 HD
ENDBRANCH  27  28
ENDBRANCH  26  27
ENDBRANCH   7  21
TORSDOF 7
