
     RDKit          3D

 61 65  0  0  0  0  0  0  0  0999 V2000
   -0.7592   -3.4400    0.2416 C   0  0  0  0  0  0  0  0  0  0  0  0
   -0.2424   -3.5403   -1.1834 C   0  0  0  0  0  0  0  0  0  0  0  0
   -0.1453   -2.2113   -1.9753 C   0  0  0  0  0  0  0  0  0  0  0  0
    0.9113   -1.2457   -1.4274 C   0  0  0  0  0  0  0  0  0  0  0  0
    2.2604   -1.6335   -1.6262 C   0  0  0  0  0  0  0  0  0  0  0  0
    3.3355   -0.8619   -1.1829 C   0  0  0  0  0  0  0  0  0  0  0  0
    3.1046    0.3365   -0.5156 C   0  0  0  0  0  0  0  0  0  0  0  0
    4.2608    1.1977   -0.0483 C   0  0  0  0  0  0  0  0  0  0  0  0
    4.1213    1.6513    1.3443 N   0  0  0  0  0  0  0  0  0  0  0  0
    4.2785    0.5639    2.3205 C   0  0  0  0  0  0  0  0  0  0  0  0
    5.7804    0.4602    2.5386 C   0  0  0  0  0  0  0  0  0  0  0  0
    6.3287    1.7687    2.1535 N   0  0  0  0  0  0  0  0  0  0  0  0
    5.1904    2.5689    1.7166 C   0  0  0  0  0  0  0  0  0  0  0  0
    1.7770    0.7393   -0.3197 C   0  0  0  0  0  0  0  0  0  0  0  0
    0.6711   -0.0388   -0.7447 C   0  0  0  0  0  0  0  0  0  0  0  0
   -0.6911    0.5550   -0.4558 C   0  0  0  0  0  0  0  0  0  0  0  0
   -1.7930   -0.4079   -0.3642 N   0  0  0  0  0  0  0  0  0  0  0  0
   -2.7412   -0.4167    1.0401 S   0  0  0  0  0  0  0  0  0  0  0  0
   -1.8616   -0.2846    2.1848 O   0  0  0  0  0  0  0  0  0  0  0  0
   -3.6885   -1.5114    0.9703 O   0  0  0  0  0  0  0  0  0  0  0  0
   -3.7027    1.0942    0.9953 C   0  0  0  0  0  0  0  0  0  0  0  0
   -3.1022    2.3131    1.3368 C   0  0  0  0  0  0  0  0  0  0  0  0
   -3.8677    3.4807    1.3495 C   0  0  0  0  0  0  0  0  0  0  0  0
   -5.2254    3.4173    1.0517 C   0  0  0  0  0  0  0  0  0  0  0  0
   -5.9559    4.5394    1.0667 F   0  0  0  0  0  0  0  0  0  0  0  0
   -5.8397    2.2049    0.7551 C   0  0  0  0  0  0  0  0  0  0  0  0
   -5.0807    1.0336    0.7407 C   0  0  0  0  0  0  0  0  0  0  0  0
   -2.3120   -0.8494   -1.6222 C   0  0  0  0  0  0  0  0  0  0  0  0
   -3.5109   -0.3501   -2.1453 C   0  0  0  0  0  0  0  0  0  0  0  0
   -3.9606   -0.7315   -3.4102 C   0  0  0  0  0  0  0  0  0  0  0  0
   -3.1970   -1.5933   -4.1823 C   0  0  0  0  0  0  0  0  0  0  0  0
   -1.9752   -2.0517   -3.6949 C   0  0  0  0  0  0  0  0  0  0  0  0
   -1.4985   -1.6680   -2.4209 C   0  0  0  0  0  0  0  0  0  0  0  0
   -0.2209   -2.6856    0.8219 H   0  0  0  0  0  0  0  0  0  0  0  0
   -0.6330   -4.4021    0.7501 H   0  0  0  0  0  0  0  0  0  0  0  0
   -1.8266   -3.2137    0.2520 H   0  0  0  0  0  0  0  0  0  0  0  0
   -0.8814   -4.2452   -1.7313 H   0  0  0  0  0  0  0  0  0  0  0  0
    0.7504   -4.0067   -1.1410 H   0  0  0  0  0  0  0  0  0  0  0  0
    0.3131   -2.5191   -2.9305 H   0  0  0  0  0  0  0  0  0  0  0  0
    2.4862   -2.5652   -2.1446 H   0  0  0  0  0  0  0  0  0  0  0  0
    4.3490   -1.2108   -1.3656 H   0  0  0  0  0  0  0  0  0  0  0  0
    4.2801    2.0711   -0.7146 H   0  0  0  0  0  0  0  0  0  0  0  0
    5.2089    0.6669   -0.2065 H   0  0  0  0  0  0  0  0  0  0  0  0
    3.7867    0.8625    3.2554 H   0  0  0  0  0  0  0  0  0  0  0  0
    3.8334   -0.3881    2.0144 H   0  0  0  0  0  0  0  0  0  0  0  0
    6.0208    0.2314    3.5813 H   0  0  0  0  0  0  0  0  0  0  0  0
    6.2137   -0.3202    1.9025 H   0  0  0  0  0  0  0  0  0  0  0  0
    6.9471    1.6354    1.3565 H   0  0  0  0  0  0  0  0  0  0  0  0
    5.4663    3.2645    0.9159 H   0  0  0  0  0  0  0  0  0  0  0  0
    4.8538    3.1876    2.5579 H   0  0  0  0  0  0  0  0  0  0  0  0
    1.6020    1.6835    0.1981 H   0  0  0  0  0  0  0  0  0  0  0  0
   -0.6070    1.1048    0.4862 H   0  0  0  0  0  0  0  0  0  0  0  0
   -0.9145    1.3071   -1.2240 H   0  0  0  0  0  0  0  0  0  0  0  0
   -2.0541    2.3638    1.6200 H   0  0  0  0  0  0  0  0  0  0  0  0
   -3.4199    4.4360    1.6072 H   0  0  0  0  0  0  0  0  0  0  0  0
   -6.9059    2.1788    0.5497 H   0  0  0  0  0  0  0  0  0  0  0  0
   -5.5684    0.0825    0.5331 H   0  0  0  0  0  0  0  0  0  0  0  0
   -4.1172    0.3567   -1.5980 H   0  0  0  0  0  0  0  0  0  0  0  0
   -4.9032   -0.3479   -3.7917 H   0  0  0  0  0  0  0  0  0  0  0  0
   -3.5421   -1.8993   -5.1667 H   0  0  0  0  0  0  0  0  0  0  0  0
   -1.3865   -2.7170   -4.3245 H   0  0  0  0  0  0  0  0  0  0  0  0
  1  2  1  0
  2  3  1  0
  3  4  1  0
  4  5  2  0
  5  6  1  0
  6  7  2  0
  7  8  1  0
  8  9  1  0
  9 10  1  0
 10 11  1  0
 11 12  1  0
 12 13  1  0
  7 14  1  0
 14 15  2  0
 15 16  1  0
 16 17  1  0
 17 18  1  0
 18 19  2  0
 18 20  2  0
 18 21  1  0
 21 22  2  0
 22 23  1  0
 23 24  2  0
 24 25  1  0
 24 26  1  0
 26 27  2  0
 17 28  1  0
 28 29  2  0
 29 30  1  0
 30 31  2  0
 31 32  1  0
 32 33  2  0
 33  3  1  0
 15  4  1  0
 27 21  1  0
 33 28  1  0
 13  9  1  0
  1 34  1  0
  1 35  1  0
  1 36  1  0
  2 37  1  0
  2 38  1  0
  3 39  1  0
  5 40  1  0
  6 41  1  0
  8 42  1  0
  8 43  1  0
 10 44  1  0
 10 45  1  0
 11 46  1  0
 11 47  1  0
 12 48  1  0
 13 49  1  0
 13 50  1  0
 14 51  1  0
 16 52  1  0
 16 53  1  0
 22 54  1  0
 23 55  1  0
 26 56  1  0
 27 57  1  0
 29 58  1  0
 30 59  1  0
 31 60  1  0
 32 61  1  0
M  END
$$$$
