MODEL        8USER    Run = 8USERUSER    Estimated Free Energy of Binding    =  -9.11 kcal/mol  [=(1)+(2)+(3)-(4)]USERUSER    (1) Final Intermolecular Energy     = -11.20 kcal/molUSER        vdW + Hbond + desolv Energy     = -11.07 kcal/molUSER        Electrostatic Energy            =  -0.13 kcal/molUSER        Moving Ligand-Fixed Receptor    = -11.20 kcal/molUSER        Moving Ligand-Moving Receptor   =  +0.00 kcal/molUSER    (2) Final Total Internal Energy     =  -1.56 kcal/molUSER    (3) Torsional Free Energy           =  +2.09 kcal/molUSER    (4) Unbound System's Energy         =  -1.56 kcal/molUSERUSERREMARK SMILES CO[C@@H]1CC=C(c2nc(NCc3cccnc3)c3ncn(CC4CC4)c3n2)N=N1REMARK SMILES IDX 7 1 8 2 9 3 18 4 19 5 20 6 21 7 26 8 27 9 6 10 3 11 4 12REMARK SMILES IDX 29 13 5 14 28 15 2 16 1 17 10 18 11 20 12 21 13 22 17 23REMARK SMILES IDX 14 24 16 25 15 26 22 27 23 28 24 29 25 30REMARK H PARENT 10 19USER                              x       y       z     vdW  Elec       q    TypeUSER                           _______ _______ _______ _____ _____    ______ ____ROOTATOM      1  C   UNL     1      34.992  45.722  28.791 -0.22 -0.05    +0.183 A  ATOM      2  N   UNL     1      35.876  46.756  28.785 -0.28 +0.05    -0.207 NA ATOM      3  C   UNL     1      35.491  47.979  29.234 -0.28 -0.03    +0.158 A  ATOM      4  C   UNL     1      34.171  48.119  29.695 -0.30 -0.01    +0.150 A  ATOM      5  N   UNL     1      33.480  49.196  30.219 -0.16 -0.00    -0.231 NA ATOM      6  C   UNL     1      32.280  48.723  30.483 -0.22 +0.00    +0.202 A  ATOM      7  N   UNL     1      32.169  47.398  30.159 -0.25 -0.00    -0.315 N  ATOM      8  C   UNL     1      33.373  46.991  29.657 -0.18 -0.01    +0.166 A  ATOM      9  N   UNL     1      33.709  45.770  29.221 -0.70 +0.02    -0.206 NA ENDROOTBRANCH   1  10ATOM     10  C   UNL     1      35.478  44.403  28.281 -0.49 -0.04    +0.126 C  ATOM     11  C   UNL     1      36.576  42.392  26.789 -0.31 -0.05    +0.260 C  ATOM     12  C   UNL     1      35.141  42.185  27.293 -0.60 -0.02    +0.088 C  ATOM     13  N   UNL     1      37.359  43.151  27.791 -0.27 +0.03    -0.156 NA ATOM     14  C   UNL     1      34.611  43.477  27.826 -0.67 -0.00    +0.012 C  ATOM     15  N   UNL     1      36.834  44.140  28.358 -0.31 +0.04    -0.150 NA BRANCH  11  16ATOM     16  O   UNL     1      36.497  42.951  25.465 -0.20 +0.01    -0.358 OA ATOM     17  C   UNL     1      36.538  41.947  24.461 -0.31 -0.01    +0.198 C  ENDBRANCH  11  16ENDBRANCH   1  10BRANCH   3  18ATOM     18  N   UNL     1      36.378  49.059  29.228 -0.09 +0.05    -0.364 N  ATOM     19  H   UNL     1      37.164  48.850  29.841 -0.47 -0.06    +0.162 HD BRANCH  18  20ATOM     20  C   UNL     1      36.749  49.575  27.922 -0.23 +0.00    +0.152 C  BRANCH  20  21ATOM     21  C   UNL     1      37.316  48.493  27.043 -0.31 +0.00    -0.010 A  ATOM     22  C   UNL     1      38.582  47.948  27.272 -0.23 -0.00    +0.009 A  ATOM     23  C   UNL     1      36.580  47.977  25.980 -0.33 -0.01    +0.116 A  ATOM     24  C   UNL     1      39.062  46.941  26.440 -0.22 +0.00    +0.020 A  ATOM     25  N   UNL     1      37.024  47.003  25.152 -0.69 -0.06    -0.264 NA ATOM     26  C   UNL     1      38.253  46.506  25.404 -0.24 +0.01    +0.111 A  ENDBRANCH  20  21ENDBRANCH  18  20ENDBRANCH   3  18BRANCH   7  27ATOM     27  C   UNL     1      30.994  46.568  30.343 -0.56 +0.01    +0.129 C  BRANCH  27  28ATOM     28  C   UNL     1      29.733  47.365  30.210 -0.66 +0.00    +0.009 C  ATOM     29  C   UNL     1      28.684  46.962  29.205 -0.64 +0.00    +0.006 C  ATOM     30  C   UNL     1      28.409  46.813  30.675 -0.66 +0.00    +0.006 C  ENDBRANCH  27  28ENDBRANCH   7  27TORSDOF 7TERENDMDL