MODEL        4USER    Run = 4USERUSER    Estimated Free Energy of Binding    =  -7.70 kcal/mol  [=(1)+(2)+(3)-(4)]USERUSER    (1) Final Intermolecular Energy     = -11.88 kcal/molUSER        vdW + Hbond + desolv Energy     = -12.46 kcal/molUSER        Electrostatic Energy            =  -0.34 kcal/molUSER        Moving Ligand-Fixed Receptor    = -12.81 kcal/molUSER        Moving Ligand-Moving Receptor   =  +0.93 kcal/molUSER    (2) Final Total Internal Energy     =  -2.35 kcal/molUSER    (3) Torsional Free Energy           =  +4.18 kcal/molUSER    (4) Unbound System's Energy         =  -2.35 kcal/molUSERUSERREMARK SMILES COc1ccc(O)c(C(=O)c2ccc(C(=O)N[C@@H]3CCCNC[C@H]3NC(=O)c3ccnc(F)c3)cc2)c1FREMARK SMILES IDX 15 1 16 2 17 3 14 5 11 6 12 7 36 8 13 9 35 10 9 11 10 12REMARK SMILES IDX 8 13 3 14 4 15 37 16 5 17 6 18 38 19 2 20 1 21 7 22 18 24REMARK SMILES IDX 19 25 24 27 23 28 22 29 21 31 20 32 25 34 26 35 27 37 28 38REMARK SMILES IDX 29 39 34 40 30 41 32 42 31 43 33 44REMARK H PARENT 17 4 7 23 22 30 25 36REMARK Flexibility Score:   88.900USER                              x       y       z     vdW  Elec       q    TypeUSER                           _______ _______ _______ _____ _____    ______ ____ROOTATOM      1  C   UNL     1      40.117  46.386  16.380 -0.33 -0.03    +0.251 C  ATOM      2  O   UNL     1      40.669  45.954  15.375 -0.41 -0.00    -0.269 OA ATOM      3  N   UNL     1      38.800  46.802  16.411 -0.18 +0.12    -0.347 N  ATOM      4  H   UNL     1      38.365  46.955  17.314 +0.09 -0.06    +0.164 HD ENDROOTBRANCH   1   5ATOM      5  C   UNL     1      40.878  46.468  17.659 -0.47 -0.00    +0.039 A  ATOM      6  C   UNL     1      42.307  46.765  20.064 -0.40 +0.00    +0.023 A  ATOM      7  C   UNL     1      41.401  45.708  19.900 -0.40 +0.00    +0.013 A  ATOM      8  C   UNL     1      42.473  47.694  19.029 -0.45 +0.00    +0.013 A  ATOM      9  C   UNL     1      40.689  45.557  18.707 -0.46 -0.00    +0.014 A  ATOM     10  C   UNL     1      41.766  47.538  17.831 -0.38 -0.00    +0.014 A  BRANCH   6  11ATOM     11  C   UNL     1      42.986  46.913  21.378 -0.30 +0.05    +0.199 C  ATOM     12  O   UNL     1      44.140  46.498  21.505 -0.45 -0.21    -0.288 OA BRANCH  11  13ATOM     13  C   UNL     1      42.327  47.461  22.580 -0.22 +0.02    +0.104 A  ATOM     14  C   UNL     1      40.450  47.564  24.130 -0.21 +0.02    +0.155 A  ATOM     15  C   UNL     1      41.155  48.481  24.912 -0.29 +0.01    +0.053 A  ATOM     16  C   UNL     1      41.041  47.071  22.959 -0.09 +0.02    +0.179 A  ATOM     17  C   UNL     1      42.423  48.916  24.518 -0.36 +0.01    +0.051 A  ATOM     18  C   UNL     1      42.997  48.420  23.351 -0.30 +0.03    +0.130 A  ATOM     19  F   UNL     1      40.343  46.220  22.190 -0.07 -0.02    -0.202 F  BRANCH  14  20ATOM     20  O   UNL     1      39.197  47.082  24.404 -0.09 -0.05    -0.494 OA ATOM     21  C   UNL     1      38.186  48.034  24.708 -0.29 +0.04    +0.278 C  ENDBRANCH  14  20BRANCH  18  22ATOM     22  O   UNL     1      44.229  48.917  23.019 -0.33 -0.16    -0.507 OA ATOM     23  H   UNL     1      44.450  48.602  22.112 -0.44 +0.04    +0.293 HD ENDBRANCH  18  22ENDBRANCH  11  13ENDBRANCH   6  11ENDBRANCH   1   5BRANCH   3  24ATOM     24  C   UNL     1      37.935  46.729  15.221 -0.39 -0.05    +0.106 C  BRANCH  24  25ATOM     25  C   UNL     1      38.262  47.856  14.215 -0.57 -0.01    +0.028 CG0ATOM     26  G   UNL     1      37.037  48.584  13.661 +0.00 +0.00    +0.000 G0 ENDBRANCH  24  25BRANCH  24  27ATOM     27  C   UNL     1      36.434  46.661  15.612 -0.36 -0.09    +0.118 C  BRANCH  27  28ATOM     28  C   UNL     1      35.534  45.998  14.546 -0.39 -0.08    +0.108 C  BRANCH  28  29ATOM     29  N   UNL     1      35.992  46.288  13.180 -0.28 +0.17    -0.315 NA ATOM     30  H   UNL     1      35.352  45.849  12.513 +0.04 -0.07    +0.122 HD BRANCH  29  31ATOM     31  C   UNL     1      36.072  47.710  12.857 -0.61 -0.04    +0.081 C  BRANCH  31  32ATOM     32  C   UNL     1      37.034  48.585  13.665 -0.58 -0.01    +0.017 CG0ATOM     33  G   UNL     1      38.256  47.858  14.226 +0.00 +0.00    +0.000 G0 ENDBRANCH  31  32ENDBRANCH  29  31ENDBRANCH  28  29ENDBRANCH  27  28BRANCH  27  34ATOM     34  N   UNL     1      36.251  45.955  16.887 -0.14 +0.21    -0.346 N  ATOM     35  C   UNL     1      36.828  44.737  17.147 -0.23 -0.08    +0.251 C  ATOM     36  H   UNL     1      35.597  46.404  17.513 +0.09 -0.12    +0.164 HD ATOM     37  O   UNL     1      37.625  44.211  16.380 -0.23 +0.07    -0.269 OA BRANCH  35  38ATOM     38  C   UNL     1      36.481  44.069  18.432 -0.30 -0.01    +0.045 A  ATOM     39  C   UNL     1      35.438  43.149  18.558 -0.34 -0.01    +0.034 A  ATOM     40  C   UNL     1      37.251  44.381  19.554 -0.32 -0.01    +0.074 A  ATOM     41  C   UNL     1      35.206  42.595  19.806 -0.36 -0.00    +0.115 A  ATOM     42  C   UNL     1      36.936  43.774  20.750 -0.26 -0.00    +0.213 A  ATOM     43  N   UNL     1      35.928  42.892  20.906 -0.30 -0.01    -0.228 NA ATOM     44  F   UNL     1      37.665  44.076  21.835 -0.11 -0.01    -0.185 F  ENDBRANCH  35  38ENDBRANCH  27  34ENDBRANCH  24  27ENDBRANCH   3  24TORSDOF 8TERENDMDL