MODEL        8USER    Run = 8USERUSER    Estimated Free Energy of Binding    =  -7.62 kcal/mol  [=(1)+(2)+(3)-(4)]USERUSER    (1) Final Intermolecular Energy     =  -9.11 kcal/molUSER        vdW + Hbond + desolv Energy     =  -8.93 kcal/molUSER        Electrostatic Energy            =  -0.18 kcal/molUSER        Moving Ligand-Fixed Receptor    =  -9.11 kcal/molUSER        Moving Ligand-Moving Receptor   =  +0.00 kcal/molUSER    (2) Final Total Internal Energy     =  -0.95 kcal/molUSER    (3) Torsional Free Energy           =  +1.49 kcal/molUSER    (4) Unbound System's Energy         =  -0.95 kcal/molUSERUSERREMARK SMILES Cc1nc(N2CCN(Cc3ccncc3)CC2)cc(C(F)(F)F)c1C#NREMARK SMILES IDX 1 1 2 2 3 3 4 4 18 5 19 6 24 7 25 8 26 9 5 10 6 11 17 12REMARK SMILES IDX 7 13 16 14 8 15 9 16 10 17 11 18 15 19 12 20 14 21 13 22REMARK SMILES IDX 20 23 21 24 22 25 23 26REMARK H PARENTUSER                              x       y       z     vdW  Elec       q    TypeUSER                           _______ _______ _______ _____ _____    ______ ____ROOTATOM      1  C   UNL     1      41.212  48.132  17.051 -0.52 -0.01    +0.068 C  ATOM      2  C   UNL     1      40.583  47.022  17.846 -0.46 -0.01    +0.058 A  ATOM      3  N   UNL     1      39.374  46.594  17.397 -0.29 +0.05    -0.235 NA ATOM      4  C   UNL     1      38.724  45.597  18.033 -0.32 -0.02    +0.129 A  ATOM      5  C   UNL     1      39.282  45.023  19.169 -0.36 -0.00    +0.061 A  ATOM      6  C   UNL     1      40.532  45.452  19.651 -0.37 +0.00    +0.079 A  ATOM      7  C   UNL     1      41.199  46.475  18.969 -0.42 +0.00    +0.086 A  ENDROOTBRANCH   7   8ATOM      8  C   UNL     1      42.476  46.959  19.407 -0.50 +0.02    +0.102 C  ATOM      9  N   UNL     1      43.506  47.354  19.764 -0.37 -0.06    -0.192 NA ENDBRANCH   7   8BRANCH   4  10ATOM     10  N   UNL     1      37.484  45.200  17.561 -0.14 +0.10    -0.354 N  ATOM     11  C   UNL     1      36.489  46.262  17.351 -0.25 -0.07    +0.133 C  ATOM     12  C   UNL     1      37.370  44.025  16.680 -0.27 -0.04    +0.133 C  ATOM     13  C   UNL     1      35.128  45.649  16.952 -0.33 -0.08    +0.106 C  ATOM     14  C   UNL     1      36.514  44.336  15.429 -0.37 -0.04    +0.106 C  ATOM     15  N   UNL     1      35.143  44.811  15.730 -0.13 +0.17    -0.296 NA BRANCH  15  16ATOM     16  C   UNL     1      34.555  45.525  14.586 -0.14 -0.09    +0.120 C  BRANCH  16  17ATOM     17  C   UNL     1      35.573  46.296  13.776 -0.45 +0.02    -0.031 A  ATOM     18  C   UNL     1      35.863  45.927  12.458 -0.49 -0.01    +0.025 A  ATOM     19  C   UNL     1      36.237  47.400  14.317 -0.38 -0.02    +0.025 A  ATOM     20  C   UNL     1      36.799  46.664  11.751 -0.57 -0.04    +0.111 A  ATOM     21  C   UNL     1      37.156  48.075  13.528 -0.48 -0.05    +0.111 A  ATOM     22  N   UNL     1      37.453  47.731  12.257 -0.94 +0.03    -0.265 NA ENDBRANCH  16  17ENDBRANCH  15  16ENDBRANCH   4  10BRANCH   6  23ATOM     23  C   UNL     1      41.121  44.820  20.881 -0.14 +0.04    +0.417 C  ATOM     24  F   UNL     1      41.566  45.740  21.777 -0.07 -0.02    -0.166 F  ATOM     25  F   UNL     1      40.239  44.037  21.562 -0.07 -0.01    -0.166 F  ATOM     26  F   UNL     1      42.179  44.016  20.594 -0.10 -0.03    -0.166 F  ENDBRANCH   6  23TORSDOF 5TERENDMDL