MODEL        2USER    Run = 2USERUSER    Estimated Free Energy of Binding    = -10.95 kcal/mol  [=(1)+(2)+(3)-(4)]USERUSER    (1) Final Intermolecular Energy     = -12.74 kcal/molUSER        vdW + Hbond + desolv Energy     = -12.63 kcal/molUSER        Electrostatic Energy            =  -0.11 kcal/molUSER        Moving Ligand-Fixed Receptor    = -12.74 kcal/molUSER        Moving Ligand-Moving Receptor   =  +0.00 kcal/molUSER    (2) Final Total Internal Energy     =  -1.21 kcal/molUSER    (3) Torsional Free Energy           =  +1.79 kcal/molUSER    (4) Unbound System's Energy         =  -1.21 kcal/molUSERUSERREMARK SMILES Cc1nc(NCC2CCOCC2)ccc1-c1ccc(C=C2SC(=O)NC2=O)cc1FREMARK SMILES IDX 1 1 2 2 3 3 4 4 13 5 14 6 15 7 16 8 17 9 29 10 18 11 28 12REMARK SMILES IDX 19 13 30 14 20 15 21 16 22 17 26 18 23 19 25 20 27 21 24 22REMARK SMILES IDX 5 24 6 26 7 27 8 28 12 29 9 30 11 31 10 32REMARK H PARENT 25 23 5 25USER                              x       y       z     vdW  Elec       q    TypeUSER                           _______ _______ _______ _____ _____    ______ ____ROOTATOM      1  C   UNL     1      38.429  45.587  23.466 -0.32 +0.01    +0.067 C  ATOM      2  C   UNL     1      37.885  44.230  23.118 -0.31 +0.00    +0.048 A  ATOM      3  N   UNL     1      37.250  43.581  24.133 -0.21 -0.02    -0.236 NA ATOM      4  C   UNL     1      36.732  42.364  23.895 -0.32 +0.01    +0.126 A  ATOM      5  C   UNL     1      36.834  41.748  22.659 -0.49 +0.00    +0.047 A  ATOM      6  C   UNL     1      37.479  42.416  21.622 -0.35 +0.00    +0.014 A  ATOM      7  C   UNL     1      38.025  43.687  21.832 -0.35 +0.00    +0.006 A  ENDROOTBRANCH   7   8ATOM      8  C   UNL     1      38.697  44.384  20.729 -0.34 +0.00    +0.019 A  ATOM      9  C   UNL     1      40.058  44.716  20.819 -0.33 +0.00    +0.012 A  ATOM     10  C   UNL     1      38.010  44.747  19.564 -0.28 -0.01    +0.131 A  ATOM     11  C   UNL     1      40.703  45.386  19.773 -0.41 +0.00    +0.009 A  ATOM     12  C   UNL     1      38.644  45.415  18.518 -0.37 -0.01    +0.048 A  ATOM     13  C   UNL     1      39.997  45.747  18.620 -0.44 +0.00    -0.021 A  ATOM     14  F   UNL     1      36.709  44.450  19.431 -0.08 +0.03    -0.206 F  BRANCH  13  15ATOM     15  C   UNL     1      40.697  46.437  17.533 -0.54 -0.00    +0.029 C  BRANCH  15  16ATOM     16  C   UNL     1      40.120  47.042  16.487 -0.50 -0.02    +0.083 C  ATOM     17  S   UNL     1      38.840  46.464  15.486 -0.58 +0.01    -0.022 SA ATOM     18  C   UNL     1      40.529  48.401  16.043 -0.43 -0.06    +0.265 C  ATOM     19  C   UNL     1      38.828  47.925  14.520 -0.35 -0.11    +0.290 C  ATOM     20  N   UNL     1      39.779  48.781  14.971 -0.32 +0.11    -0.282 N  ATOM     21  O   UNL     1      41.399  49.081  16.561 -1.04 -0.00    -0.268 OA ATOM     22  O   UNL     1      38.070  48.126  13.587 -0.68 +0.08    -0.261 OA ATOM     23  H   UNL     1      39.909  49.679  14.536 -0.13 -0.11    +0.174 HD ENDBRANCH  15  16ENDBRANCH  13  15ENDBRANCH   7   8BRANCH   4  24ATOM     24  N   UNL     1      36.114  41.753  24.988 -0.17 +0.05    -0.370 N  ATOM     25  H   UNL     1      35.966  40.801  24.651 -0.18 -0.07    +0.162 HD BRANCH  24  26ATOM     26  C   UNL     1      36.924  41.762  26.206 -0.39 -0.02    +0.118 C  BRANCH  26  27ATOM     27  C   UNL     1      36.344  42.723  27.255 -0.51 -0.00    +0.013 C  ATOM     28  C   UNL     1      37.161  44.021  27.380 -0.40 -0.01    +0.034 C  ATOM     29  C   UNL     1      34.865  43.051  27.035 -0.58 -0.01    +0.034 C  ATOM     30  C   UNL     1      36.323  45.176  27.924 -0.35 -0.04    +0.160 C  ATOM     31  C   UNL     1      34.328  43.918  28.176 -0.55 -0.03    +0.160 C  ATOM     32  O   UNL     1      35.341  44.685  28.831 -0.34 +0.10    -0.381 OA ENDBRANCH  26  27ENDBRANCH  24  26ENDBRANCH   4  24TORSDOF 6TERENDMDL