REMARK SMILES O=Cc1cc(F)ccc1Cc1ccc(CN2CCOCC2)[nH]c1=O
REMARK SMILES IDX 10 1 9 2 3 3 4 4 5 5 8 6 7 7 6 8 2 9 1 10 11 11 12 12 23 13
REMARK SMILES IDX 13 14 22 15 14 16 24 17 15 19 16 20 17 21 21 22 18 23 20 24
REMARK SMILES IDX 19 25
REMARK H PARENT 22 18
ROOT
ATOM      1  C   UNL     1      -2.926   1.420   0.505  1.00  0.00     0.077 C 
ENDROOT
BRANCH   1   2
ATOM      2  C   UNL     1      -3.693   0.120   0.302  1.00  0.00    -0.033 A 
ATOM      3  C   UNL     1      -5.097   0.128   0.119  1.00  0.00     0.021 A 
ATOM      4  C   UNL     1      -5.808  -1.069  -0.048  1.00  0.00     0.051 A 
ATOM      5  C   UNL     1      -5.129  -2.278  -0.038  1.00  0.00     0.123 A 
ATOM      6  C   UNL     1      -3.041  -1.131   0.309  1.00  0.00     0.008 A 
ATOM      7  C   UNL     1      -3.755  -2.319   0.138  1.00  0.00     0.039 A 
ATOM      8  F   UNL     1      -5.809  -3.420  -0.198  1.00  0.00    -0.207 F 
BRANCH   3   9
ATOM      9  C   UNL     1      -5.883   1.387   0.102  1.00  0.00     0.260 C 
ATOM     10  O   UNL     1      -7.107   1.390   0.031  1.00  0.00    -0.298 OA
ENDBRANCH   3   9
ENDBRANCH   1   2
BRANCH   1  11
ATOM     11  C   UNL     1      -1.433   1.328   0.640  1.00  0.00     0.022 A 
ATOM     12  C   UNL     1      -0.774   1.355   1.814  1.00  0.00     0.011 A 
ATOM     13  C   UNL     1      -0.633   1.258  -0.625  1.00  0.00     0.251 A 
ATOM     14  C   UNL     1       0.668   1.282   1.873  1.00  0.00     0.023 A 
ATOM     15  N   UNL     1       0.728   1.212  -0.469  1.00  0.00    -0.325 N 
ATOM     16  C   UNL     1       1.388   1.220   0.741  1.00  0.00     0.032 A 
ATOM     17  O   UNL     1      -1.168   1.238  -1.728  1.00  0.00    -0.269 OA
ATOM     18  H   UNL     1       1.286   1.119  -1.313  1.00  0.00     0.170 HD
BRANCH  16  19
ATOM     19  C   UNL     1       2.900   1.141   0.700  1.00  0.00     0.138 C 
BRANCH  19  20
ATOM     20  N   UNL     1       3.398   0.238  -0.353  1.00  0.00    -0.293 NA
ATOM     21  C   UNL     1       3.162  -1.191  -0.042  1.00  0.00     0.113 C 
ATOM     22  C   UNL     1       4.837   0.484  -0.601  1.00  0.00     0.113 C 
ATOM     23  C   UNL     1       4.399  -1.913   0.515  1.00  0.00     0.175 C 
ATOM     24  C   UNL     1       5.523  -0.733  -1.238  1.00  0.00     0.175 C 
ATOM     25  O   UNL     1       5.525  -1.875  -0.371  1.00  0.00    -0.379 OA
ENDBRANCH  19  20
ENDBRANCH  16  19
ENDBRANCH   1  11
TORSDOF 5
