REMARK SMILES CCc1c(O)cccc1C1=CC=C2C1=NCO[C@H]2CCCCNC(=O)CC(N)=O
REMARK SMILES IDX 20 1 19 2 18 3 10 4 11 5 14 6 12 7 13 8 15 9 16 10 17 11
REMARK SMILES IDX 9 12 3 13 4 14 6 15 8 16 7 17 2 18 1 19 5 20 21 22 22 23
REMARK SMILES IDX 23 24 24 25 25 27 26 28 27 29 28 30 29 31
REMARK H PARENT 5 21 23 26 28 32 28 33
ROOT
ATOM      1  C   UNL     1       2.984   0.280  -1.888  1.00  0.00     0.005 C 
ENDROOT
BRANCH   1   2
ATOM      2  C   UNL     1       1.457   0.380  -2.035  1.00  0.00     0.037 C 
BRANCH   2   3
ATOM      3  C   UNL     1       0.660  -0.025  -0.788  1.00  0.00     0.153 C 
ATOM      4  C   UNL     1      -3.078   0.148  -0.280  1.00  0.00     0.008 C 
ATOM      5  C   UNL     1      -2.878   1.173  -1.119  1.00  0.00     0.011 C 
ATOM      6  C   UNL     1      -1.734  -0.458  -0.099  1.00  0.00     0.074 C 
ATOM      7  C   UNL     1      -1.491   1.310  -1.459  1.00  0.00     0.009 C 
ATOM      8  C   UNL     1      -0.767   0.372  -0.845  1.00  0.00     0.007 C 
ATOM      9  N   UNL     1      -1.452  -1.515   0.570  1.00  0.00    -0.256 NA
ATOM     10  C   UNL     1      -0.032  -1.872   0.498  1.00  0.00     0.304 C 
ATOM     11  O   UNL     1       0.692  -1.450  -0.663  1.00  0.00    -0.351 OA
BRANCH   4  12
ATOM     12  C   UNL     1      -4.342  -0.343   0.263  1.00  0.00    -0.009 A 
ATOM     13  C   UNL     1      -5.163   0.408   1.133  1.00  0.00     0.001 A 
ATOM     14  C   UNL     1      -6.372  -0.165   1.570  1.00  0.00     0.119 A 
ATOM     15  C   UNL     1      -6.763  -1.446   1.179  1.00  0.00     0.046 A 
ATOM     16  C   UNL     1      -4.740  -1.639  -0.114  1.00  0.00     0.009 A 
ATOM     17  C   UNL     1      -5.939  -2.186   0.340  1.00  0.00     0.004 A 
BRANCH  13  18
ATOM     18  C   UNL     1      -4.775   1.785   1.631  1.00  0.00     0.036 C 
ATOM     19  C   UNL     1      -5.502   2.905   0.899  1.00  0.00     0.009 C 
ENDBRANCH  13  18
BRANCH  14  20
ATOM     20  O   UNL     1      -7.181   0.557   2.408  1.00  0.00    -0.508 OA
ATOM     21  H   UNL     1      -7.936   0.003   2.666  1.00  0.00     0.293 HD
ENDBRANCH  14  20
ENDBRANCH   4  12
ENDBRANCH   2   3
ENDBRANCH   1   2
BRANCH   1  22
ATOM     22  C   UNL     1       3.544  -1.139  -1.721  1.00  0.00     0.021 C 
BRANCH  22  23
ATOM     23  C   UNL     1       3.847  -1.516  -0.271  1.00  0.00     0.116 C 
BRANCH  23  24
ATOM     24  N   UNL     1       4.941  -0.733   0.271  1.00  0.00    -0.356 N 
ATOM     25  C   UNL     1       5.145  -0.629   1.624  1.00  0.00     0.229 C 
ATOM     26  H   UNL     1       5.767  -0.620  -0.320  1.00  0.00     0.163 HD
ATOM     27  O   UNL     1       4.339  -1.062   2.450  1.00  0.00    -0.275 OA
BRANCH  25  28
ATOM     28  C   UNL     1       6.386   0.099   2.090  1.00  0.00     0.199 C 
BRANCH  28  29
ATOM     29  C   UNL     1       7.426   0.467   1.065  1.00  0.00     0.226 C 
ATOM     30  N   UNL     1       8.365   1.360   1.496  1.00  0.00    -0.369 N 
ATOM     31  O   UNL     1       7.478   0.014  -0.074  1.00  0.00    -0.275 OA
ATOM     32  H   UNL     1       8.386   1.739   2.433  1.00  0.00     0.159 HD
ATOM     33  H   UNL     1       9.099   1.628   0.851  1.00  0.00     0.159 HD
ENDBRANCH  28  29
ENDBRANCH  25  28
ENDBRANCH  23  24
ENDBRANCH  22  23
ENDBRANCH   1  22
TORSDOF 10
