MODEL        8USER    Run = 8USERUSER    Estimated Free Energy of Binding    =  -8.99 kcal/mol  [=(1)+(2)+(3)-(4)]USERUSER    (1) Final Intermolecular Energy     = -10.19 kcal/molUSER        vdW + Hbond + desolv Energy     = -10.07 kcal/molUSER        Electrostatic Energy            =  -0.12 kcal/molUSER        Moving Ligand-Fixed Receptor    = -10.19 kcal/molUSER        Moving Ligand-Moving Receptor   =  +0.00 kcal/molUSER    (2) Final Total Internal Energy     =  -0.88 kcal/molUSER    (3) Torsional Free Energy           =  +1.19 kcal/molUSER    (4) Unbound System's Energy         =  -0.88 kcal/molUSERUSERREMARK SMILES O=C1C(N2CCNCC2)=Cc2sc(NS(=O)(=O)c3ccc(F)cc3)cc21REMARK SMILES IDX 14 1 13 3 2 4 3 5 26 6 10 7 25 8 11 9 12 10 1 11 4 12 5 13REMARK SMILES IDX 9 14 6 15 8 16 7 17 15 19 16 20 17 21 18 22 19 23 24 24REMARK SMILES IDX 20 25 23 26 21 27 22 28REMARK H PARENT 14 2 7 18USER                              x       y       z     vdW  Elec       q    TypeUSER                           _______ _______ _______ _____ _____    ______ ____ROOTATOM      1  N   UNL     1      35.744  46.939  14.190 -0.25 +0.22    -0.270 N  ATOM      2  H   UNL     1      34.904  46.749  13.641 +0.09 -0.15    +0.181 HD ENDROOTBRANCH   1   3ATOM      3  C   UNL     1      35.792  46.145  15.419 -0.30 -0.08    +0.104 A  ATOM      4  C   UNL     1      37.109  44.999  18.694 -0.23 -0.04    +0.210 C  ATOM      5  C   UNL     1      36.221  43.824  19.178 -0.37 -0.01    +0.087 C  ATOM      6  C   UNL     1      36.536  45.373  17.429 -0.31 -0.02    +0.044 A  ATOM      7  C   UNL     1      35.283  43.617  18.223 -0.35 -0.01    +0.050 C  ATOM      8  C   UNL     1      36.749  46.313  16.401 -0.34 -0.03    +0.051 A  ATOM      9  C   UNL     1      35.480  44.546  17.190 -0.28 -0.02    +0.043 A  ATOM     10  S   UNL     1      34.710  44.846  15.735 -0.41 +0.07    -0.117 S  ATOM     11  O   UNL     1      38.082  45.494  19.234 -0.23 +0.03    -0.287 OA BRANCH   5  12ATOM     12  N   UNL     1      36.424  43.154  20.382 -0.17 +0.01    -0.366 N  ATOM     13  C   UNL     1      37.249  43.724  21.473 -0.37 +0.01    +0.132 C  ATOM     14  C   UNL     1      35.912  41.793  20.632 -0.41 -0.00    +0.132 C  ATOM     15  C   UNL     1      36.918  43.077  22.836 -0.38 +0.01    +0.102 C  ATOM     16  C   UNL     1      36.841  40.999  21.576 -0.53 +0.00    +0.102 C  ATOM     17  N   UNL     1      37.075  41.614  22.893 -0.28 -0.02    -0.313 NA ATOM     18  H   UNL     1      36.414  41.243  23.574 +0.02 -0.00    +0.122 HD ENDBRANCH   5  12ENDBRANCH   1   3BRANCH   1  19ATOM     19  S   UNL     1      37.071  46.669  13.159 -0.56 -0.10    +0.262 S  ATOM     20  O   UNL     1      37.246  45.263  12.876 -0.41 +0.06    -0.201 OA ATOM     21  O   UNL     1      36.942  47.648  12.098 -1.16 +0.06    -0.201 OA BRANCH  19  22ATOM     22  C   UNL     1      38.413  47.174  14.212 -0.41 -0.03    +0.088 A  ATOM     23  C   UNL     1      38.453  48.496  14.672 -0.51 -0.01    +0.025 A  ATOM     24  C   UNL     1      39.389  46.248  14.598 -0.40 -0.00    +0.025 A  ATOM     25  C   UNL     1      39.494  48.898  15.511 -0.50 -0.02    +0.040 A  ATOM     26  C   UNL     1      40.426  46.660  15.438 -0.41 -0.00    +0.040 A  ATOM     27  C   UNL     1      40.469  47.978  15.884 -0.45 -0.02    +0.123 A  ATOM     28  F   UNL     1      41.465  48.367  16.690 -0.17 +0.01    -0.207 F  ENDBRANCH  19  22ENDBRANCH   1  19TORSDOF 4TERENDMDL