MODEL        5USER    Run = 5USERUSER    Estimated Free Energy of Binding    =  -9.63 kcal/mol  [=(1)+(2)+(3)-(4)]USERUSER    (1) Final Intermolecular Energy     = -10.52 kcal/molUSER        vdW + Hbond + desolv Energy     = -10.33 kcal/molUSER        Electrostatic Energy            =  -0.19 kcal/molUSER        Moving Ligand-Fixed Receptor    = -10.52 kcal/molUSER        Moving Ligand-Moving Receptor   =  +0.00 kcal/molUSER    (2) Final Total Internal Energy     =  -1.03 kcal/molUSER    (3) Torsional Free Energy           =  +0.89 kcal/molUSER    (4) Unbound System's Energy         =  -1.03 kcal/molUSERUSERREMARK SMILES O=S(=O)(NC1=Nc2ccccc2[S@H]1N1CCNCC1)c1ccc(F)cc1REMARK SMILES IDX 4 1 5 2 6 3 7 4 8 5 9 6 10 7 11 8 12 9 13 10 2 13 1 14 3 15REMARK SMILES IDX 20 16 21 17 26 18 22 19 25 20 23 21 24 22 14 23 15 24 19 25REMARK SMILES IDX 16 26 18 27 17 28REMARK H PARENT 4 11 13 12 17 29USER                              x       y       z     vdW  Elec       q    TypeUSER                           _______ _______ _______ _____ _____    ______ ____ROOTATOM      1  N   UNL     1      34.848  45.949  16.611 -0.18 +0.25    -0.258 N  ATOM      2  C   UNL     1      36.218  46.332  16.798 -0.29 -0.12    +0.172 C  ATOM      3  N   UNL     1      37.024  45.721  17.628 -0.22 +0.08    -0.223 NA ATOM      4  C   UNL     1      38.322  46.222  17.471 -0.33 -0.02    +0.079 A  ATOM      5  C   UNL     1      39.465  45.789  18.173 -0.42 -0.00    +0.029 A  ATOM      6  C   UNL     1      40.710  46.361  17.890 -0.50 -0.00    +0.002 A  ATOM      7  C   UNL     1      40.829  47.353  16.920 -0.49 -0.00    +0.001 A  ATOM      8  C   UNL     1      39.711  47.806  16.212 -0.50 -0.01    +0.017 A  ATOM      9  C   UNL     1      38.466  47.230  16.503 -0.38 -0.01    +0.033 A  ATOM     10  S   UNL     1      36.930  47.534  15.904 -0.41 +0.10    -0.108 S  ATOM     11  H   UNL     1      34.380  46.437  15.852 -0.04 -0.30    +0.182 HD ATOM     12  H   UNL     1      36.524  48.793  16.190 -0.02 -0.20    +0.111 HD ENDROOTBRANCH   1  13ATOM     13  S   UNL     1      33.914  45.830  17.991 -0.46 -0.18    +0.263 S  ATOM     14  O   UNL     1      34.201  47.031  18.754 -1.13 +0.13    -0.201 OA ATOM     15  O   UNL     1      32.553  45.494  17.638 -0.30 +0.08    -0.201 OA BRANCH  13  16ATOM     16  C   UNL     1      34.609  44.474  18.918 -0.32 -0.02    +0.088 A  ATOM     17  C   UNL     1      34.108  43.179  18.735 -0.35 -0.00    +0.025 A  ATOM     18  C   UNL     1      35.618  44.727  19.856 -0.21 -0.00    +0.025 A  ATOM     19  C   UNL     1      34.650  42.124  19.472 -0.35 -0.00    +0.040 A  ATOM     20  C   UNL     1      36.150  43.667  20.591 -0.40 -0.00    +0.040 A  ATOM     21  C   UNL     1      35.664  42.377  20.390 -0.37 -0.00    +0.123 A  ATOM     22  F   UNL     1      36.182  41.364  21.095 -0.20 +0.00    -0.207 F  ENDBRANCH  13  16ENDBRANCH   1  13BRANCH  10  23ATOM     23  N   UNL     1      36.977  47.010  14.316 -0.24 +0.14    -0.257 NA ATOM     24  C   UNL     1      36.713  45.607  13.955 -0.42 -0.05    +0.111 C  ATOM     25  C   UNL     1      36.979  47.904  13.140 -0.57 -0.04    +0.111 C  ATOM     26  C   UNL     1      37.207  45.243  12.541 -0.42 -0.03    +0.097 C  ATOM     27  C   UNL     1      36.177  47.360  11.941 -0.58 -0.05    +0.097 C  ATOM     28  N   UNL     1      36.591  46.032  11.468 -0.29 +0.12    -0.314 NA ATOM     29  H   UNL     1      37.260  46.128  10.705 +0.06 -0.03    +0.122 HD ENDBRANCH  10  23TORSDOF 3TERENDMDL