MODEL        5USER    Run = 5USERUSER    Estimated Free Energy of Binding    =  -9.23 kcal/mol  [=(1)+(2)+(3)-(4)]USERUSER    (1) Final Intermolecular Energy     = -12.21 kcal/molUSER        vdW + Hbond + desolv Energy     = -11.98 kcal/molUSER        Electrostatic Energy            =  -0.23 kcal/molUSER        Moving Ligand-Fixed Receptor    = -12.21 kcal/molUSER        Moving Ligand-Moving Receptor   =  +0.00 kcal/molUSER    (2) Final Total Internal Energy     =  -1.79 kcal/molUSER    (3) Torsional Free Energy           =  +2.98 kcal/molUSER    (4) Unbound System's Energy         =  -1.79 kcal/molUSERUSERREMARK SMILES CCc1c(O)cccc1C1=CC=C2C1=NCO[C@H]2CCCCNC(=O)CC(N)=OREMARK SMILES IDX 20 1 19 2 18 3 10 4 11 5 14 6 12 7 13 8 15 9 16 10 17 11REMARK SMILES IDX 9 12 3 13 4 14 6 15 8 16 7 17 2 18 1 19 5 20 21 22 22 23REMARK SMILES IDX 23 24 24 25 25 27 26 28 27 29 28 30 29 31REMARK H PARENT 5 21 23 26 28 32 28 33USER                              x       y       z     vdW  Elec       q    TypeUSER                           _______ _______ _______ _____ _____    ______ ____ROOTATOM      1  C   UNL     1      40.640  46.957  15.834 -0.51 -0.00    +0.005 C  ENDROOTBRANCH   1   2ATOM      2  C   UNL     1      41.047  46.585  17.269 -0.46 -0.00    +0.037 C  BRANCH   2   3ATOM      3  C   UNL     1      40.174  45.511  17.931 -0.40 -0.01    +0.153 C  ATOM      4  C   UNL     1      39.490  45.038  21.614 -0.36 +0.00    +0.008 C  ATOM      5  C   UNL     1      40.724  45.559  21.640 -0.33 +0.00    +0.011 C  ATOM      6  C   UNL     1      39.124  45.008  20.175 -0.38 -0.00    +0.074 C  ATOM      7  C   UNL     1      41.209  45.825  20.316 -0.43 +0.00    +0.009 C  ATOM      8  C   UNL     1      40.293  45.480  19.408 -0.49 -0.00    +0.007 C  ATOM      9  N   UNL     1      37.997  44.651  19.677 -0.21 +0.02    -0.256 NA ATOM     10  C   UNL     1      37.949  44.795  18.219 -0.23 -0.05    +0.304 C  ATOM     11  O   UNL     1      38.802  45.782  17.629 -0.22 +0.07    -0.351 OA BRANCH   4  12ATOM     12  C   UNL     1      38.639  44.672  22.744 -0.31 -0.00    -0.009 A  ATOM     13  C   UNL     1      38.202  45.592  23.723 -0.27 +0.00    +0.001 A  ATOM     14  C   UNL     1      37.363  45.124  24.751 -0.23 +0.01    +0.119 A  ATOM     15  C   UNL     1      36.973  43.787  24.831 -0.32 +0.00    +0.046 A  ATOM     16  C   UNL     1      38.250  43.324  22.842 -0.32 +0.00    +0.009 A  ATOM     17  C   UNL     1      37.425  42.884  23.876 -0.37 +0.00    +0.004 A  BRANCH  13  18ATOM     18  C   UNL     1      38.626  47.046  23.719 -0.32 +0.01    +0.036 C  ATOM     19  C   UNL     1      39.818  47.317  24.628 -0.31 +0.00    +0.009 C  ENDBRANCH  13  18BRANCH  14  20ATOM     20  O   UNL     1      36.926  46.008  25.702 -0.55 +0.00    -0.508 OA ATOM     21  H   UNL     1      35.976  45.867  25.846 -0.44 -0.11    +0.293 HD ENDBRANCH  14  20ENDBRANCH   4  12ENDBRANCH   2   3ENDBRANCH   1   2BRANCH   1  22ATOM     22  C   UNL     1      40.680  48.454  15.499 -0.65 -0.00    +0.021 C  BRANCH  22  23ATOM     23  C   UNL     1      39.335  49.161  15.670 -0.41 -0.06    +0.116 C  BRANCH  23  24ATOM     24  N   UNL     1      38.323  48.611  14.788 -0.25 +0.21    -0.356 N  ATOM     25  C   UNL     1      37.319  47.807  15.266 -0.35 -0.17    +0.229 C  ATOM     26  H   UNL     1      38.114  49.137  13.938 -0.28 -0.09    +0.163 HD ATOM     27  O   UNL     1      37.301  47.388  16.425 -0.26 +0.20    -0.275 OA BRANCH  25  28ATOM     28  C   UNL     1      36.236  47.390  14.295 -0.31 -0.15    +0.199 C  BRANCH  28  29ATOM     29  C   UNL     1      36.567  47.357  12.827 -0.53 -0.10    +0.226 C  ATOM     30  N   UNL     1      35.571  46.876  12.025 -0.23 +0.24    -0.369 N  ATOM     31  O   UNL     1      37.626  47.738  12.339 -1.03 +0.01    -0.275 OA ATOM     32  H   UNL     1      34.670  46.580  12.373 -0.27 -0.14    +0.159 HD ATOM     33  H   UNL     1      35.735  46.850  11.026 +0.04 -0.10    +0.159 HD ENDBRANCH  28  29ENDBRANCH  25  28ENDBRANCH  23  24ENDBRANCH  22  23ENDBRANCH   1  22TORSDOF 10TERENDMDL