REMARK SMILES O=C1C(N2CCNCC2)=Cc2sc(NS(=O)(=O)c3ccc(F)cc3)cc21
REMARK SMILES IDX 14 1 13 3 2 4 3 5 26 6 10 7 25 8 11 9 12 10 1 11 4 12 5 13
REMARK SMILES IDX 9 14 6 15 8 16 7 17 15 19 16 20 17 21 18 22 19 23 24 24
REMARK SMILES IDX 20 25 23 26 21 27 22 28
REMARK H PARENT 14 2 7 18
ROOT
ATOM      1  N   UNL     1       3.094  -1.179   0.599  1.00  0.00    -0.270 N 
ATOM      2  H   UNL     1       3.198  -2.103   1.023  1.00  0.00     0.181 HD
ENDROOT
BRANCH   1   3
ATOM      3  C   UNL     1       1.691  -0.837   0.358  1.00  0.00     0.104 A 
ATOM      4  C   UNL     1      -1.990  -1.016   0.797  1.00  0.00     0.210 C 
ATOM      5  C   UNL     1      -2.638  -0.056  -0.232  1.00  0.00     0.087 C 
ATOM      6  C   UNL     1      -0.578  -0.889   0.555  1.00  0.00     0.044 A 
ATOM      7  C   UNL     1      -1.629   0.501  -0.944  1.00  0.00     0.050 C 
ATOM      8  C   UNL     1       0.637  -1.404   1.049  1.00  0.00     0.051 A 
ATOM      9  C   UNL     1      -0.410  -0.001  -0.465  1.00  0.00     0.043 A 
ATOM     10  S   UNL     1       1.192   0.246  -0.881  1.00  0.00    -0.117 S 
ATOM     11  O   UNL     1      -2.532  -1.736   1.617  1.00  0.00    -0.287 OA
BRANCH   5  12
ATOM     12  N   UNL     1      -4.013   0.135  -0.344  1.00  0.00    -0.366 N 
ATOM     13  C   UNL     1      -4.972  -0.447   0.624  1.00  0.00     0.132 C 
ATOM     14  C   UNL     1      -4.628   0.853  -1.477  1.00  0.00     0.132 C 
ATOM     15  C   UNL     1      -6.327   0.294   0.602  1.00  0.00     0.102 C 
ATOM     16  C   UNL     1      -6.029   0.296  -1.811  1.00  0.00     0.102 C 
ATOM     17  N   UNL     1      -7.002   0.332  -0.707  1.00  0.00    -0.313 NA
ATOM     18  H   UNL     1      -7.558   1.184  -0.760  1.00  0.00     0.122 HD
ENDBRANCH   5  12
ENDBRANCH   1   3
BRANCH   1  19
ATOM     19  S   UNL     1       3.891  -0.080   1.626  1.00  0.00     0.262 S 
ATOM     20  O   UNL     1       3.173   1.170   1.725  1.00  0.00    -0.201 OA
ATOM     21  O   UNL     1       4.254  -0.844   2.803  1.00  0.00    -0.201 OA
BRANCH  19  22
ATOM     22  C   UNL     1       5.373   0.226   0.692  1.00  0.00     0.088 A 
ATOM     23  C   UNL     1       5.321   1.110  -0.393  1.00  0.00     0.025 A 
ATOM     24  C   UNL     1       6.577  -0.384   1.065  1.00  0.00     0.025 A 
ATOM     25  C   UNL     1       6.482   1.368  -1.123  1.00  0.00     0.040 A 
ATOM     26  C   UNL     1       7.733  -0.119   0.329  1.00  0.00     0.040 A 
ATOM     27  C   UNL     1       7.675   0.751  -0.756  1.00  0.00     0.123 A 
ATOM     28  F   UNL     1       8.787   1.002  -1.458  1.00  0.00    -0.207 F 
ENDBRANCH  19  22
ENDBRANCH   1  19
TORSDOF 4
