REMARK SMILES O=S(=O)(NC1=Nc2ccccc2[S@H]1N1CCNCC1)c1ccc(F)cc1
REMARK SMILES IDX 4 1 5 2 6 3 7 4 8 5 9 6 10 7 11 8 12 9 13 10 2 13 1 14 3 15
REMARK SMILES IDX 20 16 21 17 26 18 22 19 25 20 23 21 24 22 14 23 15 24 19 25
REMARK SMILES IDX 16 26 18 27 17 28
REMARK H PARENT 4 11 13 12 17 29
ROOT
ATOM      1  N   UNL     1       1.112  -1.560  -1.280  1.00  0.00    -0.258 N 
ATOM      2  C   UNL     1       0.625  -0.315  -0.759  1.00  0.00     0.172 C 
ATOM      3  N   UNL     1       0.890   0.843  -1.308  1.00  0.00    -0.223 NA
ATOM      4  C   UNL     1       0.151   1.844  -0.666  1.00  0.00     0.079 A 
ATOM      5  C   UNL     1       0.153   3.213  -0.998  1.00  0.00     0.029 A 
ATOM      6  C   UNL     1      -0.663   4.100  -0.287  1.00  0.00     0.002 A 
ATOM      7  C   UNL     1      -1.477   3.640   0.745  1.00  0.00     0.001 A 
ATOM      8  C   UNL     1      -1.496   2.287   1.099  1.00  0.00     0.017 A 
ATOM      9  C   UNL     1      -0.673   1.405   0.384  1.00  0.00     0.033 A 
ATOM     10  S   UNL     1      -0.402  -0.242   0.542  1.00  0.00    -0.108 S 
ATOM     11  H   UNL     1       0.730  -2.381  -0.819  1.00  0.00     0.182 HD
ATOM     12  H   UNL     1       0.151  -0.543   1.740  1.00  0.00     0.111 HD
ENDROOT
BRANCH   1  13
ATOM     13  S   UNL     1       2.759  -1.661  -1.545  1.00  0.00     0.263 S 
ATOM     14  O   UNL     1       3.098  -3.056  -1.330  1.00  0.00    -0.201 OA
ATOM     15  O   UNL     1       3.099  -1.008  -2.789  1.00  0.00    -0.201 OA
BRANCH  13  16
ATOM     16  C   UNL     1       3.511  -0.754  -0.206  1.00  0.00     0.088 A 
ATOM     17  C   UNL     1       3.952   0.558  -0.417  1.00  0.00     0.025 A 
ATOM     18  C   UNL     1       3.696  -1.383   1.032  1.00  0.00     0.025 A 
ATOM     19  C   UNL     1       4.549   1.258   0.632  1.00  0.00     0.040 A 
ATOM     20  C   UNL     1       4.298  -0.677   2.074  1.00  0.00     0.040 A 
ATOM     21  C   UNL     1       4.715   0.636   1.866  1.00  0.00     0.123 A 
ATOM     22  F   UNL     1       5.288   1.309   2.871  1.00  0.00    -0.207 F 
ENDBRANCH  13  16
ENDBRANCH   1  13
BRANCH  10  23
ATOM     23  N   UNL     1      -1.840  -0.961   0.080  1.00  0.00    -0.257 NA
ATOM     24  C   UNL     1      -2.766  -1.545   1.065  1.00  0.00     0.111 C 
ATOM     25  C   UNL     1      -2.453  -0.823  -1.257  1.00  0.00     0.111 C 
ATOM     26  C   UNL     1      -3.793  -2.506   0.435  1.00  0.00     0.097 C 
ATOM     27  C   UNL     1      -3.993  -0.751  -1.233  1.00  0.00     0.097 C 
ATOM     28  N   UNL     1      -4.657  -1.884  -0.575  1.00  0.00    -0.314 NA
ATOM     29  H   UNL     1      -4.912  -2.587  -1.268  1.00  0.00     0.122 HD
ENDBRANCH  10  23
TORSDOF 3
