REMARK SMILES Nc1cc(C(=O)Nc2nc3cc(Cl)ccc3s2)ccn1
REMARK SMILES IDX 2 1 3 2 4 3 18 4 19 5 20 6 1 7 5 10 7 11 6 12 8 14 9 15
REMARK SMILES IDX 17 16 10 17 16 18 11 19 15 20 12 21 14 22 13 23
REMARK H PARENT 1 8 1 9 7 13
ROOT
ATOM      1  C   UNL     1       4.899   0.233   0.347  1.00  0.00     0.124 A 
ATOM      2  C   UNL     1       3.608   0.317   0.832  1.00  0.00     0.060 A 
ATOM      3  C   UNL     1       2.582  -0.279   0.098  1.00  0.00     0.045 A 
ATOM      4  C   UNL     1       2.880  -0.957  -1.083  1.00  0.00     0.034 A 
ATOM      5  C   UNL     1       4.201  -0.980  -1.486  1.00  0.00     0.114 A 
ATOM      6  N   UNL     1       5.205  -0.392  -0.801  1.00  0.00    -0.240 NA
ENDROOT
BRANCH   1   7
ATOM      7  N   UNL     1       5.951   0.844   1.021  1.00  0.00    -0.384 N 
ATOM      8  H   UNL     1       5.996   0.558   1.992  1.00  0.00     0.158 HD
ATOM      9  H   UNL     1       6.805   0.616   0.518  1.00  0.00     0.158 HD
ENDBRANCH   1   7
BRANCH   3  10
ATOM     10  C   UNL     1       1.194  -0.195   0.627  1.00  0.00     0.257 C 
ATOM     11  N   UNL     1       0.221  -0.070  -0.335  1.00  0.00    -0.298 N 
ATOM     12  O   UNL     1       1.046  -0.217   1.842  1.00  0.00    -0.269 OA
ATOM     13  H   UNL     1       0.475   0.066  -1.303  1.00  0.00     0.172 HD
BRANCH  11  14
ATOM     14  C   UNL     1      -1.135  -0.001  -0.136  1.00  0.00     0.190 A 
ATOM     15  N   UNL     1      -1.946   0.186  -1.149  1.00  0.00    -0.220 NA
ATOM     16  S   UNL     1      -1.863  -0.176   1.389  1.00  0.00    -0.097 S 
ATOM     17  C   UNL     1      -3.257   0.212  -0.699  1.00  0.00     0.085 A 
ATOM     18  C   UNL     1      -3.416   0.030   0.677  1.00  0.00     0.057 A 
ATOM     19  C   UNL     1      -4.401   0.400  -1.499  1.00  0.00     0.050 A 
ATOM     20  C   UNL     1      -4.681   0.029   1.287  1.00  0.00     0.023 A 
ATOM     21  C   UNL     1      -5.661   0.400  -0.898  1.00  0.00     0.043 A 
ATOM     22  C   UNL     1      -5.803   0.218   0.474  1.00  0.00     0.022 A 
ATOM     23  Cl  UNL     1      -7.062   0.630  -1.872  1.00  0.00    -0.084 Cl
ENDBRANCH  11  14
ENDBRANCH   3  10
TORSDOF 3
