REMARK SMILES CNc1cc(C(=O)Nc2nc3ccccc3s2)ccn1
REMARK SMILES IDX 3 1 4 2 5 3 18 4 19 5 20 6 2 7 1 8 6 10 8 11 7 12 9 14 10 15
REMARK SMILES IDX 17 16 11 17 16 18 12 19 15 20 13 21 14 22
REMARK H PARENT 2 9 8 13
ROOT
ATOM      1  C   UNL     1       3.848   0.187  -0.380  1.00  0.00     0.126 A 
ATOM      2  C   UNL     1       2.494   0.052  -0.094  1.00  0.00     0.060 A 
ATOM      3  C   UNL     1       1.863  -1.164  -0.365  1.00  0.00     0.045 A 
ATOM      4  C   UNL     1       2.601  -2.222  -0.887  1.00  0.00     0.034 A 
ATOM      5  C   UNL     1       3.934  -1.998  -1.152  1.00  0.00     0.114 A 
ATOM      6  N   UNL     1       4.558  -0.822  -0.921  1.00  0.00    -0.240 NA
ENDROOT
BRANCH   1   7
ATOM      7  N   UNL     1       4.450   1.433  -0.130  1.00  0.00    -0.373 N 
ATOM      8  C   UNL     1       5.872   1.480  -0.435  1.00  0.00     0.141 C 
ATOM      9  H   UNL     1       4.267   1.706   0.832  1.00  0.00     0.161 HD
ENDBRANCH   1   7
BRANCH   3  10
ATOM     10  C   UNL     1       0.418  -1.379  -0.085  1.00  0.00     0.257 C 
ATOM     11  N   UNL     1      -0.377  -0.277  -0.293  1.00  0.00    -0.298 N 
ATOM     12  O   UNL     1       0.068  -2.498   0.266  1.00  0.00    -0.269 OA
ATOM     13  H   UNL     1       0.007   0.559  -0.710  1.00  0.00     0.172 HD
BRANCH  11  14
ATOM     14  C   UNL     1      -1.731  -0.182  -0.088  1.00  0.00     0.190 A 
ATOM     15  N   UNL     1      -2.373   0.918  -0.396  1.00  0.00    -0.220 NA
ATOM     16  S   UNL     1      -2.660  -1.433   0.591  1.00  0.00    -0.097 S 
ATOM     17  C   UNL     1      -3.717   0.773  -0.090  1.00  0.00     0.084 A 
ATOM     18  C   UNL     1      -4.072  -0.458   0.465  1.00  0.00     0.056 A 
ATOM     19  C   UNL     1      -4.722   1.742  -0.288  1.00  0.00     0.030 A 
ATOM     20  C   UNL     1      -5.395  -0.756   0.829  1.00  0.00     0.021 A 
ATOM     21  C   UNL     1      -6.043   1.456   0.070  1.00  0.00     0.002 A 
ATOM     22  C   UNL     1      -6.373   0.221   0.622  1.00  0.00     0.002 A 
ENDBRANCH  11  14
ENDBRANCH   3  10
TORSDOF 3
