REMARK SMILES COc1ccc(O)c(C(=O)c2ccc(C(=O)N[C@@H]3CCC4(CC4)NC3)cc2)c1F
REMARK SMILES IDX 11 1 12 2 13 3 14 4 26 5 27 6 9 7 10 8 8 9 3 10 4 11 28 12
REMARK SMILES IDX 5 13 6 14 29 15 2 16 1 17 7 18 15 20 17 21 16 22 18 24 19 25
REMARK SMILES IDX 25 26 20 27 24 28 21 29 22 30 23 31
REMARK H PARENT 7 19 17 23 24 32
ROOT
ATOM      1  C   UNL     1      -2.254   1.226   0.625  1.00  0.00     0.023 A 
ATOM      2  C   UNL     1      -2.205   1.105  -0.768  1.00  0.00     0.013 A 
ATOM      3  C   UNL     1      -0.992   0.812  -1.398  1.00  0.00     0.014 A 
ATOM      4  C   UNL     1       0.179   0.644  -0.645  1.00  0.00     0.039 A 
ATOM      5  C   UNL     1       0.135   0.804   0.745  1.00  0.00     0.014 A 
ATOM      6  C   UNL     1      -1.079   1.097   1.376  1.00  0.00     0.013 A 
ENDROOT
BRANCH   1   7
ATOM      7  C   UNL     1      -3.510   1.569   1.336  1.00  0.00     0.199 C 
ATOM      8  O   UNL     1      -3.456   2.330   2.304  1.00  0.00    -0.288 OA
BRANCH   7   9
ATOM      9  C   UNL     1      -4.841   1.088   0.908  1.00  0.00     0.104 A 
ATOM     10  C   UNL     1      -6.287  -0.609  -0.080  1.00  0.00     0.155 A 
ATOM     11  C   UNL     1      -7.389   0.231   0.098  1.00  0.00     0.053 A 
ATOM     12  C   UNL     1      -5.021  -0.172   0.336  1.00  0.00     0.179 A 
ATOM     13  C   UNL     1      -7.226   1.481   0.702  1.00  0.00     0.051 A 
ATOM     14  C   UNL     1      -5.963   1.898   1.117  1.00  0.00     0.130 A 
ATOM     15  F   UNL     1      -3.975  -1.004   0.197  1.00  0.00    -0.202 F 
BRANCH  10  16
ATOM     16  O   UNL     1      -6.325  -1.858  -0.639  1.00  0.00    -0.494 OA
ATOM     17  C   UNL     1      -7.593  -2.351  -1.052  1.00  0.00     0.278 C 
ENDBRANCH  10  16
BRANCH  14  18
ATOM     18  O   UNL     1      -5.897   3.121   1.729  1.00  0.00    -0.507 OA
ATOM     19  H   UNL     1      -5.016   3.192   2.164  1.00  0.00     0.293 HD
ENDBRANCH  14  18
ENDBRANCH   7   9
ENDBRANCH   1   7
BRANCH   4  20
ATOM     20  C   UNL     1       1.442   0.337  -1.373  1.00  0.00     0.251 C 
ATOM     21  N   UNL     1       2.399  -0.377  -0.682  1.00  0.00    -0.348 N 
ATOM     22  O   UNL     1       1.583   0.696  -2.536  1.00  0.00    -0.269 OA
ATOM     23  H   UNL     1       2.229  -0.667   0.270  1.00  0.00     0.164 HD
BRANCH  21  24
ATOM     24  C   UNL     1       3.702  -0.670  -1.276  1.00  0.00     0.096 C 
ATOM     25  C   UNL     1       4.368  -1.861  -0.559  1.00  0.00     0.028 C 
ATOM     26  C   UNL     1       4.601   0.593  -1.276  1.00  0.00     0.106 C 
ATOM     27  C   UNL     1       5.381  -1.400   0.487  1.00  0.00     0.024 C 
ATOM     28  N   UNL     1       6.029   0.267  -1.334  1.00  0.00    -0.309 NA
ATOM     29  C   UNL     1       6.447  -0.525  -0.154  1.00  0.00     0.018 C 
ATOM     30  C   UNL     1       7.880  -1.010  -0.130  1.00  0.00     0.024 C 
ATOM     31  C   UNL     1       7.460   0.112   0.769  1.00  0.00     0.024 C 
ATOM     32  H   UNL     1       6.214  -0.254  -2.192  1.00  0.00     0.123 HD
ENDBRANCH  21  24
ENDBRANCH   4  20
TORSDOF 6
