REMARK SMILES COc1ccc(O)c(C(=O)c2ccc(C(=O)N[C@@H]3CCCN(C)C3)cc2)c1F
REMARK SMILES IDX 11 1 12 2 13 3 14 4 25 5 26 6 9 7 10 8 8 9 3 10 4 11 27 12
REMARK SMILES IDX 5 13 6 14 28 15 2 16 1 17 7 18 15 20 17 21 16 22 18 24 19 25
REMARK SMILES IDX 24 26 20 27 22 28 21 29 23 30
REMARK H PARENT 7 19 17 23
ROOT
ATOM      1  C   UNL     1       2.109   0.886   1.275  1.00  0.00     0.023 A 
ATOM      2  C   UNL     1       2.005   1.026  -0.113  1.00  0.00     0.013 A 
ATOM      3  C   UNL     1       0.766   0.851  -0.737  1.00  0.00     0.014 A 
ATOM      4  C   UNL     1      -0.377   0.559   0.020  1.00  0.00     0.039 A 
ATOM      5  C   UNL     1      -0.270   0.424   1.410  1.00  0.00     0.014 A 
ATOM      6  C   UNL     1       0.969   0.599   2.035  1.00  0.00     0.013 A 
ENDROOT
BRANCH   1   7
ATOM      7  C   UNL     1       3.392   1.097   1.986  1.00  0.00     0.199 C 
ATOM      8  O   UNL     1       3.381   1.697   3.063  1.00  0.00    -0.288 OA
BRANCH   7   9
ATOM      9  C   UNL     1       4.701   0.675   1.442  1.00  0.00     0.104 A 
ATOM     10  C   UNL     1       6.082  -0.851   0.133  1.00  0.00     0.155 A 
ATOM     11  C   UNL     1       7.207  -0.074   0.420  1.00  0.00     0.053 A 
ATOM     12  C   UNL     1       4.837  -0.470   0.655  1.00  0.00     0.179 A 
ATOM     13  C   UNL     1       7.088   1.056   1.234  1.00  0.00     0.051 A 
ATOM     14  C   UNL     1       5.847   1.417   1.752  1.00  0.00     0.130 A 
ATOM     15  F   UNL     1       3.770  -1.247   0.405  1.00  0.00    -0.202 F 
BRANCH  10  16
ATOM     16  O   UNL     1       6.077  -1.985  -0.634  1.00  0.00    -0.494 OA
ATOM     17  C   UNL     1       7.324  -2.425  -1.158  1.00  0.00     0.278 C 
ENDBRANCH  10  16
BRANCH  14  18
ATOM     18  O   UNL     1       5.824   2.517   2.566  1.00  0.00    -0.507 OA
ATOM     19  H   UNL     1       4.954   2.532   3.028  1.00  0.00     0.293 HD
ENDBRANCH  14  18
ENDBRANCH   7   9
ENDBRANCH   1   7
BRANCH   4  20
ATOM     20  C   UNL     1      -1.669   0.383  -0.700  1.00  0.00     0.251 C 
ATOM     21  N   UNL     1      -2.816   0.686   0.002  1.00  0.00    -0.348 N 
ATOM     22  O   UNL     1      -1.675   0.007  -1.867  1.00  0.00    -0.269 OA
ATOM     23  H   UNL     1      -2.761   1.036   0.948  1.00  0.00     0.164 HD
BRANCH  21  24
ATOM     24  C   UNL     1      -4.138   0.502  -0.587  1.00  0.00     0.096 C 
ATOM     25  C   UNL     1      -5.195   1.276   0.201  1.00  0.00     0.027 C 
ATOM     26  C   UNL     1      -4.523  -1.000  -0.684  1.00  0.00     0.109 C 
ATOM     27  C   UNL     1      -6.584   1.109  -0.422  1.00  0.00     0.018 C 
ATOM     28  N   UNL     1      -5.977  -1.260  -0.633  1.00  0.00    -0.304 NA
ATOM     29  C   UNL     1      -6.733  -0.173  -1.252  1.00  0.00     0.084 C 
ATOM     30  C   UNL     1      -6.291  -2.550  -1.243  1.00  0.00     0.105 C 
ENDBRANCH  21  24
ENDBRANCH   4  20
TORSDOF 6
