REMARK SMILES COc1c(C(=O)Nc2nc3ccccc3s2)ccnc1N
REMARK SMILES IDX 3 1 4 2 17 3 18 4 19 5 20 6 2 7 1 8 5 9 7 10 6 11 8 13 9 14
REMARK SMILES IDX 16 15 10 16 15 17 11 18 14 19 12 20 13 21 21 22
REMARK H PARENT 7 12 21 23 21 24
ROOT
ATOM      1  C   UNL     1      -2.768   0.719   0.601  1.00  0.00     0.173 A 
ATOM      2  C   UNL     1      -2.052   1.572  -0.247  1.00  0.00     0.087 A 
ATOM      3  C   UNL     1      -2.641   2.775  -0.644  1.00  0.00     0.038 A 
ATOM      4  C   UNL     1      -3.889   3.090  -0.146  1.00  0.00     0.114 A 
ATOM      5  N   UNL     1      -4.571   2.306   0.715  1.00  0.00    -0.236 NA
ATOM      6  C   UNL     1      -4.010   1.145   1.091  1.00  0.00     0.166 A 
ENDROOT
BRANCH   1   7
ATOM      7  O   UNL     1      -2.261  -0.490   1.015  1.00  0.00    -0.492 OA
ATOM      8  C   UNL     1      -2.599  -1.513   0.069  1.00  0.00     0.278 C 
ENDBRANCH   1   7
BRANCH   2   9
ATOM      9  C   UNL     1      -0.681   1.281  -0.762  1.00  0.00     0.261 C 
ATOM     10  N   UNL     1       0.078   0.447   0.023  1.00  0.00    -0.298 N 
ATOM     11  O   UNL     1      -0.343   1.815  -1.812  1.00  0.00    -0.269 OA
ATOM     12  H   UNL     1      -0.321   0.062   0.871  1.00  0.00     0.172 HD
BRANCH  10  13
ATOM     13  C   UNL     1       1.357   0.012  -0.210  1.00  0.00     0.190 A 
ATOM     14  N   UNL     1       1.941  -0.817   0.622  1.00  0.00    -0.220 NA
ATOM     15  S   UNL     1       2.271   0.492  -1.560  1.00  0.00    -0.097 S 
ATOM     16  C   UNL     1       3.219  -1.104   0.171  1.00  0.00     0.084 A 
ATOM     17  C   UNL     1       3.586  -0.476  -1.020  1.00  0.00     0.056 A 
ATOM     18  C   UNL     1       4.149  -1.955   0.803  1.00  0.00     0.030 A 
ATOM     19  C   UNL     1       4.849  -0.669  -1.604  1.00  0.00     0.021 A 
ATOM     20  C   UNL     1       5.410  -2.154   0.230  1.00  0.00     0.002 A 
ATOM     21  C   UNL     1       5.753  -1.518  -0.958  1.00  0.00     0.002 A 
ENDBRANCH  10  13
ENDBRANCH   2   9
BRANCH   6  22
ATOM     22  N   UNL     1      -4.726   0.363   2.013  1.00  0.00    -0.381 N 
ATOM     23  H   UNL     1      -4.130   0.195   2.820  1.00  0.00     0.158 HD
ATOM     24  H   UNL     1      -4.929  -0.542   1.603  1.00  0.00     0.158 HD
ENDBRANCH   6  22
TORSDOF 4
