MODEL        5USER    Run = 5USERUSER    Estimated Free Energy of Binding    =  -8.22 kcal/mol  [=(1)+(2)+(3)-(4)]USERUSER    (1) Final Intermolecular Energy     =  -9.12 kcal/molUSER        vdW + Hbond + desolv Energy     =  -9.00 kcal/molUSER        Electrostatic Energy            =  -0.12 kcal/molUSER        Moving Ligand-Fixed Receptor    =  -9.12 kcal/molUSER        Moving Ligand-Moving Receptor   =  +0.00 kcal/molUSER    (2) Final Total Internal Energy     =  -0.16 kcal/molUSER    (3) Torsional Free Energy           =  +0.89 kcal/molUSER    (4) Unbound System's Energy         =  -0.16 kcal/molUSERUSERREMARK SMILES Nc1cc(C(=O)Nc2nc3cc(Cl)ccc3s2)ccn1REMARK SMILES IDX 2 1 3 2 4 3 18 4 19 5 20 6 1 7 5 10 7 11 6 12 8 14 9 15REMARK SMILES IDX 17 16 10 17 16 18 11 19 15 20 12 21 14 22 13 23REMARK H PARENT 1 8 1 9 7 13USER                              x       y       z     vdW  Elec       q    TypeUSER                           _______ _______ _______ _____ _____    ______ ____ROOTATOM      1  C   UNL     1      43.703  52.865  10.540 -0.38 -0.08    +0.124 A  ATOM      2  C   UNL     1      43.167  51.728  11.114 -0.44 -0.04    +0.060 A  ATOM      3  C   UNL     1      43.530  51.410  12.423 -0.45 -0.02    +0.045 A  ATOM      4  C   UNL     1      44.398  52.246  13.123 -0.21 -0.01    +0.034 A  ATOM      5  C   UNL     1      44.883  53.356  12.460 -0.13 -0.05    +0.114 A  ATOM      6  N   UNL     1      44.561  53.670  11.187 -0.15 +0.15    -0.240 NA ENDROOTBRANCH   1   7ATOM      7  N   UNL     1      43.404  53.205   9.225 -0.16 +0.14    -0.384 N  ATOM      8  H   UNL     1      43.275  52.386   8.642 -0.22 +0.05    +0.158 HD ATOM      9  H   UNL     1      42.572  53.790   9.246 -0.43 -0.18    +0.158 HD ENDBRANCH   1   7BRANCH   3  10ATOM     10  C   UNL     1      42.944  50.190  13.042 -0.48 -0.08    +0.257 C  ATOM     11  N   UNL     1      42.063  50.435  14.067 -0.44 +0.07    -0.298 N  ATOM     12  O   UNL     1      43.309  49.103  12.613 -0.58 +0.06    -0.269 OA ATOM     13  H   UNL     1      41.938  51.373  14.419 +0.09 -0.04    +0.172 HD BRANCH  11  14ATOM     14  C   UNL     1      41.359  49.507  14.792 -0.49 -0.03    +0.190 A  ATOM     15  N   UNL     1      41.791  49.114  15.966 -0.81 -0.03    -0.220 NA ATOM     16  S   UNL     1      39.895  48.826  14.262 -0.49 +0.03    -0.097 S  ATOM     17  C   UNL     1      40.911  48.185  16.501 -0.48 -0.01    +0.085 A  ATOM     18  C   UNL     1      39.800  47.894  15.705 -0.49 -0.02    +0.057 A  ATOM     19  C   UNL     1      41.049  47.538  17.744 -0.48 -0.01    +0.050 A  ATOM     20  C   UNL     1      38.817  46.975  16.107 -0.42 -0.01    +0.023 A  ATOM     21  C   UNL     1      40.075  46.623  18.148 -0.43 -0.01    +0.043 A  ATOM     22  C   UNL     1      38.974  46.343  17.345 -0.41 -0.01    +0.022 A  ATOM     23  Cl  UNL     1      40.240  45.829  19.667 -0.53 -0.00    -0.084 Cl ENDBRANCH  11  14ENDBRANCH   3  10TORSDOF 3TERENDMDL