REMARK SMILES COc1ccc(N)c(C(=O)c2ccc(C(=O)N[C@@H]3CCCNC3)cc2)c1F
REMARK SMILES IDX 11 1 12 2 13 3 14 4 24 5 25 6 9 7 10 8 8 9 3 10 4 11 26 12
REMARK SMILES IDX 5 13 6 14 27 15 2 16 1 17 7 18 15 21 17 22 16 23 18 25 19 26
REMARK SMILES IDX 23 27 20 28 22 29 21 30
REMARK H PARENT 7 19 7 20 17 24 22 31
ROOT
ATOM      1  C   UNL     1      -1.372  -1.342  -0.420  1.00  0.00     0.023 A 
ATOM      2  C   UNL     1      -1.474  -0.053  -0.956  1.00  0.00     0.013 A 
ATOM      3  C   UNL     1      -0.328   0.736  -1.097  1.00  0.00     0.014 A 
ATOM      4  C   UNL     1       0.925   0.245  -0.707  1.00  0.00     0.039 A 
ATOM      5  C   UNL     1       1.031  -1.058  -0.203  1.00  0.00     0.014 A 
ATOM      6  C   UNL     1      -0.115  -1.847  -0.062  1.00  0.00     0.013 A 
ENDROOT
BRANCH   1   7
ATOM      7  C   UNL     1      -2.558  -2.226  -0.267  1.00  0.00     0.198 C 
ATOM      8  O   UNL     1      -2.417  -3.446  -0.349  1.00  0.00    -0.288 OA
BRANCH   7   9
ATOM      9  C   UNL     1      -3.914  -1.678  -0.048  1.00  0.00     0.085 A 
ATOM     10  C   UNL     1      -5.385  -0.153   1.151  1.00  0.00     0.155 A 
ATOM     11  C   UNL     1      -6.455  -0.600   0.377  1.00  0.00     0.052 A 
ATOM     12  C   UNL     1      -4.117  -0.699   0.928  1.00  0.00     0.178 A 
ATOM     13  C   UNL     1      -6.259  -1.598  -0.586  1.00  0.00     0.030 A 
ATOM     14  C   UNL     1      -5.004  -2.189  -0.775  1.00  0.00     0.046 A 
ATOM     15  F   UNL     1      -3.084  -0.274   1.675  1.00  0.00    -0.202 F 
BRANCH  10  16
ATOM     16  O   UNL     1      -5.454   0.806   2.125  1.00  0.00    -0.494 OA
ATOM     17  C   UNL     1      -6.734   1.355   2.411  1.00  0.00     0.278 C 
ENDBRANCH  10  16
BRANCH  14  18
ATOM     18  N   UNL     1      -4.837  -3.099  -1.836  1.00  0.00    -0.398 N 
ATOM     19  H   UNL     1      -4.008  -3.690  -1.693  1.00  0.00     0.156 HD
ATOM     20  H   UNL     1      -5.657  -3.665  -2.030  1.00  0.00     0.156 HD
ENDBRANCH  14  18
ENDBRANCH   7   9
ENDBRANCH   1   7
BRANCH   4  21
ATOM     21  C   UNL     1       2.114   1.125  -0.879  1.00  0.00     0.251 C 
ATOM     22  N   UNL     1       3.167   0.907  -0.014  1.00  0.00    -0.348 N 
ATOM     23  O   UNL     1       2.110   2.005  -1.731  1.00  0.00    -0.269 OA
ATOM     24  H   UNL     1       3.018   0.325   0.799  1.00  0.00     0.164 HD
BRANCH  22  25
ATOM     25  C   UNL     1       4.353   1.767  -0.032  1.00  0.00     0.096 C 
ATOM     26  C   UNL     1       5.193   1.500  -1.299  1.00  0.00     0.027 C 
ATOM     27  C   UNL     1       5.195   1.569   1.251  1.00  0.00     0.105 C 
ATOM     28  C   UNL     1       6.685   1.452  -0.989  1.00  0.00     0.017 C 
ATOM     29  N   UNL     1       6.002   0.345   1.184  1.00  0.00    -0.315 NA
ATOM     30  C   UNL     1       6.997   0.423   0.103  1.00  0.00     0.081 C 
ATOM     31  H   UNL     1       5.379  -0.438   0.981  1.00  0.00     0.122 HD
ENDBRANCH  22  25
ENDBRANCH   4  21
TORSDOF 6
