MODEL        10USER    Run = 10USERUSER    Estimated Free Energy of Binding    =  -7.50 kcal/mol  [=(1)+(2)+(3)-(4)]USERUSER    (1) Final Intermolecular Energy     =  -8.39 kcal/molUSER        vdW + Hbond + desolv Energy     =  -8.23 kcal/molUSER        Electrostatic Energy            =  -0.16 kcal/molUSER        Moving Ligand-Fixed Receptor    =  -8.39 kcal/molUSER        Moving Ligand-Moving Receptor   =  +0.00 kcal/molUSER    (2) Final Total Internal Energy     =  -0.26 kcal/molUSER    (3) Torsional Free Energy           =  +0.89 kcal/molUSER    (4) Unbound System's Energy         =  -0.26 kcal/molUSERUSERREMARK SMILES CNc1cc(C(=O)Nc2nc3ccccc3s2)ccn1REMARK SMILES IDX 3 1 4 2 5 3 18 4 19 5 20 6 2 7 1 8 6 10 8 11 7 12 9 14 10 15REMARK SMILES IDX 17 16 11 17 16 18 12 19 15 20 13 21 14 22REMARK H PARENT 2 9 8 13USER                              x       y       z     vdW  Elec       q    TypeUSER                           _______ _______ _______ _____ _____    ______ ____ROOTATOM      1  C   UNL     1      37.821  29.340  20.346 -0.24 +0.00    +0.126 A  ATOM      2  C   UNL     1      36.560  29.332  20.933 -0.28 -0.01    +0.060 A  ATOM      3  C   UNL     1      36.341  30.104  22.076 -0.37 -0.00    +0.045 A  ATOM      4  C   UNL     1      37.373  30.884  22.589 -0.43 +0.00    +0.034 A  ATOM      5  C   UNL     1      38.593  30.823  21.953 -0.35 +0.02    +0.114 A  ATOM      6  N   UNL     1      38.833  30.064  20.861 -0.23 -0.04    -0.240 NA ENDROOTBRANCH   1   7ATOM      7  N   UNL     1      38.023  28.527  19.216 -0.08 -0.00    -0.373 N  ATOM      8  C   UNL     1      36.865  27.731  18.839 -0.23 -0.04    +0.141 C  ATOM      9  H   UNL     1      38.842  27.944  19.366 +0.07 +0.02    +0.161 HD ENDBRANCH   1   7BRANCH   3  10ATOM     10  C   UNL     1      35.019  30.143  22.756 -0.26 -0.02    +0.257 C  ATOM     11  N   UNL     1      33.944  29.897  21.935 -0.29 +0.05    -0.298 N  ATOM     12  O   UNL     1      35.006  30.353  23.962 -0.25 -0.02    -0.269 OA ATOM     13  H   UNL     1      34.087  29.606  20.979 -0.46 -0.08    +0.172 HD BRANCH  11  14ATOM     14  C   UNL     1      32.616  29.899  22.286 -0.34 +0.00    +0.190 A  ATOM     15  N   UNL     1      31.756  30.629  21.620 -0.83 +0.01    -0.220 NA ATOM     16  S   UNL     1      31.997  29.005  23.593 -0.58 -0.01    -0.097 S  ATOM     17  C   UNL     1      30.492  30.470  22.166 -0.51 -0.01    +0.084 A  ATOM     18  C   UNL     1      30.421  29.611  23.265 -0.54 -0.00    +0.056 A  ATOM     19  C   UNL     1      29.309  31.090  21.714 -0.44 -0.01    +0.030 A  ATOM     20  C   UNL     1      29.211  29.349  23.927 -0.55 +0.00    +0.021 A  ATOM     21  C   UNL     1      28.098  30.836  22.365 -0.49 -0.00    +0.002 A  ATOM     22  C   UNL     1      28.052  29.975  23.459 -0.55 -0.00    +0.002 A  ENDBRANCH  11  14ENDBRANCH   3  10TORSDOF 3TERENDMDL