MODEL        4USER    Run = 4USERUSER    Estimated Free Energy of Binding    =  -9.71 kcal/mol  [=(1)+(2)+(3)-(4)]USERUSER    (1) Final Intermolecular Energy     = -11.50 kcal/molUSER        vdW + Hbond + desolv Energy     = -11.19 kcal/molUSER        Electrostatic Energy            =  -0.31 kcal/molUSER        Moving Ligand-Fixed Receptor    = -11.50 kcal/molUSER        Moving Ligand-Moving Receptor   =  +0.00 kcal/molUSER    (2) Final Total Internal Energy     =  -0.80 kcal/molUSER    (3) Torsional Free Energy           =  +1.79 kcal/molUSER    (4) Unbound System's Energy         =  -0.80 kcal/molUSERUSERREMARK SMILES CN1CCN(C(=O)c2ccc(-c3nc(N=Cc4cncn4C)ccc3C#N)cc2F)CC1REMARK SMILES IDX 12 1 13 2 14 3 23 4 24 5 25 6 11 7 8 8 9 9 29 10 10 11 28 12REMARK SMILES IDX 30 13 6 14 2 15 3 16 32 17 4 18 31 19 5 20 1 21 7 22 26 23REMARK SMILES IDX 27 24 15 25 16 26 17 27 18 28 21 29 19 30 20 31 22 32REMARK H PARENTUSER                              x       y       z     vdW  Elec       q    TypeUSER                           _______ _______ _______ _____ _____    ______ ____ROOTATOM      1  C   UNL     1      39.823  46.493  17.745 -0.40 -0.01    +0.091 A  ATOM      2  N   UNL     1      38.913  45.508  17.992 -0.26 +0.04    -0.227 NA ATOM      3  C   UNL     1      37.930  45.296  17.091 -0.27 -0.04    +0.152 A  ATOM      4  C   UNL     1      37.812  46.039  15.928 -0.34 -0.02    +0.050 A  ATOM      5  C   UNL     1      38.733  47.054  15.681 -0.43 -0.01    +0.025 A  ATOM      6  C   UNL     1      39.758  47.293  16.601 -0.43 -0.02    +0.078 A  ENDROOTBRANCH   1   7ATOM      7  C   UNL     1      40.846  46.617  18.802 -0.46 -0.00    +0.005 A  ATOM      8  C   UNL     1      42.787  46.772  20.840 -0.34 +0.02    +0.075 A  ATOM      9  C   UNL     1      43.015  47.404  19.614 -0.45 +0.00    +0.017 A  ATOM     10  C   UNL     1      41.604  46.077  21.055 -0.24 +0.02    +0.136 A  ATOM     11  C   UNL     1      42.054  47.314  18.601 -0.53 +0.00    +0.011 A  ATOM     12  C   UNL     1      40.645  45.994  20.048 -0.31 +0.00    +0.050 A  ATOM     13  F   UNL     1      41.375  45.446  22.215 -0.03 -0.02    -0.206 F  BRANCH   8  14ATOM     14  C   UNL     1      43.780  46.873  21.920 -0.23 +0.11    +0.256 C  ATOM     15  N   UNL     1      42.799  48.807  25.718 -0.16 -0.03    -0.303 NA ATOM     16  C   UNL     1      43.643  47.600  25.582 -0.11 +0.01    +0.105 C  ATOM     17  C   UNL     1      42.267  49.271  24.423 -0.35 +0.03    +0.105 C  ATOM     18  C   UNL     1      44.353  47.491  24.223 -0.16 +0.03    +0.135 C  ATOM     19  C   UNL     1      42.136  48.186  23.337 -0.31 +0.02    +0.135 C  ATOM     20  N   UNL     1      43.394  47.461  23.117 -0.13 -0.07    -0.336 N  ATOM     21  C   UNL     1      41.744  48.592  26.703 -0.22 +0.01    +0.105 C  ATOM     22  O   UNL     1      44.892  46.396  21.719 -0.67 -0.32    -0.269 OA ENDBRANCH   8  14ENDBRANCH   1   7BRANCH   6  23ATOM     23  C   UNL     1      40.683  48.355  16.350 -0.56 -0.02    +0.101 C  ATOM     24  N   UNL     1      41.451  49.202  16.150 -1.02 -0.00    -0.192 NA ENDBRANCH   6  23BRANCH   3  25ATOM     25  N   UNL     1      37.014  44.269  17.328 -0.18 +0.06    -0.235 NA BRANCH  25  26ATOM     26  C   UNL     1      36.715  43.977  18.550 -0.28 -0.03    +0.141 C  BRANCH  26  27ATOM     27  C   UNL     1      35.338  43.917  18.960 -0.31 -0.02    +0.079 A  ATOM     28  C   UNL     1      34.667  42.913  19.633 -0.33 -0.01    +0.140 A  ATOM     29  N   UNL     1      34.374  44.879  18.761 -0.18 +0.12    -0.333 N  ATOM     30  N   UNL     1      33.351  43.237  19.837 -0.80 -0.01    -0.245 NA ATOM     31  C   UNL     1      33.205  44.426  19.301 -0.29 -0.04    +0.199 A  ATOM     32  C   UNL     1      34.546  46.149  18.102 -0.42 -0.11    +0.151 C  ENDBRANCH  26  27ENDBRANCH  25  26ENDBRANCH   3  25TORSDOF 6TERENDMDL