MODEL        10USER    Run = 10USERUSER    Estimated Free Energy of Binding    =  -7.54 kcal/mol  [=(1)+(2)+(3)-(4)]USERUSER    (1) Final Intermolecular Energy     =  -8.74 kcal/molUSER        vdW + Hbond + desolv Energy     =  -8.59 kcal/molUSER        Electrostatic Energy            =  -0.14 kcal/molUSER        Moving Ligand-Fixed Receptor    =  -8.74 kcal/molUSER        Moving Ligand-Moving Receptor   =  +0.00 kcal/molUSER    (2) Final Total Internal Energy     =  -0.92 kcal/molUSER    (3) Torsional Free Energy           =  +1.19 kcal/molUSER    (4) Unbound System's Energy         =  -0.92 kcal/molUSERUSERREMARK SMILES COc1c(C(=O)Nc2nc3ccccc3s2)ccnc1NREMARK SMILES IDX 3 1 4 2 17 3 18 4 19 5 20 6 2 7 1 8 5 9 7 10 6 11 8 13 9 14REMARK SMILES IDX 16 15 10 16 15 17 11 18 14 19 12 20 13 21 21 22REMARK H PARENT 7 12 21 23 21 24USER                              x       y       z     vdW  Elec       q    TypeUSER                           _______ _______ _______ _____ _____    ______ ____ROOTATOM      1  C   UNL     1      36.881  30.051  22.056 -0.25 -0.01    +0.173 A  ATOM      2  C   UNL     1      35.900  29.118  21.697 -0.32 -0.02    +0.087 A  ATOM      3  C   UNL     1      36.177  28.214  20.669 -0.31 -0.01    +0.038 A  ATOM      4  C   UNL     1      37.425  28.251  20.080 -0.18 -0.02    +0.114 A  ATOM      5  N   UNL     1      38.401  29.107  20.450 -0.15 -0.03    -0.236 NA ATOM      6  C   UNL     1      38.134  29.983  21.432 -0.27 +0.02    +0.166 A  ENDROOTBRANCH   1   7ATOM      7  O   UNL     1      36.671  30.985  23.042 -0.11 -0.02    -0.492 OA ATOM      8  C   UNL     1      37.107  30.469  24.307 -0.28 +0.03    +0.278 C  ENDBRANCH   1   7BRANCH   2   9ATOM      9  C   UNL     1      34.560  29.021  22.349 -0.34 -0.04    +0.261 C  ATOM     10  N   UNL     1      33.634  29.945  21.930 -0.31 +0.04    -0.298 N  ATOM     11  O   UNL     1      34.405  28.155  23.202 -0.27 +0.03    -0.269 OA ATOM     12  H   UNL     1      33.885  30.610  21.207 -0.45 -0.07    +0.172 HD BRANCH  10  13ATOM     13  C   UNL     1      32.336  30.080  22.352 -0.41 +0.00    +0.190 A  ATOM     14  N   UNL     1      31.407  30.495  21.525 -0.82 +0.01    -0.220 NA ATOM     15  S   UNL     1      31.832  29.729  23.936 -0.60 -0.02    -0.097 S  ATOM     16  C   UNL     1      30.189  30.549  22.184 -0.49 -0.01    +0.084 A  ATOM     17  C   UNL     1      30.220  30.163  23.524 -0.56 +0.01    +0.056 A  ATOM     18  C   UNL     1      28.960  30.951  21.622 -0.38 -0.01    +0.030 A  ATOM     19  C   UNL     1      29.065  30.163  24.324 -0.56 +0.01    +0.021 A  ATOM     20  C   UNL     1      27.804  30.954  22.410 -0.48 -0.00    +0.002 A  ATOM     21  C   UNL     1      27.858  30.565  23.743 -0.49 +0.00    +0.002 A  ENDBRANCH  10  13ENDBRANCH   2   9BRANCH   6  22ATOM     22  N   UNL     1      39.177  30.840  21.819 -0.16 -0.07    -0.381 N  ATOM     23  H   UNL     1      38.781  31.594  22.376 +0.06 +0.04    +0.158 HD ATOM     24  H   UNL     1      39.588  31.266  20.996 -0.45 +0.02    +0.158 HD ENDBRANCH   6  22TORSDOF 4TERENDMDL