REMARK SMILES CCc1c(C(=O)Nc2nc3ccccc3s2)ccnc1N
REMARK SMILES IDX 3 1 4 2 17 3 18 4 19 5 20 6 2 7 1 8 5 9 7 10 6 11 8 13 9 14
REMARK SMILES IDX 16 15 10 16 15 17 11 18 14 19 12 20 13 21 21 22
REMARK H PARENT 7 12 21 23 21 24
ROOT
ATOM      1  C   UNL     1      -2.852   0.704   0.023  1.00  0.00     0.007 A 
ATOM      2  C   UNL     1      -2.001   0.816  -1.090  1.00  0.00     0.048 A 
ATOM      3  C   UNL     1      -2.487   0.700  -2.390  1.00  0.00     0.034 A 
ATOM      4  C   UNL     1      -3.830   0.443  -2.541  1.00  0.00     0.114 A 
ATOM      5  N   UNL     1      -4.679   0.298  -1.504  1.00  0.00    -0.239 NA
ATOM      6  C   UNL     1      -4.193   0.436  -0.255  1.00  0.00     0.127 A 
ENDROOT
BRANCH   1   7
ATOM      7  C   UNL     1      -2.363   0.910   1.436  1.00  0.00     0.037 C 
ATOM      8  C   UNL     1      -2.060  -0.395   2.158  1.00  0.00     0.009 C 
ENDBRANCH   1   7
BRANCH   2   9
ATOM      9  C   UNL     1      -0.555   1.086  -0.950  1.00  0.00     0.257 C 
ATOM     10  N   UNL     1       0.161  -0.019  -0.569  1.00  0.00    -0.298 N 
ATOM     11  O   UNL     1      -0.158   2.212  -1.212  1.00  0.00    -0.269 OA
ATOM     12  H   UNL     1      -0.309  -0.905  -0.447  1.00  0.00     0.172 HD
BRANCH  10  13
ATOM     13  C   UNL     1       1.510  -0.090  -0.335  1.00  0.00     0.190 A 
ATOM     14  N   UNL     1       2.066  -1.226   0.011  1.00  0.00    -0.220 NA
ATOM     15  S   UNL     1       2.544   1.252  -0.456  1.00  0.00    -0.097 S 
ATOM     16  C   UNL     1       3.426  -1.038   0.196  1.00  0.00     0.084 A 
ATOM     17  C   UNL     1       3.882   0.265  -0.016  1.00  0.00     0.056 A 
ATOM     18  C   UNL     1       4.357  -2.029   0.570  1.00  0.00     0.030 A 
ATOM     19  C   UNL     1       5.235   0.613   0.132  1.00  0.00     0.021 A 
ATOM     20  C   UNL     1       5.707  -1.694   0.720  1.00  0.00     0.002 A 
ATOM     21  C   UNL     1       6.137  -0.389   0.503  1.00  0.00     0.002 A 
ENDBRANCH  10  13
ENDBRANCH   2   9
BRANCH   6  22
ATOM     22  N   UNL     1      -5.151   0.330   0.748  1.00  0.00    -0.383 N 
ATOM     23  H   UNL     1      -6.033   0.116   0.287  1.00  0.00     0.158 HD
ATOM     24  H   UNL     1      -4.914  -0.371   1.438  1.00  0.00     0.158 HD
ENDBRANCH   6  22
TORSDOF 4
