REMARK SMILES Nc1cc(C(=O)NC2=Nc3ccccc3SC2)ccn1
REMARK SMILES IDX 2 1 3 2 4 3 18 4 19 5 20 6 1 7 5 10 7 11 8 12 9 13 17 14
REMARK SMILES IDX 10 15 16 16 11 17 15 18 12 19 14 20 13 21 6 22
REMARK H PARENT 1 8 1 9 7 23
ROOT
ATOM      1  C   UNL     1       4.574  -0.051  -0.767  1.00  0.00     0.124 A 
ATOM      2  C   UNL     1       3.201  -0.053  -0.593  1.00  0.00     0.060 A 
ATOM      3  C   UNL     1       2.638   0.939   0.210  1.00  0.00     0.045 A 
ATOM      4  C   UNL     1       3.451   1.914   0.780  1.00  0.00     0.034 A 
ATOM      5  C   UNL     1       4.809   1.826   0.552  1.00  0.00     0.114 A 
ATOM      6  N   UNL     1       5.381   0.856  -0.196  1.00  0.00    -0.240 NA
ENDROOT
BRANCH   1   7
ATOM      7  N   UNL     1       5.190  -1.036  -1.534  1.00  0.00    -0.384 N 
ATOM      8  H   UNL     1       6.184  -0.816  -1.547  1.00  0.00     0.158 HD
ATOM      9  H   UNL     1       4.812  -1.071  -2.474  1.00  0.00     0.158 HD
ENDBRANCH   1   7
BRANCH   3  10
ATOM     10  C   UNL     1       1.174   0.997   0.455  1.00  0.00     0.256 C 
ATOM     11  N   UNL     1       0.558  -0.238   0.607  1.00  0.00    -0.309 N 
ATOM     12  C   UNL     1      -0.787  -0.510   0.407  1.00  0.00     0.119 C 
ATOM     13  N   UNL     1      -1.597   0.405  -0.015  1.00  0.00    -0.233 NA
ATOM     14  C   UNL     1      -1.192  -1.930   0.756  1.00  0.00     0.150 C 
ATOM     15  C   UNL     1      -2.947   0.098  -0.269  1.00  0.00     0.079 A 
ATOM     16  S   UNL     1      -2.313  -2.600  -0.490  1.00  0.00    -0.116 SA
ATOM     17  C   UNL     1      -3.849   1.165  -0.316  1.00  0.00     0.029 A 
ATOM     18  C   UNL     1      -3.420  -1.200  -0.543  1.00  0.00     0.033 A 
ATOM     19  C   UNL     1      -5.195   0.956  -0.620  1.00  0.00     0.002 A 
ATOM     20  C   UNL     1      -4.767  -1.408  -0.861  1.00  0.00     0.017 A 
ATOM     21  C   UNL     1      -5.653  -0.331  -0.895  1.00  0.00     0.001 A 
ATOM     22  O   UNL     1       0.655   2.091   0.635  1.00  0.00    -0.269 OA
ATOM     23  H   UNL     1       1.167  -1.033   0.733  1.00  0.00     0.171 HD
ENDBRANCH   3  10
TORSDOF 2
