MODEL        9USER    Run = 9USERUSER    Estimated Free Energy of Binding    =  -8.63 kcal/mol  [=(1)+(2)+(3)-(4)]USERUSER    (1) Final Intermolecular Energy     = -10.42 kcal/molUSER        vdW + Hbond + desolv Energy     = -10.23 kcal/molUSER        Electrostatic Energy            =  -0.19 kcal/molUSER        Moving Ligand-Fixed Receptor    = -10.42 kcal/molUSER        Moving Ligand-Moving Receptor   =  +0.00 kcal/molUSER    (2) Final Total Internal Energy     =  -1.40 kcal/molUSER    (3) Torsional Free Energy           =  +1.79 kcal/molUSER    (4) Unbound System's Energy         =  -1.40 kcal/molUSERUSERREMARK SMILES COc1ccc(N)c(C(=O)c2ccc(C(=O)N[C@@H]3CCCNC3)cc2)c1FREMARK SMILES IDX 11 1 12 2 13 3 14 4 24 5 25 6 9 7 10 8 8 9 3 10 4 11 26 12REMARK SMILES IDX 5 13 6 14 27 15 2 16 1 17 7 18 15 21 17 22 16 23 18 25 19 26REMARK SMILES IDX 23 27 20 28 22 29 21 30REMARK H PARENT 7 19 7 20 17 24 22 31USER                              x       y       z     vdW  Elec       q    TypeUSER                           _______ _______ _______ _____ _____    ______ ____ROOTATOM      1  C   UNL     1      39.784  47.419  16.079 -0.49 -0.01    +0.023 A  ATOM      2  C   UNL     1      39.169  46.340  16.725 -0.42 -0.00    +0.013 A  ATOM      3  C   UNL     1      39.680  45.872  17.940 -0.44 -0.00    +0.014 A  ATOM      4  C   UNL     1      40.803  46.477  18.519 -0.46 -0.00    +0.039 A  ATOM      5  C   UNL     1      41.396  47.579  17.889 -0.51 -0.00    +0.014 A  ATOM      6  C   UNL     1      40.886  48.047  16.675 -0.53 -0.00    +0.013 A  ENDROOTBRANCH   1   7ATOM      7  C   UNL     1      39.268  47.965  14.796 -0.43 -0.07    +0.198 C  ATOM      8  O   UNL     1      39.835  48.926  14.276 -0.36 +0.11    -0.288 OA BRANCH   7   9ATOM      9  C   UNL     1      38.069  47.402  14.137 -0.43 -0.03    +0.085 A  ATOM     10  C   UNL     1      36.926  45.491  13.153 -0.38 -0.06    +0.155 A  ATOM     11  C   UNL     1      35.814  46.298  12.914 -0.53 -0.03    +0.052 A  ATOM     12  C   UNL     1      38.049  46.055  13.767 -0.26 -0.05    +0.178 A  ATOM     13  C   UNL     1      35.841  47.654  13.263 -0.38 -0.02    +0.030 A  ATOM     14  C   UNL     1      36.982  48.238  13.826 -0.53 -0.03    +0.046 A  ATOM     15  F   UNL     1      39.125  45.282  13.994 -0.04 +0.04    -0.202 F  BRANCH  10  16ATOM     16  O   UNL     1      37.023  44.160  12.849 -0.10 +0.15    -0.494 OA ATOM     17  C   UNL     1      37.259  43.817  11.490 -0.28 -0.08    +0.278 C  ENDBRANCH  10  16BRANCH  14  18ATOM     18  N   UNL     1      36.912  49.573  14.267 -0.09 +0.34    -0.398 N  ATOM     19  H   UNL     1      36.229  49.679  15.028 -0.16 -0.26    +0.156 HD ATOM     20  H   UNL     1      37.809  49.971  14.527 -0.48 -0.17    +0.156 HD ENDBRANCH  14  18ENDBRANCH   7   9ENDBRANCH   1   7BRANCH   4  21ATOM     21  C   UNL     1      41.306  45.941  19.814 -0.30 +0.02    +0.251 C  ATOM     22  N   UNL     1      41.940  46.843  20.645 -0.12 -0.05    -0.348 N  ATOM     23  O   UNL     1      41.176  44.752  20.080 -0.26 -0.03    -0.269 OA ATOM     24  H   UNL     1      42.210  47.743  20.272 +0.04 +0.01    +0.164 HD BRANCH  22  25ATOM     25  C   UNL     1      42.552  46.412  21.904 -0.29 +0.02    +0.096 C  ATOM     26  C   UNL     1      41.566  46.608  23.076 -0.24 +0.00    +0.027 C  ATOM     27  C   UNL     1      43.879  47.165  22.156 -0.32 +0.04    +0.105 C  ATOM     28  C   UNL     1      42.258  47.186  24.306 -0.20 +0.00    +0.017 C  ATOM     29  N   UNL     1      43.643  48.523  22.660 -0.48 -0.07    -0.315 NA ATOM     30  C   UNL     1      42.984  48.495  23.976 -0.36 +0.02    +0.081 C  ATOM     31  H   UNL     1      43.020  49.002  22.008 -0.41 +0.01    +0.122 HD ENDBRANCH  22  25ENDBRANCH   4  21TORSDOF 6TERENDMDL