MODEL        6USER    Run = 6USERUSER    Estimated Free Energy of Binding    =  -8.61 kcal/mol  [=(1)+(2)+(3)-(4)]USERUSER    (1) Final Intermolecular Energy     = -10.40 kcal/molUSER        vdW + Hbond + desolv Energy     = -10.18 kcal/molUSER        Electrostatic Energy            =  -0.22 kcal/molUSER        Moving Ligand-Fixed Receptor    = -10.40 kcal/molUSER        Moving Ligand-Moving Receptor   =  +0.00 kcal/molUSER    (2) Final Total Internal Energy     =  -1.40 kcal/molUSER    (3) Torsional Free Energy           =  +1.79 kcal/molUSER    (4) Unbound System's Energy         =  -1.40 kcal/molUSERUSERREMARK SMILES COc1ccc(O)c(C(=O)c2ccc(C(=O)N[C@@H]3CCCN(C)C3)cc2)c1FREMARK SMILES IDX 11 1 12 2 13 3 14 4 25 5 26 6 9 7 10 8 8 9 3 10 4 11 27 12REMARK SMILES IDX 5 13 6 14 28 15 2 16 1 17 7 18 15 20 17 21 16 22 18 24 19 25REMARK SMILES IDX 24 26 20 27 22 28 21 29 23 30REMARK H PARENT 7 19 17 23USER                              x       y       z     vdW  Elec       q    TypeUSER                           _______ _______ _______ _____ _____    ______ ____ROOTATOM      1  C   UNL     1      35.385  45.117  15.695 -0.32 -0.01    +0.023 A  ATOM      2  C   UNL     1      35.854  43.798  15.707 -0.39 -0.01    +0.013 A  ATOM      3  C   UNL     1      35.249  42.855  16.543 -0.44 -0.01    +0.014 A  ATOM      4  C   UNL     1      34.162  43.214  17.352 -0.32 -0.01    +0.039 A  ATOM      5  C   UNL     1      33.692  44.534  17.333 -0.31 -0.01    +0.014 A  ATOM      6  C   UNL     1      34.297  45.478  16.497 -0.31 -0.01    +0.013 A  ENDROOTBRANCH   1   7ATOM      7  C   UNL     1      35.970  46.143  14.801 -0.31 -0.14    +0.199 C  ATOM      8  O   UNL     1      35.355  46.460  13.780 -0.34 +0.21    -0.288 OA BRANCH   7   9ATOM      9  C   UNL     1      37.288  46.772  15.038 -0.33 -0.06    +0.104 A  ATOM     10  C   UNL     1      39.201  47.254  16.472 -0.34 -0.05    +0.155 A  ATOM     11  C   UNL     1      39.797  47.971  15.431 -0.50 -0.02    +0.053 A  ATOM     12  C   UNL     1      37.944  46.666  16.265 -0.27 -0.08    +0.179 A  ATOM     13  C   UNL     1      39.133  48.111  14.209 -0.44 -0.02    +0.051 A  ATOM     14  C   UNL     1      37.883  47.528  14.021 -0.41 -0.05    +0.130 A  ATOM     15  F   UNL     1      37.364  46.013  17.286 -0.09 +0.08    -0.202 F  BRANCH  10  16ATOM     16  O   UNL     1      39.743  47.064  17.715 -0.18 +0.10    -0.494 OA ATOM     17  C   UNL     1      40.616  45.955  17.884 -0.34 -0.02    +0.278 C  ENDBRANCH  10  16BRANCH  14  18ATOM     18  O   UNL     1      37.288  47.742  12.807 -0.79 +0.13    -0.507 OA ATOM     19  H   UNL     1      36.341  47.481  12.885 +0.24 -0.15    +0.293 HD ENDBRANCH  14  18ENDBRANCH   7   9ENDBRANCH   1   7BRANCH   4  20ATOM     20  C   UNL     1      33.558  42.166  18.222 -0.28 -0.06    +0.251 C  ATOM     21  N   UNL     1      32.853  41.165  17.588 -0.18 +0.13    -0.348 N  ATOM     22  O   UNL     1      33.719  42.210  19.436 -0.48 -0.01    -0.269 OA ATOM     23  H   UNL     1      32.785  41.145  16.581 -0.40 -0.14    +0.164 HD BRANCH  21  24ATOM     24  C   UNL     1      32.178  40.116  18.344 -0.41 -0.01    +0.096 C  ATOM     25  C   UNL     1      32.713  38.738  17.957 -0.37 -0.00    +0.027 C  ATOM     26  C   UNL     1      30.636  40.173  18.160 -0.32 -0.00    +0.109 C  ATOM     27  C   UNL     1      32.027  37.630  18.762 -0.60 +0.00    +0.018 C  ATOM     28  N   UNL     1      29.957  38.869  18.310 -0.19 -0.08    -0.304 NA ATOM     29  C   UNL     1      30.640  38.023  19.287 -0.45 +0.02    +0.084 C  ATOM     30  C   UNL     1      28.549  39.058  18.652 -0.27 +0.02    +0.105 C  ENDBRANCH  21  24ENDBRANCH   4  20TORSDOF 6TERENDMDL