MODEL        6USER    Run = 6USERUSER    Estimated Free Energy of Binding    =  -9.47 kcal/mol  [=(1)+(2)+(3)-(4)]USERUSER    (1) Final Intermolecular Energy     = -11.26 kcal/molUSER        vdW + Hbond + desolv Energy     = -10.81 kcal/molUSER        Electrostatic Energy            =  -0.45 kcal/molUSER        Moving Ligand-Fixed Receptor    = -11.26 kcal/molUSER        Moving Ligand-Moving Receptor   =  +0.00 kcal/molUSER    (2) Final Total Internal Energy     =  -0.90 kcal/molUSER    (3) Torsional Free Energy           =  +1.79 kcal/molUSER    (4) Unbound System's Energy         =  -0.90 kcal/molUSERUSERREMARK SMILES COc1ccc(O)c(C(=O)c2ccc(C(=O)N[C@@H]3CCC4(CC4)NC3)cc2)c1FREMARK SMILES IDX 11 1 12 2 13 3 14 4 26 5 27 6 9 7 10 8 8 9 3 10 4 11 28 12REMARK SMILES IDX 5 13 6 14 29 15 2 16 1 17 7 18 15 20 17 21 16 22 18 24 19 25REMARK SMILES IDX 25 26 20 27 24 28 21 29 22 30 23 31REMARK H PARENT 7 19 17 23 24 32USER                              x       y       z     vdW  Elec       q    TypeUSER                           _______ _______ _______ _____ _____    ______ ____ROOTATOM      1  C   UNL     1      34.253  44.896  17.674 -0.33 -0.01    +0.023 A  ATOM      2  C   UNL     1      33.596  44.126  16.708 -0.31 -0.01    +0.013 A  ATOM      3  C   UNL     1      33.041  42.893  17.061 -0.33 -0.01    +0.014 A  ATOM      4  C   UNL     1      33.142  42.417  18.377 -0.35 -0.01    +0.039 A  ATOM      5  C   UNL     1      33.834  43.171  19.332 -0.40 -0.00    +0.014 A  ATOM      6  C   UNL     1      34.390  44.405  18.979 -0.38 -0.00    +0.013 A  ENDROOTBRANCH   1   7ATOM      7  C   UNL     1      34.888  46.194  17.340 -0.30 -0.18    +0.199 C  ATOM      8  O   UNL     1      34.653  47.171  18.054 -0.66 +0.32    -0.288 OA BRANCH   7   9ATOM      9  C   UNL     1      35.839  46.368  16.221 -0.29 -0.09    +0.104 A  ATOM     10  C   UNL     1      38.101  46.676  15.364 -0.30 -0.06    +0.155 A  ATOM     11  C   UNL     1      37.599  46.712  14.061 -0.42 -0.02    +0.053 A  ATOM     12  C   UNL     1      37.212  46.496  16.434 -0.25 -0.10    +0.179 A  ATOM     13  C   UNL     1      36.229  46.549  13.834 -0.45 -0.03    +0.051 A  ATOM     14  C   UNL     1      35.359  46.363  14.907 -0.23 -0.12    +0.130 A  ATOM     15  F   UNL     1      37.710  46.423  17.680 -0.08 +0.07    -0.202 F  BRANCH  10  16ATOM     16  O   UNL     1      39.420  46.803  15.709 -0.11 +0.12    -0.494 OA ATOM     17  C   UNL     1      39.937  48.121  15.838 -0.39 -0.08    +0.278 C  ENDBRANCH  10  16BRANCH  14  18ATOM     18  O   UNL     1      34.039  46.179  14.594 -0.08 +0.57    -0.507 OA ATOM     19  H   UNL     1      33.536  46.947  14.952 -0.15 -0.72    +0.293 HD ENDBRANCH  14  18ENDBRANCH   7   9ENDBRANCH   1   7BRANCH   4  20ATOM     20  C   UNL     1      32.534  41.094  18.692 -0.27 -0.01    +0.251 C  ATOM     21  N   UNL     1      31.949  40.414  17.644 -0.19 +0.09    -0.348 N  ATOM     22  O   UNL     1      32.588  40.650  19.833 -0.64 -0.08    -0.269 OA ATOM     23  H   UNL     1      31.945  40.814  16.717 -0.34 -0.10    +0.164 HD BRANCH  21  24ATOM     24  C   UNL     1      31.261  39.142  17.855 -0.27 +0.01    +0.096 C  ATOM     25  C   UNL     1      30.035  39.336  18.770 -0.37 +0.00    +0.028 C  ATOM     26  C   UNL     1      32.240  38.073  18.404 -0.46 +0.01    +0.106 C  ATOM     27  C   UNL     1      30.344  38.967  20.220 -0.38 +0.00    +0.024 C  ATOM     28  N   UNL     1      31.554  37.001  19.130 -0.76 -0.11    -0.309 NA ATOM     29  C   UNL     1      30.831  37.529  20.310 -0.52 +0.00    +0.018 C  ATOM     30  C   UNL     1      30.001  36.541  21.100 -0.37 +0.00    +0.024 C  ATOM     31  C   UNL     1      31.294  37.044  21.665 -0.53 +0.00    +0.024 C  ATOM     32  H   UNL     1      30.902  36.538  18.495 +0.08 +0.12    +0.123 HD ENDBRANCH  21  24ENDBRANCH   4  20TORSDOF 6TERENDMDL