MODEL        2USER    Run = 2USERUSER    Estimated Free Energy of Binding    =  -8.57 kcal/mol  [=(1)+(2)+(3)-(4)]USERUSER    (1) Final Intermolecular Energy     =  -9.76 kcal/molUSER        vdW + Hbond + desolv Energy     =  -9.64 kcal/molUSER        Electrostatic Energy            =  -0.12 kcal/molUSER        Moving Ligand-Fixed Receptor    =  -9.76 kcal/molUSER        Moving Ligand-Moving Receptor   =  +0.00 kcal/molUSER    (2) Final Total Internal Energy     =  -0.47 kcal/molUSER    (3) Torsional Free Energy           =  +1.19 kcal/molUSER    (4) Unbound System's Energy         =  -0.47 kcal/molUSERUSERREMARK SMILES CCc1c(C(=O)Nc2nc3ccccc3s2)ccnc1NREMARK SMILES IDX 3 1 4 2 17 3 18 4 19 5 20 6 2 7 1 8 5 9 7 10 6 11 8 13 9 14REMARK SMILES IDX 16 15 10 16 15 17 11 18 14 19 12 20 13 21 21 22REMARK H PARENT 7 12 21 23 21 24USER                              x       y       z     vdW  Elec       q    TypeUSER                           _______ _______ _______ _____ _____    ______ ____ROOTATOM      1  C   UNL     1      36.921  30.111  22.144 -0.38 -0.00    +0.007 A  ATOM      2  C   UNL     1      35.942  29.204  21.702 -0.35 -0.01    +0.048 A  ATOM      3  C   UNL     1      36.167  28.368  20.611 -0.29 -0.01    +0.034 A  ATOM      4  C   UNL     1      37.375  28.485  19.964 -0.20 -0.02    +0.114 A  ATOM      5  N   UNL     1      38.332  29.360  20.333 -0.18 -0.03    -0.239 NA ATOM      6  C   UNL     1      38.104  30.144  21.404 -0.31 +0.01    +0.127 A  ENDROOTBRANCH   1   7ATOM      7  C   UNL     1      36.732  30.965  23.374 -0.43 +0.00    +0.037 C  ATOM      8  C   UNL     1      37.192  30.279  24.652 -0.47 +0.00    +0.009 C  ENDBRANCH   1   7BRANCH   2   9ATOM      9  C   UNL     1      34.636  29.066  22.378 -0.35 -0.04    +0.257 C  ATOM     10  N   UNL     1      33.701  29.960  21.924 -0.30 +0.04    -0.298 N  ATOM     11  O   UNL     1      34.517  28.182  23.214 -0.27 +0.03    -0.269 OA ATOM     12  H   UNL     1      33.938  30.598  21.177 -0.47 -0.07    +0.172 HD BRANCH  10  13ATOM     13  C   UNL     1      32.410  30.101  22.362 -0.42 +0.00    +0.190 A  ATOM     14  N   UNL     1      31.471  30.511  21.544 -0.83 +0.01    -0.220 NA ATOM     15  S   UNL     1      31.932  29.779  23.960 -0.57 -0.02    -0.097 S  ATOM     16  C   UNL     1      30.264  30.577  22.220 -0.50 -0.01    +0.084 A  ATOM     17  C   UNL     1      30.314  30.211  23.567 -0.56 +0.01    +0.056 A  ATOM     18  C   UNL     1      29.027  30.974  21.672 -0.41 -0.01    +0.030 A  ATOM     19  C   UNL     1      29.173  30.227  24.386 -0.56 +0.01    +0.021 A  ATOM     20  C   UNL     1      27.883  30.993  22.478 -0.48 -0.00    +0.002 A  ATOM     21  C   UNL     1      27.959  30.623  23.817 -0.50 +0.00    +0.002 A  ENDBRANCH  10  13ENDBRANCH   2   9BRANCH   6  22ATOM     22  N   UNL     1      39.169  30.972  21.747 -0.16 -0.07    -0.383 N  ATOM     23  H   UNL     1      39.863  30.380  22.198 -0.27 +0.04    +0.158 HD ATOM     24  H   UNL     1      39.557  31.455  20.947 -0.41 +0.02    +0.158 HD ENDBRANCH   6  22TORSDOF 4TERENDMDL