REMARK SMILES Cc1c(C(=O)Nc2nc3cc(F)ccc3s2)ccnc1N
REMARK SMILES IDX 1 1 2 2 3 3 17 4 18 5 19 6 20 7 4 8 6 9 5 10 7 12 8 13 16 14
REMARK SMILES IDX 9 15 15 16 10 17 14 18 11 19 13 20 12 21 21 22
REMARK H PARENT 6 11 21 23 21 24
ROOT
ATOM      1  C   UNL     1      -3.255   0.098  -1.839  1.00  0.00     0.049 C 
ATOM      2  C   UNL     1      -3.332   0.076  -0.339  1.00  0.00     0.004 A 
ATOM      3  C   UNL     1      -2.222   0.401   0.459  1.00  0.00     0.048 A 
ATOM      4  C   UNL     1      -2.324   0.435   1.850  1.00  0.00     0.034 A 
ATOM      5  C   UNL     1      -3.549   0.138   2.404  1.00  0.00     0.114 A 
ATOM      6  N   UNL     1      -4.636  -0.182   1.675  1.00  0.00    -0.239 NA
ATOM      7  C   UNL     1      -4.522  -0.201   0.333  1.00  0.00     0.127 A 
ENDROOT
BRANCH   3   8
ATOM      8  C   UNL     1      -0.913   0.751  -0.151  1.00  0.00     0.257 C 
ATOM      9  N   UNL     1       0.123  -0.032   0.298  1.00  0.00    -0.298 N 
ATOM     10  O   UNL     1      -0.878   1.657  -0.971  1.00  0.00    -0.269 OA
ATOM     11  H   UNL     1      -0.059  -0.796   0.933  1.00  0.00     0.172 HD
BRANCH   9  12
ATOM     12  C   UNL     1       1.442   0.054  -0.067  1.00  0.00     0.190 A 
ATOM     13  N   UNL     1       2.323  -0.788   0.418  1.00  0.00    -0.220 NA
ATOM     14  S   UNL     1       2.037   1.232  -1.137  1.00  0.00    -0.097 S 
ATOM     15  C   UNL     1       3.578  -0.497  -0.093  1.00  0.00     0.087 A 
ATOM     16  C   UNL     1       3.624   0.588  -0.973  1.00  0.00     0.057 A 
ATOM     17  C   UNL     1       4.768  -1.189   0.198  1.00  0.00     0.069 A 
ATOM     18  C   UNL     1       4.821   1.010  -1.576  1.00  0.00     0.024 A 
ATOM     19  C   UNL     1       5.955  -0.771  -0.400  1.00  0.00     0.125 A 
ATOM     20  C   UNL     1       5.990   0.308  -1.272  1.00  0.00     0.041 A 
ATOM     21  F   UNL     1       7.090  -1.427  -0.126  1.00  0.00    -0.207 F 
ENDBRANCH   9  12
ENDBRANCH   3   8
BRANCH   7  22
ATOM     22  N   UNL     1      -5.704  -0.498  -0.338  1.00  0.00    -0.383 N 
ATOM     23  H   UNL     1      -5.599  -1.288  -0.962  1.00  0.00     0.158 HD
ATOM     24  H   UNL     1      -6.407  -0.679   0.375  1.00  0.00     0.158 HD
ENDBRANCH   7  22
TORSDOF 3
