MODEL        4USER    Run = 4USERUSER    Estimated Free Energy of Binding    =  -7.70 kcal/mol  [=(1)+(2)+(3)-(4)]USERUSER    (1) Final Intermolecular Energy     =  -8.60 kcal/molUSER        vdW + Hbond + desolv Energy     =  -8.38 kcal/molUSER        Electrostatic Energy            =  -0.21 kcal/molUSER        Moving Ligand-Fixed Receptor    =  -8.60 kcal/molUSER        Moving Ligand-Moving Receptor   =  +0.00 kcal/molUSER    (2) Final Total Internal Energy     =  -0.19 kcal/molUSER    (3) Torsional Free Energy           =  +0.89 kcal/molUSER    (4) Unbound System's Energy         =  -0.19 kcal/molUSERUSERREMARK SMILES Cc1c(C(=O)Nc2nc3cc(F)ccc3s2)ccnc1NREMARK SMILES IDX 1 1 2 2 3 3 17 4 18 5 19 6 20 7 4 8 6 9 5 10 7 12 8 13 16 14REMARK SMILES IDX 9 15 15 16 10 17 14 18 11 19 13 20 12 21 21 22REMARK H PARENT 6 11 21 23 21 24USER                              x       y       z     vdW  Elec       q    TypeUSER                           _______ _______ _______ _____ _____    ______ ____ROOTATOM      1  C   UNL     1      38.912  48.502  14.642 -0.55 -0.02    +0.049 C  ATOM      2  C   UNL     1      39.858  48.296  15.791 -0.55 -0.00    +0.004 A  ATOM      3  C   UNL     1      39.815  47.133  16.579 -0.46 -0.01    +0.048 A  ATOM      4  C   UNL     1      40.738  46.927  17.604 -0.49 -0.00    +0.034 A  ATOM      5  C   UNL     1      41.686  47.905  17.811 -0.36 -0.01    +0.114 A  ATOM      6  N   UNL     1      41.758  49.035  17.081 -0.77 -0.04    -0.239 NA ATOM      7  C   UNL     1      40.865  49.213  16.089 -0.49 -0.02    +0.127 A  ENDROOTBRANCH   3   8ATOM      8  C   UNL     1      38.808  46.070  16.326 -0.28 -0.07    +0.257 C  ATOM      9  N   UNL     1      37.957  45.865  17.384 -0.19 +0.09    -0.298 N  ATOM     10  O   UNL     1      38.819  45.505  15.242 -0.23 +0.06    -0.269 OA ATOM     11  H   UNL     1      38.017  46.453  18.203 +0.08 -0.05    +0.172 HD BRANCH   9  12ATOM     12  C   UNL     1      36.936  44.952  17.459 -0.22 -0.06    +0.190 A  ATOM     13  N   UNL     1      36.145  44.922  18.504 -0.21 +0.06    -0.220 NA ATOM     14  S   UNL     1      36.625  43.802  16.247 -0.48 +0.03    -0.097 S  ATOM     15  C   UNL     1      35.202  43.918  18.349 -0.27 -0.02    +0.087 A  ATOM     16  C   UNL     1      35.305  43.186  17.162 -0.34 -0.02    +0.057 A  ATOM     17  C   UNL     1      34.186  43.591  19.265 -0.35 -0.01    +0.069 A  ATOM     18  C   UNL     1      34.424  42.135  16.855 -0.39 -0.01    +0.024 A  ATOM     19  C   UNL     1      33.313  42.549  18.961 -0.31 -0.01    +0.125 A  ATOM     20  C   UNL     1      33.423  41.828  17.780 -0.38 -0.01    +0.041 A  ATOM     21  F   UNL     1      32.344  42.234  19.830 -0.08 -0.03    -0.207 F  ENDBRANCH   9  12ENDBRANCH   3   8BRANCH   7  22ATOM     22  N   UNL     1      41.043  50.385  15.361 -0.35 +0.13    -0.383 N  ATOM     23  H   UNL     1      40.171  50.737  14.986 -0.32 -0.13    +0.158 HD ATOM     24  H   UNL     1      41.475  51.057  15.991 -0.41 -0.06    +0.158 HD ENDBRANCH   7  22TORSDOF 3TERENDMDL