MODEL        10USER    Run = 10USERUSER    Estimated Free Energy of Binding    =  -7.75 kcal/mol  [=(1)+(2)+(3)-(4)]USERUSER    (1) Final Intermolecular Energy     =  -8.35 kcal/molUSER        vdW + Hbond + desolv Energy     =  -8.16 kcal/molUSER        Electrostatic Energy            =  -0.18 kcal/molUSER        Moving Ligand-Fixed Receptor    =  -8.35 kcal/molUSER        Moving Ligand-Moving Receptor   =  +0.00 kcal/molUSER    (2) Final Total Internal Energy     =  -0.07 kcal/molUSER    (3) Torsional Free Energy           =  +0.60 kcal/molUSER    (4) Unbound System's Energy         =  -0.07 kcal/molUSERUSERREMARK SMILES Nc1cc(C(=O)NC2=Nc3ccccc3SC2)ccn1REMARK SMILES IDX 2 1 3 2 4 3 18 4 19 5 20 6 1 7 5 10 7 11 8 12 9 13 17 14REMARK SMILES IDX 10 15 16 16 11 17 15 18 12 19 14 20 13 21 6 22REMARK H PARENT 1 8 1 9 7 23USER                              x       y       z     vdW  Elec       q    TypeUSER                           _______ _______ _______ _____ _____    ______ ____ROOTATOM      1  C   UNL     1      22.897  41.360  23.228 -0.24 -0.03    +0.124 A  ATOM      2  C   UNL     1      23.755  40.506  22.556 -0.40 -0.02    +0.060 A  ATOM      3  C   UNL     1      24.718  41.068  21.718 -0.49 -0.01    +0.045 A  ATOM      4  C   UNL     1      24.818  42.451  21.605 -0.57 -0.01    +0.034 A  ATOM      5  C   UNL     1      23.912  43.216  22.312 -0.53 -0.04    +0.114 A  ATOM      6  N   UNL     1      22.950  42.694  23.105 -1.02 +0.07    -0.240 NA ENDROOTBRANCH   1   7ATOM      7  N   UNL     1      21.898  40.851  24.054 -0.08 +0.22    -0.384 N  ATOM      8  H   UNL     1      21.011  41.054  23.597 -0.08 -0.06    +0.158 HD ATOM      9  H   UNL     1      21.933  41.259  24.981 -0.43 -0.25    +0.158 HD ENDBRANCH   1   7BRANCH   3  10ATOM     10  C   UNL     1      25.667  40.219  20.953 -0.26 -0.06    +0.256 C  ATOM     11  N   UNL     1      26.089  39.073  21.614 -0.19 +0.12    -0.309 N  ATOM     12  C   UNL     1      27.251  38.362  21.355 -0.19 -0.03    +0.119 C  ATOM     13  N   UNL     1      28.100  38.771  20.471 -0.12 +0.01    -0.233 NA ATOM     14  C   UNL     1      27.392  37.087  22.166 -0.29 -0.06    +0.150 C  ATOM     15  C   UNL     1      29.303  38.070  20.261 -0.28 +0.01    +0.079 A  ATOM     16  S   UNL     1      29.081  36.900  22.774 -0.44 -0.00    -0.116 SA ATOM     17  C   UNL     1      29.971  38.290  19.054 -0.38 +0.01    +0.029 A  ATOM     18  C   UNL     1      29.895  37.223  21.218 -0.36 +0.00    +0.033 A  ATOM     19  C   UNL     1      31.199  37.682  18.790 -0.49 +0.00    +0.002 A  ATOM     20  C   UNL     1      31.133  36.623  20.959 -0.36 +0.00    +0.017 A  ATOM     21  C   UNL     1      31.781  36.849  19.744 -0.53 +0.00    +0.001 A  ATOM     22  O   UNL     1      25.896  40.506  19.785 -0.16 +0.05    -0.269 OA ATOM     23  H   UNL     1      25.579  38.820  22.447 -0.28 -0.10    +0.171 HD ENDBRANCH   3  10TORSDOF 2TERENDMDL