REMARK SMILES CN1CCN(C(=O)c2ccc(-c3nc(N=Cc4cncn4C)ccc3C#N)cc2F)CC1
REMARK SMILES IDX 12 1 13 2 14 3 23 4 24 5 25 6 11 7 8 8 9 9 29 10 10 11 28 12
REMARK SMILES IDX 30 13 6 14 2 15 3 16 32 17 4 18 31 19 5 20 1 21 7 22 26 23
REMARK SMILES IDX 27 24 15 25 16 26 17 27 18 28 21 29 19 30 20 31 22 32
REMARK H PARENT
ROOT
ATOM      1  C   UNL     1       1.716  -1.820  -1.899  1.00  0.00     0.091 A 
ATOM      2  N   UNL     1       2.651  -0.958  -1.407  1.00  0.00    -0.227 NA
ATOM      3  C   UNL     1       3.843  -0.871  -2.035  1.00  0.00     0.152 A 
ATOM      4  C   UNL     1       4.151  -1.622  -3.157  1.00  0.00     0.050 A 
ATOM      5  C   UNL     1       3.202  -2.513  -3.652  1.00  0.00     0.025 A 
ATOM      6  C   UNL     1       1.962  -2.622  -3.017  1.00  0.00     0.078 A 
ENDROOT
BRANCH   1   7
ATOM      7  C   UNL     1       0.458  -1.815  -1.127  1.00  0.00     0.005 A 
ATOM      8  C   UNL     1      -1.905  -1.760   0.408  1.00  0.00     0.075 A 
ATOM      9  C   UNL     1      -1.973  -1.596  -0.978  1.00  0.00     0.017 A 
ATOM     10  C   UNL     1      -0.677  -1.957   1.026  1.00  0.00     0.136 A 
ATOM     11  C   UNL     1      -0.796  -1.612  -1.735  1.00  0.00     0.011 A 
ATOM     12  C   UNL     1       0.493  -1.980   0.271  1.00  0.00     0.050 A 
ATOM     13  F   UNL     1      -0.587  -2.094   2.356  1.00  0.00    -0.206 F 
BRANCH   8  14
ATOM     14  C   UNL     1      -3.135  -1.763   1.214  1.00  0.00     0.256 C 
ATOM     15  N   UNL     1      -5.494   1.880   1.751  1.00  0.00    -0.303 NA
ATOM     16  C   UNL     1      -6.065   0.526   1.582  1.00  0.00     0.105 C 
ATOM     17  C   UNL     1      -4.021   1.886   1.665  1.00  0.00     0.105 C 
ATOM     18  C   UNL     1      -5.129  -0.602   2.046  1.00  0.00     0.135 C 
ATOM     19  C   UNL     1      -3.404   0.733   0.851  1.00  0.00     0.135 C 
ATOM     20  N   UNL     1      -3.862  -0.584   1.312  1.00  0.00    -0.336 N 
ATOM     21  C   UNL     1      -6.105   2.820   0.816  1.00  0.00     0.105 C 
ATOM     22  O   UNL     1      -3.477  -2.822   1.731  1.00  0.00    -0.269 OA
ENDBRANCH   8  14
ENDBRANCH   1   7
BRANCH   6  23
ATOM     23  C   UNL     1       1.004  -3.559  -3.518  1.00  0.00     0.101 C 
ATOM     24  N   UNL     1       0.228  -4.309  -3.945  1.00  0.00    -0.192 NA
ENDBRANCH   6  23
BRANCH   3  25
ATOM     25  N   UNL     1       4.791   0.033  -1.551  1.00  0.00    -0.235 NA
BRANCH  25  26
ATOM     26  C   UNL     1       4.634   0.517  -0.364  1.00  0.00     0.141 C 
BRANCH  26  27
ATOM     27  C   UNL     1       5.587   1.456   0.163  1.00  0.00     0.079 A 
ATOM     28  C   UNL     1       6.720   1.982  -0.430  1.00  0.00     0.140 A 
ATOM     29  N   UNL     1       5.566   2.045   1.407  1.00  0.00    -0.333 N 
ATOM     30  N   UNL     1       7.369   2.851   0.408  1.00  0.00    -0.245 NA
ATOM     31  C   UNL     1       6.651   2.868   1.506  1.00  0.00     0.199 A 
ATOM     32  C   UNL     1       4.581   1.843   2.440  1.00  0.00     0.151 C 
ENDBRANCH  26  27
ENDBRANCH  25  26
ENDBRANCH   3  25
TORSDOF 6
