REMARK SMILES COc1ccc(O)c(C(=O)c2ccc(S(=O)(=O)N[C@@H]3CCCNC[C@H]3NC(=O)c3ccncc3)cc2)c1F
REMARK SMILES IDX 18 1 15 3 16 4 17 5 14 6 11 7 12 8 36 9 13 10 35 11 9 12
REMARK SMILES IDX 10 13 8 14 3 15 4 16 37 17 5 18 6 19 38 20 2 21 1 22 7 23
REMARK SMILES IDX 19 25 25 27 24 28 23 29 22 31 21 32 20 33 26 35 27 36 28 38
REMARK SMILES IDX 29 39 30 40 34 41 31 42 33 43 32 44
REMARK H PARENT 18 2 7 24 23 30 26 37
REMARK Flexibility Score:   99.900
ROOT
ATOM      1  N   UNL     1      -1.453  -1.441   2.686  1.00  0.00    -0.206 NA
ATOM      2  H   UNL     1      -1.527  -2.453   2.750  1.00  0.00     0.141 HD
ENDROOT
BRANCH   1   3
ATOM      3  S   UNL     1      -0.505  -0.716   3.854  1.00  0.00     0.240 S 
ATOM      4  O   UNL     1       0.088  -1.802   4.605  1.00  0.00    -0.207 OA
ATOM      5  O   UNL     1      -1.277   0.321   4.500  1.00  0.00    -0.207 OA
BRANCH   3   6
ATOM      6  C   UNL     1       0.776   0.031   2.878  1.00  0.00     0.082 A 
ATOM      7  C   UNL     1       2.781   1.186   1.326  1.00  0.00     0.023 A 
ATOM      8  C   UNL     1       2.937  -0.121   1.806  1.00  0.00     0.013 A 
ATOM      9  C   UNL     1       1.641   1.928   1.663  1.00  0.00     0.013 A 
ATOM     10  C   UNL     1       1.930  -0.702   2.580  1.00  0.00     0.022 A 
ATOM     11  C   UNL     1       0.636   1.351   2.442  1.00  0.00     0.022 A 
BRANCH   7  12
ATOM     12  C   UNL     1       3.832   1.837   0.509  1.00  0.00     0.199 C 
ATOM     13  O   UNL     1       4.125   3.010   0.737  1.00  0.00    -0.288 OA
BRANCH  12  14
ATOM     14  C   UNL     1       4.592   1.119  -0.540  1.00  0.00     0.104 A 
ATOM     15  C   UNL     1       4.764  -0.603  -2.262  1.00  0.00     0.155 A 
ATOM     16  C   UNL     1       6.094  -0.239  -2.489  1.00  0.00     0.053 A 
ATOM     17  C   UNL     1       4.022   0.087  -1.290  1.00  0.00     0.179 A 
ATOM     18  C   UNL     1       6.663   0.816  -1.769  1.00  0.00     0.051 A 
ATOM     19  C   UNL     1       5.912   1.498  -0.813  1.00  0.00     0.130 A 
ATOM     20  F   UNL     1       2.734  -0.250  -1.107  1.00  0.00    -0.202 F 
BRANCH  15  21
ATOM     21  O   UNL     1       4.095  -1.604  -2.917  1.00  0.00    -0.494 OA
ATOM     22  C   UNL     1       4.789  -2.275  -3.961  1.00  0.00     0.278 C 
ENDBRANCH  15  21
BRANCH  19  23
ATOM     23  O   UNL     1       6.538   2.535  -0.175  1.00  0.00    -0.507 OA
ATOM     24  H   UNL     1       5.854   3.039   0.326  1.00  0.00     0.293 HD
ENDBRANCH  19  23
ENDBRANCH  12  14
ENDBRANCH   7  12
ENDBRANCH   3   6
ENDBRANCH   1   3
BRANCH   1  25
ATOM     25  C   UNL     1      -2.336  -0.648   1.815  1.00  0.00     0.093 CG0
ATOM     26  G   UNL     1      -3.808  -0.927   2.146  1.00  0.00     0.000 G0
BRANCH  25  27
ATOM     27  C   UNL     1      -1.967  -0.829   0.311  1.00  0.00     0.114 C 
BRANCH  27  28
ATOM     28  C   UNL     1      -2.094  -2.284  -0.186  1.00  0.00     0.107 C 
BRANCH  28  29
ATOM     29  N   UNL     1      -3.446  -2.850  -0.111  1.00  0.00    -0.315 NA
ATOM     30  H   UNL     1      -4.148  -2.155  -0.363  1.00  0.00     0.122 HD
BRANCH  29  31
ATOM     31  C   UNL     1      -3.729  -3.385   1.215  1.00  0.00     0.081 C 
BRANCH  31  32
ATOM     32  C   UNL     1      -4.285  -2.379   2.223  1.00  0.00     0.017 C 
BRANCH  32  33
ATOM     33  C   UNL     1      -3.808  -0.927   2.146  1.00  0.00     0.023 CG0
ATOM     34  G   UNL     1      -2.336  -0.648   1.815  1.00  0.00     0.000 G0
ENDBRANCH  32  33
ENDBRANCH  31  32
ENDBRANCH  29  31
ENDBRANCH  28  29
ENDBRANCH  27  28
BRANCH  27  35
ATOM     35  N   UNL     1      -2.746   0.058  -0.577  1.00  0.00    -0.346 N 
ATOM     36  C   UNL     1      -2.550   1.425  -0.571  1.00  0.00     0.251 C 
ATOM     37  H   UNL     1      -3.060  -0.351  -1.449  1.00  0.00     0.164 HD
ATOM     38  O   UNL     1      -1.806   1.996   0.221  1.00  0.00    -0.269 OA
BRANCH  36  39
ATOM     39  C   UNL     1      -3.254   2.202  -1.629  1.00  0.00     0.042 A 
ATOM     40  C   UNL     1      -2.719   3.433  -2.012  1.00  0.00     0.034 A 
ATOM     41  C   UNL     1      -4.432   1.747  -2.227  1.00  0.00     0.034 A 
ATOM     42  C   UNL     1      -3.371   4.146  -3.001  1.00  0.00     0.112 A 
ATOM     43  C   UNL     1      -5.009   2.539  -3.204  1.00  0.00     0.112 A 
ATOM     44  N   UNL     1      -4.500   3.721  -3.610  1.00  0.00    -0.265 NA
ENDBRANCH  36  39
ENDBRANCH  27  35
ENDBRANCH  25  27
ENDBRANCH   1  25
TORSDOF 9
