REMARK SMILES COc1ccc(O)c(C(=O)c2ccc(C(=O)N[C@@H]3CCCNC[C@@H]3N(C)C(=O)c3ccncc3)cc2)c1F
REMARK SMILES IDX 18 1 17 3 15 4 16 5 14 7 11 8 12 9 36 10 13 11 35 12 9 13
REMARK SMILES IDX 10 14 8 15 3 16 4 17 37 18 5 19 6 20 38 21 2 22 1 23 7 24
REMARK SMILES IDX 24 26 23 27 22 28 21 30 20 31 19 32 25 34 26 35 27 36 28 37
REMARK SMILES IDX 29 38 30 39 34 40 31 41 33 42 32 43
REMARK H PARENT 17 6 7 25 22 29
REMARK Flexibility Score:  100.900
ROOT
ATOM      1  C   UNL     1      -2.303   2.805   0.681  1.00  0.00     0.106 CG0
ATOM      2  G   UNL     1      -3.035   3.016   2.011  1.00  0.00     0.000 G0
ENDROOT
BRANCH   1   3
ATOM      3  N   UNL     1      -1.193   1.862   0.907  1.00  0.00    -0.347 N 
ATOM      4  C   UNL     1      -0.096   1.835   0.072  1.00  0.00     0.251 C 
ATOM      5  O   UNL     1       0.099   2.662  -0.812  1.00  0.00    -0.269 OA
ATOM      6  H   UNL     1      -1.454   1.011   1.385  1.00  0.00     0.164 HD
BRANCH   4   7
ATOM      7  C   UNL     1       0.838   0.687   0.241  1.00  0.00     0.039 A 
ATOM      8  C   UNL     1       2.616  -1.474   0.445  1.00  0.00     0.023 A 
ATOM      9  C   UNL     1       2.519  -0.761  -0.754  1.00  0.00     0.013 A 
ATOM     10  C   UNL     1       1.812  -1.117   1.535  1.00  0.00     0.013 A 
ATOM     11  C   UNL     1       1.641   0.322  -0.850  1.00  0.00     0.014 A 
ATOM     12  C   UNL     1       0.935  -0.032   1.440  1.00  0.00     0.014 A 
BRANCH   8  13
ATOM     13  C   UNL     1       3.498  -2.656   0.577  1.00  0.00     0.199 C 
ATOM     14  O   UNL     1       3.073  -3.641   1.186  1.00  0.00    -0.288 OA
BRANCH  13  15
ATOM     15  C   UNL     1       4.842  -2.743  -0.037  1.00  0.00     0.104 A 
ATOM     16  C   UNL     1       6.916  -1.714  -0.810  1.00  0.00     0.155 A 
ATOM     17  C   UNL     1       7.375  -2.964  -1.233  1.00  0.00     0.053 A 
ATOM     18  C   UNL     1       5.651  -1.618  -0.209  1.00  0.00     0.179 A 
ATOM     19  C   UNL     1       6.588  -4.102  -1.039  1.00  0.00     0.051 A 
ATOM     20  C   UNL     1       5.338  -3.992  -0.433  1.00  0.00     0.130 A 
ATOM     21  F   UNL     1       5.237  -0.417   0.227  1.00  0.00    -0.202 F 
BRANCH  16  22
ATOM     22  O   UNL     1       7.600  -0.535  -0.935  1.00  0.00    -0.494 OA
ATOM     23  C   UNL     1       8.917  -0.597  -1.467  1.00  0.00     0.278 C 
ENDBRANCH  16  22
BRANCH  20  24
ATOM     24  O   UNL     1       4.645  -5.159  -0.255  1.00  0.00    -0.507 OA
ATOM     25  H   UNL     1       3.901  -4.980   0.365  1.00  0.00     0.293 HD
ENDBRANCH  20  24
ENDBRANCH  13  15
ENDBRANCH   8  13
ENDBRANCH   4   7
ENDBRANCH   1   3
BRANCH   1  26
ATOM     26  C   UNL     1      -3.155   2.360  -0.557  1.00  0.00     0.121 C 
BRANCH  26  27
ATOM     27  C   UNL     1      -4.467   3.137  -0.862  1.00  0.00     0.108 C 
BRANCH  27  28
ATOM     28  N   UNL     1      -5.235   3.737   0.231  1.00  0.00    -0.315 NA
ATOM     29  H   UNL     1      -6.103   4.105  -0.158  1.00  0.00     0.122 HD
BRANCH  28  30
ATOM     30  C   UNL     1      -4.506   4.818   0.879  1.00  0.00     0.081 C 
BRANCH  30  31
ATOM     31  C   UNL     1      -3.795   4.336   2.135  1.00  0.00     0.017 C 
BRANCH  31  32
ATOM     32  C   UNL     1      -3.035   3.016   2.011  1.00  0.00     0.028 CG0
ATOM     33  G   UNL     1      -2.303   2.805   0.681  1.00  0.00     0.000 G0
ENDBRANCH  31  32
ENDBRANCH  30  31
ENDBRANCH  28  30
ENDBRANCH  27  28
ENDBRANCH  26  27
BRANCH  26  34
ATOM     34  N   UNL     1      -3.296   0.876  -0.725  1.00  0.00    -0.335 N 
ATOM     35  C   UNL     1      -2.842   0.346  -2.011  1.00  0.00     0.147 C 
BRANCH  34  36
ATOM     36  C   UNL     1      -4.069   0.124   0.157  1.00  0.00     0.254 C 
ATOM     37  O   UNL     1      -4.816   0.595   1.006  1.00  0.00    -0.269 OA
BRANCH  36  38
ATOM     38  C   UNL     1      -3.975  -1.354   0.113  1.00  0.00     0.043 A 
ATOM     39  C   UNL     1      -2.737  -1.997   0.127  1.00  0.00     0.034 A 
ATOM     40  C   UNL     1      -5.152  -2.100   0.140  1.00  0.00     0.034 A 
ATOM     41  C   UNL     1      -2.733  -3.379   0.121  1.00  0.00     0.112 A 
ATOM     42  C   UNL     1      -5.039  -3.476   0.133  1.00  0.00     0.112 A 
ATOM     43  N   UNL     1      -3.856  -4.131   0.113  1.00  0.00    -0.265 NA
ENDBRANCH  36  38
ENDBRANCH  34  36
ENDBRANCH  26  34
ENDBRANCH   1  26
TORSDOF 9
