MODEL        2USER    Run = 2USERUSER    Estimated Free Energy of Binding    =  -7.76 kcal/mol  [=(1)+(2)+(3)-(4)]USERUSER    (1) Final Intermolecular Energy     = -12.23 kcal/molUSER        vdW + Hbond + desolv Energy     = -12.47 kcal/molUSER        Electrostatic Energy            =  -0.28 kcal/molUSER        Moving Ligand-Fixed Receptor    = -12.74 kcal/molUSER        Moving Ligand-Moving Receptor   =  +0.51 kcal/molUSER    (2) Final Total Internal Energy     =  -3.69 kcal/molUSER    (3) Torsional Free Energy           =  +4.47 kcal/molUSER    (4) Unbound System's Energy         =  -3.69 kcal/molUSERUSERREMARK SMILES COc1ccc(O)c(C(=O)c2ccc(S(=O)(=O)N[C@@H]3CCCNC[C@H]3NC(=O)c3ccncc3)cc2)c1FREMARK SMILES IDX 18 1 15 3 16 4 17 5 14 6 11 7 12 8 36 9 13 10 35 11 9 12REMARK SMILES IDX 10 13 8 14 3 15 4 16 37 17 5 18 6 19 38 20 2 21 1 22 7 23REMARK SMILES IDX 19 25 25 27 24 28 23 29 22 31 21 32 20 33 26 35 27 36 28 38REMARK SMILES IDX 29 39 30 40 34 41 31 42 33 43 32 44REMARK H PARENT 18 2 7 24 23 30 26 37REMARK Flexibility Score:   99.900USER                              x       y       z     vdW  Elec       q    TypeUSER                           _______ _______ _______ _____ _____    ______ ____ROOTATOM      1  N   UNL     1      31.760  43.018  16.135 -0.22 +0.10    -0.206 NA ATOM      2  H   UNL     1      31.927  42.295  15.440 -0.39 -0.10    +0.141 HD ENDROOTBRANCH   1   3ATOM      3  S   UNL     1      30.357  43.901  15.928 -0.32 -0.11    +0.240 S  ATOM      4  O   UNL     1      30.256  44.143  14.504 -0.18 +0.22    -0.207 OA ATOM      5  O   UNL     1      30.345  44.983  16.885 -0.52 +0.00    -0.207 OA BRANCH   3   6ATOM      6  C   UNL     1      29.108  42.718  16.366 -0.21 -0.03    +0.082 A  ATOM      7  C   UNL     1      27.137  40.865  17.031 -0.23 -0.00    +0.023 A  ATOM      8  C   UNL     1      26.806  42.221  16.910 -0.21 -0.00    +0.013 A  ATOM      9  C   UNL     1      28.463  40.446  16.863 -0.29 +0.00    +0.013 A  ATOM     10  C   UNL     1      27.794  43.149  16.573 -0.22 -0.01    +0.022 A  ATOM     11  C   UNL     1      29.453  41.374  16.532 -0.32 -0.01    +0.022 A  BRANCH   7  12ATOM     12  C   UNL     1      26.117  39.853  17.396 -0.25 +0.02    +0.199 C  ATOM     13  O   UNL     1      25.943  38.887  16.655 -0.60 -0.18    -0.288 OA BRANCH  12  14ATOM     14  C   UNL     1      25.331  39.922  18.649 -0.24 -0.02    +0.104 A  ATOM     15  C   UNL     1      24.993  40.744  20.923 -0.32 -0.04    +0.155 A  ATOM     16  C   UNL     1      23.825  39.983  21.021 -0.34 -0.02    +0.053 A  ATOM     17  C   UNL     1      25.734  40.710  19.731 -0.18 -0.03    +0.179 A  ATOM     18  C   UNL     1      23.394  39.219  19.932 -0.33 -0.03    +0.051 A  ATOM     19  C   UNL     1      24.135  39.202  18.751 -0.23 -0.05    +0.130 A  ATOM     20  F   UNL     1      26.835  41.474  19.638 -0.01 +0.02    -0.202 F  BRANCH  15  21ATOM     21  O   UNL     1      25.502  41.543  21.914 -0.58 +0.04    -0.494 OA ATOM     22  C   UNL     1      24.605  42.448  22.544 -0.45 -0.07    +0.278 C  ENDBRANCH  15  21BRANCH  19  23ATOM     23  O   UNL     1      23.627  38.450  17.726 -0.22 +0.29    -0.507 OA ATOM     24  H   UNL     1      24.378  38.182  17.146 -0.14 -0.11    +0.293 HD ENDBRANCH  19  23ENDBRANCH  12  14ENDBRANCH   7  12ENDBRANCH   3   6ENDBRANCH   1   3BRANCH   1  25ATOM     25  C   UNL     1      32.803  43.448  17.080 -0.31 -0.03    +0.093 CG0ATOM     26  G   UNL     1      33.383  44.805  16.658 +0.00 +0.00    +0.000 G0 BRANCH  25  27ATOM     27  C   UNL     1      33.868  42.332  17.302 -0.38 -0.04    +0.114 C  BRANCH  27  28ATOM     28  C   UNL     1      34.956  42.710  18.328 -0.37 -0.02    +0.107 C  BRANCH  28  29ATOM     29  N   UNL     1      34.557  43.724  19.311 -0.18 +0.05    -0.315 NA ATOM     30  H   UNL     1      33.568  43.640  19.542 +0.07 -0.01    +0.122 HD BRANCH  29  31ATOM     31  C   UNL     1      34.845  45.072  18.837 -0.40 -0.03    +0.081 C  BRANCH  31  32ATOM     32  C   UNL     1      34.675  45.288  17.333 -0.40 -0.01    +0.017 C  BRANCH  32  33ATOM     33  C   UNL     1      33.386  44.805  16.666 -0.37 -0.01    +0.023 CG0ATOM     34  G   UNL     1      32.802  43.448  17.079 +0.00 +0.00    +0.000 G0 ENDBRANCH  32  33ENDBRANCH  31  32ENDBRANCH  29  31ENDBRANCH  28  29ENDBRANCH  27  28BRANCH  27  35ATOM     35  N   UNL     1      33.265  41.039  17.688 -0.20 +0.13    -0.346 N  ATOM     36  C   UNL     1      32.393  40.948  18.755 -0.28 -0.01    +0.251 C  ATOM     37  H   UNL     1      33.138  40.368  16.940 -0.20 -0.12    +0.164 HD ATOM     38  O   UNL     1      32.140  41.889  19.501 -0.35 -0.02    -0.269 OA BRANCH  36  39ATOM     39  C   UNL     1      31.707  39.639  18.942 -0.39 +0.00    +0.042 A  ATOM     40  C   UNL     1      30.470  39.628  19.589 -0.18 +0.00    +0.034 A  ATOM     41  C   UNL     1      32.269  38.435  18.510 -0.39 +0.00    +0.034 A  ATOM     42  C   UNL     1      29.833  38.412  19.752 -0.29 +0.02    +0.112 A  ATOM     43  C   UNL     1      31.551  37.272  18.726 -0.38 +0.04    +0.112 A  ATOM     44  N   UNL     1      30.344  37.235  19.327 -0.49 -0.11    -0.265 NA ENDBRANCH  36  39ENDBRANCH  27  35ENDBRANCH  25  27ENDBRANCH   1  25TORSDOF 9TERENDMDL