MODEL        5USER    Run = 5USERUSER    Estimated Free Energy of Binding    =  -5.99 kcal/mol  [=(1)+(2)+(3)-(4)]USERUSER    (1) Final Intermolecular Energy     = -10.47 kcal/molUSER        vdW + Hbond + desolv Energy     = -10.41 kcal/molUSER        Electrostatic Energy            =  -0.29 kcal/molUSER        Moving Ligand-Fixed Receptor    = -10.70 kcal/molUSER        Moving Ligand-Moving Receptor   =  +0.23 kcal/molUSER    (2) Final Total Internal Energy     =  -3.28 kcal/molUSER    (3) Torsional Free Energy           =  +4.47 kcal/molUSER    (4) Unbound System's Energy         =  -3.28 kcal/molUSERUSERREMARK SMILES COc1ccc(O)c(C(=O)c2ccc(C(=O)N[C@@H]3CCCNC[C@@H]3N(C)C(=O)c3ccncc3)cc2)c1FREMARK SMILES IDX 18 1 17 3 15 4 16 5 14 7 11 8 12 9 36 10 13 11 35 12 9 13REMARK SMILES IDX 10 14 8 15 3 16 4 17 37 18 5 19 6 20 38 21 2 22 1 23 7 24REMARK SMILES IDX 24 26 23 27 22 28 21 30 20 31 19 32 25 34 26 35 27 36 28 37REMARK SMILES IDX 29 38 30 39 34 40 31 41 33 42 32 43REMARK H PARENT 17 6 7 25 22 29REMARK Flexibility Score:  100.900USER                              x       y       z     vdW  Elec       q    TypeUSER                           _______ _______ _______ _____ _____    ______ ____ROOTATOM      1  C   UNL     1      39.464  43.974  26.952 -0.17 -0.00    +0.106 CG0ATOM      2  G   UNL     1      40.351  42.913  27.613 +0.00 +0.00    +0.000 G0 ENDROOTBRANCH   1   3ATOM      3  N   UNL     1      39.945  44.188  25.575 -0.02 -0.00    -0.347 N  ATOM      4  C   UNL     1      41.150  44.810  25.326 -0.04 +0.01    +0.251 C  ATOM      5  O   UNL     1      41.955  45.098  26.206 -0.03 -0.01    -0.269 OA ATOM      6  H   UNL     1      39.214  44.261  24.881 +0.07 +0.00    +0.164 HD BRANCH   4   7ATOM      7  C   UNL     1      41.418  45.196  23.913 -0.11 +0.00    +0.039 A  ATOM      8  C   UNL     1      41.880  46.029  21.274 -0.30 +0.00    +0.023 A  ATOM      9  C   UNL     1      41.531  46.967  22.250 -0.13 +0.00    +0.013 A  ATOM     10  C   UNL     1      41.981  44.674  21.613 -0.28 +0.00    +0.013 A  ATOM     11  C   UNL     1      41.313  46.551  23.567 -0.19 +0.00    +0.014 A  ATOM     12  C   UNL     1      41.764  44.258  22.931 -0.20 +0.00    +0.014 A  BRANCH   8  13ATOM     13  C   UNL     1      42.076  46.417  19.858 -0.35 +0.03    +0.199 C  ATOM     14  O   UNL     1      43.217  46.688  19.476 -0.28 -0.12    -0.288 OA BRANCH  13  15ATOM     15  C   UNL     1      40.983  46.437  18.860 -0.40 -0.00    +0.104 A  ATOM     16  C   UNL     1      38.828  45.653  18.025 -0.31 -0.03    +0.155 A  ATOM     17  C   UNL     1      38.951  46.498  16.920 -0.39 -0.01    +0.053 A  ATOM     18  C   UNL     1      39.847  45.635  18.990 -0.32 -0.01    +0.179 A  ATOM     19  C   UNL     1      40.068  47.328  16.794 -0.47 -0.01    +0.051 A  ATOM     20  C   UNL     1      41.068  47.306  17.764 -0.42 -0.01    +0.130 A  ATOM     21  F   UNL     1      39.699  44.846  20.066 -0.09 -0.00    -0.202 F  BRANCH  16  22ATOM     22  O   UNL     1      37.778  44.807  18.262 -0.09 +0.09    -0.494 OA ATOM     23  C   UNL     1      36.497  45.207  17.791 -0.21 -0.10    +0.278 C  ENDBRANCH  16  22BRANCH  20  24ATOM     24  O   UNL     1      42.113  48.171  17.579 -0.40 -0.01    -0.507 OA ATOM     25  H   UNL     1      42.944  47.643  17.553 -0.38 -0.06    +0.293 HD ENDBRANCH  20  24ENDBRANCH  13  15ENDBRANCH   8  13ENDBRANCH   4   7ENDBRANCH   1   3BRANCH   1  26ATOM     26  C   UNL     1      37.915  43.737  26.960 -0.26 -0.01    +0.121 C  BRANCH  26  27ATOM     27  C   UNL     1      37.392  42.318  27.322 -0.39 -0.02    +0.108 C  BRANCH  27  28ATOM     28  N   UNL     1      37.929  41.141  26.636 -0.20 +0.04    -0.315 NA ATOM     29  H   UNL     1      37.220  40.409  26.663 -0.42 -0.04    +0.122 HD BRANCH  28  30ATOM     30  C   UNL     1      39.146  40.651  27.267 -0.34 -0.00    +0.081 C  BRANCH  30  31ATOM     31  C   UNL     1      40.338  41.541  26.944 -0.17 -0.00    +0.017 C  BRANCH  31  32ATOM     32  C   UNL     1      40.351  42.914  27.614 -0.21 -0.00    +0.028 CG0ATOM     33  G   UNL     1      39.465  43.974  26.949 +0.00 +0.00    +0.000 G0 ENDBRANCH  31  32ENDBRANCH  30  31ENDBRANCH  28  30ENDBRANCH  27  28ENDBRANCH  26  27BRANCH  26  34ATOM     34  N   UNL     1      37.175  44.364  25.815 -0.13 +0.01    -0.335 N  ATOM     35  C   UNL     1      36.442  43.431  24.959 -0.23 +0.01    +0.147 C  BRANCH  34  36ATOM     36  C   UNL     1      37.419  45.683  25.439 -0.23 +0.01    +0.254 C  ATOM     37  O   UNL     1      38.032  46.020  24.434 -0.55 -0.04    -0.269 OA BRANCH  36  38ATOM     38  C   UNL     1      36.945  46.779  26.317 -0.28 -0.00    +0.043 A  ATOM     39  C   UNL     1      36.785  48.075  25.827 -0.42 -0.00    +0.034 A  ATOM     40  C   UNL     1      36.581  46.476  27.628 -0.27 -0.01    +0.034 A  ATOM     41  C   UNL     1      36.304  49.034  26.698 -0.34 -0.01    +0.112 A  ATOM     42  C   UNL     1      36.110  47.506  28.417 -0.29 -0.03    +0.112 A  ATOM     43  N   UNL     1      35.974  48.780  27.984 -0.20 +0.03    -0.265 NA ENDBRANCH  36  38ENDBRANCH  34  36ENDBRANCH  26  34ENDBRANCH   1  26TORSDOF 9TERENDMDL