MODEL        5USER    Run = 5USERUSER    Estimated Free Energy of Binding    =  -6.83 kcal/mol  [=(1)+(2)+(3)-(4)]USERUSER    (1) Final Intermolecular Energy     = -11.01 kcal/molUSER        vdW + Hbond + desolv Energy     = -11.21 kcal/molUSER        Electrostatic Energy            =  -0.24 kcal/molUSER        Moving Ligand-Fixed Receptor    = -11.45 kcal/molUSER        Moving Ligand-Moving Receptor   =  +0.45 kcal/molUSER    (2) Final Total Internal Energy     =  -1.97 kcal/molUSER    (3) Torsional Free Energy           =  +4.18 kcal/molUSER    (4) Unbound System's Energy         =  -1.97 kcal/molUSERUSERREMARK SMILES COc1ccc(O)c(C(=O)c2ccc(C(=O)N[C@@H]3CCCNC[C@H]3NC(=O)c3ccncc3)cc2)c1FREMARK SMILES IDX 15 1 16 2 17 3 14 5 11 6 12 7 35 8 13 9 34 10 9 11 10 12REMARK SMILES IDX 8 13 3 14 4 15 36 16 5 17 6 18 37 19 2 20 1 21 7 22 18 24REMARK SMILES IDX 19 25 24 27 23 28 22 29 21 31 20 32 25 34 26 35 27 37 28 38REMARK SMILES IDX 29 39 33 40 30 41 32 42 31 43REMARK H PARENT 17 4 7 23 22 30 25 36REMARK Flexibility Score:   88.900USER                              x       y       z     vdW  Elec       q    TypeUSER                           _______ _______ _______ _____ _____    ______ ____ROOTATOM      1  C   UNL     1      40.877  48.782  14.480 -0.37 -0.05    +0.251 C  ATOM      2  O   UNL     1      41.307  47.919  15.237 -0.29 +0.01    -0.269 OA ATOM      3  N   UNL     1      39.576  48.808  14.020 -0.15 +0.13    -0.347 N  ATOM      4  H   UNL     1      39.359  49.422  13.247 -0.10 -0.07    +0.164 HD ENDROOTBRANCH   1   5ATOM      5  C   UNL     1      41.787  49.834  13.946 -0.63 -0.01    +0.039 A  ATOM      6  C   UNL     1      43.585  51.791  13.050 -0.01 -0.01    +0.023 A  ATOM      7  C   UNL     1      43.343  51.636  14.419 +0.20 -0.00    +0.013 A  ATOM      8  C   UNL     1      42.927  50.968  12.129 -0.58 -0.01    +0.013 A  ATOM      9  C   UNL     1      42.438  50.668  14.864 -0.49 -0.00    +0.014 A  ATOM     10  C   UNL     1      42.020  49.997  12.575 -0.01 -0.00    +0.014 A  BRANCH   6  11ATOM     11  C   UNL     1      44.609  52.772  12.634 -0.11 -0.08    +0.199 C  ATOM     12  O   UNL     1      44.906  53.671  13.424 -0.16 +0.09    -0.288 OA BRANCH  11  13ATOM     13  C   UNL     1      45.338  52.717  11.345 -0.27 -0.04    +0.104 A  ATOM     14  C   UNL     1      47.333  52.239  10.023 -0.24 -0.03    +0.155 A  ATOM     15  C   UNL     1      46.658  52.625   8.862 -0.21 -0.01    +0.053 A  ATOM     16  C   UNL     1      46.662  52.286  11.257 -0.24 -0.05    +0.179 A  ATOM     17  C   UNL     1      45.324  53.032   8.933 -0.26 -0.01    +0.051 A  ATOM     18  C   UNL     1      44.668  53.063  10.162 -0.29 -0.06    +0.130 A  ATOM     19  F   UNL     1      47.314  51.877  12.358 -0.11 +0.05    -0.202 F  BRANCH  14  20ATOM     20  O   UNL     1      48.632  51.808  10.077 -0.10 +0.10    -0.494 OA ATOM     21  C   UNL     1      48.926  50.552   9.473 -0.34 -0.07    +0.278 C  ENDBRANCH  14  20BRANCH  18  22ATOM     22  O   UNL     1      43.353  53.445  10.130 -0.10 +0.51    -0.507 OA ATOM     23  H   UNL     1      43.331  54.409   9.925 -0.43 -0.60    +0.293 HD ENDBRANCH  18  22ENDBRANCH  11  13ENDBRANCH   6  11ENDBRANCH   1   5BRANCH   3  24ATOM     24  C   UNL     1      38.673  47.675  14.253 -0.48 -0.04    +0.106 C  BRANCH  24  25ATOM     25  C   UNL     1      37.628  47.605  13.132 -0.56 -0.01    +0.028 CG0ATOM     26  G   UNL     1      36.600  46.467  13.249 +0.00 +0.00    +0.000 G0 ENDBRANCH  24  25BRANCH  24  27ATOM     27  C   UNL     1      38.062  47.754  15.682 -0.44 -0.07    +0.118 C  BRANCH  27  28ATOM     28  C   UNL     1      36.997  46.676  15.997 -0.37 -0.07    +0.108 C  BRANCH  28  29ATOM     29  N   UNL     1      35.628  46.933  15.539 -0.02 +0.38    -0.315 NA ATOM     30  H   UNL     1      34.970  46.387  16.090 +0.02 -0.16    +0.122 HD BRANCH  29  31ATOM     31  C   UNL     1      35.374  46.724  14.118 -0.39 -0.07    +0.081 C  BRANCH  31  32ATOM     32  C   UNL     1      36.604  46.462  13.252 -0.61 -0.01    +0.017 CG0ATOM     33  G   UNL     1      37.626  47.605  13.133 +0.00 +0.00    +0.000 G0 ENDBRANCH  31  32ENDBRANCH  29  31ENDBRANCH  28  29ENDBRANCH  27  28BRANCH  27  34ATOM     34  N   UNL     1      39.130  47.750  16.689 -0.19 +0.14    -0.346 N  ATOM     35  C   UNL     1      39.535  46.589  17.305 -0.34 -0.05    +0.251 C  ATOM     36  H   UNL     1      39.739  48.553  16.716 +0.11 -0.06    +0.164 HD ATOM     37  O   UNL     1      38.991  45.505  17.136 -0.24 +0.05    -0.269 OA BRANCH  35  38ATOM     38  C   UNL     1      40.719  46.693  18.193 -0.47 -0.00    +0.042 A  ATOM     39  C   UNL     1      40.799  45.837  19.293 -0.42 +0.00    +0.034 A  ATOM     40  C   UNL     1      41.728  47.633  17.974 -0.48 -0.00    +0.034 A  ATOM     41  C   UNL     1      41.901  45.942  20.118 -0.30 +0.02    +0.112 A  ATOM     42  C   UNL     1      42.790  47.658  18.860 -0.43 +0.01    +0.112 A  ATOM     43  N   UNL     1      42.900  46.829  19.923 -0.29 -0.08    -0.265 NA ENDBRANCH  35  38ENDBRANCH  27  34ENDBRANCH  24  27ENDBRANCH   3  24TORSDOF 8TERENDMDL