
     RDKit          3D

 55 58  0  0  0  0  0  0  0  0999 V2000
    8.4785   -0.3126    0.4425 C   0  0  0  0  0  0  0  0  0  0  0  0
    7.0443   -0.1741    0.6157 N   0  0  0  0  0  0  0  0  0  0  0  0
    6.7684    0.5690    1.7938 O   0  0  0  0  0  0  0  0  0  0  0  0
    6.2158    0.0113   -0.4879 C   0  0  0  0  0  0  0  0  0  0  0  0
    6.6161   -0.0802   -1.6486 O   0  0  0  0  0  0  0  0  0  0  0  0
    4.7660    0.2870   -0.2572 C   0  0  0  0  0  0  0  0  0  0  0  0
    4.0829   -0.2171    0.8574 C   0  0  0  0  0  0  0  0  0  0  0  0
    2.7146    0.0339    1.0157 C   0  0  0  0  0  0  0  0  0  0  0  0
    2.0117    0.7813    0.0602 C   0  0  0  0  0  0  0  0  0  0  0  0
    0.5204    0.9984    0.1925 C   0  0  0  0  0  0  0  0  0  0  0  0
   -0.2060   -0.2353   -0.1287 N   0  0  0  0  0  0  0  0  0  0  0  0
   -1.5489    0.0420   -0.6961 C   0  0  0  0  0  0  0  0  0  0  0  0
   -1.4581    0.2326   -2.2262 C   0  0  0  0  0  0  0  0  0  0  0  0
   -1.5111   -1.0958   -2.9768 C   0  0  2  0  0  0  0  0  0  0  0  0
   -1.3456   -0.8434   -4.3703 O   0  0  0  0  0  0  0  0  0  0  0  0
   -2.8320   -1.8360   -2.7371 C   0  0  0  0  0  0  0  0  0  0  0  0
   -3.5263   -1.4285   -1.4301 C   0  0  0  0  0  0  0  0  0  0  0  0
   -2.5025   -1.1330   -0.3180 C   0  0  2  0  0  0  0  0  0  0  0  0
   -3.1410   -0.9250    0.9789 N   0  0  0  0  0  0  0  0  0  0  0  0
   -2.9221   -1.6816    2.1056 C   0  0  0  0  0  0  0  0  0  0  0  0
   -3.6674   -1.2863    3.1191 N   0  0  0  0  0  0  0  0  0  0  0  0
   -4.4150   -0.2379    2.6171 C   0  0  0  0  0  0  0  0  0  0  0  0
   -5.4102    0.5845    3.1811 C   0  0  0  0  0  0  0  0  0  0  0  0
   -5.8547    0.4619    4.4897 N   0  0  0  0  0  0  0  0  0  0  0  0
   -5.9493    1.5652    2.4220 N   0  0  0  0  0  0  0  0  0  0  0  0
   -5.5125    1.7085    1.1509 C   0  0  0  0  0  0  0  0  0  0  0  0
   -4.5769    0.9860    0.5030 N   0  0  0  0  0  0  0  0  0  0  0  0
   -4.0802    0.0205    1.2946 C   0  0  0  0  0  0  0  0  0  0  0  0
    2.6993    1.2709   -1.0616 C   0  0  0  0  0  0  0  0  0  0  0  0
    4.0662    1.0248   -1.2189 C   0  0  0  0  0  0  0  0  0  0  0  0
    8.9259   -0.6883    1.3684 H   0  0  0  0  0  0  0  0  0  0  0  0
    8.9021    0.6640    0.1933 H   0  0  0  0  0  0  0  0  0  0  0  0
    8.6875   -1.0117   -0.3743 H   0  0  0  0  0  0  0  0  0  0  0  0
    6.4297    1.4231    1.4609 H   0  0  0  0  0  0  0  0  0  0  0  0
    4.5977   -0.8213    1.6022 H   0  0  0  0  0  0  0  0  0  0  0  0
    2.1912   -0.3748    1.8802 H   0  0  0  0  0  0  0  0  0  0  0  0
    0.2271    1.8313   -0.4584 H   0  0  0  0  0  0  0  0  0  0  0  0
    0.2853    1.3044    1.2184 H   0  0  0  0  0  0  0  0  0  0  0  0
    0.3514   -0.7654   -0.7997 H   0  0  0  0  0  0  0  0  0  0  0  0
   -1.9314    0.9762   -0.2629 H   0  0  0  0  0  0  0  0  0  0  0  0
   -0.5536    0.7891   -2.5085 H   0  0  0  0  0  0  0  0  0  0  0  0
   -2.2873    0.8697   -2.5677 H   0  0  0  0  0  0  0  0  0  0  0  0
   -0.6691   -1.7291   -2.6616 H   0  0  0  0  0  0  0  0  0  0  0  0
   -1.3760   -1.6989   -4.8302 H   0  0  0  0  0  0  0  0  0  0  0  0
   -3.5228   -1.6932   -3.5812 H   0  0  0  0  0  0  0  0  0  0  0  0
   -2.6187   -2.9159   -2.7118 H   0  0  0  0  0  0  0  0  0  0  0  0
   -4.1459   -0.5419   -1.6285 H   0  0  0  0  0  0  0  0  0  0  0  0
   -4.2193   -2.2223   -1.1218 H   0  0  0  0  0  0  0  0  0  0  0  0
   -1.9043   -2.0510   -0.2024 H   0  0  0  0  0  0  0  0  0  0  0  0
   -2.2184   -2.5061    2.1236 H   0  0  0  0  0  0  0  0  0  0  0  0
   -6.2891    1.3151    4.8133 H   0  0  0  0  0  0  0  0  0  0  0  0
   -5.1714    0.0261    5.1026 H   0  0  0  0  0  0  0  0  0  0  0  0
   -5.9647    2.5248    0.5909 H   0  0  0  0  0  0  0  0  0  0  0  0
    2.1712    1.8384   -1.8251 H   0  0  0  0  0  0  0  0  0  0  0  0
    4.5788    1.4045   -2.1021 H   0  0  0  0  0  0  0  0  0  0  0  0
  1  2  1  0
  2  3  1  0
  2  4  1  0
  4  5  2  0
  4  6  1  0
  6  7  2  0
  7  8  1  0
  8  9  2  0
  9 10  1  0
 10 11  1  0
 11 12  1  0
 12 13  1  0
 13 14  1  0
 14 15  1  0
 14 16  1  0
 16 17  1  0
 17 18  1  0
 18 19  1  0
 19 20  1  0
 20 21  2  0
 21 22  1  0
 22 23  2  0
 23 24  1  0
 23 25  1  0
 25 26  2  0
 26 27  1  0
 27 28  2  0
  9 29  1  0
 29 30  2  0
 30  6  1  0
 18 12  1  0
 28 19  1  0
 28 22  1  0
  1 31  1  0
  1 32  1  0
  1 33  1  0
  3 34  1  0
  7 35  1  0
  8 36  1  0
 10 37  1  0
 10 38  1  0
 11 39  1  0
 12 40  1  0
 13 41  1  0
 13 42  1  0
 14 43  1  1
 15 44  1  0
 16 45  1  0
 16 46  1  0
 17 47  1  0
 17 48  1  0
 18 49  1  1
 20 50  1  0
 24 51  1  0
 24 52  1  0
 26 53  1  0
 29 54  1  0
 30 55  1  0
M  END
$$$$
