
     RDKit          3D

 67 70  0  0  0  0  0  0  0  0999 V2000
   -7.1670    3.2384    1.3988 C   0  0  0  0  0  0  0  0  0  0  0  0
   -7.2123    2.6328    0.1079 O   0  0  0  0  0  0  0  0  0  0  0  0
   -6.2294    1.6670   -0.0133 C   0  0  0  0  0  0  0  0  0  0  0  0
   -5.0375    1.9236   -0.5667 C   0  0  0  0  0  0  0  0  0  0  0  0
   -4.5266    3.1901   -1.0721 C   0  0  0  0  0  0  0  0  0  0  0  0
   -3.2367    2.9566   -1.3725 C   0  0  0  0  0  0  0  0  0  0  0  0
   -2.8888    1.6577   -1.0842 N   0  0  0  0  0  0  0  0  0  0  0  0
   -3.9723    0.9173   -0.6763 C   0  0  0  0  0  0  0  0  0  0  0  0
   -4.1801   -0.3955   -0.4613 C   0  0  0  0  0  0  0  0  0  0  0  0
   -3.2194   -1.4067   -0.6077 N   0  0  0  0  0  0  0  0  0  0  0  0
   -3.5080   -2.7977   -0.3159 C   0  0  0  0  0  0  0  0  0  0  0  0
   -2.3638   -3.5699   -0.9375 C   0  0  0  0  0  0  0  0  0  0  0  0
   -1.1828   -2.6137   -0.8215 C   0  0  0  0  0  0  0  0  0  0  0  0
   -0.5051   -2.7016    0.5511 C   0  0  0  0  0  0  0  0  0  0  0  0
    0.8019   -1.9463    0.6129 C   0  0  0  0  0  0  0  0  0  0  0  0
    1.9774   -2.5140    0.1019 C   0  0  0  0  0  0  0  0  0  0  0  0
    3.1859   -1.8124    0.1534 C   0  0  0  0  0  0  0  0  0  0  0  0
    3.2281   -0.5296    0.7128 C   0  0  0  0  0  0  0  0  0  0  0  0
    4.4921    0.2502    0.7993 C   0  0  0  0  0  0  0  0  0  0  0  0
    4.6678    1.0445    1.7159 O   0  0  0  0  0  0  0  0  0  0  0  0
    5.4092    0.0407   -0.2098 N   0  0  0  0  0  0  0  0  0  0  0  0
    6.6620    0.7761   -0.2555 C   0  0  0  0  0  0  0  0  0  0  0  0
    7.7133    0.2002    0.7162 C   0  0  0  0  0  0  0  0  0  0  0  0
    9.0467    0.8278    0.7231 N   0  0  0  0  0  0  0  0  0  0  0  0
    9.7385    0.7101   -0.5550 C   0  0  0  0  0  0  0  0  0  0  0  0
    8.9989    2.2177    1.1709 C   0  0  0  0  0  0  0  0  0  0  0  0
    2.0603    0.0356    1.2358 C   0  0  0  0  0  0  0  0  0  0  0  0
    0.8534   -0.6650    1.1783 C   0  0  0  0  0  0  0  0  0  0  0  0
   -1.8708   -1.2720   -1.0050 C   0  0  0  0  0  0  0  0  0  0  0  0
   -1.2809   -0.2823   -1.4152 O   0  0  0  0  0  0  0  0  0  0  0  0
   -5.5962   -0.8203   -0.0662 C   0  0  0  0  0  0  0  0  0  0  0  0
   -6.5402    0.2796    0.5018 C   0  0  0  0  0  0  0  0  0  0  0  0
   -7.9978   -0.1293    0.2637 C   0  0  0  0  0  0  0  0  0  0  0  0
   -7.9581    3.9916    1.4455 H   0  0  0  0  0  0  0  0  0  0  0  0
   -6.2083    3.7401    1.5652 H   0  0  0  0  0  0  0  0  0  0  0  0
   -7.3520    2.5029    2.1877 H   0  0  0  0  0  0  0  0  0  0  0  0
   -5.0799    4.1060   -1.1816 H   0  0  0  0  0  0  0  0  0  0  0  0
   -2.5059    3.6353   -1.7886 H   0  0  0  0  0  0  0  0  0  0  0  0
   -2.0491    1.1963   -1.4348 H   0  0  0  0  0  0  0  0  0  0  0  0
   -4.4596   -3.1133   -0.7550 H   0  0  0  0  0  0  0  0  0  0  0  0
   -3.5359   -2.9303    0.7716 H   0  0  0  0  0  0  0  0  0  0  0  0
   -2.2023   -4.5410   -0.4602 H   0  0  0  0  0  0  0  0  0  0  0  0
   -2.5809   -3.7522   -1.9981 H   0  0  0  0  0  0  0  0  0  0  0  0
   -0.4773   -2.7913   -1.6404 H   0  0  0  0  0  0  0  0  0  0  0  0
   -0.2991   -3.7521    0.7973 H   0  0  0  0  0  0  0  0  0  0  0  0
   -1.1676   -2.3356    1.3467 H   0  0  0  0  0  0  0  0  0  0  0  0
    1.9617   -3.5108   -0.3335 H   0  0  0  0  0  0  0  0  0  0  0  0
    4.0868   -2.2910   -0.2201 H   0  0  0  0  0  0  0  0  0  0  0  0
    5.1424   -0.4999   -1.0208 H   0  0  0  0  0  0  0  0  0  0  0  0
    6.4509    1.8254   -0.0241 H   0  0  0  0  0  0  0  0  0  0  0  0
    7.0153    0.7171   -1.2895 H   0  0  0  0  0  0  0  0  0  0  0  0
    7.8391   -0.8697    0.5001 H   0  0  0  0  0  0  0  0  0  0  0  0
    7.3137    0.2264    1.7390 H   0  0  0  0  0  0  0  0  0  0  0  0
    9.2578    1.2898   -1.3506 H   0  0  0  0  0  0  0  0  0  0  0  0
    9.7910   -0.3374   -0.8721 H   0  0  0  0  0  0  0  0  0  0  0  0
   10.7731    1.0606   -0.4618 H   0  0  0  0  0  0  0  0  0  0  0  0
    8.4883    2.2986    2.1378 H   0  0  0  0  0  0  0  0  0  0  0  0
    8.4922    2.8739    0.4543 H   0  0  0  0  0  0  0  0  0  0  0  0
   10.0151    2.6010    1.3207 H   0  0  0  0  0  0  0  0  0  0  0  0
    2.0856    1.0285    1.6821 H   0  0  0  0  0  0  0  0  0  0  0  0
   -0.0469   -0.1958    1.5708 H   0  0  0  0  0  0  0  0  0  0  0  0
   -5.5515   -1.6051    0.6998 H   0  0  0  0  0  0  0  0  0  0  0  0
   -6.0555   -1.2738   -0.9552 H   0  0  0  0  0  0  0  0  0  0  0  0
   -6.3841    0.3076    1.5893 H   0  0  0  0  0  0  0  0  0  0  0  0
   -8.2470   -0.1133   -0.8029 H   0  0  0  0  0  0  0  0  0  0  0  0
   -8.6899    0.5427    0.7821 H   0  0  0  0  0  0  0  0  0  0  0  0
   -8.1817   -1.1411    0.6409 H   0  0  0  0  0  0  0  0  0  0  0  0
  1  2  1  0
  2  3  1  0
  3  4  2  0
  4  5  1  0
  5  6  2  0
  6  7  1  0
  7  8  1  0
  8  9  2  0
  9 10  1  0
 10 11  1  0
 11 12  1  0
 12 13  1  0
 13 14  1  0
 14 15  1  0
 15 16  2  0
 16 17  1  0
 17 18  2  0
 18 19  1  0
 19 20  2  0
 19 21  1  0
 21 22  1  0
 22 23  1  0
 23 24  1  0
 24 25  1  0
 24 26  1  0
 18 27  1  0
 27 28  2  0
 13 29  1  0
 29 30  2  0
  9 31  1  0
 31 32  1  0
 32 33  1  0
 32  3  1  0
  8  4  1  0
 29 10  1  0
 28 15  1  0
  1 34  1  0
  1 35  1  0
  1 36  1  0
  5 37  1  0
  6 38  1  0
  7 39  1  0
 11 40  1  0
 11 41  1  0
 12 42  1  0
 12 43  1  0
 13 44  1  0
 14 45  1  0
 14 46  1  0
 16 47  1  0
 17 48  1  0
 21 49  1  0
 22 50  1  0
 22 51  1  0
 23 52  1  0
 23 53  1  0
 25 54  1  0
 25 55  1  0
 25 56  1  0
 26 57  1  0
 26 58  1  0
 26 59  1  0
 27 60  1  0
 28 61  1  0
 31 62  1  0
 31 63  1  0
 32 64  1  0
 33 65  1  0
 33 66  1  0
 33 67  1  0
M  END
$$$$
