
     RDKit          3D

 77 81  0  0  0  0  0  0  0  0999 V2000
   10.0401    3.5739    1.9512 C   0  0  0  0  0  0  0  0  0  0  0  0
    8.7412    3.1891    1.5193 O   0  0  0  0  0  0  0  0  0  0  0  0
    8.6600    2.2613    0.5171 C   0  0  0  0  0  0  0  0  0  0  0  0
    9.7419    1.5692   -0.0369 C   0  0  0  0  0  0  0  0  0  0  0  0
    9.5355    0.6302   -1.0559 C   0  0  0  0  0  0  0  0  0  0  0  0
    8.2466    0.3823   -1.5244 C   0  0  0  0  0  0  0  0  0  0  0  0
    8.0415   -0.5589   -2.4906 O   0  0  0  0  0  0  0  0  0  0  0  0
    7.1653    1.0706   -0.9781 C   0  0  0  0  0  0  0  0  0  0  0  0
    5.8023    0.8749   -1.4861 C   0  0  0  0  0  0  0  0  0  0  0  0
    5.4936    1.4017   -2.5519 O   0  0  0  0  0  0  0  0  0  0  0  0
    4.8107    0.0865   -0.7054 C   0  0  0  0  0  0  0  0  0  0  0  0
    3.4527    0.2390   -1.0146 C   0  0  0  0  0  0  0  0  0  0  0  0
    2.4796   -0.4770   -0.3097 C   0  0  0  0  0  0  0  0  0  0  0  0
    2.8592   -1.3566    0.7107 C   0  0  0  0  0  0  0  0  0  0  0  0
    1.8648   -2.1561    1.4799 C   0  0  0  0  0  0  0  0  0  0  0  0
    2.1854   -3.2370    1.9630 O   0  0  0  0  0  0  0  0  0  0  0  0
    0.6137   -1.6046    1.6235 N   0  0  0  0  0  0  0  0  0  0  0  0
   -0.5067   -2.3123    2.2525 C   0  0  2  0  0  0  0  0  0  0  0  0
   -1.1395   -3.2585    1.2209 C   0  0  0  0  0  0  0  0  0  0  0  0
   -2.5135   -3.8518    1.5264 C   0  0  0  0  0  0  0  0  0  0  0  0
   -2.8430   -4.0796    2.9965 C   0  0  0  0  0  0  0  0  0  0  0  0
   -3.3419   -2.8649    3.6432 N   0  0  0  0  0  0  0  0  0  0  0  0
   -2.2753   -1.9481    4.0600 C   0  0  0  0  0  0  0  0  0  0  0  0
   -1.4728   -1.2982    2.9134 C   0  0  0  0  0  0  0  0  0  0  0  0
   -2.3704   -0.6332    1.9699 N   0  0  0  0  0  0  0  0  0  0  0  0
   -1.9737    0.2715    1.0143 C   0  0  0  0  0  0  0  0  0  0  0  0
   -0.8126    0.6392    0.8645 O   0  0  0  0  0  0  0  0  0  0  0  0
   -3.0690    0.7716    0.1384 C   0  0  0  0  0  0  0  0  0  0  0  0
   -2.8052    1.7083   -0.8402 C   0  0  0  0  0  0  0  0  0  0  0  0
   -3.7777    2.1897   -1.6519 N   0  0  0  0  0  0  0  0  0  0  0  0
   -5.0242    1.7086   -1.4544 C   0  0  0  0  0  0  0  0  0  0  0  0
   -6.0751    2.1698   -2.2448 C   0  0  0  0  0  0  0  0  0  0  0  0
   -7.3976    1.7132   -2.1117 C   0  0  0  0  0  0  0  0  0  0  0  0
   -8.4523    2.1999   -2.8941 N   0  0  0  0  0  0  0  0  0  0  0  0
   -9.4764    1.2335   -3.3000 C   0  0  0  0  0  0  0  0  0  0  0  0
   -8.1890    3.2651   -3.8620 C   0  0  0  0  0  0  0  0  0  0  0  0
   -7.6206    0.7640   -1.1053 C   0  0  0  0  0  0  0  0  0  0  0  0
   -6.5818    0.2881   -0.2966 C   0  0  0  0  0  0  0  0  0  0  0  0
   -5.2861    0.7434   -0.4535 C   0  0  0  0  0  0  0  0  0  0  0  0
   -4.3147    0.2663    0.3491 N   0  0  0  0  0  0  0  0  0  0  0  0
    4.2189   -1.5277    1.0031 C   0  0  0  0  0  0  0  0  0  0  0  0
    5.1924   -0.8052    0.3040 C   0  0  0  0  0  0  0  0  0  0  0  0
    7.3712    2.0012    0.0374 C   0  0  0  0  0  0  0  0  0  0  0  0
    6.3232    2.6559    0.5659 F   0  0  0  0  0  0  0  0  0  0  0  0
   10.5628    2.7338    2.4203 H   0  0  0  0  0  0  0  0  0  0  0  0
   10.6241    3.9927    1.1245 H   0  0  0  0  0  0  0  0  0  0  0  0
    9.9221    4.3566    2.7071 H   0  0  0  0  0  0  0  0  0  0  0  0
   10.7593    1.7322    0.3071 H   0  0  0  0  0  0  0  0  0  0  0  0
   10.3901    0.0947   -1.4617 H   0  0  0  0  0  0  0  0  0  0  0  0
    8.8797   -0.7492   -2.9442 H   0  0  0  0  0  0  0  0  0  0  0  0
    3.1467    0.9181   -1.8094 H   0  0  0  0  0  0  0  0  0  0  0  0
    1.4376   -0.3503   -0.5889 H   0  0  0  0  0  0  0  0  0  0  0  0
    0.4043   -0.6841    1.2376 H   0  0  0  0  0  0  0  0  0  0  0  0
   -0.0650   -2.9263    3.0483 H   0  0  0  0  0  0  0  0  0  0  0  0
   -1.2031   -2.7570    0.2449 H   0  0  0  0  0  0  0  0  0  0  0  0
   -0.4394   -4.0905    1.0594 H   0  0  0  0  0  0  0  0  0  0  0  0
   -3.2910   -3.2254    1.0682 H   0  0  0  0  0  0  0  0  0  0  0  0
   -2.5834   -4.8146    1.0017 H   0  0  0  0  0  0  0  0  0  0  0  0
   -2.0051   -4.5268    3.5430 H   0  0  0  0  0  0  0  0  0  0  0  0
   -3.6577   -4.8136    3.0358 H   0  0  0  0  0  0  0  0  0  0  0  0
   -3.8624   -3.1380    4.4787 H   0  0  0  0  0  0  0  0  0  0  0  0
   -2.7630   -1.1400    4.6206 H   0  0  0  0  0  0  0  0  0  0  0  0
   -1.6014   -2.4450    4.7686 H   0  0  0  0  0  0  0  0  0  0  0  0
   -0.8656   -0.5008    3.3643 H   0  0  0  0  0  0  0  0  0  0  0  0
   -3.3390   -0.9547    1.9393 H   0  0  0  0  0  0  0  0  0  0  0  0
   -1.8097    2.1072   -1.0039 H   0  0  0  0  0  0  0  0  0  0  0  0
   -5.8170    2.9106   -2.9970 H   0  0  0  0  0  0  0  0  0  0  0  0
   -9.0271    0.3813   -3.8234 H   0  0  0  0  0  0  0  0  0  0  0  0
  -10.0534    0.8728   -2.4419 H   0  0  0  0  0  0  0  0  0  0  0  0
  -10.2035    1.6927   -3.9799 H   0  0  0  0  0  0  0  0  0  0  0  0
   -7.5621    2.9073   -4.6867 H   0  0  0  0  0  0  0  0  0  0  0  0
   -9.1264    3.6373   -4.2897 H   0  0  0  0  0  0  0  0  0  0  0  0
   -7.7106    4.1266   -3.3818 H   0  0  0  0  0  0  0  0  0  0  0  0
   -8.6204    0.3937   -0.9015 H   0  0  0  0  0  0  0  0  0  0  0  0
   -6.7997   -0.4434    0.4777 H   0  0  0  0  0  0  0  0  0  0  0  0
    4.5221   -2.2277    1.7794 H   0  0  0  0  0  0  0  0  0  0  0  0
    6.2367   -0.9685    0.5532 H   0  0  0  0  0  0  0  0  0  0  0  0
  1  2  1  0
  2  3  1  0
  3  4  2  0
  4  5  1  0
  5  6  2  0
  6  7  1  0
  6  8  1  0
  8  9  1  0
  9 10  2  0
  9 11  1  0
 11 12  2  0
 12 13  1  0
 13 14  2  0
 14 15  1  0
 15 16  2  0
 15 17  1  0
 17 18  1  0
 18 19  1  0
 19 20  1  0
 20 21  1  0
 21 22  1  0
 22 23  1  0
 23 24  1  0
 24 25  1  0
 25 26  1  0
 26 27  2  0
 26 28  1  0
 28 29  2  0
 29 30  1  0
 30 31  2  0
 31 32  1  0
 32 33  2  0
 33 34  1  0
 34 35  1  0
 34 36  1  0
 33 37  1  0
 37 38  2  0
 38 39  1  0
 39 40  2  0
 14 41  1  0
 41 42  2  0
  8 43  2  0
 43 44  1  0
 43  3  1  0
 42 11  1  0
 24 18  1  0
 40 28  1  0
 39 31  1  0
  1 45  1  0
  1 46  1  0
  1 47  1  0
  4 48  1  0
  5 49  1  0
  7 50  1  0
 12 51  1  0
 13 52  1  0
 17 53  1  0
 18 54  1  1
 19 55  1  0
 19 56  1  0
 20 57  1  0
 20 58  1  0
 21 59  1  0
 21 60  1  0
 22 61  1  0
 23 62  1  0
 23 63  1  0
 24 64  1  0
 25 65  1  0
 29 66  1  0
 32 67  1  0
 35 68  1  0
 35 69  1  0
 35 70  1  0
 36 71  1  0
 36 72  1  0
 36 73  1  0
 37 74  1  0
 38 75  1  0
 41 76  1  0
 42 77  1  0
M  END
$$$$
