
     RDKit          3D

 64 68  0  0  0  0  0  0  0  0999 V2000
   -8.4792    0.7587    0.3796 C   0  0  0  0  0  0  0  0  0  0  0  0
   -7.9596   -0.5675    0.4513 O   0  0  0  0  0  0  0  0  0  0  0  0
   -6.5844   -0.5683    0.2984 C   0  0  0  0  0  0  0  0  0  0  0  0
   -6.0020   -0.8709   -0.8679 C   0  0  0  0  0  0  0  0  0  0  0  0
   -6.6388   -1.1738   -2.1432 C   0  0  0  0  0  0  0  0  0  0  0  0
   -5.6333   -1.2544   -3.0315 C   0  0  0  0  0  0  0  0  0  0  0  0
   -4.4229   -1.0349   -2.4222 N   0  0  0  0  0  0  0  0  0  0  0  0
   -4.5473   -0.8473   -1.0685 C   0  0  0  0  0  0  0  0  0  0  0  0
   -3.6675   -0.7187   -0.0574 C   0  0  0  0  0  0  0  0  0  0  0  0
   -2.2710   -0.7293   -0.1877 N   0  0  0  0  0  0  0  0  0  0  0  0
   -1.3867   -0.6411    0.9582 C   0  0  0  0  0  0  0  0  0  0  0  0
   -0.0356   -1.0861    0.4408 C   0  0  0  0  0  0  0  0  0  0  0  0
   -0.0432   -0.6291   -1.0119 C   0  0  0  0  0  0  0  0  0  0  0  0
    0.3937    0.8250   -1.2192 C   0  0  0  0  0  0  0  0  0  0  0  0
    1.8928    0.9958   -1.1453 C   0  0  0  0  0  0  0  0  0  0  0  0
    2.4995    1.5225    0.0035 C   0  0  0  0  0  0  0  0  0  0  0  0
    3.8862    1.6770    0.0624 C   0  0  0  0  0  0  0  0  0  0  0  0
    4.6747    1.2957   -1.0277 C   0  0  0  0  0  0  0  0  0  0  0  0
    6.1435    1.4781   -1.0013 C   0  0  0  0  0  0  0  0  0  0  0  0
    6.6596    2.1363   -1.9008 O   0  0  0  0  0  0  0  0  0  0  0  0
    6.8707    0.9043    0.0343 N   0  0  0  0  0  0  0  0  0  0  0  0
    6.3732   -0.1325    0.9454 C   0  0  0  0  0  0  0  0  0  0  0  0
    7.5002   -1.0825    1.3648 C   0  0  0  0  0  0  0  0  0  0  0  0
    8.5938   -0.4154    2.0086 O   0  0  0  0  0  0  0  0  0  0  0  0
    8.8377    0.9132    1.5200 C   0  0  0  0  0  0  0  0  0  0  0  0
    8.3083    1.1642    0.1061 C   0  0  0  0  0  0  0  0  0  0  0  0
    4.0795    0.7932   -2.1866 C   0  0  0  0  0  0  0  0  0  0  0  0
    2.6936    0.6347   -2.2398 C   0  0  0  0  0  0  0  0  0  0  0  0
   -1.5104   -0.7618   -1.3753 C   0  0  0  0  0  0  0  0  0  0  0  0
   -1.8839   -0.8356   -2.5380 O   0  0  0  0  0  0  0  0  0  0  0  0
   -4.2414   -0.6196    1.3575 C   0  0  0  0  0  0  0  0  0  0  0  0
   -5.7392   -0.2180    1.5026 C   0  0  0  0  0  0  0  0  0  0  0  0
   -6.2975   -0.8068    2.8037 C   0  0  0  0  0  0  0  0  0  0  0  0
   -9.5706    0.6941    0.4244 H   0  0  0  0  0  0  0  0  0  0  0  0
   -8.2046    1.2425   -0.5641 H   0  0  0  0  0  0  0  0  0  0  0  0
   -8.1394    1.3605    1.2279 H   0  0  0  0  0  0  0  0  0  0  0  0
   -7.6932   -1.2906   -2.3187 H   0  0  0  0  0  0  0  0  0  0  0  0
   -5.6834   -1.4582   -4.0910 H   0  0  0  0  0  0  0  0  0  0  0  0
   -3.5111   -1.1051   -2.8701 H   0  0  0  0  0  0  0  0  0  0  0  0
   -1.7156   -1.2911    1.7745 H   0  0  0  0  0  0  0  0  0  0  0  0
   -1.3597    0.3995    1.2998 H   0  0  0  0  0  0  0  0  0  0  0  0
    0.7926   -0.6945    1.0365 H   0  0  0  0  0  0  0  0  0  0  0  0
    0.0236   -2.1818    0.4740 H   0  0  0  0  0  0  0  0  0  0  0  0
    0.5435   -1.3210   -1.6274 H   0  0  0  0  0  0  0  0  0  0  0  0
    0.0591    1.1846   -2.2014 H   0  0  0  0  0  0  0  0  0  0  0  0
   -0.0933    1.4900   -0.4943 H   0  0  0  0  0  0  0  0  0  0  0  0
    1.8952    1.8291    0.8543 H   0  0  0  0  0  0  0  0  0  0  0  0
    4.3446    2.1134    0.9456 H   0  0  0  0  0  0  0  0  0  0  0  0
    5.5633   -0.6970    0.4750 H   0  0  0  0  0  0  0  0  0  0  0  0
    5.9809    0.3878    1.8263 H   0  0  0  0  0  0  0  0  0  0  0  0
    7.1195   -1.8379    2.0589 H   0  0  0  0  0  0  0  0  0  0  0  0
    7.8998   -1.6123    0.4922 H   0  0  0  0  0  0  0  0  0  0  0  0
    9.9177    1.0872    1.5590 H   0  0  0  0  0  0  0  0  0  0  0  0
    8.3680    1.6075    2.2261 H   0  0  0  0  0  0  0  0  0  0  0  0
    8.5165    2.1923   -0.2077 H   0  0  0  0  0  0  0  0  0  0  0  0
    8.7905    0.4862   -0.6078 H   0  0  0  0  0  0  0  0  0  0  0  0
    4.6939    0.5322   -3.0461 H   0  0  0  0  0  0  0  0  0  0  0  0
    2.2373    0.2420   -3.1468 H   0  0  0  0  0  0  0  0  0  0  0  0
   -4.0776   -1.5933    1.8402 H   0  0  0  0  0  0  0  0  0  0  0  0
   -3.6714    0.1170    1.9389 H   0  0  0  0  0  0  0  0  0  0  0  0
   -5.7701    0.8768    1.6008 H   0  0  0  0  0  0  0  0  0  0  0  0
   -6.3625   -1.8993    2.7503 H   0  0  0  0  0  0  0  0  0  0  0  0
   -7.2993   -0.4205    3.0192 H   0  0  0  0  0  0  0  0  0  0  0  0
   -5.6570   -0.5453    3.6530 H   0  0  0  0  0  0  0  0  0  0  0  0
  1  2  1  0
  2  3  1  0
  3  4  2  0
  4  5  1  0
  5  6  2  0
  6  7  1  0
  7  8  1  0
  8  9  2  0
  9 10  1  0
 10 11  1  0
 11 12  1  0
 12 13  1  0
 13 14  1  0
 14 15  1  0
 15 16  2  0
 16 17  1  0
 17 18  2  0
 18 19  1  0
 19 20  2  0
 19 21  1  0
 21 22  1  0
 22 23  1  0
 23 24  1  0
 24 25  1  0
 25 26  1  0
 18 27  1  0
 27 28  2  0
 13 29  1  0
 29 30  2  0
  9 31  1  0
 31 32  1  0
 32 33  1  0
 32  3  1  0
  8  4  1  0
 29 10  1  0
 28 15  1  0
 26 21  1  0
  1 34  1  0
  1 35  1  0
  1 36  1  0
  5 37  1  0
  6 38  1  0
  7 39  1  0
 11 40  1  0
 11 41  1  0
 12 42  1  0
 12 43  1  0
 13 44  1  0
 14 45  1  0
 14 46  1  0
 16 47  1  0
 17 48  1  0
 22 49  1  0
 22 50  1  0
 23 51  1  0
 23 52  1  0
 25 53  1  0
 25 54  1  0
 26 55  1  0
 26 56  1  0
 27 57  1  0
 28 58  1  0
 31 59  1  0
 31 60  1  0
 32 61  1  0
 33 62  1  0
 33 63  1  0
 33 64  1  0
M  END
$$$$
