
     RDKit          3D

 61 65  0  0  0  0  0  0  0  0999 V2000
    4.7096    3.6392    3.5814 N   0  0  0  0  0  0  0  0  0  0  0  0
    4.7423    2.9231    2.3900 C   0  0  0  0  0  0  0  0  0  0  0  0
    5.8572    2.9995    1.6316 N   0  0  0  0  0  0  0  0  0  0  0  0
    5.8844    2.3066    0.4739 C   0  0  0  0  0  0  0  0  0  0  0  0
    4.9206    1.5361   -0.0649 N   0  0  0  0  0  0  0  0  0  0  0  0
    3.8322    1.4859    0.7201 C   0  0  0  0  0  0  0  0  0  0  0  0
    3.6625    2.1498    1.9287 C   0  0  0  0  0  0  0  0  0  0  0  0
    2.4032    1.9330    2.4439 N   0  0  0  0  0  0  0  0  0  0  0  0
    1.8244    1.1398    1.5706 C   0  0  0  0  0  0  0  0  0  0  0  0
    2.6590    0.8058    0.5209 N   0  0  0  0  0  0  0  0  0  0  0  0
    2.2303   -0.0431   -0.5935 C   0  0  1  0  0  0  0  0  0  0  0  0
    3.1881   -0.1797   -1.7928 C   0  0  0  0  0  0  0  0  0  0  0  0
    4.3205   -1.1997   -1.6201 C   0  0  0  0  0  0  0  0  0  0  0  0
    3.9240   -2.4421   -0.8231 C   0  0  1  0  0  0  0  0  0  0  0  0
    4.4067   -2.3009    0.5095 O   0  0  0  0  0  0  0  0  0  0  0  0
    2.4124   -2.6365   -0.7892 C   0  0  0  0  0  0  0  0  0  0  0  0
    1.7260   -1.4435   -0.0937 C   0  0  0  0  0  0  0  0  0  0  0  0
    0.2523   -1.5723   -0.0722 N   0  0  0  0  0  0  0  0  0  0  0  0
   -0.4089   -1.5832   -1.3774 C   0  0  0  0  0  0  0  0  0  0  0  0
   -1.9096   -1.6655   -1.2060 C   0  0  0  0  0  0  0  0  0  0  0  0
   -2.6207   -2.7839   -1.6744 C   0  0  0  0  0  0  0  0  0  0  0  0
   -4.0043   -2.8586   -1.5201 C   0  0  0  0  0  0  0  0  0  0  0  0
   -4.6670   -1.8148   -0.8925 C   0  0  0  0  0  0  0  0  0  0  0  0
   -6.0254   -1.8849   -0.7302 O   0  0  0  0  0  0  0  0  0  0  0  0
   -3.9952   -0.6819   -0.4050 C   0  0  0  0  0  0  0  0  0  0  0  0
   -4.7774    0.3251    0.2135 N   0  0  0  0  0  0  0  0  0  0  0  0
   -4.3118    0.6557    1.5851 C   0  0  0  0  0  0  0  0  0  0  0  0
   -5.2507    1.7115    2.1934 C   0  0  0  0  0  0  0  0  0  0  0  0
   -5.2990    2.8978    1.3802 O   0  0  0  0  0  0  0  0  0  0  0  0
   -5.7571    2.5809    0.0547 C   0  0  0  0  0  0  0  0  0  0  0  0
   -4.8404    1.5499   -0.6252 C   0  0  0  0  0  0  0  0  0  0  0  0
   -2.6090   -0.6176   -0.5753 C   0  0  0  0  0  0  0  0  0  0  0  0
    5.3649    4.4085    3.5834 H   0  0  0  0  0  0  0  0  0  0  0  0
    3.7695    3.8087    3.9222 H   0  0  0  0  0  0  0  0  0  0  0  0
    6.8039    2.3840   -0.0997 H   0  0  0  0  0  0  0  0  0  0  0  0
    0.8098    0.7648    1.6405 H   0  0  0  0  0  0  0  0  0  0  0  0
    1.3737    0.5255   -0.9844 H   0  0  0  0  0  0  0  0  0  0  0  0
    3.5959    0.7896   -2.1004 H   0  0  0  0  0  0  0  0  0  0  0  0
    2.5844   -0.5098   -2.6512 H   0  0  0  0  0  0  0  0  0  0  0  0
    5.1977   -0.7270   -1.1658 H   0  0  0  0  0  0  0  0  0  0  0  0
    4.6315   -1.5091   -2.6271 H   0  0  0  0  0  0  0  0  0  0  0  0
    4.4157   -3.3212   -1.2547 H   0  0  0  0  0  0  0  0  0  0  0  0
    4.3436   -3.1674    0.9464 H   0  0  0  0  0  0  0  0  0  0  0  0
    2.1730   -3.5527   -0.2343 H   0  0  0  0  0  0  0  0  0  0  0  0
    2.0523   -2.7752   -1.8144 H   0  0  0  0  0  0  0  0  0  0  0  0
    2.0062   -1.5304    0.9654 H   0  0  0  0  0  0  0  0  0  0  0  0
   -0.0070   -2.4282    0.4229 H   0  0  0  0  0  0  0  0  0  0  0  0
   -0.1866   -0.6776   -1.9533 H   0  0  0  0  0  0  0  0  0  0  0  0
   -0.0737   -2.4368   -1.9770 H   0  0  0  0  0  0  0  0  0  0  0  0
   -2.1021   -3.6054   -2.1633 H   0  0  0  0  0  0  0  0  0  0  0  0
   -4.5603   -3.7187   -1.8800 H   0  0  0  0  0  0  0  0  0  0  0  0
   -6.2171   -1.0611   -0.2312 H   0  0  0  0  0  0  0  0  0  0  0  0
   -3.2939    1.0642    1.5617 H   0  0  0  0  0  0  0  0  0  0  0  0
   -4.3182   -0.2418    2.2144 H   0  0  0  0  0  0  0  0  0  0  0  0
   -6.2680    1.3168    2.3067 H   0  0  0  0  0  0  0  0  0  0  0  0
   -4.8895    2.0038    3.1853 H   0  0  0  0  0  0  0  0  0  0  0  0
   -6.7879    2.2122    0.1140 H   0  0  0  0  0  0  0  0  0  0  0  0
   -5.7652    3.5097   -0.5236 H   0  0  0  0  0  0  0  0  0  0  0  0
   -5.2394    1.3137   -1.6189 H   0  0  0  0  0  0  0  0  0  0  0  0
   -3.8395    1.9841   -0.7412 H   0  0  0  0  0  0  0  0  0  0  0  0
   -2.0525    0.2452   -0.2192 H   0  0  0  0  0  0  0  0  0  0  0  0
  1  2  1  0
  2  3  2  0
  3  4  1  0
  4  5  2  0
  5  6  1  0
  6  7  2  0
  7  8  1  0
  8  9  2  0
  9 10  1  0
 10 11  1  0
 11 12  1  0
 12 13  1  0
 13 14  1  0
 14 15  1  0
 14 16  1  0
 16 17  1  0
 17 18  1  0
 18 19  1  0
 19 20  1  0
 20 21  2  0
 21 22  1  0
 22 23  2  0
 23 24  1  0
 23 25  1  0
 25 26  1  0
 26 27  1  0
 27 28  1  0
 28 29  1  0
 29 30  1  0
 30 31  1  0
 25 32  2  0
  7  2  1  0
 17 11  1  0
 32 20  1  0
 10  6  1  0
 31 26  1  0
  1 33  1  0
  1 34  1  0
  4 35  1  0
  9 36  1  0
 11 37  1  6
 12 38  1  0
 12 39  1  0
 13 40  1  0
 13 41  1  0
 14 42  1  6
 15 43  1  0
 16 44  1  0
 16 45  1  0
 17 46  1  0
 18 47  1  0
 19 48  1  0
 19 49  1  0
 21 50  1  0
 22 51  1  0
 24 52  1  0
 27 53  1  0
 27 54  1  0
 28 55  1  0
 28 56  1  0
 30 57  1  0
 30 58  1  0
 31 59  1  0
 31 60  1  0
 32 61  1  0
M  END
$$$$
