
     RDKit          3D

 65 69  0  0  0  0  0  0  0  0999 V2000
    6.5816   -2.5471   -0.8779 C   0  0  0  0  0  0  0  0  0  0  0  0
    6.4294   -1.2059   -0.3226 N   0  0  0  0  0  0  0  0  0  0  0  0
    5.7946   -0.2798   -1.2833 C   0  0  0  0  0  0  0  0  0  0  0  0
    4.2729   -0.0636   -1.1048 C   0  0  0  0  0  0  0  0  0  0  0  0
    3.9542    0.3913    0.2562 N   0  0  0  0  0  0  0  0  0  0  0  0
    2.7975    1.1097    0.5332 C   0  0  0  0  0  0  0  0  0  0  0  0
    1.6650    0.9803   -0.2986 C   0  0  0  0  0  0  0  0  0  0  0  0
    0.4534    1.6563   -0.0539 C   0  0  0  0  0  0  0  0  0  0  0  0
   -0.7360    1.4660   -0.9648 C   0  0  0  0  0  0  0  0  0  0  0  0
   -1.2904    0.1122   -0.9790 N   0  0  0  0  0  0  0  0  0  0  0  0
   -1.8727   -0.3216    0.3050 C   0  0  0  0  0  0  0  0  0  0  0  0
   -0.9729   -1.3674    1.0047 C   0  0  0  0  0  0  0  0  0  0  0  0
   -0.8930   -2.7036    0.2586 C   0  0  2  0  0  0  0  0  0  0  0  0
   -0.1833   -2.5175   -0.9661 O   0  0  0  0  0  0  0  0  0  0  0  0
   -2.2822   -3.2738   -0.0335 C   0  0  0  0  0  0  0  0  0  0  0  0
   -3.2035   -2.2612   -0.7197 C   0  0  0  0  0  0  0  0  0  0  0  0
   -3.2761   -0.9481    0.0833 C   0  0  2  0  0  0  0  0  0  0  0  0
   -4.2305    0.0181   -0.4433 N   0  0  0  0  0  0  0  0  0  0  0  0
   -4.5222    0.2795   -1.7569 C   0  0  0  0  0  0  0  0  0  0  0  0
   -5.4670    1.1885   -1.8839 N   0  0  0  0  0  0  0  0  0  0  0  0
   -5.7622    1.5688   -0.5889 C   0  0  0  0  0  0  0  0  0  0  0  0
   -6.6498    2.5211   -0.0588 C   0  0  0  0  0  0  0  0  0  0  0  0
   -7.4842    3.3016   -0.8521 N   0  0  0  0  0  0  0  0  0  0  0  0
   -6.6739    2.7100    1.2817 N   0  0  0  0  0  0  0  0  0  0  0  0
   -5.8676    1.9451    2.0489 C   0  0  0  0  0  0  0  0  0  0  0  0
   -4.9925    0.9958    1.6589 N   0  0  0  0  0  0  0  0  0  0  0  0
   -4.9915    0.8662    0.3208 C   0  0  0  0  0  0  0  0  0  0  0  0
    0.3673    2.5091    1.0487 C   0  0  0  0  0  0  0  0  0  0  0  0
    1.4661    2.6792    1.8850 C   0  0  0  0  0  0  0  0  0  0  0  0
    2.6592    1.9914    1.6278 C   0  0  0  0  0  0  0  0  0  0  0  0
    3.7218    2.2325    2.4666 O   0  0  0  0  0  0  0  0  0  0  0  0
    4.9296    0.0546    1.3052 C   0  0  0  0  0  0  0  0  0  0  0  0
    5.6736   -1.2545    0.9493 C   0  0  0  0  0  0  0  0  0  0  0  0
    7.0675   -3.2112   -0.1549 H   0  0  0  0  0  0  0  0  0  0  0  0
    7.2255   -2.5232   -1.7634 H   0  0  0  0  0  0  0  0  0  0  0  0
    5.6214   -2.9904   -1.1640 H   0  0  0  0  0  0  0  0  0  0  0  0
    6.0028   -0.5823   -2.3182 H   0  0  0  0  0  0  0  0  0  0  0  0
    6.2873    0.6949   -1.1604 H   0  0  0  0  0  0  0  0  0  0  0  0
    3.7393   -0.9974   -1.3144 H   0  0  0  0  0  0  0  0  0  0  0  0
    3.9585    0.6837   -1.8426 H   0  0  0  0  0  0  0  0  0  0  0  0
    1.6987    0.2998   -1.1474 H   0  0  0  0  0  0  0  0  0  0  0  0
   -1.5305    2.1812   -0.7169 H   0  0  0  0  0  0  0  0  0  0  0  0
   -0.4262    1.7248   -1.9838 H   0  0  0  0  0  0  0  0  0  0  0  0
   -0.5672   -0.5581   -1.2639 H   0  0  0  0  0  0  0  0  0  0  0  0
   -1.9891    0.5355    0.9822 H   0  0  0  0  0  0  0  0  0  0  0  0
   -1.3717   -1.5510    2.0107 H   0  0  0  0  0  0  0  0  0  0  0  0
    0.0355   -0.9623    1.1384 H   0  0  0  0  0  0  0  0  0  0  0  0
   -0.3207   -3.4192    0.8607 H   0  0  0  0  0  0  0  0  0  0  0  0
   -0.0575   -3.3969   -1.3649 H   0  0  0  0  0  0  0  0  0  0  0  0
   -2.7437   -3.5948    0.9091 H   0  0  0  0  0  0  0  0  0  0  0  0
   -2.1975   -4.1597   -0.6736 H   0  0  0  0  0  0  0  0  0  0  0  0
   -2.8437   -2.0792   -1.7392 H   0  0  0  0  0  0  0  0  0  0  0  0
   -4.2045   -2.6990   -0.8181 H   0  0  0  0  0  0  0  0  0  0  0  0
   -3.6720   -1.2206    1.0731 H   0  0  0  0  0  0  0  0  0  0  0  0
   -4.0215   -0.2179   -2.5793 H   0  0  0  0  0  0  0  0  0  0  0  0
   -7.7094    4.1783   -0.3993 H   0  0  0  0  0  0  0  0  0  0  0  0
   -7.1651    3.3433   -1.8152 H   0  0  0  0  0  0  0  0  0  0  0  0
   -5.9315    2.1165    3.1213 H   0  0  0  0  0  0  0  0  0  0  0  0
   -0.5549    3.0441    1.2625 H   0  0  0  0  0  0  0  0  0  0  0  0
    1.3788    3.3528    2.7332 H   0  0  0  0  0  0  0  0  0  0  0  0
    3.5017    2.9797    3.0426 H   0  0  0  0  0  0  0  0  0  0  0  0
    5.6526    0.8711    1.4226 H   0  0  0  0  0  0  0  0  0  0  0  0
    4.4298   -0.1173    2.2661 H   0  0  0  0  0  0  0  0  0  0  0  0
    4.9227   -2.0564    0.9119 H   0  0  0  0  0  0  0  0  0  0  0  0
    6.3703   -1.5018    1.7586 H   0  0  0  0  0  0  0  0  0  0  0  0
  1  2  1  0
  2  3  1  0
  3  4  1  0
  4  5  1  0
  5  6  1  0
  6  7  2  0
  7  8  1  0
  8  9  1  0
  9 10  1  0
 10 11  1  0
 11 12  1  0
 12 13  1  0
 13 14  1  0
 13 15  1  0
 15 16  1  0
 16 17  1  0
 17 18  1  0
 18 19  1  0
 19 20  2  0
 20 21  1  0
 21 22  2  0
 22 23  1  0
 22 24  1  0
 24 25  2  0
 25 26  1  0
 26 27  2  0
  8 28  2  0
 28 29  1  0
 29 30  2  0
 30 31  1  0
  5 32  1  0
 32 33  1  0
 33  2  1  0
 30  6  1  0
 17 11  1  0
 27 18  1  0
 27 21  1  0
  1 34  1  0
  1 35  1  0
  1 36  1  0
  3 37  1  0
  3 38  1  0
  4 39  1  0
  4 40  1  0
  7 41  1  0
  9 42  1  0
  9 43  1  0
 10 44  1  0
 11 45  1  0
 12 46  1  0
 12 47  1  0
 13 48  1  1
 14 49  1  0
 15 50  1  0
 15 51  1  0
 16 52  1  0
 16 53  1  0
 17 54  1  1
 19 55  1  0
 23 56  1  0
 23 57  1  0
 25 58  1  0
 28 59  1  0
 29 60  1  0
 31 61  1  0
 32 62  1  0
 32 63  1  0
 33 64  1  0
 33 65  1  0
M  END
$$$$
