
     RDKit          3D

 54 57  0  0  0  0  0  0  0  0999 V2000
    5.8465    0.8562    1.6617 C   0  0  0  0  0  0  0  0  0  0  0  0
    5.7970   -0.3842    0.9676 O   0  0  0  0  0  0  0  0  0  0  0  0
    4.5652   -0.9068    0.6801 C   0  0  0  0  0  0  0  0  0  0  0  0
    3.3469   -0.2938    0.9984 C   0  0  0  0  0  0  0  0  0  0  0  0
    2.1251   -0.9015    0.6668 C   0  0  0  0  0  0  0  0  0  0  0  0
    0.8148   -0.2257    0.9939 C   0  0  0  0  0  0  0  0  0  0  0  0
    0.2668    0.4194   -0.2010 N   0  0  0  0  0  0  0  0  0  0  0  0
   -0.9916    1.1388    0.0883 C   0  0  0  0  0  0  0  0  0  0  0  0
   -0.7206    2.6056    0.4755 C   0  0  0  0  0  0  0  0  0  0  0  0
   -0.7230    3.5326   -0.7352 C   0  0  2  0  0  0  0  0  0  0  0  0
   -0.3853    4.8469   -0.3104 O   0  0  0  0  0  0  0  0  0  0  0  0
   -2.0890    3.5471   -1.4285 C   0  0  0  0  0  0  0  0  0  0  0  0
   -2.8598    2.2319   -1.2846 C   0  0  0  0  0  0  0  0  0  0  0  0
   -1.9132    1.0287   -1.1639 C   0  0  2  0  0  0  0  0  0  0  0  0
   -2.6202   -0.2457   -1.2057 N   0  0  0  0  0  0  0  0  0  0  0  0
   -2.3902   -1.2522   -2.1091 C   0  0  0  0  0  0  0  0  0  0  0  0
   -3.1782   -2.2878   -1.9081 N   0  0  0  0  0  0  0  0  0  0  0  0
   -3.9310   -1.9456   -0.8030 C   0  0  0  0  0  0  0  0  0  0  0  0
   -4.9327   -2.6259   -0.0907 C   0  0  0  0  0  0  0  0  0  0  0  0
   -5.3677   -3.9032   -0.4202 N   0  0  0  0  0  0  0  0  0  0  0  0
   -5.5178   -2.0027    0.9574 N   0  0  0  0  0  0  0  0  0  0  0  0
   -5.0898   -0.7646    1.2859 C   0  0  0  0  0  0  0  0  0  0  0  0
   -4.1377   -0.0201    0.6887 N   0  0  0  0  0  0  0  0  0  0  0  0
   -3.6033   -0.6753   -0.3556 C   0  0  0  0  0  0  0  0  0  0  0  0
    2.1349   -2.1282   -0.0047 C   0  0  0  0  0  0  0  0  0  0  0  0
    3.3434   -2.7446   -0.3248 C   0  0  0  0  0  0  0  0  0  0  0  0
    4.5682   -2.1437    0.0150 C   0  0  0  0  0  0  0  0  0  0  0  0
    5.8679   -2.8217   -0.3406 C   0  0  0  0  0  0  0  0  0  0  0  0
    5.6877   -4.0264   -0.9622 F   0  0  0  0  0  0  0  0  0  0  0  0
    6.6379   -2.0927   -1.1977 F   0  0  0  0  0  0  0  0  0  0  0  0
    6.6503   -3.0954    0.7417 F   0  0  0  0  0  0  0  0  0  0  0  0
    5.3782    0.7754    2.6478 H   0  0  0  0  0  0  0  0  0  0  0  0
    6.8995    1.1121    1.8130 H   0  0  0  0  0  0  0  0  0  0  0  0
    5.3909    1.6571    1.0699 H   0  0  0  0  0  0  0  0  0  0  0  0
    3.3195    0.6652    1.5070 H   0  0  0  0  0  0  0  0  0  0  0  0
    0.9676    0.5034    1.7987 H   0  0  0  0  0  0  0  0  0  0  0  0
    0.1175   -0.9818    1.3760 H   0  0  0  0  0  0  0  0  0  0  0  0
    0.9713    1.0566   -0.5727 H   0  0  0  0  0  0  0  0  0  0  0  0
   -1.4863    0.6625    0.9443 H   0  0  0  0  0  0  0  0  0  0  0  0
   -1.4942    2.9402    1.1808 H   0  0  0  0  0  0  0  0  0  0  0  0
    0.2192    2.7086    1.0327 H   0  0  0  0  0  0  0  0  0  0  0  0
    0.0504    3.2106   -1.4424 H   0  0  0  0  0  0  0  0  0  0  0  0
   -0.4256    5.4332   -1.0863 H   0  0  0  0  0  0  0  0  0  0  0  0
   -1.9319    3.7650   -2.4928 H   0  0  0  0  0  0  0  0  0  0  0  0
   -2.7096    4.3707   -1.0526 H   0  0  0  0  0  0  0  0  0  0  0  0
   -3.5388    2.1116   -2.1377 H   0  0  0  0  0  0  0  0  0  0  0  0
   -3.4981    2.3002   -0.3952 H   0  0  0  0  0  0  0  0  0  0  0  0
   -1.2857    1.0426   -2.0683 H   0  0  0  0  0  0  0  0  0  0  0  0
   -1.6392   -1.1782   -2.8857 H   0  0  0  0  0  0  0  0  0  0  0  0
   -5.1513   -4.1686   -1.3745 H   0  0  0  0  0  0  0  0  0  0  0  0
   -6.2984   -4.0910   -0.0738 H   0  0  0  0  0  0  0  0  0  0  0  0
   -5.5787   -0.3103    2.1429 H   0  0  0  0  0  0  0  0  0  0  0  0
    1.1969   -2.6040   -0.2866 H   0  0  0  0  0  0  0  0  0  0  0  0
    3.3257   -3.7007   -0.8465 H   0  0  0  0  0  0  0  0  0  0  0  0
  1  2  1  0
  2  3  1  0
  3  4  2  0
  4  5  1  0
  5  6  1  0
  6  7  1  0
  7  8  1  0
  8  9  1  0
  9 10  1  0
 10 11  1  0
 10 12  1  0
 12 13  1  0
 13 14  1  0
 14 15  1  0
 15 16  1  0
 16 17  2  0
 17 18  1  0
 18 19  2  0
 19 20  1  0
 19 21  1  0
 21 22  2  0
 22 23  1  0
 23 24  2  0
  5 25  2  0
 25 26  1  0
 26 27  2  0
 27 28  1  0
 28 29  1  0
 28 30  1  0
 28 31  1  0
 27  3  1  0
 14  8  1  0
 24 15  1  0
 24 18  1  0
  1 32  1  0
  1 33  1  0
  1 34  1  0
  4 35  1  0
  6 36  1  0
  6 37  1  0
  7 38  1  0
  8 39  1  0
  9 40  1  0
  9 41  1  0
 10 42  1  6
 11 43  1  0
 12 44  1  0
 12 45  1  0
 13 46  1  0
 13 47  1  0
 14 48  1  6
 16 49  1  0
 20 50  1  0
 20 51  1  0
 22 52  1  0
 25 53  1  0
 26 54  1  0
M  END
$$$$
