REMARK SMILES COc1ccc(O)c(C(=O)c2ccc(C(=O)O[C@@H]3C[C@H](C)CNC[C@@H]3NC(=O)c3cccc(F)n3)cc2)c1F
REMARK SMILES IDX 17 1 15 2 16 3 14 4 11 5 12 6 37 7 13 8 36 9 9 10 10 11 8 12
REMARK SMILES IDX 3 13 4 14 38 15 5 16 6 17 39 18 2 19 1 20 7 21 18 23 25 25
REMARK SMILES IDX 24 26 23 27 22 29 20 30 21 31 19 32 26 34 27 35 28 37 29 38
REMARK SMILES IDX 30 39 35 40 31 41 33 42 32 43 34 44
REMARK H PARENT 7 22 23 28 26 36
REMARK Flexibility Score:   99.900
ROOT
ATOM      1  O   UNL     1      -1.443  -0.244  -1.796  1.00  0.00    -0.457 OA
ENDROOT
BRANCH   1   2
ATOM      2  C   UNL     1      -0.616  -1.272  -1.483  1.00  0.00     0.338 C 
ATOM      3  O   UNL     1      -0.726  -2.425  -1.868  1.00  0.00    -0.246 OA
BRANCH   2   4
ATOM      4  C   UNL     1       0.476  -0.807  -0.586  1.00  0.00     0.060 A 
ATOM      5  C   UNL     1       2.577  -0.037   1.105  1.00  0.00     0.023 A 
ATOM      6  C   UNL     1       1.475   0.807   0.924  1.00  0.00     0.013 A 
ATOM      7  C   UNL     1       2.614  -1.283   0.469  1.00  0.00     0.013 A 
ATOM      8  C   UNL     1       0.431   0.428   0.075  1.00  0.00     0.016 A 
ATOM      9  C   UNL     1       1.567  -1.663  -0.376  1.00  0.00     0.016 A 
BRANCH   5  10
ATOM     10  C   UNL     1       3.649   0.392   2.033  1.00  0.00     0.199 C 
ATOM     11  O   UNL     1       3.334   0.955   3.083  1.00  0.00    -0.288 OA
BRANCH  10  12
ATOM     12  C   UNL     1       5.085   0.132   1.787  1.00  0.00     0.104 A 
ATOM     13  C   UNL     1       6.979  -0.184   0.280  1.00  0.00     0.155 A 
ATOM     14  C   UNL     1       7.820  -0.372   1.379  1.00  0.00     0.053 A 
ATOM     15  C   UNL     1       5.616   0.074   0.497  1.00  0.00     0.179 A 
ATOM     16  C   UNL     1       7.306  -0.283   2.676  1.00  0.00     0.051 A 
ATOM     17  C   UNL     1       5.953  -0.020   2.876  1.00  0.00     0.130 A 
ATOM     18  F   UNL     1       4.827   0.292  -0.567  1.00  0.00    -0.202 F 
BRANCH  13  19
ATOM     19  O   UNL     1       7.367  -0.226  -1.032  1.00  0.00    -0.494 OA
ATOM     20  C   UNL     1       8.745  -0.451  -1.298  1.00  0.00     0.278 C 
ENDBRANCH  13  19
BRANCH  17  21
ATOM     21  O   UNL     1       5.541   0.085   4.178  1.00  0.00    -0.507 OA
ATOM     22  H   UNL     1       4.635   0.470   4.177  1.00  0.00     0.293 HD
ENDBRANCH  17  21
ENDBRANCH  10  12
ENDBRANCH   5  10
ENDBRANCH   2   4
ENDBRANCH   1   2
BRANCH   1  23
ATOM     23  C   UNL     1      -2.618  -0.588  -2.580  1.00  0.00     0.200 CG0
ATOM     24  G   UNL     1      -2.989   0.639  -3.423  1.00  0.00     0.000 G0
BRANCH  23  25
ATOM     25  C   UNL     1      -3.708  -1.178  -1.649  1.00  0.00     0.137 C 
BRANCH  25  26
ATOM     26  C   UNL     1      -5.137  -1.151  -2.255  1.00  0.00     0.109 C 
BRANCH  26  27
ATOM     27  N   UNL     1      -5.695   0.114  -2.769  1.00  0.00    -0.314 NA
ATOM     28  H   UNL     1      -6.707   0.086  -2.636  1.00  0.00     0.122 HD
BRANCH  27  29
ATOM     29  C   UNL     1      -5.153   1.309  -2.137  1.00  0.00     0.084 C 
BRANCH  29  30
ATOM     30  C   UNL     1      -3.827   1.759  -2.777  1.00  0.00     0.003 C 
ATOM     31  C   UNL     1      -3.015   2.620  -1.810  1.00  0.00     0.009 C 
BRANCH  30  32
ATOM     32  C   UNL     1      -2.989   0.639  -3.423  1.00  0.00     0.052 CG0
ATOM     33  G   UNL     1      -2.618  -0.588  -2.580  1.00  0.00     0.000 G0
ENDBRANCH  30  32
ENDBRANCH  29  30
ENDBRANCH  27  29
ENDBRANCH  26  27
ENDBRANCH  25  26
BRANCH  25  34
ATOM     34  N   UNL     1      -3.632  -0.587  -0.309  1.00  0.00    -0.343 N 
ATOM     35  C   UNL     1      -4.192  -1.149   0.815  1.00  0.00     0.270 C 
ATOM     36  H   UNL     1      -2.879   0.071  -0.126  1.00  0.00     0.164 HD
ATOM     37  O   UNL     1      -4.971  -2.094   0.807  1.00  0.00    -0.268 OA
BRANCH  35  38
ATOM     38  C   UNL     1      -3.737  -0.509   2.093  1.00  0.00     0.131 A 
ATOM     39  C   UNL     1      -4.263  -0.931   3.308  1.00  0.00     0.034 A 
ATOM     40  N   UNL     1      -2.799   0.471   1.962  1.00  0.00    -0.215 NA
ATOM     41  C   UNL     1      -3.810  -0.310   4.468  1.00  0.00     0.007 A 
ATOM     42  C   UNL     1      -2.388   1.045   3.110  1.00  0.00     0.213 A 
ATOM     43  C   UNL     1      -2.855   0.699   4.367  1.00  0.00     0.060 A 
ATOM     44  F   UNL     1      -1.463   2.011   3.014  1.00  0.00    -0.185 F 
ENDBRANCH  35  38
ENDBRANCH  25  34
ENDBRANCH  23  25
ENDBRANCH   1  23
TORSDOF 9
