MODEL        9USER    Run = 9USERUSER    Estimated Free Energy of Binding    =  +4.57 kcal/mol  [=(1)+(2)+(3)-(4)]USERUSER    (1) Final Intermolecular Energy     =  -1.99 kcal/molUSER        vdW + Hbond + desolv Energy     =  -6.81 kcal/molUSER        Electrostatic Energy            =  -0.28 kcal/molUSER        Moving Ligand-Fixed Receptor    =  -7.08 kcal/molUSER        Moving Ligand-Moving Receptor   =  +5.09 kcal/molUSER    (2) Final Total Internal Energy     =  -4.72 kcal/molUSER    (3) Torsional Free Energy           =  +6.56 kcal/molUSER    (4) Unbound System's Energy         =  -4.72 kcal/molUSERUSERREMARK SMILES COC1=CC=C(O)C2=C(F)CC[C@@H]1N1CCC[C@@H](NC(=O)c3ccc(cc3)C2=O)[C@@H](NC(=O)c2ccncc2)C1REMARK SMILES IDX 18 1 30 2 40 3 14 4 13 5 3 6 2 7 1 8 4 9 5 10 12 12 11 13REMARK SMILES IDX 15 15 31 17 32 18 33 20 34 21 35 22 39 23 36 24 38 25 37 26REMARK SMILES IDX 17 27 16 28 19 30 20 31 21 33 22 34 23 35 27 36 24 37 26 38REMARK SMILES IDX 25 39 28 40 29 41 8 42 6 43 7 45 9 47 10 48REMARK H PARENT 31 19 19 32 7 46REMARK Flexibility Score:   48.700USER                              x       y       z     vdW  Elec       q    TypeUSER                           _______ _______ _______ _____ _____    ______ ____ROOTATOM      1  C   UNL     1      19.097  47.980  12.415 -0.06 -0.01    +0.106 C  ENDROOTBRANCH   1   2ATOM      2  C   UNL     1      18.616  46.965  13.495 -0.07 +0.00    +0.118 C  BRANCH   2   3ATOM      3  C   UNL     1      18.055  45.619  12.918 -0.05 -0.00    +0.112 C  BRANCH   3   4ATOM      4  N   UNL     1      18.439  45.365  11.524 +0.01 +0.03    -0.291 NA BRANCH   4   5ATOM      5  C   UNL     1      18.748  43.976  11.100 -0.06 -0.02    +0.123 C  BRANCH   5   6ATOM      6  C   UNL     1      18.875  42.878  12.139 -0.22 -0.02    +0.113 C  BRANCH   6   7ATOM      7  O   UNL     1      17.984  41.815  11.931 -0.06 +0.04    -0.499 OA ATOM      8  C   UNL     1      18.564  40.575  12.320 -0.29 -0.08    +0.278 C  ENDBRANCH   6   7BRANCH   6   9ATOM      9  C   UNL     1      19.648  42.801  13.234 -0.38 -0.01    +0.047 C  BRANCH   9  10ATOM     10  C   UNL     1      20.797  43.538  13.692 -0.28 +0.00    +0.050 CG0ATOM     11  G   UNL     1      22.032  43.839  13.270 +0.00 +0.00    +0.000 G0 ENDBRANCH   9  10ENDBRANCH   6   9ENDBRANCH   5   6BRANCH   5  12ATOM     12  C   UNL     1      19.941  44.059  10.098 -0.12 -0.01    +0.034 C  BRANCH  12  13ATOM     13  C   UNL     1      21.108  43.064  10.256 -0.29 -0.02    +0.070 CG1ATOM     14  G   UNL     1      22.314  43.821  10.708 +0.00 +0.00    +0.000 G1 ENDBRANCH  12  13ENDBRANCH   5  12ENDBRANCH   4   5BRANCH   4  15ATOM     15  C   UNL     1      17.523  46.038  10.584 -0.00 -0.01    +0.085 CG2ATOM     16  G   UNL     1      16.964  47.321  11.185 +0.00 +0.00    +0.000 G2 ENDBRANCH   4  15ENDBRANCH   3   4ENDBRANCH   2   3BRANCH   2  17ATOM     17  N   UNL     1      17.720  47.571  14.476 -0.01 -0.04    -0.346 N  ATOM     18  C   UNL     1      18.195  48.194  15.604 -0.16 +0.06    +0.251 C  ATOM     19  H   UNL     1      16.717  47.532  14.327 +0.04 +0.02    +0.164 HD ATOM     20  O   UNL     1      19.377  48.326  15.889 -0.17 -0.08    -0.269 OA BRANCH  18  21ATOM     21  C   UNL     1      17.142  48.686  16.513 -0.24 +0.01    +0.042 A  ATOM     22  C   UNL     1      16.568  47.820  17.437 -0.27 +0.01    +0.034 A  ATOM     23  C   UNL     1      16.761  50.027  16.455 -0.27 +0.02    +0.034 A  ATOM     24  C   UNL     1      15.628  48.343  18.297 -0.20 +0.01    +0.112 A  ATOM     25  C   UNL     1      15.793  50.443  17.346 -0.19 +0.07    +0.112 A  ATOM     26  N   UNL     1      15.228  49.636  18.265 -0.10 -0.07    -0.265 NA ENDBRANCH  18  21ENDBRANCH   2  17ENDBRANCH   1   2BRANCH   1  27ATOM     27  C   UNL     1      17.977  48.421  11.447 -0.03 -0.00    +0.028 C  BRANCH  27  28ATOM     28  C   UNL     1      16.944  47.332  11.183 -0.01 -0.00    +0.018 CG2ATOM     29  G   UNL     1      17.524  46.049  10.600 +0.00 +0.00    +0.000 G2 ENDBRANCH  27  28ENDBRANCH   1  27BRANCH   1  30ATOM     30  N   UNL     1      19.757  49.177  12.997 +0.05 +0.05    -0.347 N  ATOM     31  C   UNL     1      20.834  49.735  12.293 -0.06 -0.04    +0.251 C  ATOM     32  H   UNL     1      20.088  48.933  13.926 -0.32 -0.03    +0.164 HD ATOM     33  O   UNL     1      20.857  50.892  11.908 -0.78 -0.02    -0.269 OA BRANCH  31  34ATOM     34  C   UNL     1      21.958  48.809  12.019 -0.14 -0.01    +0.039 A  ATOM     35  C   UNL     1      22.863  48.507  13.040 -0.25 -0.00    +0.014 A  ATOM     36  C   UNL     1      21.938  48.065  10.836 -0.09 -0.01    +0.014 A  ATOM     37  C   UNL     1      23.645  47.351  12.940 -0.22 -0.00    +0.013 A  ATOM     38  C   UNL     1      22.686  46.889  10.752 -0.13 -0.01    +0.013 A  ATOM     39  C   UNL     1      23.470  46.492  11.846 -0.15 -0.00    +0.023 A  BRANCH  39  40ATOM     40  C   UNL     1      23.855  45.058  12.008 +0.01 +0.08    +0.199 C  ATOM     41  O   UNL     1      25.002  44.708  12.259 -0.36 -0.17    -0.288 OA BRANCH  40  42ATOM     42  C   UNL     1      22.674  44.105  11.977 -0.26 +0.02    +0.096 C  BRANCH  42  43ATOM     43  C   UNL     1      22.038  43.828  13.264 -0.23 +0.02    +0.129 CG0ATOM     44  G   UNL     1      20.799  43.527  13.676 +0.00 +0.00    +0.000 G0 BRANCH  43  45ATOM     45  O   UNL     1      22.984  43.807  14.300 -0.22 -0.10    -0.507 OA ATOM     46  H   UNL     1      23.861  43.804  13.865 +0.15 +0.03    +0.293 HD ENDBRANCH  43  45ENDBRANCH  42  43BRANCH  42  47ATOM     47  C   UNL     1      22.313  43.819  10.709 -0.26 +0.02    +0.115 CG1ATOM     48  F   UNL     1      23.027  44.402   9.706 -0.04 -0.03    -0.211 F  ATOM     49  G   UNL     1      21.100  43.082  10.242 +0.00 +0.00    +0.000 G1 ENDBRANCH  42  47ENDBRANCH  40  42ENDBRANCH  39  40ENDBRANCH  31  34ENDBRANCH   1  30TORSDOF 4TERENDMDL