MODEL        7USER    Run = 7USERUSER    Estimated Free Energy of Binding    =  -6.08 kcal/mol  [=(1)+(2)+(3)-(4)]USERUSER    (1) Final Intermolecular Energy     = -10.55 kcal/molUSER        vdW + Hbond + desolv Energy     = -10.98 kcal/molUSER        Electrostatic Energy            =  -0.09 kcal/molUSER        Moving Ligand-Fixed Receptor    = -11.06 kcal/molUSER        Moving Ligand-Moving Receptor   =  +0.51 kcal/molUSER    (2) Final Total Internal Energy     =  -2.68 kcal/molUSER    (3) Torsional Free Energy           =  +4.47 kcal/molUSER    (4) Unbound System's Energy         =  -2.68 kcal/molUSERUSERREMARK SMILES COc1ccc(O)c(C(=O)c2ccc(C(=O)O[C@@H]3CCCNC[C@@H]3NC(=O)c3cnoc3)cc2)c1FREMARK SMILES IDX 17 1 15 2 16 3 14 4 11 5 12 6 34 7 13 8 33 9 9 10 10 11 8 12REMARK SMILES IDX 3 13 4 14 35 15 5 16 6 17 36 18 2 19 1 20 7 21 18 23 24 25REMARK SMILES IDX 23 26 22 27 21 29 20 30 19 31 25 33 26 34 27 36 28 37 29 38REMARK SMILES IDX 32 39 30 40 31 41REMARK H PARENT 7 22 22 28 25 35REMARK Flexibility Score:   99.900USER                              x       y       z     vdW  Elec       q    TypeUSER                           _______ _______ _______ _____ _____    ______ ____ROOTATOM      1  O   UNL     1      38.810  45.087  24.090 -0.05 -0.03    -0.457 OA ENDROOTBRANCH   1   2ATOM      2  C   UNL     1      40.094  45.345  23.736 -0.07 +0.02    +0.338 C  ATOM      3  O   UNL     1      41.041  45.430  24.502 -0.05 -0.01    -0.246 OA BRANCH   2   4ATOM      4  C   UNL     1      40.209  45.462  22.260 -0.24 +0.00    +0.060 A  ATOM      5  C   UNL     1      40.511  45.708  19.481 -0.41 +0.00    +0.023 A  ATOM      6  C   UNL     1      41.490  46.217  20.345 -0.37 +0.00    +0.013 A  ATOM      7  C   UNL     1      39.360  45.112  20.012 -0.37 -0.00    +0.013 A  ATOM      8  C   UNL     1      41.340  46.092  21.729 -0.26 +0.00    +0.016 A  ATOM      9  C   UNL     1      39.215  44.982  21.397 -0.33 +0.00    +0.016 A  BRANCH   5  10ATOM     10  C   UNL     1      40.700  45.889  18.021 -0.40 -0.01    +0.199 C  ATOM     11  O   UNL     1      41.719  45.441  17.492 -0.24 -0.01    -0.288 OA BRANCH  10  12ATOM     12  C   UNL     1      39.752  46.633  17.162 -0.40 -0.02    +0.104 A  ATOM     13  C   UNL     1      37.569  46.891  16.103 -0.29 -0.09    +0.155 A  ATOM     14  C   UNL     1      37.987  48.102  15.545 -0.43 -0.03    +0.053 A  ATOM     15  C   UNL     1      38.464  46.161  16.900 -0.28 -0.05    +0.179 A  ATOM     16  C   UNL     1      39.287  48.565  15.769 -0.47 -0.02    +0.051 A  ATOM     17  C   UNL     1      40.165  47.827  16.559 -0.42 -0.03    +0.130 A  ATOM     18  F   UNL     1      38.066  44.977  17.395 -0.08 +0.05    -0.202 F  BRANCH  13  19ATOM     19  O   UNL     1      36.331  46.329  15.943 -0.08 +0.36    -0.494 OA ATOM     20  C   UNL     1      35.399  46.489  17.005 -0.19 -0.28    +0.278 C  ENDBRANCH  13  19BRANCH  17  21ATOM     21  O   UNL     1      41.429  48.336  16.701 -0.59 +0.02    -0.507 OA ATOM     22  H   UNL     1      42.032  47.586  16.914 -0.30 -0.06    +0.293 HD ENDBRANCH  17  21ENDBRANCH  10  12ENDBRANCH   5  10ENDBRANCH   2   4ENDBRANCH   1   2BRANCH   1  23ATOM     23  C   UNL     1      38.022  46.238  24.482 -0.13 +0.03    +0.200 CG0ATOM     24  G   UNL     1      38.948  47.449  24.326 +0.00 +0.00    +0.000 G0 BRANCH  23  25ATOM     25  C   UNL     1      37.429  46.026  25.896 -0.31 -0.00    +0.137 C  BRANCH  25  26ATOM     26  C   UNL     1      38.286  46.740  26.960 -0.25 -0.01    +0.109 C  BRANCH  26  27ATOM     27  N   UNL     1      37.949  48.158  27.163 -0.12 +0.02    -0.315 NA ATOM     28  H   UNL     1      37.217  48.195  27.877 +0.01 -0.02    +0.122 HD BRANCH  27  29ATOM     29  C   UNL     1      37.431  48.804  25.955 -0.40 +0.00    +0.081 C  BRANCH  29  30ATOM     30  C   UNL     1      38.453  48.806  24.824 -0.42 +0.00    +0.019 C  BRANCH  30  31ATOM     31  C   UNL     1      38.948  47.447  24.332 -0.38 +0.01    +0.049 CG0ATOM     32  G   UNL     1      38.023  46.236  24.485 +0.00 +0.00    +0.000 G0 ENDBRANCH  30  31ENDBRANCH  29  30ENDBRANCH  27  29ENDBRANCH  26  27ENDBRANCH  25  26BRANCH  25  33ATOM     33  N   UNL     1      37.289  44.611  26.256 -0.12 +0.02    -0.344 N  ATOM     34  C   UNL     1      36.494  44.170  27.285 -0.30 -0.05    +0.256 C  ATOM     35  H   UNL     1      37.704  43.964  25.598 +0.10 -0.00    +0.164 HD ATOM     36  O   UNL     1      35.906  44.927  28.050 -0.35 +0.07    -0.269 OA BRANCH  34  37ATOM     37  C   UNL     1      36.380  42.736  27.413 -0.37 -0.03    +0.099 A  ATOM     38  C   UNL     1      35.207  41.958  27.283 -0.45 -0.05    +0.171 A  ATOM     39  C   UNL     1      37.345  41.795  27.692 -0.27 -0.06    +0.244 A  ATOM     40  N   UNL     1      35.436  40.654  27.455 -0.59 +0.04    -0.088 NA ATOM     41  O   UNL     1      36.792  40.556  27.716 -0.29 +0.11    -0.364 OA ENDBRANCH  34  37ENDBRANCH  25  33ENDBRANCH  23  25ENDBRANCH   1  23TORSDOF 9TERENDMDL