REMARK SMILES COc1ccc(O)c(C(=O)c2ccc(C(=O)O[C@@H]3CCCNC[C@@H]3NC(=O)c3cnoc3)cc2)c1F
REMARK SMILES IDX 17 1 15 2 16 3 14 4 11 5 12 6 34 7 13 8 33 9 9 10 10 11 8 12
REMARK SMILES IDX 3 13 4 14 35 15 5 16 6 17 36 18 2 19 1 20 7 21 18 23 24 25
REMARK SMILES IDX 23 26 22 27 21 29 20 30 19 31 25 33 26 34 27 36 28 37 29 38
REMARK SMILES IDX 32 39 30 40 31 41
REMARK H PARENT 7 22 22 28 25 35
REMARK Flexibility Score:   99.900
ROOT
ATOM      1  O   UNL     1      -1.617   0.730   1.091  1.00  0.00    -0.457 OA
ENDROOT
BRANCH   1   2
ATOM      2  C   UNL     1      -1.067   1.968   1.157  1.00  0.00     0.338 C 
ATOM      3  O   UNL     1      -1.631   2.978   1.548  1.00  0.00    -0.246 OA
BRANCH   2   4
ATOM      4  C   UNL     1       0.355   1.925   0.733  1.00  0.00     0.060 A 
ATOM      5  C   UNL     1       3.061   1.910  -0.012  1.00  0.00     0.023 A 
ATOM      6  C   UNL     1       2.548   2.960   0.761  1.00  0.00     0.013 A 
ATOM      7  C   UNL     1       2.207   0.888  -0.447  1.00  0.00     0.013 A 
ATOM      8  C   UNL     1       1.201   2.966   1.134  1.00  0.00     0.016 A 
ATOM      9  C   UNL     1       0.861   0.892  -0.067  1.00  0.00     0.016 A 
BRANCH   5  10
ATOM     10  C   UNL     1       4.490   1.961  -0.407  1.00  0.00     0.199 C 
ATOM     11  O   UNL     1       5.009   3.057  -0.624  1.00  0.00    -0.288 OA
BRANCH  10  12
ATOM     12  C   UNL     1       5.323   0.755  -0.612  1.00  0.00     0.104 A 
ATOM     13  C   UNL     1       5.931  -1.546  -0.076  1.00  0.00     0.155 A 
ATOM     14  C   UNL     1       6.917  -1.512  -1.065  1.00  0.00     0.053 A 
ATOM     15  C   UNL     1       5.148  -0.403   0.148  1.00  0.00     0.179 A 
ATOM     16  C   UNL     1       7.126  -0.346  -1.806  1.00  0.00     0.051 A 
ATOM     17  C   UNL     1       6.344   0.782  -1.569  1.00  0.00     0.130 A 
ATOM     18  F   UNL     1       4.233  -0.433   1.131  1.00  0.00    -0.202 F 
BRANCH  13  19
ATOM     19  O   UNL     1       5.644  -2.621   0.722  1.00  0.00    -0.494 OA
ATOM     20  C   UNL     1       6.412  -3.802   0.528  1.00  0.00     0.278 C 
ENDBRANCH  13  19
BRANCH  17  21
ATOM     21  O   UNL     1       6.637   1.892  -2.317  1.00  0.00    -0.507 OA
ATOM     22  H   UNL     1       6.174   2.660  -1.908  1.00  0.00     0.293 HD
ENDBRANCH  17  21
ENDBRANCH  10  12
ENDBRANCH   5  10
ENDBRANCH   2   4
ENDBRANCH   1   2
BRANCH   1  23
ATOM     23  C   UNL     1      -3.015   0.642   1.463  1.00  0.00     0.200 CG0
ATOM     24  G   UNL     1      -3.240  -0.811   1.893  1.00  0.00     0.000 G0
BRANCH  23  25
ATOM     25  C   UNL     1      -3.911   1.144   0.304  1.00  0.00     0.137 C 
BRANCH  25  26
ATOM     26  C   UNL     1      -5.291   1.582   0.832  1.00  0.00     0.109 C 
BRANCH  26  27
ATOM     27  N   UNL     1      -6.171   0.473   1.232  1.00  0.00    -0.315 NA
ATOM     28  H   UNL     1      -7.092   0.873   1.429  1.00  0.00     0.122 HD
BRANCH  27  29
ATOM     29  C   UNL     1      -5.713  -0.215   2.442  1.00  0.00     0.081 C 
BRANCH  29  30
ATOM     30  C   UNL     1      -4.672  -1.285   2.133  1.00  0.00     0.019 C 
BRANCH  30  31
ATOM     31  C   UNL     1      -3.240  -0.811   1.893  1.00  0.00     0.049 CG0
ATOM     32  G   UNL     1      -3.015   0.642   1.463  1.00  0.00     0.000 G0
ENDBRANCH  30  31
ENDBRANCH  29  30
ENDBRANCH  27  29
ENDBRANCH  26  27
ENDBRANCH  25  26
BRANCH  25  33
ATOM     33  N   UNL     1      -4.091   0.148  -0.757  1.00  0.00    -0.344 N 
ATOM     34  C   UNL     1      -3.147  -0.104  -1.722  1.00  0.00     0.256 C 
ATOM     35  H   UNL     1      -4.900  -0.450  -0.645  1.00  0.00     0.164 HD
ATOM     36  O   UNL     1      -2.113   0.546  -1.835  1.00  0.00    -0.269 OA
BRANCH  34  37
ATOM     37  C   UNL     1      -3.442  -1.205  -2.610  1.00  0.00     0.099 A 
ATOM     38  C   UNL     1      -2.623  -1.708  -3.646  1.00  0.00     0.171 A 
ATOM     39  C   UNL     1      -4.555  -2.011  -2.677  1.00  0.00     0.244 A 
ATOM     40  N   UNL     1      -3.181  -2.739  -4.285  1.00  0.00    -0.088 NA
ATOM     41  O   UNL     1      -4.407  -2.926  -3.668  1.00  0.00    -0.364 OA
ENDBRANCH  34  37
ENDBRANCH  25  33
ENDBRANCH  23  25
ENDBRANCH   1  23
TORSDOF 9
