REMARK SMILES COC1=CC=C(O)C2=C(F)CC[C@@H]1N1CCC[C@@H](NC(=O)c3ccc(cc3)C2=O)[C@@H](NC(=O)c2ccncc2)C1
REMARK SMILES IDX 18 1 30 2 40 3 14 4 13 5 3 6 2 7 1 8 4 9 5 10 12 12 11 13
REMARK SMILES IDX 15 15 31 17 32 18 33 20 34 21 35 22 39 23 36 24 38 25 37 26
REMARK SMILES IDX 17 27 16 28 19 30 20 31 21 33 22 34 23 35 27 36 24 37 26 38
REMARK SMILES IDX 25 39 28 40 29 41 8 42 6 43 7 45 9 47 10 48
REMARK H PARENT 31 19 19 32 7 46
REMARK Flexibility Score:   48.700
ROOT
ATOM      1  C   UNL     1       0.761  -1.552  -0.558  1.00  0.00     0.106 C 
ENDROOT
BRANCH   1   2
ATOM      2  C   UNL     1       1.309  -0.700   0.626  1.00  0.00     0.118 C 
BRANCH   2   3
ATOM      3  C   UNL     1       1.038   0.839   0.500  1.00  0.00     0.112 C 
BRANCH   3   4
ATOM      4  N   UNL     1       0.305   1.215  -0.716  1.00  0.00    -0.291 NA
BRANCH   4   5
ATOM      5  C   UNL     1      -0.572   2.413  -0.691  1.00  0.00     0.123 C 
BRANCH   5   6
ATOM      6  C   UNL     1      -0.978   3.027   0.635  1.00  0.00     0.113 C 
BRANCH   6   7
ATOM      7  O   UNL     1      -0.367   4.266   0.880  1.00  0.00    -0.499 OA
ATOM      8  C   UNL     1      -1.124   5.331   0.317  1.00  0.00     0.278 C 
ENDBRANCH   6   7
BRANCH   6   9
ATOM      9  C   UNL     1      -1.764   2.547   1.612  1.00  0.00     0.047 C 
BRANCH   9  10
ATOM     10  C   UNL     1      -2.406   1.279   1.837  1.00  0.00     0.050 CG0
ATOM     11  G   UNL     1      -3.306   0.487   1.238  1.00  0.00     0.000 G0
ENDBRANCH   9  10
ENDBRANCH   6   9
ENDBRANCH   5   6
BRANCH   5  12
ATOM     12  C   UNL     1      -1.760   2.129  -1.662  1.00  0.00     0.034 C 
BRANCH  12  13
ATOM     13  C   UNL     1      -3.175   2.580  -1.248  1.00  0.00     0.070 CG1
ATOM     14  G   UNL     1      -4.023   1.363  -1.069  1.00  0.00     0.000 G1
ENDBRANCH  12  13
ENDBRANCH   5  12
ENDBRANCH   4   5
BRANCH   4  15
ATOM     15  C   UNL     1       1.185   1.200  -1.899  1.00  0.00     0.085 CG2
ATOM     16  G   UNL     1       1.062  -0.115  -2.659  1.00  0.00     0.000 G2
ENDBRANCH   4  15
ENDBRANCH   3   4
ENDBRANCH   2   3
BRANCH   2  17
ATOM     17  N   UNL     1       2.705  -1.000   0.935  1.00  0.00    -0.346 N 
ATOM     18  C   UNL     1       3.262  -0.687   2.150  1.00  0.00     0.251 C 
ATOM     19  H   UNL     1       3.285  -1.450   0.235  1.00  0.00     0.164 HD
ATOM     20  O   UNL     1       2.667  -0.164   3.082  1.00  0.00    -0.269 OA
BRANCH  18  21
ATOM     21  C   UNL     1       4.699  -1.002   2.257  1.00  0.00     0.042 A 
ATOM     22  C   UNL     1       5.112  -2.088   3.021  1.00  0.00     0.034 A 
ATOM     23  C   UNL     1       5.624  -0.224   1.560  1.00  0.00     0.034 A 
ATOM     24  C   UNL     1       6.460  -2.370   3.045  1.00  0.00     0.112 A 
ATOM     25  C   UNL     1       6.952  -0.578   1.671  1.00  0.00     0.112 A 
ATOM     26  N   UNL     1       7.386  -1.633   2.389  1.00  0.00    -0.265 NA
ENDBRANCH  18  21
ENDBRANCH   2  17
ENDBRANCH   1   2
BRANCH   1  27
ATOM     27  C   UNL     1       1.533  -1.335  -1.877  1.00  0.00     0.028 C 
BRANCH  27  28
ATOM     28  C   UNL     1       1.062  -0.115  -2.659  1.00  0.00     0.018 CG2
ATOM     29  G   UNL     1       1.185   1.200  -1.899  1.00  0.00     0.000 G2
ENDBRANCH  27  28
ENDBRANCH   1  27
BRANCH   1  30
ATOM     30  N   UNL     1       0.696  -3.003  -0.247  1.00  0.00    -0.347 N 
ATOM     31  C   UNL     1      -0.128  -3.806  -1.049  1.00  0.00     0.251 C 
ATOM     32  H   UNL     1       0.386  -3.105   0.715  1.00  0.00     0.164 HD
ATOM     33  O   UNL     1       0.279  -4.769  -1.677  1.00  0.00    -0.269 OA
BRANCH  31  34
ATOM     34  C   UNL     1      -1.550  -3.393  -1.106  1.00  0.00     0.039 A 
ATOM     35  C   UNL     1      -2.378  -3.626  -0.005  1.00  0.00     0.014 A 
ATOM     36  C   UNL     1      -1.961  -2.556  -2.147  1.00  0.00     0.014 A 
ATOM     37  C   UNL     1      -3.559  -2.889   0.130  1.00  0.00     0.013 A 
ATOM     38  C   UNL     1      -3.118  -1.788  -1.995  1.00  0.00     0.013 A 
ATOM     39  C   UNL     1      -3.864  -1.896  -0.811  1.00  0.00     0.023 A 
BRANCH  39  40
ATOM     40  C   UNL     1      -4.765  -0.780  -0.392  1.00  0.00     0.199 C 
ATOM     41  O   UNL     1      -5.971  -0.929  -0.240  1.00  0.00    -0.288 OA
BRANCH  40  42
ATOM     42  C   UNL     1      -4.024   0.496  -0.035  1.00  0.00     0.096 C 
BRANCH  42  43
ATOM     43  C   UNL     1      -3.306   0.487   1.238  1.00  0.00     0.129 CG0
ATOM     44  G   UNL     1      -2.406   1.279   1.837  1.00  0.00     0.000 G0
BRANCH  43  45
ATOM     45  O   UNL     1      -3.726  -0.580   2.047  1.00  0.00    -0.507 OA
ATOM     46  H   UNL     1      -4.495  -0.248   2.553  1.00  0.00     0.293 HD
ENDBRANCH  43  45
ENDBRANCH  42  43
BRANCH  42  47
ATOM     47  C   UNL     1      -4.023   1.363  -1.069  1.00  0.00     0.115 CG1
ATOM     48  F   UNL     1      -4.748   1.026  -2.172  1.00  0.00    -0.211 F 
ATOM     49  G   UNL     1      -3.175   2.580  -1.248  1.00  0.00     0.000 G1
ENDBRANCH  42  47
ENDBRANCH  40  42
ENDBRANCH  39  40
ENDBRANCH  31  34
ENDBRANCH   1  30
TORSDOF 4
