MODEL        7USER    Run = 7USERUSER    Estimated Free Energy of Binding    =  -5.40 kcal/mol  [=(1)+(2)+(3)-(4)]USERUSER    (1) Final Intermolecular Energy     =  -9.87 kcal/molUSER        vdW + Hbond + desolv Energy     = -10.54 kcal/molUSER        Electrostatic Energy            =  -0.02 kcal/molUSER        Moving Ligand-Fixed Receptor    = -10.57 kcal/molUSER        Moving Ligand-Moving Receptor   =  +0.70 kcal/molUSER    (2) Final Total Internal Energy     =  -4.19 kcal/molUSER    (3) Torsional Free Energy           =  +4.47 kcal/molUSER    (4) Unbound System's Energy         =  -4.19 kcal/molUSERUSERREMARK SMILES COc1ccc(O)c(C(=O)c2ccc(C(=O)O[C@@H]3C[C@H](C)CNC[C@@H]3NC(=O)c3cccc(F)n3)cc2)c1FREMARK SMILES IDX 17 1 15 2 16 3 14 4 11 5 12 6 37 7 13 8 36 9 9 10 10 11 8 12REMARK SMILES IDX 3 13 4 14 38 15 5 16 6 17 39 18 2 19 1 20 7 21 18 23 25 25REMARK SMILES IDX 24 26 23 27 22 29 20 30 21 31 19 32 26 34 27 35 28 37 29 38REMARK SMILES IDX 30 39 35 40 31 41 33 42 32 43 34 44REMARK H PARENT 7 22 23 28 26 36REMARK Flexibility Score:   99.900USER                              x       y       z     vdW  Elec       q    TypeUSER                           _______ _______ _______ _____ _____    ______ ____ROOTATOM      1  O   UNL     1      36.722  48.452  27.887 -0.11 +0.06    -0.457 OA ENDROOTBRANCH   1   2ATOM      2  C   UNL     1      36.830  48.725  26.563 -0.25 -0.01    +0.338 C  ATOM      3  O   UNL     1      36.623  49.806  26.034 -0.31 -0.01    -0.246 OA BRANCH   2   4ATOM      4  C   UNL     1      37.246  47.510  25.813 -0.35 +0.00    +0.060 A  ATOM      5  C   UNL     1      38.065  45.286  24.312 -0.28 +0.00    +0.023 A  ATOM      6  C   UNL     1      37.246  45.114  25.434 -0.33 +0.00    +0.013 A  ATOM      7  C   UNL     1      38.448  46.574  23.918 -0.29 +0.00    +0.013 A  ATOM      8  C   UNL     1      36.843  46.221  26.187 -0.12 -0.00    +0.016 A  ATOM      9  C   UNL     1      38.040  47.680  24.669 -0.35 +0.00    +0.016 A  BRANCH   5  10ATOM     10  C   UNL     1      38.448  44.089  23.528 -0.22 +0.01    +0.199 C  ATOM     11  O   UNL     1      39.310  43.334  23.980 -0.13 -0.01    -0.288 OA BRANCH  10  12ATOM     12  C   UNL     1      37.807  43.724  22.244 -0.30 +0.01    +0.104 A  ATOM     13  C   UNL     1      37.307  44.164  19.896 -0.27 -0.01    +0.155 A  ATOM     14  C   UNL     1      36.563  42.984  19.835 -0.33 -0.00    +0.053 A  ATOM     15  C   UNL     1      37.929  44.520  21.104 -0.24 +0.00    +0.179 A  ATOM     16  C   UNL     1      36.461  42.162  20.962 -0.46 +0.00    +0.051 A  ATOM     17  C   UNL     1      37.090  42.524  22.151 -0.37 +0.01    +0.130 A  ATOM     18  F   UNL     1      38.674  45.636  21.137 -0.09 -0.01    -0.202 F  BRANCH  13  19ATOM     19  O   UNL     1      37.496  45.037  18.859 -0.10 +0.07    -0.494 OA ATOM     20  C   UNL     1      38.763  45.019  18.214 -0.27 -0.04    +0.278 C  ENDBRANCH  13  19BRANCH  17  21ATOM     21  O   UNL     1      36.968  41.645  23.194 -0.21 -0.03    -0.507 OA ATOM     22  H   UNL     1      37.691  41.835  23.834 +0.18 +0.03    +0.293 HD ENDBRANCH  17  21ENDBRANCH  10  12ENDBRANCH   5  10ENDBRANCH   2   4ENDBRANCH   1   2BRANCH   1  23ATOM     23  C   UNL     1      35.543  48.982  28.552 -0.25 -0.01    +0.200 CG0ATOM     24  G   UNL     1      36.016  50.012  29.585 +0.00 +0.00    +0.000 G0 BRANCH  23  25ATOM     25  C   UNL     1      34.661  47.810  29.055 -0.36 -0.02    +0.137 C  BRANCH  25  26ATOM     26  C   UNL     1      34.143  47.989  30.508 -0.27 -0.02    +0.109 C  BRANCH  26  27ATOM     27  N   UNL     1      33.338  49.173  30.862 -0.10 +0.00    -0.314 NA ATOM     28  H   UNL     1      32.665  48.891  31.576 +0.05 -0.00    +0.122 HD BRANCH  27  29ATOM     29  C   UNL     1      34.116  50.306  31.345 -0.11 +0.00    +0.084 C  BRANCH  29  30ATOM     30  C   UNL     1      34.974  50.941  30.236 -0.14 +0.00    +0.003 C  ATOM     31  C   UNL     1      35.576  52.267  30.700 -0.07 +0.00    +0.009 C  BRANCH  30  32ATOM     32  C   UNL     1      36.017  50.009  29.589 -0.19 +0.00    +0.052 CG0ATOM     33  G   UNL     1      35.546  48.975  28.558 +0.00 +0.00    +0.000 G0 ENDBRANCH  30  32ENDBRANCH  29  30ENDBRANCH  27  29ENDBRANCH  26  27ENDBRANCH  25  26BRANCH  25  34ATOM     34  N   UNL     1      35.319  46.520  28.826 -0.25 +0.08    -0.343 N  ATOM     35  C   UNL     1      34.663  45.311  28.810 -0.34 -0.07    +0.270 C  ATOM     36  H   UNL     1      36.212  46.526  28.341 +0.02 -0.04    +0.164 HD ATOM     37  O   UNL     1      33.503  45.143  29.167 -0.81 +0.02    -0.268 OA BRANCH  35  38ATOM     38  C   UNL     1      35.498  44.184  28.279 -0.40 -0.04    +0.131 A  ATOM     39  C   UNL     1      34.889  43.095  27.667 -0.57 -0.01    +0.034 A  ATOM     40  N   UNL     1      36.845  44.323  28.434 -0.27 +0.05    -0.215 NA ATOM     41  C   UNL     1      35.704  42.075  27.187 -0.56 -0.00    +0.007 A  ATOM     42  C   UNL     1      37.596  43.312  27.955 -0.20 -0.04    +0.213 A  ATOM     43  C   UNL     1      37.085  42.184  27.335 -0.39 -0.01    +0.060 A  ATOM     44  F   UNL     1      38.926  43.420  28.091 -0.09 +0.01    -0.185 F  ENDBRANCH  35  38ENDBRANCH  25  34ENDBRANCH  23  25ENDBRANCH   1  23TORSDOF 9TERENDMDL