
     RDKit          3D

 61 64  0  0  0  0  0  0  0  0999 V2000
    7.8268    4.5360    0.9326 C   0  0  0  0  0  0  0  0  0  0  0  0
    6.7499    4.2336    0.0541 O   0  0  0  0  0  0  0  0  0  0  0  0
    6.3014    2.9414    0.0390 C   0  0  0  0  0  0  0  0  0  0  0  0
    6.7954    1.8998    0.8238 C   0  0  0  0  0  0  0  0  0  0  0  0
    6.2450    0.6200    0.7102 C   0  0  0  0  0  0  0  0  0  0  0  0
    6.8066   -0.3494    1.4997 O   0  0  0  0  0  0  0  0  0  0  0  0
    5.1798    0.3613   -0.1665 C   0  0  0  0  0  0  0  0  0  0  0  0
    4.6119   -1.0088   -0.2465 C   0  0  0  0  0  0  0  0  0  0  0  0
    5.3151   -1.9589    0.0954 O   0  0  0  0  0  0  0  0  0  0  0  0
    3.2270   -1.2698   -0.7005 C   0  0  0  0  0  0  0  0  0  0  0  0
    2.1535   -0.4888   -0.2553 C   0  0  0  0  0  0  0  0  0  0  0  0
    0.8546   -0.7754   -0.6894 C   0  0  0  0  0  0  0  0  0  0  0  0
    0.6237   -1.8550   -1.5536 C   0  0  0  0  0  0  0  0  0  0  0  0
   -0.7396   -2.1955   -2.0482 C   0  0  0  0  0  0  0  0  0  0  0  0
   -0.8779   -2.7806   -3.1156 O   0  0  0  0  0  0  0  0  0  0  0  0
   -1.7941   -1.8468   -1.2304 N   0  0  0  0  0  0  0  0  0  0  0  0
   -3.1706   -2.2482   -1.5403 C   0  0  2  0  0  0  0  0  0  0  0  0
   -3.7369   -1.4352   -2.7161 C   0  0  0  0  0  0  0  0  0  0  0  0
   -5.2073   -1.7622   -2.9605 C   0  0  0  0  0  0  0  0  0  0  0  0
   -6.0247   -1.5709   -1.7624 N   0  0  0  0  0  0  0  0  0  0  0  0
   -5.5377   -2.4091   -0.6563 C   0  0  0  0  0  0  0  0  0  0  0  0
   -4.0715   -2.1059   -0.2895 C   0  0  0  0  0  0  0  0  0  0  0  0
   -3.9343   -0.7677    0.3100 N   0  0  0  0  0  0  0  0  0  0  0  0
   -4.2002   -0.5482    1.6439 C   0  0  0  0  0  0  0  0  0  0  0  0
   -4.4471   -1.4528    2.4322 O   0  0  0  0  0  0  0  0  0  0  0  0
   -4.1319    0.8579    2.1207 C   0  0  0  0  0  0  0  0  0  0  0  0
   -4.3926    1.9452    1.2862 C   0  0  0  0  0  0  0  0  0  0  0  0
   -4.2979    3.2140    1.8308 C   0  0  0  0  0  0  0  0  0  0  0  0
   -3.9699    3.4558    3.1172 N   0  0  0  0  0  0  0  0  0  0  0  0
   -3.7466    2.3849    3.9080 C   0  0  0  0  0  0  0  0  0  0  0  0
   -3.8174    1.0790    3.4624 C   0  0  0  0  0  0  0  0  0  0  0  0
    1.7020   -2.6366   -1.9895 C   0  0  0  0  0  0  0  0  0  0  0  0
    2.9989   -2.3536   -1.5542 C   0  0  0  0  0  0  0  0  0  0  0  0
    4.7021    1.3973   -0.9713 C   0  0  0  0  0  0  0  0  0  0  0  0
    5.2600    2.6697   -0.8558 C   0  0  0  0  0  0  0  0  0  0  0  0
    4.7708    3.6468   -1.6344 F   0  0  0  0  0  0  0  0  0  0  0  0
    7.5415    4.3717    1.9770 H   0  0  0  0  0  0  0  0  0  0  0  0
    8.7222    3.9623    0.6715 H   0  0  0  0  0  0  0  0  0  0  0  0
    8.0656    5.5974    0.8157 H   0  0  0  0  0  0  0  0  0  0  0  0
    7.6100    2.0428    1.5263 H   0  0  0  0  0  0  0  0  0  0  0  0
    6.4667   -1.2227    1.1960 H   0  0  0  0  0  0  0  0  0  0  0  0
    2.3101    0.3365    0.4358 H   0  0  0  0  0  0  0  0  0  0  0  0
    0.0401   -0.1371   -0.3583 H   0  0  0  0  0  0  0  0  0  0  0  0
   -1.5995   -1.6138   -0.2640 H   0  0  0  0  0  0  0  0  0  0  0  0
   -3.1440   -3.3067   -1.8322 H   0  0  0  0  0  0  0  0  0  0  0  0
   -3.6236   -0.3601   -2.5254 H   0  0  0  0  0  0  0  0  0  0  0  0
   -3.1697   -1.6403   -3.6313 H   0  0  0  0  0  0  0  0  0  0  0  0
   -5.3114   -2.7938   -3.3181 H   0  0  0  0  0  0  0  0  0  0  0  0
   -5.5948   -1.1174   -3.7571 H   0  0  0  0  0  0  0  0  0  0  0  0
   -5.9981   -0.5942   -1.4729 H   0  0  0  0  0  0  0  0  0  0  0  0
   -5.6429   -3.4663   -0.9299 H   0  0  0  0  0  0  0  0  0  0  0  0
   -6.1869   -2.2457    0.2113 H   0  0  0  0  0  0  0  0  0  0  0  0
   -3.7431   -2.8323    0.4649 H   0  0  0  0  0  0  0  0  0  0  0  0
   -3.7212    0.0023   -0.3073 H   0  0  0  0  0  0  0  0  0  0  0  0
   -4.6918    1.8315    0.2524 H   0  0  0  0  0  0  0  0  0  0  0  0
   -4.4957    4.0993    1.2321 H   0  0  0  0  0  0  0  0  0  0  0  0
   -3.5028    2.6130    4.9420 H   0  0  0  0  0  0  0  0  0  0  0  0
   -3.6317    0.2542    4.1431 H   0  0  0  0  0  0  0  0  0  0  0  0
    1.5326   -3.4748   -2.6639 H   0  0  0  0  0  0  0  0  0  0  0  0
    3.8269   -2.9784   -1.8845 H   0  0  0  0  0  0  0  0  0  0  0  0
    3.9149    1.2492   -1.7031 H   0  0  0  0  0  0  0  0  0  0  0  0
  1  2  1  0
  2  3  1  0
  3  4  2  0
  4  5  1  0
  5  6  1  0
  5  7  2  0
  7  8  1  0
  8  9  2  0
  8 10  1  0
 10 11  2  0
 11 12  1  0
 12 13  2  0
 13 14  1  0
 14 15  2  0
 14 16  1  0
 16 17  1  0
 17 18  1  0
 18 19  1  0
 19 20  1  0
 20 21  1  0
 21 22  1  0
 22 23  1  0
 23 24  1  0
 24 25  2  0
 24 26  1  0
 26 27  2  0
 27 28  1  0
 28 29  2  0
 29 30  1  0
 30 31  2  0
 13 32  1  0
 32 33  2  0
  7 34  1  0
 34 35  2  0
 35 36  1  0
 35  3  1  0
 33 10  1  0
 22 17  1  0
 31 26  1  0
  1 37  1  0
  1 38  1  0
  1 39  1  0
  4 40  1  0
  6 41  1  0
 11 42  1  0
 12 43  1  0
 16 44  1  0
 17 45  1  6
 18 46  1  0
 18 47  1  0
 19 48  1  0
 19 49  1  0
 20 50  1  0
 21 51  1  0
 21 52  1  0
 22 53  1  0
 23 54  1  0
 27 55  1  0
 28 56  1  0
 30 57  1  0
 31 58  1  0
 32 59  1  0
 33 60  1  0
 34 61  1  0
M  END
$$$$
