
     RDKit          3D

 61 66  0  0  0  0  0  0  0  0999 V2000
   -8.6461    0.6881    3.9497 C   0  0  0  0  0  0  0  0  0  0  0  0
   -8.9568    0.2146    2.5609 C   0  0  0  0  0  0  0  0  0  0  0  0
   -7.9444    0.1569    1.6031 C   0  0  0  0  0  0  0  0  0  0  0  0
   -8.2349   -0.2819    0.3114 C   0  0  0  0  0  0  0  0  0  0  0  0
   -7.2847   -0.3818   -0.7212 N   0  0  0  0  0  0  0  0  0  0  0  0
   -5.9406   -0.1124   -0.6958 C   0  0  0  0  0  0  0  0  0  0  0  0
   -5.1889    0.2869    0.3177 N   0  0  0  0  0  0  0  0  0  0  0  0
   -3.8892    0.4192   -0.1685 C   0  0  0  0  0  0  0  0  0  0  0  0
   -3.7691    0.1028   -1.4543 C   0  0  0  0  0  0  0  0  0  0  0  0
   -5.0780   -0.2424   -1.8888 C   0  0  0  0  0  0  0  0  0  0  0  0
   -4.9868   -0.5291   -3.1860 C   0  0  0  0  0  0  0  0  0  0  0  0
   -3.6915   -0.4010   -3.6910 N   0  0  0  0  0  0  0  0  0  0  0  0
   -2.9512   -0.0452   -2.6617 C   0  0  0  0  0  0  0  0  0  0  0  0
   -1.5121    0.2390   -2.6991 C   0  0  0  0  0  0  0  0  0  0  0  0
   -0.6019   -0.1746   -1.8079 C   0  0  0  0  0  0  0  0  0  0  0  0
   -0.7708   -1.0291   -0.6470 C   0  0  0  0  0  0  0  0  0  0  0  0
    0.4413   -1.1698   -0.0840 C   0  0  0  0  0  0  0  0  0  0  0  0
    1.4230   -0.4321   -0.8605 C   0  0  0  0  0  0  0  0  0  0  0  0
    2.7395   -0.4187   -0.4998 N   0  0  0  0  0  0  0  0  0  0  0  0
    3.7838    0.1613   -1.1890 C   0  0  0  0  0  0  0  0  0  0  0  0
    3.6636    0.7072   -2.2844 O   0  0  0  0  0  0  0  0  0  0  0  0
    5.0147    0.0806   -0.5496 N   0  0  0  0  0  0  0  0  0  0  0  0
    6.1993    0.5790   -1.2487 C   0  0  0  0  0  0  0  0  0  0  0  0
    7.4707   -0.2112   -0.8879 C   0  0  0  0  0  0  0  0  0  0  0  0
    7.7069   -0.4009    0.5560 N   0  0  0  0  0  0  0  0  0  0  0  0
    9.0811   -0.0869    0.9718 C   0  0  0  0  0  0  0  0  0  0  0  0
    9.5378    1.3366    1.1452 C   0  0  0  0  0  0  0  0  0  0  0  0
    9.4432    0.4305    2.3371 C   0  0  0  0  0  0  0  0  0  0  0  0
    6.6031    0.0727    1.3950 C   0  0  0  0  0  0  0  0  0  0  0  0
    5.2291   -0.3426    0.8368 C   0  0  0  0  0  0  0  0  0  0  0  0
    0.8119    0.1590   -1.8985 C   0  0  0  0  0  0  0  0  0  0  0  0
   -9.5573   -0.6512    0.0423 C   0  0  0  0  0  0  0  0  0  0  0  0
  -10.5054   -0.5638    1.0494 C   0  0  0  0  0  0  0  0  0  0  0  0
  -10.2346   -0.1399    2.2980 N   0  0  0  0  0  0  0  0  0  0  0  0
   -9.5404    0.6579    4.5808 H   0  0  0  0  0  0  0  0  0  0  0  0
   -7.8850    0.0477    4.4067 H   0  0  0  0  0  0  0  0  0  0  0  0
   -8.2811    1.7192    3.9240 H   0  0  0  0  0  0  0  0  0  0  0  0
   -6.9432    0.4606    1.8872 H   0  0  0  0  0  0  0  0  0  0  0  0
   -7.6647   -0.6852   -1.6075 H   0  0  0  0  0  0  0  0  0  0  0  0
   -3.0944    0.7551    0.4843 H   0  0  0  0  0  0  0  0  0  0  0  0
   -5.7963   -0.8257   -3.8383 H   0  0  0  0  0  0  0  0  0  0  0  0
   -1.2019    0.7967   -3.5779 H   0  0  0  0  0  0  0  0  0  0  0  0
   -1.6785   -1.5031   -0.3135 H   0  0  0  0  0  0  0  0  0  0  0  0
    0.6634   -1.7630    0.7886 H   0  0  0  0  0  0  0  0  0  0  0  0
    2.9842   -0.9893    0.2919 H   0  0  0  0  0  0  0  0  0  0  0  0
    6.0466    0.5440   -2.3323 H   0  0  0  0  0  0  0  0  0  0  0  0
    6.3180    1.6330   -0.9700 H   0  0  0  0  0  0  0  0  0  0  0  0
    7.3955   -1.2104   -1.3329 H   0  0  0  0  0  0  0  0  0  0  0  0
    8.3258    0.2785   -1.3704 H   0  0  0  0  0  0  0  0  0  0  0  0
    9.8142   -0.7634    0.5301 H   0  0  0  0  0  0  0  0  0  0  0  0
    8.8131    2.1372    1.0535 H   0  0  0  0  0  0  0  0  0  0  0  0
   10.5258    1.5953    0.7809 H   0  0  0  0  0  0  0  0  0  0  0  0
   10.3663    0.0685    2.7783 H   0  0  0  0  0  0  0  0  0  0  0  0
    8.6728    0.6380    3.0682 H   0  0  0  0  0  0  0  0  0  0  0  0
    6.6316    1.1654    1.4856 H   0  0  0  0  0  0  0  0  0  0  0  0
    6.6955   -0.3461    2.4029 H   0  0  0  0  0  0  0  0  0  0  0  0
    4.4384    0.0822    1.4655 H   0  0  0  0  0  0  0  0  0  0  0  0
    5.1287   -1.4345    0.8608 H   0  0  0  0  0  0  0  0  0  0  0  0
    1.2615    0.7701   -2.6657 H   0  0  0  0  0  0  0  0  0  0  0  0
   -9.8606   -1.0058   -0.9365 H   0  0  0  0  0  0  0  0  0  0  0  0
  -11.5400   -0.8425    0.8704 H   0  0  0  0  0  0  0  0  0  0  0  0
  1  2  1  0
  2  3  2  0
  3  4  1  0
  4  5  1  0
  5  6  1  0
  6  7  2  0
  7  8  1  0
  8  9  2  0
  9 10  1  0
 10 11  2  0
 11 12  1  0
 12 13  2  0
 13 14  1  0
 14 15  2  3
 15 16  1  0
 16 17  2  0
 17 18  1  0
 18 19  1  0
 19 20  1  0
 20 21  2  0
 20 22  1  0
 22 23  1  0
 23 24  1  0
 24 25  1  0
 25 26  1  0
 26 27  1  0
 27 28  1  0
 25 29  1  0
 29 30  1  0
 18 31  2  0
  4 32  2  0
 32 33  1  0
 33 34  2  0
 34  2  1  0
 10  6  1  0
 31 15  1  0
 13  9  1  0
 30 22  1  0
 28 26  1  0
  1 35  1  0
  1 36  1  0
  1 37  1  0
  3 38  1  0
  5 39  1  0
  8 40  1  0
 11 41  1  0
 14 42  1  0
 16 43  1  0
 17 44  1  0
 19 45  1  0
 23 46  1  0
 23 47  1  0
 24 48  1  0
 24 49  1  0
 26 50  1  0
 27 51  1  0
 27 52  1  0
 28 53  1  0
 28 54  1  0
 29 55  1  0
 29 56  1  0
 30 57  1  0
 30 58  1  0
 31 59  1  0
 32 60  1  0
 33 61  1  0
M  END
$$$$
