
     RDKit          3D

 57 61  0  0  0  0  0  0  0  0999 V2000
  -11.0389   -0.4049   -1.0560 C   0  0  0  0  0  0  0  0  0  0  0  0
   -9.6235   -0.8447   -0.8266 C   0  0  0  0  0  0  0  0  0  0  0  0
   -8.6514    0.0871   -0.4670 C   0  0  0  0  0  0  0  0  0  0  0  0
   -7.3282   -0.3263   -0.2548 C   0  0  0  0  0  0  0  0  0  0  0  0
   -6.3710    0.6387    0.1088 N   0  0  0  0  0  0  0  0  0  0  0  0
   -5.0314    0.4843    0.3550 C   0  0  0  0  0  0  0  0  0  0  0  0
   -4.2957   -0.6144    0.3028 N   0  0  0  0  0  0  0  0  0  0  0  0
   -2.9939   -0.2477    0.6406 C   0  0  0  0  0  0  0  0  0  0  0  0
   -2.8569    1.0503    0.8950 C   0  0  0  0  0  0  0  0  0  0  0  0
   -4.1561    1.6091    0.7463 C   0  0  0  0  0  0  0  0  0  0  0  0
   -4.0507    2.9058    1.0314 C   0  0  0  0  0  0  0  0  0  0  0  0
   -2.7554    3.2917    1.3800 N   0  0  0  0  0  0  0  0  0  0  0  0
   -2.0293    2.1965    1.2813 C   0  0  0  0  0  0  0  0  0  0  0  0
   -0.5977    2.0992    1.5908 C   0  0  0  0  0  0  0  0  0  0  0  0
    0.3271    1.4260    0.8961 C   0  0  0  0  0  0  0  0  0  0  0  0
    0.1934    0.6847   -0.3427 C   0  0  0  0  0  0  0  0  0  0  0  0
    1.4093    0.1975   -0.6427 C   0  0  0  0  0  0  0  0  0  0  0  0
    2.3609    0.6109    0.3704 C   0  0  0  0  0  0  0  0  0  0  0  0
    3.6963    0.3271    0.3979 N   0  0  0  0  0  0  0  0  0  0  0  0
    4.3965   -0.5115   -0.4422 C   0  0  0  0  0  0  0  0  0  0  0  0
    3.8788   -1.2078   -1.3117 O   0  0  0  0  0  0  0  0  0  0  0  0
    5.7700   -0.5268   -0.2258 N   0  0  0  0  0  0  0  0  0  0  0  0
    6.5846   -1.4785   -0.9853 C   0  0  0  0  0  0  0  0  0  0  0  0
    7.8110   -1.9495   -0.1806 C   0  0  0  0  0  0  0  0  0  0  0  0
    8.6485   -0.8742    0.3918 N   0  0  0  0  0  0  0  0  0  0  0  0
    9.9591   -0.8525   -0.2317 C   0  0  0  0  0  0  0  0  0  0  0  0
   10.5620   -2.0532   -0.0566 F   0  0  0  0  0  0  0  0  0  0  0  0
    9.8311   -0.6673   -1.5680 F   0  0  0  0  0  0  0  0  0  0  0  0
    8.0169    0.4489    0.2820 C   0  0  0  0  0  0  0  0  0  0  0  0
    6.5133    0.4180    0.6133 C   0  0  0  0  0  0  0  0  0  0  0  0
    1.7278    1.3633    1.2866 C   0  0  0  0  0  0  0  0  0  0  0  0
   -7.0488   -1.6806   -0.4165 C   0  0  0  0  0  0  0  0  0  0  0  0
   -8.0735   -2.5431   -0.7740 C   0  0  0  0  0  0  0  0  0  0  0  0
   -9.3486   -2.1566   -0.9821 N   0  0  0  0  0  0  0  0  0  0  0  0
  -11.4507    0.0321   -0.1415 H   0  0  0  0  0  0  0  0  0  0  0  0
  -11.6690   -1.2525   -1.3436 H   0  0  0  0  0  0  0  0  0  0  0  0
  -11.0778    0.3369   -1.8594 H   0  0  0  0  0  0  0  0  0  0  0  0
   -8.9336    1.1296   -0.3549 H   0  0  0  0  0  0  0  0  0  0  0  0
   -6.7375    1.5780    0.1888 H   0  0  0  0  0  0  0  0  0  0  0  0
   -2.2120   -0.9947    0.6811 H   0  0  0  0  0  0  0  0  0  0  0  0
   -4.8512    3.6326    1.0257 H   0  0  0  0  0  0  0  0  0  0  0  0
   -0.3085    2.6882    2.4555 H   0  0  0  0  0  0  0  0  0  0  0  0
   -0.6906    0.5721   -0.9475 H   0  0  0  0  0  0  0  0  0  0  0  0
    1.6488   -0.3828   -1.5210 H   0  0  0  0  0  0  0  0  0  0  0  0
    4.1978    0.6711    1.1996 H   0  0  0  0  0  0  0  0  0  0  0  0
    6.9011   -0.9751   -1.9075 H   0  0  0  0  0  0  0  0  0  0  0  0
    5.9835   -2.3481   -1.2757 H   0  0  0  0  0  0  0  0  0  0  0  0
    8.3902   -2.6474   -0.7980 H   0  0  0  0  0  0  0  0  0  0  0  0
    7.4454   -2.5397    0.6702 H   0  0  0  0  0  0  0  0  0  0  0  0
   10.6137   -0.0786    0.1797 H   0  0  0  0  0  0  0  0  0  0  0  0
    8.5146    1.1444    0.9682 H   0  0  0  0  0  0  0  0  0  0  0  0
    8.1339    0.8560   -0.7319 H   0  0  0  0  0  0  0  0  0  0  0  0
    6.0913    1.4206    0.4835 H   0  0  0  0  0  0  0  0  0  0  0  0
    6.3613    0.1173    1.6571 H   0  0  0  0  0  0  0  0  0  0  0  0
    2.1546    1.8359    2.1567 H   0  0  0  0  0  0  0  0  0  0  0  0
   -6.0568   -2.0903   -0.2696 H   0  0  0  0  0  0  0  0  0  0  0  0
   -7.8839   -3.6053   -0.9010 H   0  0  0  0  0  0  0  0  0  0  0  0
  1  2  1  0
  2  3  2  0
  3  4  1  0
  4  5  1  0
  5  6  1  0
  6  7  2  0
  7  8  1  0
  8  9  2  0
  9 10  1  0
 10 11  2  0
 11 12  1  0
 12 13  2  0
 13 14  1  0
 14 15  2  3
 15 16  1  0
 16 17  2  0
 17 18  1  0
 18 19  1  0
 19 20  1  0
 20 21  2  0
 20 22  1  0
 22 23  1  0
 23 24  1  0
 24 25  1  0
 25 26  1  0
 26 27  1  0
 26 28  1  0
 25 29  1  0
 29 30  1  0
 18 31  2  0
  4 32  2  0
 32 33  1  0
 33 34  2  0
 34  2  1  0
 10  6  1  0
 31 15  1  0
 13  9  1  0
 30 22  1  0
  1 35  1  0
  1 36  1  0
  1 37  1  0
  3 38  1  0
  5 39  1  0
  8 40  1  0
 11 41  1  0
 14 42  1  0
 16 43  1  0
 17 44  1  0
 19 45  1  0
 23 46  1  0
 23 47  1  0
 24 48  1  0
 24 49  1  0
 26 50  1  0
 29 51  1  0
 29 52  1  0
 30 53  1  0
 30 54  1  0
 31 55  1  0
 32 56  1  0
 33 57  1  0
M  END
$$$$
