
     RDKit          3D

 60 64  0  0  0  0  0  0  0  0999 V2000
    9.1596    2.1199   -3.6827 C   0  0  0  0  0  0  0  0  0  0  0  0
    8.2049    1.2777   -3.0389 O   0  0  0  0  0  0  0  0  0  0  0  0
    8.4986    0.9908   -1.7445 C   0  0  0  0  0  0  0  0  0  0  0  0
    9.4962    1.4006   -1.1650 O   0  0  0  0  0  0  0  0  0  0  0  0
    7.5477    0.1835   -1.1567 N   0  0  0  0  0  0  0  0  0  0  0  0
    7.7535   -0.2589    0.2218 C   0  0  0  0  0  0  0  0  0  0  0  0
    6.8673   -1.4502    0.6060 C   0  0  0  0  0  0  0  0  0  0  0  0
    5.4476   -1.1903    0.3298 N   0  0  0  0  0  0  0  0  0  0  0  0
    4.5102   -1.5513    1.2958 C   0  0  0  0  0  0  0  0  0  0  0  0
    4.8485   -2.1188    2.3318 O   0  0  0  0  0  0  0  0  0  0  0  0
    3.2102   -1.2135    0.9940 N   0  0  0  0  0  0  0  0  0  0  0  0
    2.1018   -1.3750    1.7757 C   0  0  0  0  0  0  0  0  0  0  0  0
    0.8500   -1.0984    1.3722 C   0  0  0  0  0  0  0  0  0  0  0  0
   -0.0345   -1.3910    2.4851 C   0  0  0  0  0  0  0  0  0  0  0  0
   -1.3676   -1.2790    2.5597 C   0  0  0  0  0  0  0  0  0  0  0  0
   -2.2335   -0.8309    1.4565 C   0  0  0  0  0  0  0  0  0  0  0  0
   -1.9463   -0.5893    0.1951 N   0  0  0  0  0  0  0  0  0  0  0  0
   -3.1524   -0.2157   -0.3973 C   0  0  0  0  0  0  0  0  0  0  0  0
   -4.1795   -0.2165    0.4505 C   0  0  0  0  0  0  0  0  0  0  0  0
   -3.6620   -0.6148    1.7125 C   0  0  0  0  0  0  0  0  0  0  0  0
   -4.6959   -0.6128    2.5483 C   0  0  0  0  0  0  0  0  0  0  0  0
   -5.8941   -0.2387    1.9428 N   0  0  0  0  0  0  0  0  0  0  0  0
   -5.6238    0.0084    0.6697 C   0  0  0  0  0  0  0  0  0  0  0  0
   -6.4718    0.4035   -0.3332 N   0  0  0  0  0  0  0  0  0  0  0  0
   -7.8611    0.6239   -0.2914 C   0  0  0  0  0  0  0  0  0  0  0  0
   -8.6355    0.5148    0.8601 C   0  0  0  0  0  0  0  0  0  0  0  0
   -9.9995    0.7525    0.7813 C   0  0  0  0  0  0  0  0  0  0  0  0
  -10.6438    1.0915   -0.3559 N   0  0  0  0  0  0  0  0  0  0  0  0
   -9.8959    1.2066   -1.4729 C   0  0  0  0  0  0  0  0  0  0  0  0
  -10.6059    1.5719   -2.7446 C   0  0  0  0  0  0  0  0  0  0  0  0
   -8.5197    0.9815   -1.4784 C   0  0  0  0  0  0  0  0  0  0  0  0
    0.7966   -1.8568    3.5841 C   0  0  0  0  0  0  0  0  0  0  0  0
    2.0677   -1.8442    3.1481 C   0  0  0  0  0  0  0  0  0  0  0  0
    5.1547   -0.4701   -0.9157 C   0  0  0  0  0  0  0  0  0  0  0  0
    6.3626   -0.3162   -1.8518 C   0  0  0  0  0  0  0  0  0  0  0  0
    9.2740    3.0601   -3.1398 H   0  0  0  0  0  0  0  0  0  0  0  0
    8.7884    2.3435   -4.6842 H   0  0  0  0  0  0  0  0  0  0  0  0
   10.1213    1.6062   -3.7755 H   0  0  0  0  0  0  0  0  0  0  0  0
    8.8093   -0.5123    0.3664 H   0  0  0  0  0  0  0  0  0  0  0  0
    7.5269    0.5994    0.8661 H   0  0  0  0  0  0  0  0  0  0  0  0
    7.0320   -1.7015    1.6599 H   0  0  0  0  0  0  0  0  0  0  0  0
    7.1450   -2.3309    0.0121 H   0  0  0  0  0  0  0  0  0  0  0  0
    3.0253   -0.8595    0.0738 H   0  0  0  0  0  0  0  0  0  0  0  0
    0.5471   -0.7331    0.4069 H   0  0  0  0  0  0  0  0  0  0  0  0
   -1.8757   -1.5358    3.4841 H   0  0  0  0  0  0  0  0  0  0  0  0
   -3.1880    0.0332   -1.4489 H   0  0  0  0  0  0  0  0  0  0  0  0
   -4.6738   -0.8680    3.6002 H   0  0  0  0  0  0  0  0  0  0  0  0
   -6.0612    0.5169   -1.2494 H   0  0  0  0  0  0  0  0  0  0  0  0
   -8.2119    0.2525    1.8224 H   0  0  0  0  0  0  0  0  0  0  0  0
  -10.6286    0.6739    1.6651 H   0  0  0  0  0  0  0  0  0  0  0  0
  -10.1297    2.4434   -3.2113 H   0  0  0  0  0  0  0  0  0  0  0  0
  -11.6536    1.8235   -2.5490 H   0  0  0  0  0  0  0  0  0  0  0  0
  -10.5820    0.7281   -3.4429 H   0  0  0  0  0  0  0  0  0  0  0  0
   -7.9710    1.0889   -2.4088 H   0  0  0  0  0  0  0  0  0  0  0  0
    0.4552   -2.1616    4.5646 H   0  0  0  0  0  0  0  0  0  0  0  0
    2.9290   -2.1356    3.7301 H   0  0  0  0  0  0  0  0  0  0  0  0
    4.3521   -0.9901   -1.4475 H   0  0  0  0  0  0  0  0  0  0  0  0
    4.7852    0.5194   -0.6257 H   0  0  0  0  0  0  0  0  0  0  0  0
    6.0944    0.3374   -2.6885 H   0  0  0  0  0  0  0  0  0  0  0  0
    6.6351   -1.2924   -2.2720 H   0  0  0  0  0  0  0  0  0  0  0  0
  1  2  1  0
  2  3  1  0
  3  4  2  0
  3  5  1  0
  5  6  1  0
  6  7  1  0
  7  8  1  0
  8  9  1  0
  9 10  2  0
  9 11  1  0
 11 12  1  0
 12 13  2  0
 13 14  1  0
 14 15  2  3
 15 16  1  0
 16 17  2  0
 17 18  1  0
 18 19  2  0
 19 20  1  0
 20 21  2  0
 21 22  1  0
 22 23  2  0
 23 24  1  0
 24 25  1  0
 25 26  2  0
 26 27  1  0
 27 28  2  0
 28 29  1  0
 29 30  1  0
 29 31  2  0
 14 32  1  0
 32 33  2  0
  8 34  1  0
 34 35  1  0
 35  5  1  0
 33 12  1  0
 20 16  1  0
 31 25  1  0
 23 19  1  0
  1 36  1  0
  1 37  1  0
  1 38  1  0
  6 39  1  0
  6 40  1  0
  7 41  1  0
  7 42  1  0
 11 43  1  0
 13 44  1  0
 15 45  1  0
 18 46  1  0
 21 47  1  0
 24 48  1  0
 26 49  1  0
 27 50  1  0
 30 51  1  0
 30 52  1  0
 30 53  1  0
 31 54  1  0
 32 55  1  0
 33 56  1  0
 34 57  1  0
 34 58  1  0
 35 59  1  0
 35 60  1  0
M  END
$$$$
