
     RDKit          3D

 60 64  0  0  0  0  0  0  0  0999 V2000
   10.5719   -1.2918   -2.2243 C   0  0  0  0  0  0  0  0  0  0  0  0
   10.2225   -0.8382   -0.8381 C   0  0  0  0  0  0  0  0  0  0  0  0
    8.8889   -0.6369   -0.4863 C   0  0  0  0  0  0  0  0  0  0  0  0
    8.5673   -0.1951    0.7969 C   0  0  0  0  0  0  0  0  0  0  0  0
    7.2543    0.0229    1.2510 N   0  0  0  0  0  0  0  0  0  0  0  0
    6.0659   -0.1393    0.5873 C   0  0  0  0  0  0  0  0  0  0  0  0
    5.8498   -0.5771   -0.6425 N   0  0  0  0  0  0  0  0  0  0  0  0
    4.4706   -0.5553   -0.8456 C   0  0  0  0  0  0  0  0  0  0  0  0
    3.7891   -0.1193    0.2083 C   0  0  0  0  0  0  0  0  0  0  0  0
    4.7597    0.1758    1.2027 C   0  0  0  0  0  0  0  0  0  0  0  0
    4.0897    0.6104    2.2679 C   0  0  0  0  0  0  0  0  0  0  0  0
    2.7069    0.6394    2.0772 N   0  0  0  0  0  0  0  0  0  0  0  0
    2.5107    0.2080    0.8511 C   0  0  0  0  0  0  0  0  0  0  0  0
    1.2597    0.0229    0.0951 C   0  0  0  0  0  0  0  0  0  0  0  0
    0.0349    0.2987    0.5614 C   0  0  0  0  0  0  0  0  0  0  0  0
   -0.3586    0.8264    1.8547 C   0  0  0  0  0  0  0  0  0  0  0  0
   -1.6973    0.9231    1.8489 C   0  0  0  0  0  0  0  0  0  0  0  0
   -2.2079    0.4677    0.5668 C   0  0  0  0  0  0  0  0  0  0  0  0
   -3.5471    0.4690    0.3009 N   0  0  0  0  0  0  0  0  0  0  0  0
   -4.1668   -0.0153   -0.8310 C   0  0  0  0  0  0  0  0  0  0  0  0
   -3.5789   -0.5958   -1.7405 O   0  0  0  0  0  0  0  0  0  0  0  0
   -5.5427    0.1873   -0.8753 N   0  0  0  0  0  0  0  0  0  0  0  0
   -6.3081    1.0526    0.0300 C   0  0  0  0  0  0  0  0  0  0  0  0
   -7.6546    1.5122   -0.5469 C   0  0  0  0  0  0  0  0  0  0  0  0
   -8.4681    0.3754   -1.0425 N   0  0  0  0  0  0  0  0  0  0  0  0
   -9.9859    0.0973   -0.3772 S   0  0  0  0  0  0  0  0  0  0  0  0
   -9.5854   -0.5688    1.2276 C   0  0  0  0  0  0  0  0  0  0  0  0
  -10.6221    1.3804   -0.1721 O   0  0  0  0  0  0  0  0  0  0  0  0
  -10.6240   -0.9490   -1.1445 O   0  0  0  0  0  0  0  0  0  0  0  0
   -7.7163   -0.7869   -1.5837 C   0  0  0  0  0  0  0  0  0  0  0  0
   -6.2914   -0.3985   -1.9928 C   0  0  0  0  0  0  0  0  0  0  0  0
   -1.1804    0.0954   -0.2123 C   0  0  0  0  0  0  0  0  0  0  0  0
    9.6276    0.0259    1.6833 C   0  0  0  0  0  0  0  0  0  0  0  0
   10.9268   -0.1910    1.2542 C   0  0  0  0  0  0  0  0  0  0  0  0
   11.2467   -0.6128    0.0159 N   0  0  0  0  0  0  0  0  0  0  0  0
   10.3914   -0.4817   -2.9404 H   0  0  0  0  0  0  0  0  0  0  0  0
    9.9714   -2.1615   -2.5053 H   0  0  0  0  0  0  0  0  0  0  0  0
   11.6277   -1.5745   -2.2850 H   0  0  0  0  0  0  0  0  0  0  0  0
    8.1220   -0.8325   -1.2265 H   0  0  0  0  0  0  0  0  0  0  0  0
    7.1950    0.3806    2.1951 H   0  0  0  0  0  0  0  0  0  0  0  0
    4.0551   -0.8748   -1.7910 H   0  0  0  0  0  0  0  0  0  0  0  0
    4.5155    0.9231    3.2110 H   0  0  0  0  0  0  0  0  0  0  0  0
    1.3698   -0.3708   -0.9108 H   0  0  0  0  0  0  0  0  0  0  0  0
    0.2978    1.0901    2.6679 H   0  0  0  0  0  0  0  0  0  0  0  0
   -2.2999    1.2832    2.6673 H   0  0  0  0  0  0  0  0  0  0  0  0
   -4.1407    0.7526    1.0616 H   0  0  0  0  0  0  0  0  0  0  0  0
   -6.4743    0.4757    0.9471 H   0  0  0  0  0  0  0  0  0  0  0  0
   -5.7088    1.9318    0.2873 H   0  0  0  0  0  0  0  0  0  0  0  0
   -8.1908    2.0846    0.2162 H   0  0  0  0  0  0  0  0  0  0  0  0
   -7.4864    2.1905   -1.3916 H   0  0  0  0  0  0  0  0  0  0  0  0
  -10.5238   -0.7825    1.7442 H   0  0  0  0  0  0  0  0  0  0  0  0
   -9.0178    0.1728    1.7909 H   0  0  0  0  0  0  0  0  0  0  0  0
   -9.0179   -1.4917    1.1076 H   0  0  0  0  0  0  0  0  0  0  0  0
   -7.6668   -1.5746   -0.8241 H   0  0  0  0  0  0  0  0  0  0  0  0
   -8.2442   -1.1781   -2.4596 H   0  0  0  0  0  0  0  0  0  0  0  0
   -5.7714   -1.2817   -2.3797 H   0  0  0  0  0  0  0  0  0  0  0  0
   -6.3128    0.3508   -2.7946 H   0  0  0  0  0  0  0  0  0  0  0  0
   -1.2249   -0.2854   -1.2205 H   0  0  0  0  0  0  0  0  0  0  0  0
    9.4578    0.3639    2.6993 H   0  0  0  0  0  0  0  0  0  0  0  0
   11.7694   -0.0296    1.9203 H   0  0  0  0  0  0  0  0  0  0  0  0
  1  2  1  0
  2  3  2  0
  3  4  1  0
  4  5  1  0
  5  6  1  0
  6  7  2  0
  7  8  1  0
  8  9  2  0
  9 10  1  0
 10 11  2  0
 11 12  1  0
 12 13  2  0
 13 14  1  0
 14 15  2  3
 15 16  1  0
 16 17  2  0
 17 18  1  0
 18 19  1  0
 19 20  1  0
 20 21  2  0
 20 22  1  0
 22 23  1  0
 23 24  1  0
 24 25  1  0
 25 26  1  0
 26 27  1  0
 26 28  2  0
 26 29  2  0
 25 30  1  0
 30 31  1  0
 18 32  2  0
  4 33  2  0
 33 34  1  0
 34 35  2  0
 35  2  1  0
 10  6  1  0
 32 15  1  0
 13  9  1  0
 31 22  1  0
  1 36  1  0
  1 37  1  0
  1 38  1  0
  3 39  1  0
  5 40  1  0
  8 41  1  0
 11 42  1  0
 14 43  1  0
 16 44  1  0
 17 45  1  0
 19 46  1  0
 23 47  1  0
 23 48  1  0
 24 49  1  0
 24 50  1  0
 27 51  1  0
 27 52  1  0
 27 53  1  0
 30 54  1  0
 30 55  1  0
 31 56  1  0
 31 57  1  0
 32 58  1  0
 33 59  1  0
 34 60  1  0
M  END
$$$$
