
     RDKit          3D

 50 53  0  0  0  0  0  0  0  0999 V2000
   10.1649    1.3598    0.0771 C   0  0  0  0  0  0  0  0  0  0  0  0
    9.0088    0.4613    0.3986 C   0  0  0  0  0  0  0  0  0  0  0  0
    7.7200    0.8032   -0.0086 C   0  0  0  0  0  0  0  0  0  0  0  0
    6.6436   -0.0454    0.2856 C   0  0  0  0  0  0  0  0  0  0  0  0
    5.3556    0.3277   -0.1406 N   0  0  0  0  0  0  0  0  0  0  0  0
    4.1710   -0.3515   -0.0226 C   0  0  0  0  0  0  0  0  0  0  0  0
    3.9475   -1.5553    0.4801 N   0  0  0  0  0  0  0  0  0  0  0  0
    2.5787   -1.7939    0.3701 C   0  0  0  0  0  0  0  0  0  0  0  0
    1.9110   -0.7881   -0.1853 C   0  0  0  0  0  0  0  0  0  0  0  0
    2.8809    0.2073   -0.4788 C   0  0  0  0  0  0  0  0  0  0  0  0
    2.2235    1.2218   -1.0368 C   0  0  0  0  0  0  0  0  0  0  0  0
    0.8513    0.9940   -1.1532 N   0  0  0  0  0  0  0  0  0  0  0  0
    0.6475   -0.2002   -0.6443 C   0  0  0  0  0  0  0  0  0  0  0  0
   -0.5957   -0.9785   -0.5098 C   0  0  0  0  0  0  0  0  0  0  0  0
   -1.8278   -0.4817   -0.6803 C   0  0  0  0  0  0  0  0  0  0  0  0
   -2.2320    0.8714   -1.0101 C   0  0  0  0  0  0  0  0  0  0  0  0
   -3.5744    0.8804   -1.0637 C   0  0  0  0  0  0  0  0  0  0  0  0
   -4.0781   -0.4490   -0.7770 C   0  0  0  0  0  0  0  0  0  0  0  0
   -5.3885   -0.8262   -0.7356 N   0  0  0  0  0  0  0  0  0  0  0  0
   -6.4969   -0.0554   -1.0125 C   0  0  0  0  0  0  0  0  0  0  0  0
   -6.4977    1.1061   -1.4020 O   0  0  0  0  0  0  0  0  0  0  0  0
   -7.6593   -0.7793   -0.8103 N   0  0  0  0  0  0  0  0  0  0  0  0
   -8.9513   -0.1293   -0.9786 C   0  0  0  0  0  0  0  0  0  0  0  0
   -9.4779    0.5235    0.3161 C   0  0  0  0  0  0  0  0  0  0  0  0
   -8.4593    1.2504    1.0728 N   0  0  0  0  0  0  0  0  0  0  0  0
   -3.0424   -1.2731   -0.5442 C   0  0  0  0  0  0  0  0  0  0  0  0
    6.9272   -1.2201    0.9765 C   0  0  0  0  0  0  0  0  0  0  0  0
    8.2368   -1.4895    1.3419 C   0  0  0  0  0  0  0  0  0  0  0  0
    9.2791   -0.6777    1.0698 N   0  0  0  0  0  0  0  0  0  0  0  0
   10.3350    1.3799   -1.0034 H   0  0  0  0  0  0  0  0  0  0  0  0
    9.9673    2.3766    0.4298 H   0  0  0  0  0  0  0  0  0  0  0  0
   11.0804    1.0050    0.5614 H   0  0  0  0  0  0  0  0  0  0  0  0
    7.5656    1.7296   -0.5524 H   0  0  0  0  0  0  0  0  0  0  0  0
    5.3101    1.2363   -0.5830 H   0  0  0  0  0  0  0  0  0  0  0  0
    2.1592   -2.7263    0.7231 H   0  0  0  0  0  0  0  0  0  0  0  0
    2.6503    2.1524   -1.3838 H   0  0  0  0  0  0  0  0  0  0  0  0
   -0.4698   -2.0242   -0.2495 H   0  0  0  0  0  0  0  0  0  0  0  0
   -1.5837    1.7153   -1.1821 H   0  0  0  0  0  0  0  0  0  0  0  0
   -4.1817    1.7433   -1.2887 H   0  0  0  0  0  0  0  0  0  0  0  0
   -5.5754   -1.8011   -0.5601 H   0  0  0  0  0  0  0  0  0  0  0  0
   -7.6131   -1.4244   -0.0357 H   0  0  0  0  0  0  0  0  0  0  0  0
   -9.6572   -0.8979   -1.3116 H   0  0  0  0  0  0  0  0  0  0  0  0
   -8.8759    0.6241   -1.7711 H   0  0  0  0  0  0  0  0  0  0  0  0
   -9.8849   -0.2563    0.9701 H   0  0  0  0  0  0  0  0  0  0  0  0
  -10.3038    1.1969    0.0609 H   0  0  0  0  0  0  0  0  0  0  0  0
   -7.8516    1.7521    0.4156 H   0  0  0  0  0  0  0  0  0  0  0  0
   -8.9000    1.9611    1.6540 H   0  0  0  0  0  0  0  0  0  0  0  0
   -3.0824   -2.3215   -0.3012 H   0  0  0  0  0  0  0  0  0  0  0  0
    6.1594   -1.9352    1.2444 H   0  0  0  0  0  0  0  0  0  0  0  0
    8.4862   -2.3982    1.8826 H   0  0  0  0  0  0  0  0  0  0  0  0
  1  2  1  0
  2  3  2  0
  3  4  1  0
  4  5  1  0
  5  6  1  0
  6  7  2  0
  7  8  1  0
  8  9  2  0
  9 10  1  0
 10 11  2  0
 11 12  1  0
 12 13  2  0
 13 14  1  0
 14 15  2  3
 15 16  1  0
 16 17  2  0
 17 18  1  0
 18 19  1  0
 19 20  1  0
 20 21  2  0
 20 22  1  0
 22 23  1  0
 23 24  1  0
 24 25  1  0
 18 26  2  0
  4 27  2  0
 27 28  1  0
 28 29  2  0
 29  2  1  0
 10  6  1  0
 26 15  1  0
 13  9  1  0
  1 30  1  0
  1 31  1  0
  1 32  1  0
  3 33  1  0
  5 34  1  0
  8 35  1  0
 11 36  1  0
 14 37  1  0
 16 38  1  0
 17 39  1  0
 19 40  1  0
 22 41  1  0
 23 42  1  0
 23 43  1  0
 24 44  1  0
 24 45  1  0
 25 46  1  0
 25 47  1  0
 26 48  1  0
 27 49  1  0
 28 50  1  0
M  END
$$$$
