
     RDKit          3D

 53 57  0  0  0  0  0  0  0  0999 V2000
   10.8400   -0.7840    0.0998 C   0  0  0  0  0  0  0  0  0  0  0  0
    9.6369    0.1088    0.1536 C   0  0  0  0  0  0  0  0  0  0  0  0
    8.3554   -0.4373    0.0993 C   0  0  0  0  0  0  0  0  0  0  0  0
    7.2330    0.4019    0.1409 C   0  0  0  0  0  0  0  0  0  0  0  0
    5.9536   -0.1799    0.0755 N   0  0  0  0  0  0  0  0  0  0  0  0
    4.7262    0.4285    0.0265 C   0  0  0  0  0  0  0  0  0  0  0  0
    4.4394    1.7194   -0.0410 N   0  0  0  0  0  0  0  0  0  0  0  0
    3.0507    1.8262   -0.0751 C   0  0  0  0  0  0  0  0  0  0  0  0
    2.4307    0.6515   -0.0327 C   0  0  0  0  0  0  0  0  0  0  0  0
    3.4567   -0.3286    0.0360 C   0  0  0  0  0  0  0  0  0  0  0  0
    2.8457   -1.5107    0.0818 C   0  0  0  0  0  0  0  0  0  0  0  0
    1.4535   -1.4153    0.0460 N   0  0  0  0  0  0  0  0  0  0  0  0
    1.1889   -0.1303   -0.0208 C   0  0  0  0  0  0  0  0  0  0  0  0
   -0.1017    0.5765   -0.0948 C   0  0  0  0  0  0  0  0  0  0  0  0
   -1.3029   -0.0083    0.0014 C   0  0  0  0  0  0  0  0  0  0  0  0
   -1.6291   -1.4071    0.1988 C   0  0  0  0  0  0  0  0  0  0  0  0
   -2.9690   -1.4988    0.2320 C   0  0  0  0  0  0  0  0  0  0  0  0
   -3.5484   -0.1805    0.0604 C   0  0  0  0  0  0  0  0  0  0  0  0
   -4.8796    0.1221    0.0200 N   0  0  0  0  0  0  0  0  0  0  0  0
   -5.9398   -0.7138    0.2928 C   0  0  0  0  0  0  0  0  0  0  0  0
   -5.8315   -1.8543    0.7362 O   0  0  0  0  0  0  0  0  0  0  0  0
   -7.1867   -0.1569    0.0393 N   0  0  0  0  0  0  0  0  0  0  0  0
   -7.4440    1.0508   -0.7519 C   0  0  0  0  0  0  0  0  0  0  0  0
   -8.8272    1.0035   -1.4098 C   0  0  0  0  0  0  0  0  0  0  0  0
   -9.8947    0.8543   -0.4670 O   0  0  0  0  0  0  0  0  0  0  0  0
   -9.5681    0.0269    0.6604 C   0  0  0  0  0  0  0  0  0  0  0  0
   -8.3796   -0.9108    0.4304 C   0  0  0  0  0  0  0  0  0  0  0  0
   -2.5611    0.7197   -0.0827 C   0  0  0  0  0  0  0  0  0  0  0  0
    7.4636    1.7722    0.2226 C   0  0  0  0  0  0  0  0  0  0  0  0
    8.7692    2.2358    0.2714 C   0  0  0  0  0  0  0  0  0  0  0  0
    9.8559    1.4377    0.2400 N   0  0  0  0  0  0  0  0  0  0  0  0
   10.8922   -1.2877   -0.8704 H   0  0  0  0  0  0  0  0  0  0  0  0
   10.7923   -1.5354    0.8942 H   0  0  0  0  0  0  0  0  0  0  0  0
   11.7597   -0.2063    0.2350 H   0  0  0  0  0  0  0  0  0  0  0  0
    8.2421   -1.5139    0.0234 H   0  0  0  0  0  0  0  0  0  0  0  0
    5.9541   -1.1910    0.1040 H   0  0  0  0  0  0  0  0  0  0  0  0
    2.5816    2.7990   -0.1303 H   0  0  0  0  0  0  0  0  0  0  0  0
    3.3219   -2.4798    0.1407 H   0  0  0  0  0  0  0  0  0  0  0  0
   -0.0401    1.6501   -0.2386 H   0  0  0  0  0  0  0  0  0  0  0  0
   -0.9339   -2.2249    0.3001 H   0  0  0  0  0  0  0  0  0  0  0  0
   -3.5260   -2.4133    0.3640 H   0  0  0  0  0  0  0  0  0  0  0  0
   -5.1045    1.0992   -0.0680 H   0  0  0  0  0  0  0  0  0  0  0  0
   -7.3872    1.8949   -0.0560 H   0  0  0  0  0  0  0  0  0  0  0  0
   -6.6721    1.1684   -1.5192 H   0  0  0  0  0  0  0  0  0  0  0  0
   -9.0093    1.9249   -1.9719 H   0  0  0  0  0  0  0  0  0  0  0  0
   -8.8865    0.1704   -2.1201 H   0  0  0  0  0  0  0  0  0  0  0  0
  -10.4624   -0.5501    0.9163 H   0  0  0  0  0  0  0  0  0  0  0  0
   -9.3588    0.6978    1.5018 H   0  0  0  0  0  0  0  0  0  0  0  0
   -8.1788   -1.4958    1.3341 H   0  0  0  0  0  0  0  0  0  0  0  0
   -8.5966   -1.6094   -0.3867 H   0  0  0  0  0  0  0  0  0  0  0  0
   -2.6599    1.7812   -0.2353 H   0  0  0  0  0  0  0  0  0  0  0  0
    6.6580    2.4951    0.2553 H   0  0  0  0  0  0  0  0  0  0  0  0
    8.9780    3.3000    0.3384 H   0  0  0  0  0  0  0  0  0  0  0  0
  1  2  1  0
  2  3  2  0
  3  4  1  0
  4  5  1  0
  5  6  1  0
  6  7  2  0
  7  8  1  0
  8  9  2  0
  9 10  1  0
 10 11  2  0
 11 12  1  0
 12 13  2  0
 13 14  1  0
 14 15  2  3
 15 16  1  0
 16 17  2  0
 17 18  1  0
 18 19  1  0
 19 20  1  0
 20 21  2  0
 20 22  1  0
 22 23  1  0
 23 24  1  0
 24 25  1  0
 25 26  1  0
 26 27  1  0
 18 28  2  0
  4 29  2  0
 29 30  1  0
 30 31  2  0
 31  2  1  0
 10  6  1  0
 28 15  1  0
 13  9  1  0
 27 22  1  0
  1 32  1  0
  1 33  1  0
  1 34  1  0
  3 35  1  0
  5 36  1  0
  8 37  1  0
 11 38  1  0
 14 39  1  0
 16 40  1  0
 17 41  1  0
 19 42  1  0
 23 43  1  0
 23 44  1  0
 24 45  1  0
 24 46  1  0
 26 47  1  0
 26 48  1  0
 27 49  1  0
 27 50  1  0
 28 51  1  0
 29 52  1  0
 30 53  1  0
M  END
$$$$
