MODEL        8USER    Run = 8USERUSER    Estimated Free Energy of Binding    =  -7.79 kcal/mol  [=(1)+(2)+(3)-(4)]USERUSER    (1) Final Intermolecular Energy     = -11.96 kcal/molUSER        vdW + Hbond + desolv Energy     = -12.25 kcal/molUSER        Electrostatic Energy            =  -0.14 kcal/molUSER        Moving Ligand-Fixed Receptor    = -12.39 kcal/molUSER        Moving Ligand-Moving Receptor   =  +0.43 kcal/molUSER    (2) Final Total Internal Energy     =  -2.81 kcal/molUSER    (3) Torsional Free Energy           =  +4.18 kcal/molUSER    (4) Unbound System's Energy         =  -2.81 kcal/molUSERUSERREMARK SMILES COc1ccc(O)c(C(=O)c2ccc(C(=O)N[C@@H]3CCCNC[C@H]3NC(=O)c3ccncc3)cc2)c1REMARK SMILES IDX 15 1 16 2 17 3 14 5 11 6 12 7 35 8 13 9 34 10 9 11 10 12REMARK SMILES IDX 8 13 3 14 4 15 36 16 5 17 6 18 2 19 1 20 7 21 18 23 19 24REMARK SMILES IDX 24 26 23 27 22 28 21 30 20 31 25 33 26 34 27 36 28 37 29 38REMARK SMILES IDX 33 39 30 40 32 41 31 42REMARK H PARENT 17 4 7 22 22 29 25 35REMARK Flexibility Score:   88.900USER                              x       y       z     vdW  Elec       q    TypeUSER                           _______ _______ _______ _____ _____    ______ ____ROOTATOM      1  C   UNL     1      37.176  44.181  17.454 -0.19 -0.06    +0.251 C  ATOM      2  O   UNL     1      37.958  43.684  16.649 -0.08 +0.06    -0.269 OA ATOM      3  N   UNL     1      37.572  45.085  18.423 -0.15 +0.07    -0.347 N  ATOM      4  H   UNL     1      36.875  45.664  18.873 +0.10 -0.03    +0.164 HD ENDROOTBRANCH   1   5ATOM      5  C   UNL     1      35.732  43.817  17.413 -0.30 -0.01    +0.039 A  ATOM      6  C   UNL     1      33.045  42.990  17.255 -0.32 -0.01    +0.023 A  ATOM      7  C   UNL     1      33.863  42.947  16.121 -0.33 -0.01    +0.013 A  ATOM      8  C   UNL     1      33.577  43.459  18.464 -0.34 -0.00    +0.013 A  ATOM      9  C   UNL     1      35.197  43.362  16.201 -0.40 -0.01    +0.014 A  ATOM     10  C   UNL     1      34.914  43.860  18.547 -0.33 -0.00    +0.014 A  BRANCH   6  11ATOM     11  C   UNL     1      31.637  42.503  17.253 -0.23 -0.06    +0.196 C  ATOM     12  O   UNL     1      30.723  43.211  16.829 -0.16 +0.09    -0.288 OA BRANCH  11  13ATOM     13  C   UNL     1      31.287  41.193  17.832 -0.29 -0.01    +0.068 A  ATOM     14  C   UNL     1      31.577  39.611  19.630 -0.31 +0.02    +0.119 A  ATOM     15  C   UNL     1      30.693  38.743  18.977 -0.38 +0.01    +0.050 A  ATOM     16  C   UNL     1      31.863  40.850  19.063 -0.32 +0.00    +0.062 A  ATOM     17  C   UNL     1      30.101  39.097  17.760 -0.30 +0.01    +0.051 A  ATOM     18  C   UNL     1      30.401  40.328  17.188 -0.28 -0.01    +0.127 A  BRANCH  14  19ATOM     19  O   UNL     1      32.084  39.133  20.808 -1.04 -0.21    -0.497 OA ATOM     20  C   UNL     1      31.260  38.232  21.541 -0.35 +0.03    +0.278 C  ENDBRANCH  14  19BRANCH  18  21ATOM     21  O   UNL     1      29.839  40.679  15.993 -0.19 +0.11    -0.507 OA ATOM     22  H   UNL     1      29.871  41.652  15.908 +0.16 -0.12    +0.293 HD ENDBRANCH  18  21ENDBRANCH  11  13ENDBRANCH   6  11ENDBRANCH   1   5BRANCH   3  23ATOM     23  C   UNL     1      38.969  45.512  18.537 -0.40 -0.01    +0.106 C  BRANCH  23  24ATOM     24  C   UNL     1      39.267  45.855  20.005 -0.30 -0.00    +0.028 CG0ATOM     25  G   UNL     1      40.734  45.725  20.427 +0.00 +0.00    +0.000 G0 ENDBRANCH  23  24BRANCH  23  26ATOM     26  C   UNL     1      39.341  46.594  17.475 -0.42 -0.03    +0.118 C  BRANCH  26  27ATOM     27  C   UNL     1      40.882  46.759  17.288 -0.45 -0.01    +0.108 C  BRANCH  27  28ATOM     28  N   UNL     1      41.800  46.045  18.193 -0.23 -0.00    -0.315 NA ATOM     29  H   UNL     1      41.567  45.051  18.159 +0.06 +0.01    +0.122 HD BRANCH  28  30ATOM     30  C   UNL     1      41.744  46.505  19.574 -0.45 +0.01    +0.081 C  BRANCH  30  31ATOM     31  C   UNL     1      40.734  45.723  20.427 -0.40 +0.00    +0.017 CG0ATOM     32  G   UNL     1      39.268  45.851  19.999 +0.00 +0.00    +0.000 G0 ENDBRANCH  30  31ENDBRANCH  28  30ENDBRANCH  27  28ENDBRANCH  26  27BRANCH  26  33ATOM     33  N   UNL     1      38.605  46.363  16.217 -0.16 +0.11    -0.346 N  ATOM     34  C   UNL     1      38.663  47.247  15.158 -0.34 -0.09    +0.251 C  ATOM     35  H   UNL     1      37.752  45.826  16.302 +0.11 -0.06    +0.164 HD ATOM     36  O   UNL     1      39.436  48.194  15.102 -0.35 +0.10    -0.269 OA BRANCH  34  37ATOM     37  C   UNL     1      37.694  47.017  14.049 -0.45 -0.02    +0.042 A  ATOM     38  C   UNL     1      37.056  48.128  13.496 -0.56 -0.02    +0.034 A  ATOM     39  C   UNL     1      37.417  45.746  13.546 -0.43 -0.01    +0.034 A  ATOM     40  C   UNL     1      36.146  47.919  12.479 -0.52 -0.06    +0.112 A  ATOM     41  C   UNL     1      36.490  45.642  12.523 -0.48 -0.04    +0.112 A  ATOM     42  N   UNL     1      35.845  46.698  11.984 -0.45 +0.15    -0.265 NA ENDBRANCH  34  37ENDBRANCH  26  33ENDBRANCH  23  26ENDBRANCH   3  23TORSDOF 8TERENDMDL