MODEL        4USER    Run = 4USERUSER    Estimated Free Energy of Binding    =  -7.99 kcal/mol  [=(1)+(2)+(3)-(4)]USERUSER    (1) Final Intermolecular Energy     =  -9.18 kcal/molUSER        vdW + Hbond + desolv Energy     =  -9.08 kcal/molUSER        Electrostatic Energy            =  -0.10 kcal/molUSER        Moving Ligand-Fixed Receptor    =  -9.18 kcal/molUSER        Moving Ligand-Moving Receptor   =  +0.00 kcal/molUSER    (2) Final Total Internal Energy     =  -0.55 kcal/molUSER    (3) Torsional Free Energy           =  +1.19 kcal/molUSER    (4) Unbound System's Energy         =  -0.55 kcal/molUSERUSERREMARK SMILES CN(C)c1ccc(-c2ccc(-c3ccnc(N)n3)cc2)cc1REMARK SMILES IDX 8 1 9 2 10 3 11 4 19 5 20 6 7 7 4 8 5 9 22 10 6 11 21 12REMARK SMILES IDX 2 13 1 14 3 15 12 16 13 17 18 18 14 19 16 20 15 21 17 22REMARK H PARENT 17 23 17 24USER                              x       y       z     vdW  Elec       q    TypeUSER                           _______ _______ _______ _____ _____    ______ ____ROOTATOM      1  C   UNL     1      36.134  44.701  17.137 -0.31 +0.01    -0.018 A  ATOM      2  C   UNL     1      37.208  44.692  18.037 -0.34 -0.00    +0.009 A  ATOM      3  C   UNL     1      38.277  45.587  17.896 -0.38 -0.00    +0.011 A  ATOM      4  C   UNL     1      38.316  46.530  16.855 -0.39 -0.00    +0.000 A  ATOM      5  C   UNL     1      37.240  46.528  15.950 -0.38 -0.01    +0.011 A  ATOM      6  C   UNL     1      36.170  45.633  16.090 -0.35 -0.01    +0.009 A  ENDROOTBRANCH   1   7ATOM      7  C   UNL     1      35.012  43.761  17.281 -0.31 +0.01    -0.018 A  ATOM      8  C   UNL     1      32.811  41.923  17.572 -0.34 -0.01    +0.036 A  ATOM      9  C   UNL     1      32.783  42.986  16.655 -0.31 -0.01    +0.026 A  ATOM     10  C   UNL     1      33.992  41.802  18.322 -0.39 -0.01    +0.026 A  ATOM     11  C   UNL     1      33.851  43.887  16.512 -0.32 -0.01    +0.011 A  ATOM     12  C   UNL     1      35.064  42.699  18.188 -0.38 -0.00    +0.011 A  BRANCH   8  13ATOM     13  N   UNL     1      31.749  41.017  17.696 -0.13 +0.09    -0.378 N  ATOM     14  C   UNL     1      32.042  39.631  18.054 -0.42 -0.01    +0.143 C  ATOM     15  C   UNL     1      30.549  41.219  16.885 -0.30 -0.04    +0.143 C  ENDBRANCH   8  13ENDBRANCH   1   7BRANCH   4  16ATOM     16  C   UNL     1      39.451  47.469  16.728 -0.40 -0.02    +0.076 A  ATOM     17  C   UNL     1      39.492  48.477  15.784 -0.49 -0.02    +0.049 A  ATOM     18  N   UNL     1      40.462  47.289  17.611 -0.36 +0.03    -0.213 NA ATOM     19  C   UNL     1      40.615  49.267  15.788 -0.52 -0.03    +0.117 A  ATOM     20  C   UNL     1      41.502  48.121  17.538 -0.28 -0.01    +0.220 A  ATOM     21  N   UNL     1      41.636  49.102  16.646 -0.90 -0.03    -0.222 NA BRANCH  20  22ATOM     22  N   UNL     1      42.541  47.920  18.424 -0.30 -0.00    -0.368 N  ATOM     23  H   UNL     1      42.791  48.799  18.853 -0.27 -0.01    +0.159 HD ATOM     24  H   UNL     1      43.276  47.400  17.966 -0.49 -0.01    +0.159 HD ENDBRANCH  20  22ENDBRANCH   4  16TORSDOF 4TERENDMDL