MODEL        10USER    Run = 10USERUSER    Estimated Free Energy of Binding    =  -9.80 kcal/mol  [=(1)+(2)+(3)-(4)]USERUSER    (1) Final Intermolecular Energy     = -13.97 kcal/molUSER        vdW + Hbond + desolv Energy     = -14.30 kcal/molUSER        Electrostatic Energy            =  +0.12 kcal/molUSER        Moving Ligand-Fixed Receptor    = -14.18 kcal/molUSER        Moving Ligand-Moving Receptor   =  +0.21 kcal/molUSER    (2) Final Total Internal Energy     =  -3.40 kcal/molUSER    (3) Torsional Free Energy           =  +4.18 kcal/molUSER    (4) Unbound System's Energy         =  -3.40 kcal/molUSERUSERREMARK SMILES COc1ccc(O)c(C(=O)c2ccc(C(=O)N[C@@H]3CCCNC[C@@H]3NC(=O)c3cnc4ccccc4n3)cc2)c1FREMARK SMILES IDX 18 1 17 3 15 4 16 5 14 7 11 8 12 9 39 10 13 11 38 12 9 13REMARK SMILES IDX 10 14 8 15 3 16 4 17 40 18 5 19 6 20 41 21 2 22 1 23 7 24REMARK SMILES IDX 24 26 23 27 22 28 21 30 20 31 19 32 25 34 26 35 27 37 28 38REMARK SMILES IDX 29 39 37 40 30 41 36 42 31 43 35 44 32 45 34 46 33 47REMARK H PARENT 17 6 7 25 22 29 25 36REMARK Flexibility Score:  100.900USER                              x       y       z     vdW  Elec       q    TypeUSER                           _______ _______ _______ _____ _____    ______ ____ROOTATOM      1  C   UNL     1      36.352  45.899  14.631 -0.38 -0.06    +0.106 CG0ATOM      2  G   UNL     1      37.180  45.187  13.545 +0.00 +0.00    +0.000 G0 ENDROOTBRANCH   1   3ATOM      3  N   UNL     1      36.599  45.260  15.929 -0.10 +0.16    -0.347 N  ATOM      4  C   UNL     1      35.955  45.642  17.080 -0.23 -0.14    +0.251 C  ATOM      5  O   UNL     1      35.158  46.572  17.136 -0.30 +0.29    -0.269 OA ATOM      6  H   UNL     1      37.313  44.542  15.943 +0.11 -0.05    +0.164 HD BRANCH   4   7ATOM      7  C   UNL     1      36.302  44.883  18.311 -0.31 -0.01    +0.039 A  ATOM      8  C   UNL     1      36.863  43.426  20.642 -0.40 -0.00    +0.023 A  ATOM      9  C   UNL     1      35.535  43.671  20.272 -0.39 -0.00    +0.013 A  ATOM     10  C   UNL     1      37.907  43.925  19.853 -0.30 -0.00    +0.013 A  ATOM     11  C   UNL     1      35.259  44.385  19.102 -0.37 -0.00    +0.014 A  ATOM     12  C   UNL     1      37.631  44.645  18.686 -0.36 -0.00    +0.014 A  BRANCH   8  13ATOM     13  C   UNL     1      37.212  42.705  21.892 -0.36 +0.01    +0.199 C  ATOM     14  O   UNL     1      37.629  41.548  21.818 -0.34 -0.02    -0.288 OA BRANCH  13  15ATOM     15  C   UNL     1      37.148  43.323  23.232 -0.30 +0.01    +0.104 A  ATOM     16  C   UNL     1      37.523  45.196  24.748 -0.21 +0.02    +0.155 A  ATOM     17  C   UNL     1      37.025  44.435  25.807 -0.31 -0.00    +0.053 A  ATOM     18  C   UNL     1      37.570  44.633  23.463 -0.20 +0.02    +0.179 A  ATOM     19  C   UNL     1      36.563  43.136  25.580 -0.35 -0.00    +0.051 A  ATOM     20  C   UNL     1      36.611  42.592  24.299 -0.28 +0.01    +0.130 A  ATOM     21  F   UNL     1      38.014  45.385  22.443 -0.12 -0.02    -0.202 F  BRANCH  16  22ATOM     22  O   UNL     1      37.983  46.482  24.842 -0.49 -0.07    -0.494 OA ATOM     23  C   UNL     1      37.482  47.277  25.909 -0.25 +0.00    +0.278 C  ENDBRANCH  16  22BRANCH  20  24ATOM     24  O   UNL     1      36.108  41.326  24.155 -0.11 +0.06    -0.507 OA ATOM     25  H   UNL     1      36.674  40.852  23.503 +0.18 -0.01    +0.293 HD ENDBRANCH  20  24ENDBRANCH  13  15ENDBRANCH   8  13ENDBRANCH   4   7ENDBRANCH   1   3BRANCH   1  26ATOM     26  C   UNL     1      36.595  47.422  14.757 -0.40 -0.09    +0.118 C  BRANCH  26  27ATOM     27  C   UNL     1      36.837  48.135  13.408 -0.57 -0.05    +0.108 C  BRANCH  27  28ATOM     28  N   UNL     1      35.900  47.684  12.374 -0.46 +0.18    -0.315 NA ATOM     29  H   UNL     1      35.029  47.383  12.816 -0.10 -0.09    +0.122 HD BRANCH  28  30ATOM     30  C   UNL     1      36.395  46.595  11.540 -0.57 -0.04    +0.081 C  BRANCH  30  31ATOM     31  C   UNL     1      36.500  45.210  12.179 -0.58 -0.01    +0.017 C  BRANCH  31  32ATOM     32  C   UNL     1      37.178  45.185  13.546 -0.50 -0.01    +0.028 CG0ATOM     33  G   UNL     1      36.351  45.899  14.631 +0.00 +0.00    +0.000 G0 ENDBRANCH  31  32ENDBRANCH  30  31ENDBRANCH  28  30ENDBRANCH  27  28ENDBRANCH  26  27BRANCH  26  34ATOM     34  N   UNL     1      37.704  47.699  15.686 -0.20 +0.23    -0.345 N  ATOM     35  C   UNL     1      39.022  47.645  15.281 -0.35 -0.10    +0.271 C  ATOM     36  H   UNL     1      37.552  47.422  16.655 +0.10 -0.11    +0.164 HD ATOM     37  O   UNL     1      39.381  47.642  14.109 -0.33 +0.06    -0.267 OA BRANCH  35  38ATOM     38  C   UNL     1      40.011  47.576  16.392 -0.40 -0.03    +0.147 A  ATOM     39  C   UNL     1      41.071  48.462  16.431 -0.43 -0.02    +0.146 A  ATOM     40  N   UNL     1      39.821  46.616  17.338 -0.30 +0.04    -0.239 NA ATOM     41  N   UNL     1      41.997  48.430  17.422 -0.50 -0.02    -0.252 NA ATOM     42  C   UNL     1      40.737  46.576  18.326 -0.44 -0.01    +0.090 A  ATOM     43  C   UNL     1      41.828  47.486  18.370 -0.46 -0.00    +0.089 A  ATOM     44  C   UNL     1      40.615  45.624  19.329 -0.42 +0.00    +0.030 A  ATOM     45  C   UNL     1      42.740  47.396  19.414 -0.49 +0.00    +0.030 A  ATOM     46  C   UNL     1      41.540  45.544  20.373 -0.37 +0.00    +0.002 A  ATOM     47  C   UNL     1      42.605  46.434  20.415 -0.36 +0.00    +0.002 A  ENDBRANCH  35  38ENDBRANCH  26  34ENDBRANCH   1  26TORSDOF 8TERENDMDL