REMARK SMILES O=C(NCCCNc1ccc(F)cc1)c1ccc2c(c1)CSc1cc(O)ccc1-2
REMARK SMILES IDX 4 1 3 2 2 3 1 4 15 6 16 7 20 8 17 9 19 10 18 11 21 12 29 13
REMARK SMILES IDX 22 14 28 15 23 16 27 17 24 18 25 19 26 20 5 22 6 23 7 24
REMARK SMILES IDX 8 26 9 27 14 28 10 29 13 30 11 31 12 32
REMARK H PARENT 3 5 26 21 7 25
ROOT
ATOM      1  C   UNL     1       2.167   0.619   0.151  1.00  0.00     0.118 C 
ENDROOT
BRANCH   1   2
ATOM      2  N   UNL     1       0.775   0.214   0.199  1.00  0.00    -0.352 N 
ATOM      3  C   UNL     1      -0.067   0.503  -0.859  1.00  0.00     0.251 C 
ATOM      4  O   UNL     1       0.312   1.017  -1.904  1.00  0.00    -0.269 OA
ATOM      5  H   UNL     1       0.352   0.093   1.109  1.00  0.00     0.163 HD
BRANCH   3   6
ATOM      6  C   UNL     1      -1.509   0.195  -0.656  1.00  0.00     0.040 A 
ATOM      7  C   UNL     1      -1.937  -0.829   0.189  1.00  0.00     0.014 A 
ATOM      8  C   UNL     1      -2.458   0.945  -1.356  1.00  0.00     0.019 A 
ATOM      9  C   UNL     1      -3.305  -1.087   0.339  1.00  0.00     0.010 A 
ATOM     10  C   UNL     1      -3.835   0.700  -1.195  1.00  0.00    -0.029 A 
ATOM     11  C   UNL     1      -4.284  -0.345  -0.354  1.00  0.00    -0.013 A 
ATOM     12  C   UNL     1      -4.816   1.535  -1.979  1.00  0.00     0.111 C 
ATOM     13  C   UNL     1      -5.738  -0.620  -0.191  1.00  0.00    -0.004 A 
ATOM     14  S   UNL     1      -6.250   2.023  -0.982  1.00  0.00    -0.121 SA
ATOM     15  C   UNL     1      -6.212  -1.891   0.195  1.00  0.00     0.014 A 
ATOM     16  C   UNL     1      -6.707   0.388  -0.411  1.00  0.00     0.019 A 
ATOM     17  C   UNL     1      -7.574  -2.137   0.392  1.00  0.00     0.047 A 
ATOM     18  C   UNL     1      -8.073   0.143  -0.199  1.00  0.00     0.061 A 
ATOM     19  C   UNL     1      -8.492  -1.117   0.203  1.00  0.00     0.116 A 
BRANCH  19  20
ATOM     20  O   UNL     1      -9.808  -1.399   0.413  1.00  0.00    -0.508 OA
ATOM     21  H   UNL     1     -10.330  -0.595   0.253  1.00  0.00     0.293 HD
ENDBRANCH  19  20
ENDBRANCH   3   6
ENDBRANCH   1   2
BRANCH   1  22
ATOM     22  C   UNL     1       2.993  -0.104   1.208  1.00  0.00     0.042 C 
BRANCH  22  23
ATOM     23  C   UNL     1       4.462   0.320   1.189  1.00  0.00     0.114 C 
BRANCH  23  24
ATOM     24  N   UNL     1       5.164  -0.296   0.068  1.00  0.00    -0.385 N 
ATOM     25  H   UNL     1       4.634  -0.306  -0.802  1.00  0.00     0.160 HD
BRANCH  24  26
ATOM     26  C   UNL     1       6.509   0.013  -0.165  1.00  0.00     0.034 A 
ATOM     27  C   UNL     1       7.368   0.535   0.811  1.00  0.00     0.029 A 
ATOM     28  C   UNL     1       7.067  -0.343  -1.405  1.00  0.00     0.029 A 
ATOM     29  C   UNL     1       8.723   0.756   0.538  1.00  0.00     0.041 A 
ATOM     30  C   UNL     1       8.419  -0.126  -1.684  1.00  0.00     0.041 A 
ATOM     31  C   UNL     1       9.234   0.428  -0.709  1.00  0.00     0.123 A 
ATOM     32  F   UNL     1      10.531   0.637  -0.968  1.00  0.00    -0.207 F 
ENDBRANCH  24  26
ENDBRANCH  23  24
ENDBRANCH  22  23
ENDBRANCH   1  22
TORSDOF 7
