MODEL        5USER    Run = 5USERUSER    Estimated Free Energy of Binding    =  -9.29 kcal/mol  [=(1)+(2)+(3)-(4)]USERUSER    (1) Final Intermolecular Energy     = -11.38 kcal/molUSER        vdW + Hbond + desolv Energy     = -11.21 kcal/molUSER        Electrostatic Energy            =  -0.17 kcal/molUSER        Moving Ligand-Fixed Receptor    = -11.38 kcal/molUSER        Moving Ligand-Moving Receptor   =  +0.00 kcal/molUSER    (2) Final Total Internal Energy     =  -1.38 kcal/molUSER    (3) Torsional Free Energy           =  +2.09 kcal/molUSER    (4) Unbound System's Energy         =  -1.38 kcal/molUSERUSERREMARK SMILES O=C(NCCCNc1ccc(F)cc1)c1ccc2c(c1)CSc1cc(O)ccc1-2REMARK SMILES IDX 4 1 3 2 2 3 1 4 15 6 16 7 20 8 17 9 19 10 18 11 21 12 29 13REMARK SMILES IDX 22 14 28 15 23 16 27 17 24 18 25 19 26 20 5 22 6 23 7 24REMARK SMILES IDX 8 26 9 27 14 28 10 29 13 30 11 31 12 32REMARK H PARENT 3 5 26 21 7 25USER                              x       y       z     vdW  Elec       q    TypeUSER                           _______ _______ _______ _____ _____    ______ ____ROOTATOM      1  C   UNL     1      34.023  42.132  19.086 -0.38 -0.01    +0.118 C  ENDROOTBRANCH   1   2ATOM      2  N   UNL     1      34.910  43.201  18.667 -0.11 +0.07    -0.352 N  ATOM      3  C   UNL     1      35.464  43.184  17.400 -0.25 -0.08    +0.251 C  ATOM      4  O   UNL     1      35.182  42.349  16.550 -0.37 +0.12    -0.269 OA ATOM      5  H   UNL     1      35.410  43.705  19.385 +0.12 -0.02    +0.163 HD BRANCH   3   6ATOM      6  C   UNL     1      36.484  44.230  17.114 -0.31 -0.01    +0.040 A  ATOM      7  C   UNL     1      37.714  44.266  17.770 -0.27 -0.00    +0.014 A  ATOM      8  C   UNL     1      36.183  45.217  16.172 -0.33 -0.01    +0.019 A  ATOM      9  C   UNL     1      38.636  45.276  17.474 -0.37 -0.00    +0.010 A  ATOM     10  C   UNL     1      37.114  46.225  15.858 -0.35 +0.02    -0.029 A  ATOM     11  C   UNL     1      38.359  46.284  16.527 -0.39 +0.00    -0.013 A  ATOM     12  C   UNL     1      36.736  47.270  14.839 -0.41 -0.08    +0.111 C  ATOM     13  C   UNL     1      39.343  47.356  16.212 -0.48 +0.00    -0.004 A  ATOM     14  S   UNL     1      38.103  47.655  13.712 -0.68 +0.04    -0.121 SA ATOM     15  C   UNL     1      40.322  47.760  17.143 -0.47 -0.00    +0.014 A  ATOM     16  C   UNL     1      39.340  48.012  14.957 -0.52 -0.01    +0.019 A  ATOM     17  C   UNL     1      41.274  48.735  16.831 -0.37 -0.00    +0.047 A  ATOM     18  C   UNL     1      40.306  48.980  14.640 -0.48 -0.02    +0.061 A  ATOM     19  C   UNL     1      41.265  49.330  15.580 -0.51 -0.01    +0.116 A  BRANCH  19  20ATOM     20  O   UNL     1      42.215  50.269  15.316 -0.52 +0.00    -0.508 OA ATOM     21  H   UNL     1      42.002  51.078  15.811 -0.25 -0.06    +0.293 HD ENDBRANCH  19  20ENDBRANCH   3   6ENDBRANCH   1   2BRANCH   1  22ATOM     22  C   UNL     1      32.566  42.576  19.060 -0.41 -0.00    +0.042 C  BRANCH  22  23ATOM     23  C   UNL     1      31.882  42.254  17.731 -0.30 -0.03    +0.114 C  BRANCH  23  24ATOM     24  N   UNL     1      32.654  42.781  16.611 -0.08 +0.18    -0.385 N  ATOM     25  H   UNL     1      33.041  42.066  15.997 -0.50 -0.12    +0.160 HD BRANCH  24  26ATOM     26  C   UNL     1      32.160  43.863  15.874 -0.32 -0.02    +0.034 A  ATOM     27  C   UNL     1      32.963  44.901  15.381 -0.30 -0.02    +0.029 A  ATOM     28  C   UNL     1      30.808  43.844  15.490 -0.32 -0.02    +0.029 A  ATOM     29  C   UNL     1      32.421  45.919  14.588 -0.32 -0.04    +0.041 A  ATOM     30  C   UNL     1      30.261  44.857  14.698 -0.29 -0.03    +0.041 A  ATOM     31  C   UNL     1      31.074  45.890  14.259 -0.46 -0.08    +0.123 A  ATOM     32  F   UNL     1      30.558  46.863  13.497 -0.20 +0.09    -0.207 F  ENDBRANCH  24  26ENDBRANCH  23  24ENDBRANCH  22  23ENDBRANCH   1  22TORSDOF 7TERENDMDL