REMARK SMILES Nc1ncnc2c1ncn2[C@H]1CC[C@@H](O)C[C@@H]1NCc1ccc(F)cc1
REMARK SMILES IDX 11 1 12 2 13 3 14 4 16 5 17 6 10 7 2 8 3 9 7 10 4 11 6 12
REMARK SMILES IDX 8 13 5 14 9 15 1 16 18 19 19 21 20 22 21 23 26 24 22 25
REMARK SMILES IDX 25 26 23 27 24 28 15 29
REMARK H PARENT 1 17 1 18 18 20 15 30
ROOT
ATOM      1  C   UNL     1      -1.288   1.173   0.186  1.00  0.00     0.107 C 
ATOM      2  C   UNL     1      -2.232   2.193   0.860  1.00  0.00     0.030 C 
ATOM      3  C   UNL     1      -1.569   3.538   1.158  1.00  0.00     0.034 C 
ATOM      4  C   UNL     1      -0.483   3.866   0.144  1.00  0.00     0.116 C 
ATOM      5  C   UNL     1       0.647   2.830   0.151  1.00  0.00     0.052 C 
ATOM      6  C   UNL     1       0.193   1.421   0.590  1.00  0.00     0.079 C 
ENDROOT
BRANCH   1   7
ATOM      7  N   UNL     1      -1.761  -0.185   0.429  1.00  0.00    -0.310 N 
ATOM      8  C   UNL     1      -3.494  -3.093  -0.465  1.00  0.00     0.155 A 
ATOM      9  N   UNL     1      -3.978  -2.786  -1.690  1.00  0.00    -0.217 NA
ATOM     10  C   UNL     1      -2.735  -2.129   0.219  1.00  0.00     0.150 A 
ATOM     11  C   UNL     1      -3.683  -1.573  -2.208  1.00  0.00     0.226 A 
ATOM     12  C   UNL     1      -2.517  -0.929  -0.438  1.00  0.00     0.165 A 
ATOM     13  N   UNL     1      -2.152  -2.118   1.470  1.00  0.00    -0.231 NA
ATOM     14  N   UNL     1      -2.963  -0.576  -1.655  1.00  0.00    -0.217 NA
ATOM     15  C   UNL     1      -1.570  -0.940   1.557  1.00  0.00     0.202 A 
BRANCH   8  16
ATOM     16  N   UNL     1      -3.796  -4.341   0.066  1.00  0.00    -0.382 N 
ATOM     17  H   UNL     1      -4.621  -4.745  -0.356  1.00  0.00     0.158 HD
ATOM     18  H   UNL     1      -3.711  -4.378   1.076  1.00  0.00     0.158 HD
ENDBRANCH   8  16
ENDBRANCH   1   7
BRANCH   6  19
ATOM     19  N   UNL     1       1.079   0.380   0.052  1.00  0.00    -0.308 NA
ATOM     20  H   UNL     1       1.171   0.456  -0.962  1.00  0.00     0.123 HD
BRANCH  19  21
ATOM     21  C   UNL     1       2.407   0.356   0.658  1.00  0.00     0.117 C 
BRANCH  21  22
ATOM     22  C   UNL     1       3.216  -0.804   0.123  1.00  0.00    -0.034 A 
ATOM     23  C   UNL     1       4.438  -0.584  -0.531  1.00  0.00     0.008 A 
ATOM     24  C   UNL     1       2.758  -2.124   0.285  1.00  0.00     0.008 A 
ATOM     25  C   UNL     1       5.184  -1.660  -1.015  1.00  0.00     0.039 A 
ATOM     26  C   UNL     1       3.504  -3.198  -0.201  1.00  0.00     0.039 A 
ATOM     27  C   UNL     1       4.710  -2.956  -0.846  1.00  0.00     0.123 A 
ATOM     28  F   UNL     1       5.429  -3.986  -1.312  1.00  0.00    -0.207 F 
ENDBRANCH  21  22
ENDBRANCH  19  21
ENDBRANCH   6  19
BRANCH   4  29
ATOM     29  O   UNL     1       0.051   5.159   0.395  1.00  0.00    -0.393 OA
ATOM     30  H   UNL     1       0.367   5.194   1.314  1.00  0.00     0.210 HD
ENDBRANCH   4  29
TORSDOF 6
