REMARK SMILES Nc1ncnc2c1ncn2[C@H]1CC[C@@H](O)C[C@@H]1NCc1ccc(O)cc1
REMARK SMILES IDX 18 1 17 3 11 4 12 5 13 6 16 7 14 8 10 9 2 10 3 11 7 12 4 13
REMARK SMILES IDX 6 14 8 15 5 16 9 17 1 18 15 21 19 23 20 24 21 25 26 26 22 27
REMARK SMILES IDX 25 28 23 29 24 30
REMARK H PARENT 18 2 1 19 1 20 15 22 24 31
ROOT
ATOM      1  N   UNL     1       1.168  -0.753  -0.556  1.00  0.00    -0.308 NA
ATOM      2  H   UNL     1       0.931   0.138  -0.997  1.00  0.00     0.123 HD
ENDROOT
BRANCH   1   3
ATOM      3  C   UNL     1       0.091  -1.735  -0.800  1.00  0.00     0.079 C 
ATOM      4  C   UNL     1      -1.316  -1.341  -0.260  1.00  0.00     0.107 C 
ATOM      5  C   UNL     1      -2.372  -2.412  -0.582  1.00  0.00     0.030 C 
ATOM      6  C   UNL     1      -1.942  -3.794  -0.090  1.00  0.00     0.034 C 
ATOM      7  C   UNL     1       0.489  -3.143  -0.311  1.00  0.00     0.052 C 
ATOM      8  C   UNL     1      -0.575  -4.191  -0.642  1.00  0.00     0.116 C 
BRANCH   4   9
ATOM      9  N   UNL     1      -1.751  -0.030  -0.724  1.00  0.00    -0.310 N 
ATOM     10  C   UNL     1      -2.743   3.293  -0.244  1.00  0.00     0.155 A 
ATOM     11  N   UNL     1      -2.700   3.424   1.101  1.00  0.00    -0.217 NA
ATOM     12  C   UNL     1      -2.393   2.055  -0.810  1.00  0.00     0.150 A 
ATOM     13  C   UNL     1      -2.348   2.348   1.839  1.00  0.00     0.226 A 
ATOM     14  C   UNL     1      -2.044   1.045   0.072  1.00  0.00     0.165 A 
ATOM     15  N   UNL     1      -2.307   1.619  -2.116  1.00  0.00    -0.231 NA
ATOM     16  N   UNL     1      -1.998   1.118   1.413  1.00  0.00    -0.217 NA
ATOM     17  C   UNL     1      -1.925   0.362  -2.026  1.00  0.00     0.202 A 
BRANCH  10  18
ATOM     18  N   UNL     1      -3.110   4.399  -1.000  1.00  0.00    -0.382 N 
ATOM     19  H   UNL     1      -2.796   4.347  -1.963  1.00  0.00     0.158 HD
ATOM     20  H   UNL     1      -2.961   5.266  -0.503  1.00  0.00     0.158 HD
ENDBRANCH  10  18
ENDBRANCH   4   9
BRANCH   8  21
ATOM     21  O   UNL     1      -0.665  -4.324  -2.057  1.00  0.00    -0.393 OA
ATOM     22  H   UNL     1      -1.210  -5.109  -2.245  1.00  0.00     0.210 HD
ENDBRANCH   8  21
ENDBRANCH   1   3
BRANCH   1  23
ATOM     23  C   UNL     1       1.496  -0.497   0.845  1.00  0.00     0.117 C 
BRANCH  23  24
ATOM     24  C   UNL     1       2.454   0.666   0.952  1.00  0.00    -0.034 A 
ATOM     25  C   UNL     1       1.987   1.945   1.290  1.00  0.00     0.009 A 
ATOM     26  C   UNL     1       3.819   0.492   0.676  1.00  0.00     0.009 A 
ATOM     27  C   UNL     1       2.871   3.022   1.370  1.00  0.00     0.046 A 
ATOM     28  C   UNL     1       4.704   1.570   0.754  1.00  0.00     0.046 A 
ATOM     29  C   UNL     1       4.220   2.826   1.104  1.00  0.00     0.115 A 
BRANCH  29  30
ATOM     30  O   UNL     1       5.048   3.906   1.191  1.00  0.00    -0.508 OA
ATOM     31  H   UNL     1       5.947   3.623   0.959  1.00  0.00     0.293 HD
ENDBRANCH  29  30
ENDBRANCH  23  24
ENDBRANCH   1  23
TORSDOF 7
