REMARK SMILES O=C(O)c1cccc(O)c1C(=O)c1ccc(O)c(N2CCOCC2)c1
REMARK SMILES IDX 4 1 5 2 6 3 7 4 8 5 10 6 2 7 1 8 3 9 11 11 12 12 13 13 14 14
REMARK SMILES IDX 25 15 15 16 18 17 16 18 19 19 20 20 24 21 21 22 23 23 22 24
REMARK SMILES IDX 17 25 9 27
REMARK H PARENT 3 10 17 26 9 28
ROOT
ATOM      1  C   UNL     1      -3.606   0.079  -0.920  1.00  0.00     0.074 A 
ATOM      2  C   UNL     1      -4.974  -0.227  -1.010  1.00  0.00     0.017 A 
ATOM      3  C   UNL     1      -5.915   0.550  -0.334  1.00  0.00     0.005 A 
ATOM      4  C   UNL     1      -5.497   1.642   0.422  1.00  0.00     0.047 A 
ATOM      5  C   UNL     1      -4.139   1.940   0.521  1.00  0.00     0.127 A 
ATOM      6  C   UNL     1      -3.174   1.141  -0.112  1.00  0.00     0.079 A 
ENDROOT
BRANCH   1   7
ATOM      7  C   UNL     1      -2.699  -0.750  -1.732  1.00  0.00     0.336 C 
ATOM      8  O   UNL     1      -2.771  -1.956  -1.867  1.00  0.00    -0.246 OA
BRANCH   7   9
ATOM      9  O   UNL     1      -1.801   0.002  -2.385  1.00  0.00    -0.478 OA
ATOM     10  H   UNL     1      -1.255  -0.631  -2.900  1.00  0.00     0.297 HD
ENDBRANCH   7   9
ENDBRANCH   1   7
BRANCH   6  11
ATOM     11  C   UNL     1      -1.748   1.456   0.145  1.00  0.00     0.197 C 
ATOM     12  O   UNL     1      -1.419   2.640   0.207  1.00  0.00    -0.288 OA
BRANCH  11  13
ATOM     13  C   UNL     1      -0.745   0.404   0.437  1.00  0.00     0.025 A 
ATOM     14  C   UNL     1      -1.077  -0.743   1.159  1.00  0.00     0.016 A 
ATOM     15  C   UNL     1       0.569   0.597  -0.007  1.00  0.00     0.042 A 
ATOM     16  C   UNL     1      -0.099  -1.704   1.411  1.00  0.00     0.049 A 
ATOM     17  C   UNL     1       1.570  -0.365   0.217  1.00  0.00     0.080 A 
ATOM     18  C   UNL     1       1.209  -1.515   0.946  1.00  0.00     0.138 A 
BRANCH  17  19
ATOM     19  N   UNL     1       2.852  -0.082  -0.284  1.00  0.00    -0.364 N 
ATOM     20  C   UNL     1       3.686  -1.194  -0.790  1.00  0.00     0.145 C 
ATOM     21  C   UNL     1       3.588   0.865   0.588  1.00  0.00     0.145 C 
ATOM     22  C   UNL     1       4.904  -1.439   0.114  1.00  0.00     0.181 C 
ATOM     23  C   UNL     1       5.056   0.956   0.142  1.00  0.00     0.181 C 
ATOM     24  O   UNL     1       5.765  -0.291   0.232  1.00  0.00    -0.378 OA
ENDBRANCH  17  19
BRANCH  18  25
ATOM     25  O   UNL     1       2.151  -2.462   1.252  1.00  0.00    -0.506 OA
ATOM     26  H   UNL     1       1.738  -3.158   1.789  1.00  0.00     0.293 HD
ENDBRANCH  18  25
ENDBRANCH  11  13
ENDBRANCH   6  11
BRANCH   5  27
ATOM     27  O   UNL     1      -3.814   3.041   1.271  1.00  0.00    -0.507 OA
ATOM     28  H   UNL     1      -2.887   3.290   1.054  1.00  0.00     0.293 HD
ENDBRANCH   5  27
TORSDOF 7
