MODEL        9USER    Run = 9USERUSER    Estimated Free Energy of Binding    =  -9.44 kcal/mol  [=(1)+(2)+(3)-(4)]USERUSER    (1) Final Intermolecular Energy     = -11.53 kcal/molUSER        vdW + Hbond + desolv Energy     = -11.32 kcal/molUSER        Electrostatic Energy            =  -0.20 kcal/molUSER        Moving Ligand-Fixed Receptor    = -11.53 kcal/molUSER        Moving Ligand-Moving Receptor   =  +0.00 kcal/molUSER    (2) Final Total Internal Energy     =  -1.96 kcal/molUSER    (3) Torsional Free Energy           =  +2.09 kcal/molUSER    (4) Unbound System's Energy         =  -1.96 kcal/molUSERUSERREMARK SMILES Nc1ncnc2c1ncn2[C@H]1CC[C@@H](O)C[C@@H]1NCc1ccc(O)cc1REMARK SMILES IDX 18 1 17 3 11 4 12 5 13 6 16 7 14 8 10 9 2 10 3 11 7 12 4 13REMARK SMILES IDX 6 14 8 15 5 16 9 17 1 18 15 21 19 23 20 24 21 25 26 26 22 27REMARK SMILES IDX 25 28 23 29 24 30REMARK H PARENT 18 2 1 19 1 20 15 22 24 31USER                              x       y       z     vdW  Elec       q    TypeUSER                           _______ _______ _______ _____ _____    ______ ____ROOTATOM      1  N   UNL     1      38.351  45.091  15.204 -0.09 +0.08    -0.308 NA ATOM      2  H   UNL     1      38.700  45.412  16.110 +0.08 -0.03    +0.123 HD ENDROOTBRANCH   1   3ATOM      3  C   UNL     1      38.074  46.253  14.334 -0.43 -0.03    +0.079 C  ATOM      4  C   UNL     1      38.139  47.646  15.029 -0.47 -0.05    +0.107 C  ATOM      5  C   UNL     1      37.861  48.791  14.040 -0.41 -0.02    +0.030 C  ATOM      6  C   UNL     1      36.540  48.587  13.298 -0.44 -0.02    +0.034 C  ATOM      7  C   UNL     1      36.744  46.084  13.572 -0.51 -0.02    +0.052 C  ATOM      8  C   UNL     1      36.489  47.233  12.594 -0.65 -0.05    +0.116 C  BRANCH   4   9ATOM      9  N   UNL     1      39.394  47.867  15.735 -0.26 +0.11    -0.310 N  ATOM     10  C   UNL     1      41.685  47.266  18.313 -0.41 -0.01    +0.155 A  ATOM     11  N   UNL     1      41.062  46.319  19.050 -0.32 -0.00    -0.217 NA ATOM     12  C   UNL     1      41.041  47.756  17.164 -0.41 -0.02    +0.150 A  ATOM     13  C   UNL     1      39.834  45.909  18.660 -0.29 -0.02    +0.226 A  ATOM     14  C   UNL     1      39.788  47.234  16.884 -0.36 -0.04    +0.165 A  ATOM     15  N   UNL     1      41.415  48.678  16.208 -0.85 +0.00    -0.231 NA ATOM     16  N   UNL     1      39.120  46.305  17.588 -0.29 +0.05    -0.217 NA ATOM     17  C   UNL     1      40.400  48.723  15.370 -0.42 -0.05    +0.202 A  BRANCH  10  18ATOM     18  N   UNL     1      42.944  47.690  18.719 -0.32 -0.02    -0.382 N  ATOM     19  H   UNL     1      42.932  48.592  19.183 -0.43 -0.02    +0.158 HD ATOM     20  H   UNL     1      43.645  47.537  18.007 -0.39 +0.00    +0.158 HD ENDBRANCH  10  18ENDBRANCH   4   9BRANCH   8  21ATOM     21  O   UNL     1      37.484  47.200  11.576 -0.84 +0.07    -0.393 OA ATOM     22  H   UNL     1      37.204  47.811  10.871 -0.22 -0.08    +0.210 HD ENDBRANCH   8  21ENDBRANCH   1   3BRANCH   1  23ATOM     23  C   UNL     1      37.227  44.187  15.442 -0.19 -0.04    +0.117 C  BRANCH  23  24ATOM     24  C   UNL     1      36.246  44.816  16.403 -0.31 +0.01    -0.034 A  ATOM     25  C   UNL     1      36.540  44.893  17.772 -0.33 -0.00    +0.009 A  ATOM     26  C   UNL     1      35.009  45.297  15.945 -0.32 -0.01    +0.009 A  ATOM     27  C   UNL     1      35.624  45.458  18.661 -0.15 -0.02    +0.046 A  ATOM     28  C   UNL     1      34.092  45.860  16.835 -0.20 -0.05    +0.046 A  ATOM     29  C   UNL     1      34.411  45.938  18.186 -0.39 -0.07    +0.115 A  BRANCH  29  30ATOM     30  O   UNL     1      33.544  46.479  19.090 -0.44 +0.30    -0.508 OA ATOM     31  H   UNL     1      33.391  45.829  19.795 -0.26 -0.18    +0.293 HD ENDBRANCH  29  30ENDBRANCH  23  24ENDBRANCH   1  23TORSDOF 7TERENDMDL