MODEL        8USER    Run = 8USERUSER    Estimated Free Energy of Binding    = -11.58 kcal/mol  [=(1)+(2)+(3)-(4)]USERUSER    (1) Final Intermolecular Energy     = -13.67 kcal/molUSER        vdW + Hbond + desolv Energy     = -13.57 kcal/molUSER        Electrostatic Energy            =  -0.10 kcal/molUSER        Moving Ligand-Fixed Receptor    = -13.67 kcal/molUSER        Moving Ligand-Moving Receptor   =  +0.00 kcal/molUSER    (2) Final Total Internal Energy     =  -1.53 kcal/molUSER    (3) Torsional Free Energy           =  +2.09 kcal/molUSER    (4) Unbound System's Energy         =  -1.53 kcal/molUSERUSERREMARK SMILES Oc1ccc(-c2nc3ccccc3nc2-c2ccc(CN3CCC(n4c(O)nc5ccccc54)CC3)cc2)cc1REMARK SMILES IDX 16 1 17 2 18 3 19 4 37 5 38 6 15 7 6 8 7 9 8 10 14 11 9 12REMARK SMILES IDX 13 13 10 14 12 15 11 16 5 17 2 18 3 19 40 20 4 21 39 22 1 23REMARK SMILES IDX 20 25 21 26 22 27 36 28 23 29 35 30 24 31 25 32 26 33 34 34REMARK SMILES IDX 28 35 33 36 29 37 32 38 30 39 31 40 27 41REMARK H PARENT 1 24 27 42USER                              x       y       z     vdW  Elec       q    TypeUSER                           _______ _______ _______ _____ _____    ______ ____ROOTATOM      1  C   UNL     1      39.216  45.145  19.243 -0.40 -0.00    +0.002 A  ATOM      2  C   UNL     1      40.420  44.759  19.856 -0.39 +0.00    +0.011 A  ATOM      3  C   UNL     1      40.426  44.000  21.033 -0.26 +0.00    +0.006 A  ATOM      4  C   UNL     1      39.225  43.633  21.651 -0.19 -0.00    -0.034 A  ATOM      5  C   UNL     1      38.018  44.028  21.062 -0.36 +0.00    +0.006 A  ATOM      6  C   UNL     1      38.016  44.770  19.878 -0.34 -0.00    +0.011 A  ENDROOTBRANCH   1   7ATOM      7  C   UNL     1      39.180  45.938  17.997 -0.36 -0.02    +0.097 A  ATOM      8  C   UNL     1      38.262  45.774  16.948 -0.32 -0.03    +0.097 A  ATOM      9  N   UNL     1      38.348  46.525  15.812 -0.22 +0.09    -0.244 NA ATOM     10  C   UNL     1      39.318  47.454  15.750 -0.43 -0.03    +0.089 A  ATOM     11  N   UNL     1      40.160  46.885  17.926 -0.31 +0.03    -0.244 NA ATOM     12  C   UNL     1      39.428  48.257  14.621 -0.51 -0.01    +0.030 A  ATOM     13  C   UNL     1      40.227  47.637  16.814 -0.45 -0.02    +0.089 A  ATOM     14  C   UNL     1      40.416  49.237  14.520 -0.45 -0.00    +0.002 A  ATOM     15  C   UNL     1      41.209  48.616  16.704 -0.45 -0.00    +0.030 A  ATOM     16  C   UNL     1      41.311  49.417  15.567 -0.62 -0.00    +0.002 A  BRANCH   8  17ATOM     17  C   UNL     1      37.126  44.836  16.943 -0.34 -0.00    +0.003 A  ATOM     18  C   UNL     1      34.938  43.072  16.958 -0.31 -0.04    +0.115 A  ATOM     19  C   UNL     1      36.084  42.740  16.250 -0.37 -0.02    +0.047 A  ATOM     20  C   UNL     1      34.862  44.263  17.671 -0.27 -0.02    +0.047 A  ATOM     21  C   UNL     1      37.174  43.615  16.246 -0.26 -0.00    +0.014 A  ATOM     22  C   UNL     1      35.955  45.136  17.666 -0.33 -0.01    +0.014 A  BRANCH  18  23ATOM     23  O   UNL     1      33.897  42.191  16.936 -0.12 +0.24    -0.508 OA ATOM     24  H   UNL     1      33.910  41.718  16.086 -0.37 -0.21    +0.293 HD ENDBRANCH  18  23ENDBRANCH   8  17ENDBRANCH   1   7BRANCH   4  25ATOM     25  C   UNL     1      39.238  42.826  22.932 -0.26 +0.01    +0.120 C  BRANCH  25  26ATOM     26  N   UNL     1      39.103  43.651  24.142 -0.07 -0.01    -0.299 NA ATOM     27  C   UNL     1      39.337  42.879  25.374 -0.21 +0.00    +0.087 C  ATOM     28  C   UNL     1      37.855  44.423  24.150 -0.30 +0.01    +0.087 C  ATOM     29  C   UNL     1      38.505  43.360  26.562 -0.25 -0.00    +0.041 C  ATOM     30  C   UNL     1      36.686  43.683  24.791 -0.34 +0.00    +0.041 C  ATOM     31  C   UNL     1      37.011  43.240  26.229 -0.34 -0.01    +0.095 C  BRANCH  31  32ATOM     32  N   UNL     1      36.164  43.877  27.229 -0.23 +0.06    -0.291 N  ATOM     33  C   UNL     1      35.228  43.265  28.012 -0.27 -0.09    +0.295 A  ATOM     34  C   UNL     1      36.180  45.211  27.590 -0.23 -0.02    +0.072 A  ATOM     35  N   UNL     1      34.642  44.076  28.848 -0.51 +0.06    -0.195 NA ATOM     36  C   UNL     1      36.916  46.324  27.158 -0.32 -0.01    +0.029 A  ATOM     37  C   UNL     1      35.220  45.297  28.600 -0.29 -0.03    +0.092 A  ATOM     38  C   UNL     1      36.644  47.549  27.775 -0.33 -0.00    +0.002 A  ATOM     39  C   UNL     1      34.966  46.535  29.210 -0.35 -0.01    +0.031 A  ATOM     40  C   UNL     1      35.690  47.656  28.788 -0.38 -0.00    +0.002 A  BRANCH  33  41ATOM     41  O   UNL     1      34.911  41.988  27.948 -0.24 +0.19    -0.480 OA ATOM     42  H   UNL     1      35.198  41.674  28.825 -0.24 -0.20    +0.296 HD ENDBRANCH  33  41ENDBRANCH  31  32ENDBRANCH  25  26ENDBRANCH   4  25TORSDOF 7TERENDMDL