REMARK SMILES CC[C@H]1Cc2cc(NCC(N)=O)cc(-c3ccc(F)cc3)c2[S@@H]1O
REMARK SMILES IDX 8 1 7 3 3 4 4 5 23 6 5 7 22 8 6 9 14 10 13 11 2 13 1 14
REMARK SMILES IDX 24 15 15 17 16 18 21 19 17 20 20 21 18 22 19 23 9 24 10 25
REMARK SMILES IDX 11 26 12 27
REMARK H PARENT 8 2 23 12 24 16 11 28 11 29
ROOT
ATOM      1  N   UNL     1      -3.544  -0.878  -0.059  1.00  0.00    -0.376 N 
ATOM      2  H   UNL     1      -3.978  -0.276  -0.760  1.00  0.00     0.161 HD
ENDROOT
BRANCH   1   3
ATOM      3  C   UNL     1      -2.155  -0.672  -0.025  1.00  0.00     0.035 A 
ATOM      4  C   UNL     1       2.553  -1.696   0.527  1.00  0.00     0.058 C 
ATOM      5  C   UNL     1       1.189  -2.275   0.971  1.00  0.00     0.052 C 
ATOM      6  S   UNL     1       2.259   0.055   0.328  1.00  0.00    -0.120 S 
ATOM      7  C   UNL     1       0.114  -1.333   0.490  1.00  0.00    -0.030 A 
ATOM      8  C   UNL     1       0.540  -0.045   0.169  1.00  0.00     0.021 A 
ATOM      9  C   UNL     1      -1.242  -1.638   0.419  1.00  0.00     0.030 A 
ATOM     10  C   UNL     1      -0.311   0.969  -0.239  1.00  0.00    -0.002 A 
ATOM     11  C   UNL     1      -1.674   0.627  -0.316  1.00  0.00     0.035 A 
ATOM     12  H   UNL     1       2.769   0.842   1.304  1.00  0.00     0.115 HD
BRANCH   4  13
ATOM     13  C   UNL     1       3.658  -1.983   1.539  1.00  0.00     0.012 C 
ATOM     14  C   UNL     1       5.033  -1.561   1.041  1.00  0.00     0.005 C 
ENDBRANCH   4  13
BRANCH   6  15
ATOM     15  O   UNL     1       2.892   0.298  -1.143  1.00  0.00    -0.350 OA
ATOM     16  H   UNL     1       2.575   1.109  -1.611  1.00  0.00     0.226 HD
ENDBRANCH   6  15
BRANCH  10  17
ATOM     17  C   UNL     1       0.145   2.321  -0.580  1.00  0.00    -0.017 A 
ATOM     18  C   UNL     1       0.019   2.808  -1.893  1.00  0.00     0.012 A 
ATOM     19  C   UNL     1       0.720   3.158   0.393  1.00  0.00     0.012 A 
ATOM     20  C   UNL     1       0.459   4.091  -2.224  1.00  0.00     0.040 A 
ATOM     21  C   UNL     1       1.161   4.441   0.061  1.00  0.00     0.040 A 
ATOM     22  C   UNL     1       1.026   4.895  -1.244  1.00  0.00     0.123 A 
ATOM     23  F   UNL     1       1.448   6.125  -1.562  1.00  0.00    -0.207 F 
ENDBRANCH  10  17
ENDBRANCH   1   3
BRANCH   1  24
ATOM     24  C   UNL     1      -4.051  -2.260  -0.183  1.00  0.00     0.213 C 
BRANCH  24  25
ATOM     25  C   UNL     1      -5.585  -2.270  -0.238  1.00  0.00     0.236 C 
ATOM     26  N   UNL     1      -6.193  -1.111   0.166  1.00  0.00    -0.368 N 
ATOM     27  O   UNL     1      -6.245  -3.240  -0.594  1.00  0.00    -0.273 OA
ATOM     28  H   UNL     1      -7.196  -1.140   0.290  1.00  0.00     0.159 HD
ATOM     29  H   UNL     1      -5.651  -0.474   0.741  1.00  0.00     0.159 HD
ENDBRANCH  24  25
ENDBRANCH   1  24
TORSDOF 6
