MODEL        2USER    Run = 2USERUSER    Estimated Free Energy of Binding    = -12.37 kcal/mol  [=(1)+(2)+(3)-(4)]USERUSER    (1) Final Intermolecular Energy     = -14.76 kcal/molUSER        vdW + Hbond + desolv Energy     = -14.67 kcal/molUSER        Electrostatic Energy            =  -0.09 kcal/molUSER        Moving Ligand-Fixed Receptor    = -14.76 kcal/molUSER        Moving Ligand-Moving Receptor   =  +0.00 kcal/molUSER    (2) Final Total Internal Energy     =  -2.29 kcal/molUSER    (3) Torsional Free Energy           =  +2.39 kcal/molUSER    (4) Unbound System's Energy         =  -2.29 kcal/molUSERUSERREMARK SMILES N#Cc1cnc(-c2ccc(CNCc3ccc(-c4csnn4)cc3)cc2)c(-c2ccccc2)c1REMARK SMILES IDX 11 1 10 2 7 3 8 4 26 5 9 6 25 7 6 8 3 9 4 10 34 11 5 12REMARK SMILES IDX 27 13 2 14 1 15 28 16 29 17 33 18 30 19 32 20 31 21 12 22REMARK SMILES IDX 13 24 14 25 15 26 24 27 16 28 23 29 17 30 18 31 19 32 22 33REMARK SMILES IDX 20 34 21 35REMARK H PARENT 12 23USER                              x       y       z     vdW  Elec       q    TypeUSER                           _______ _______ _______ _____ _____    ______ ____ROOTATOM      1  C   UNL     1      35.809  43.526  19.250 -0.36 -0.02    +0.117 C  ENDROOTBRANCH   1   2ATOM      2  C   UNL     1      36.682  44.506  18.502 -0.32 +0.01    -0.034 A  ATOM      3  C   UNL     1      38.304  46.338  17.061 -0.39 -0.00    +0.001 A  ATOM      4  C   UNL     1      38.873  45.301  17.820 -0.39 -0.00    +0.011 A  ATOM      5  C   UNL     1      36.904  46.447  17.054 -0.26 -0.01    +0.011 A  ATOM      6  C   UNL     1      38.076  44.392  18.526 -0.34 -0.00    +0.006 A  ATOM      7  C   UNL     1      36.103  45.540  17.756 -0.34 -0.00    +0.006 A  BRANCH   3   8ATOM      8  C   UNL     1      39.168  47.282  16.323 -0.40 -0.03    +0.078 A  ATOM      9  C   UNL     1      40.925  49.102  15.204 -0.57 -0.01    +0.071 A  ATOM     10  C   UNL     1      41.059  48.640  16.499 -0.44 -0.01    +0.131 A  ATOM     11  C   UNL     1      39.865  48.613  14.443 -0.44 -0.01    +0.032 A  ATOM     12  N   UNL     1      40.216  47.747  17.065 -0.32 +0.05    -0.254 NA ATOM     13  C   UNL     1      38.957  47.682  14.987 -0.50 -0.00    +0.009 A  BRANCH   9  14ATOM     14  C   UNL     1      41.854  50.044  14.668 -0.67 -0.02    +0.101 C  ATOM     15  N   UNL     1      42.610  50.808  14.232 -0.50 +0.04    -0.192 NA ENDBRANCH   9  14BRANCH  13  16ATOM     16  C   UNL     1      37.880  47.160  14.129 -0.47 +0.01    -0.016 A  ATOM     17  C   UNL     1      36.935  48.028  13.553 -0.59 -0.00    +0.009 A  ATOM     18  C   UNL     1      37.775  45.788  13.849 -0.42 -0.00    +0.009 A  ATOM     19  C   UNL     1      35.914  47.539  12.735 -0.61 -0.00    +0.001 A  ATOM     20  C   UNL     1      36.753  45.298  13.032 -0.50 -0.00    +0.001 A  ATOM     21  C   UNL     1      35.823  46.173  12.476 -0.58 -0.00    +0.000 A  ENDBRANCH  13  16ENDBRANCH   3   8ENDBRANCH   1   2BRANCH   1  22ATOM     22  N   UNL     1      34.427  43.606  18.776 -0.13 +0.06    -0.309 NA ATOM     23  H   UNL     1      34.187  44.589  18.662 +0.08 -0.04    +0.123 HD BRANCH  22  24ATOM     24  C   UNL     1      34.241  42.921  17.497 -0.35 -0.04    +0.117 C  BRANCH  24  25ATOM     25  C   UNL     1      33.351  43.673  16.536 -0.31 +0.02    -0.034 A  ATOM     26  C   UNL     1      33.797  44.847  15.915 -0.32 -0.00    +0.006 A  ATOM     27  C   UNL     1      32.054  43.221  16.264 -0.33 -0.00    +0.006 A  ATOM     28  C   UNL     1      32.966  45.547  15.033 -0.28 -0.01    +0.011 A  ATOM     29  C   UNL     1      31.224  43.921  15.384 -0.36 -0.01    +0.011 A  ATOM     30  C   UNL     1      31.671  45.089  14.751 -0.41 -0.00    +0.003 A  BRANCH  30  31ATOM     31  C   UNL     1      30.780  45.795  13.835 -0.47 -0.08    +0.105 A  ATOM     32  C   UNL     1      29.415  45.944  14.021 -0.06 -0.10    +0.118 A  ATOM     33  N   UNL     1      31.271  46.407  12.683 -0.69 +0.08    -0.138 NA ATOM     34  S   UNL     1      28.810  46.852  12.696 -0.60 +0.01    -0.020 S  ATOM     35  N   UNL     1      30.316  46.998  11.987 -1.03 +0.04    -0.091 NA ENDBRANCH  30  31ENDBRANCH  24  25ENDBRANCH  22  24ENDBRANCH   1  22TORSDOF 8TERENDMDL