MODEL        10USER    Run = 10USERUSER    Estimated Free Energy of Binding    = -12.07 kcal/mol  [=(1)+(2)+(3)-(4)]USERUSER    (1) Final Intermolecular Energy     = -13.86 kcal/molUSER        vdW + Hbond + desolv Energy     = -13.67 kcal/molUSER        Electrostatic Energy            =  -0.19 kcal/molUSER        Moving Ligand-Fixed Receptor    = -13.86 kcal/molUSER        Moving Ligand-Moving Receptor   =  +0.00 kcal/molUSER    (2) Final Total Internal Energy     =  -0.78 kcal/molUSER    (3) Torsional Free Energy           =  +1.79 kcal/molUSER    (4) Unbound System's Energy         =  -0.78 kcal/molUSERUSERREMARK SMILES Cn1ccc2ccc3c4[nH]c5c(CCCN[C@H]6CC[C@H](O)CC6)cccc5c4c4c(c3c21)C(=O)NC4=OREMARK SMILES IDX 15 1 14 2 13 3 12 4 2 5 3 6 32 7 4 8 31 9 5 10 30 11 8 12REMARK SMILES IDX 6 13 29 14 33 15 7 16 9 17 28 18 36 19 35 20 10 21 27 22REMARK SMILES IDX 11 23 26 24 25 25 24 26 1 27 34 28 37 29 16 32 17 34 23 35REMARK SMILES IDX 18 36 22 37 19 38 20 39 21 40REMARK H PARENT 35 30 10 31 16 33 21 41USER                              x       y       z     vdW  Elec       q    TypeUSER                           _______ _______ _______ _____ _____    ______ ____ROOTATOM      1  C   UNL     1      35.285  44.408  15.992 -0.34 -0.04    +0.081 C  ENDROOTBRANCH   1   2ATOM      2  C   UNL     1      35.853  44.756  14.613 -0.30 -0.01    +0.020 C  BRANCH   2   3ATOM      3  C   UNL     1      35.877  46.264  14.337 -0.47 -0.03    +0.039 C  BRANCH   3   4ATOM      4  C   UNL     1      37.182  46.935  14.692 -0.41 +0.01    -0.024 A  ATOM      5  N   UNL     1      40.222  45.066  22.596 -0.06 -0.02    -0.350 N  ATOM      6  C   UNL     1      39.904  44.059  23.478 -0.16 +0.00    +0.086 A  ATOM      7  C   UNL     1      39.595  44.860  21.373 -0.29 +0.00    +0.057 A  ATOM      8  C   UNL     1      38.903  43.314  22.916 -0.27 +0.00    +0.028 A  ATOM      9  C   UNL     1      39.690  45.490  20.075 -0.37 +0.00    +0.022 A  ATOM     10  C   UNL     1      38.646  43.853  21.630 -0.31 +0.00    +0.000 A  ATOM     11  C   UNL     1      40.701  46.329  19.580 -0.26 +0.00    +0.063 A  ATOM     12  C   UNL     1      38.617  45.208  19.174 -0.38 -0.00    +0.009 A  ATOM     13  C   UNL     1      37.674  43.541  20.664 -0.32 -0.00    +0.011 A  ATOM     14  C   UNL     1      40.603  46.982  18.346 -0.40 -0.01    +0.063 A  ATOM     15  C   UNL     1      42.068  46.606  20.057 -0.30 +0.04    +0.259 C  ATOM     16  C   UNL     1      37.632  44.253  19.469 -0.35 -0.00    +0.012 A  ATOM     17  C   UNL     1      38.543  45.897  17.923 -0.36 -0.01    +0.055 A  ATOM     18  C   UNL     1      39.513  46.810  17.489 -0.43 -0.00    +0.022 A  ATOM     19  C   UNL     1      41.829  47.751  18.143 -0.36 -0.01    +0.259 C  ATOM     20  N   UNL     1      42.583  47.572  19.255 -0.36 -0.02    -0.288 N  ATOM     21  N   UNL     1      37.598  45.840  16.922 -0.14 +0.13    -0.354 N  ATOM     22  C   UNL     1      39.099  47.313  16.209 -0.46 -0.00    +0.008 A  ATOM     23  C   UNL     1      37.895  46.688  15.883 -0.36 -0.02    +0.050 A  ATOM     24  C   UNL     1      39.630  48.242  15.291 -0.54 -0.00    +0.011 A  ATOM     25  C   UNL     1      38.951  48.510  14.098 -0.42 -0.00    +0.001 A  ATOM     26  C   UNL     1      37.752  47.867  13.807 -0.53 -0.00    +0.006 A  ATOM     27  C   UNL     1      40.896  46.261  23.061 -0.19 +0.01    +0.149 C  ATOM     28  O   UNL     1      42.680  46.016  20.922 -0.23 -0.08    -0.269 OA ATOM     29  O   UNL     1      42.158  48.380  17.159 -0.47 -0.03    -0.269 OA ATOM     30  H   UNL     1      43.555  47.838  19.287 -0.24 +0.02    +0.173 HD ATOM     31  H   UNL     1      36.769  45.266  16.952 +0.12 -0.07    +0.167 HD ENDBRANCH   3   4ENDBRANCH   2   3ENDBRANCH   1   2BRANCH   1  32ATOM     32  N   UNL     1      34.999  42.973  16.046 -0.23 +0.13    -0.314 NA ATOM     33  H   UNL     1      34.352  42.718  15.302 -0.04 -0.06    +0.122 HD BRANCH  32  34ATOM     34  C   UNL     1      34.460  42.549  17.346 -0.43 -0.02    +0.053 C  ATOM     35  C   UNL     1      34.825  43.513  18.495 -0.39 -0.00    +0.021 C  ATOM     36  C   UNL     1      32.934  42.405  17.176 -0.38 -0.01    +0.021 C  ATOM     37  C   UNL     1      33.739  44.557  18.747 -0.44 -0.01    +0.033 C  ATOM     38  C   UNL     1      32.217  42.511  18.516 -0.38 -0.00    +0.033 C  ATOM     39  C   UNL     1      32.413  43.895  19.142 -0.38 -0.01    +0.114 C  BRANCH  39  40ATOM     40  O   UNL     1      32.353  43.742  20.560 -0.72 -0.05    -0.393 OA ATOM     41  H   UNL     1      32.586  44.599  20.957 -0.29 -0.02    +0.210 HD ENDBRANCH  39  40ENDBRANCH  32  34ENDBRANCH   1  32TORSDOF 6TERENDMDL