MODEL        6USER    Run = 6USERUSER    Estimated Free Energy of Binding    =  -7.10 kcal/mol  [=(1)+(2)+(3)-(4)]USERUSER    (1) Final Intermolecular Energy     = -11.57 kcal/molUSER        vdW + Hbond + desolv Energy     = -11.91 kcal/molUSER        Electrostatic Energy            =  -0.20 kcal/molUSER        Moving Ligand-Fixed Receptor    = -12.11 kcal/molUSER        Moving Ligand-Moving Receptor   =  +0.54 kcal/molUSER    (2) Final Total Internal Energy     =  -2.29 kcal/molUSER    (3) Torsional Free Energy           =  +4.47 kcal/molUSER    (4) Unbound System's Energy         =  -2.29 kcal/molUSERUSERREMARK SMILES COc1ccc(O)c(C(=O)c2ccc(/C=C/[C@@H]3CCCNC[C@H]3NC(=O)c3ccncc3)cc2)c1FREMARK SMILES IDX 16 1 15 2 14 3 11 4 12 5 34 6 13 7 33 8 9 9 10 10 8 11 3 12REMARK SMILES IDX 4 13 35 14 5 15 6 16 36 17 2 18 1 19 7 20 17 22 18 23 23 25REMARK SMILES IDX 22 26 21 27 20 29 19 30 24 32 25 33 26 35 27 36 28 37 32 38REMARK SMILES IDX 29 39 31 40 30 41REMARK H PARENT 7 21 21 28 24 34REMARK Flexibility Score:   99.900USER                              x       y       z     vdW  Elec       q    TypeUSER                           _______ _______ _______ _____ _____    ______ ____ROOTATOM      1  C   UNL     1      39.548  46.461  15.794 -0.49 +0.00    -0.021 C  ENDROOTBRANCH   1   2ATOM      2  C   UNL     1      39.742  47.257  16.857 -0.55 -0.00    +0.004 C  BRANCH   2   3ATOM      3  C   UNL     1      40.530  46.861  18.031 -0.47 +0.00    -0.026 A  ATOM      4  C   UNL     1      42.065  46.180  20.281 -0.37 +0.00    +0.023 A  ATOM      5  C   UNL     1      42.543  47.128  19.371 -0.51 +0.00    +0.013 A  ATOM      6  C   UNL     1      40.807  45.602  20.092 -0.39 +0.00    +0.013 A  ATOM      7  C   UNL     1      41.773  47.468  18.253 -0.52 -0.00    +0.009 A  ATOM      8  C   UNL     1      40.048  45.936  18.968 -0.43 -0.00    +0.009 A  BRANCH   4   9ATOM      9  C   UNL     1      42.836  45.819  21.490 -0.21 +0.06    +0.199 C  ATOM     10  O   UNL     1      42.989  44.628  21.763 -0.17 -0.08    -0.288 OA BRANCH   9  11ATOM     11  C   UNL     1      43.392  46.828  22.420 -0.24 +0.03    +0.104 A  ATOM     12  C   UNL     1      43.119  48.740  23.910 -0.25 +0.04    +0.155 A  ATOM     13  C   UNL     1      44.488  48.721  24.178 -0.22 +0.01    +0.053 A  ATOM     14  C   UNL     1      42.582  47.790  23.027 -0.24 +0.03    +0.179 A  ATOM     15  C   UNL     1      45.312  47.780  23.553 -0.19 +0.02    +0.051 A  ATOM     16  C   UNL     1      44.768  46.851  22.672 -0.19 +0.07    +0.130 A  ATOM     17  F   UNL     1      41.270  47.843  22.747 +0.05 -0.03    -0.202 F  BRANCH  12  18ATOM     18  O   UNL     1      42.218  49.622  24.444 -0.51 -0.16    -0.494 OA ATOM     19  C   UNL     1      41.465  49.185  25.568 -0.23 +0.04    +0.278 C  ENDBRANCH  12  18BRANCH  16  20ATOM     20  O   UNL     1      45.650  45.986  22.081 -0.39 -0.69    -0.507 OA ATOM     21  H   UNL     1      45.174  45.140  21.911 +0.09 +0.33    +0.293 HD ENDBRANCH  16  20ENDBRANCH   9  11ENDBRANCH   4   9ENDBRANCH   2   3ENDBRANCH   1   2BRANCH   1  22ATOM     22  C   UNL     1      38.241  46.294  15.023 -0.44 -0.01    +0.035 C  BRANCH  22  23ATOM     23  C   UNL     1      38.394  47.085  13.709 -0.51 -0.00    +0.011 CG0ATOM     24  G   UNL     1      37.590  46.636  12.494 +0.00 +0.00    +0.000 G0 ENDBRANCH  22  23BRANCH  22  25ATOM     25  C   UNL     1      36.926  46.600  15.804 -0.38 -0.07    +0.103 C  BRANCH  25  26ATOM     26  C   UNL     1      35.698  46.627  14.850 -0.34 -0.10    +0.106 C  BRANCH  26  27ATOM     27  N   UNL     1      35.695  47.594  13.759 -0.05 +0.25    -0.315 NA ATOM     28  H   UNL     1      36.254  48.406  14.026 +0.09 -0.10    +0.122 HD BRANCH  27  29ATOM     29  C   UNL     1      36.133  47.078  12.471 -0.68 -0.04    +0.081 C  BRANCH  29  30ATOM     30  C   UNL     1      37.589  46.639  12.489 -0.49 -0.00    +0.016 CG0ATOM     31  G   UNL     1      38.394  47.082  13.706 +0.00 +0.00    +0.000 G0 ENDBRANCH  29  30ENDBRANCH  27  29ENDBRANCH  26  27ENDBRANCH  25  26BRANCH  25  32ATOM     32  N   UNL     1      36.681  45.597  16.850 -0.12 +0.16    -0.347 N  ATOM     33  C   UNL     1      35.725  45.781  17.824 -0.23 -0.13    +0.251 C  ATOM     34  H   UNL     1      37.096  44.682  16.730 +0.11 -0.05    +0.164 HD ATOM     35  O   UNL     1      35.017  46.777  17.899 -0.42 +0.24    -0.269 OA BRANCH  33  36ATOM     36  C   UNL     1      35.557  44.669  18.793 -0.34 -0.01    +0.042 A  ATOM     37  C   UNL     1      34.347  43.988  18.927 -0.35 -0.01    +0.034 A  ATOM     38  C   UNL     1      36.657  44.285  19.558 -0.36 -0.00    +0.034 A  ATOM     39  C   UNL     1      34.286  42.961  19.849 -0.31 +0.00    +0.112 A  ATOM     40  C   UNL     1      36.491  43.247  20.454 -0.35 -0.00    +0.112 A  ATOM     41  N   UNL     1      35.326  42.583  20.623 -0.31 -0.01    -0.265 NA ENDBRANCH  33  36ENDBRANCH  25  32ENDBRANCH  22  25ENDBRANCH   1  22TORSDOF 9TERENDMDL