MODEL        2USER    Run = 2USERUSER    Estimated Free Energy of Binding    =  -8.22 kcal/mol  [=(1)+(2)+(3)-(4)]USERUSER    (1) Final Intermolecular Energy     = -12.39 kcal/molUSER        vdW + Hbond + desolv Energy     = -12.66 kcal/molUSER        Electrostatic Energy            =  -0.02 kcal/molUSER        Moving Ligand-Fixed Receptor    = -12.68 kcal/molUSER        Moving Ligand-Moving Receptor   =  +0.29 kcal/molUSER    (2) Final Total Internal Energy     =  -2.12 kcal/molUSER    (3) Torsional Free Energy           =  +4.18 kcal/molUSER    (4) Unbound System's Energy         =  -2.12 kcal/molUSERUSERREMARK SMILES COc1ccc(O)c(C(=O)c2ccc(C(=O)N[C@@H]3CCCNC[C@H]3NC(=O)c3ccncc3)cc2)c1FREMARK SMILES IDX 15 1 16 2 17 3 14 5 11 6 12 7 35 8 13 9 34 10 9 11 10 12REMARK SMILES IDX 8 13 3 14 4 15 36 16 5 17 6 18 37 19 2 20 1 21 7 22 18 24REMARK SMILES IDX 19 25 24 27 23 28 22 29 21 31 20 32 25 34 26 35 27 37 28 38REMARK SMILES IDX 29 39 33 40 30 41 32 42 31 43REMARK H PARENT 17 4 7 23 22 30 25 36REMARK Flexibility Score:   88.900USER                              x       y       z     vdW  Elec       q    TypeUSER                           _______ _______ _______ _____ _____    ______ ____ROOTATOM      1  C   UNL     1      38.350  44.699  19.624 -0.26 -0.01    +0.251 C  ATOM      2  O   UNL     1      37.839  43.972  18.779 -0.21 +0.03    -0.269 OA ATOM      3  N   UNL     1      39.321  45.634  19.330 -0.19 +0.02    -0.347 N  ATOM      4  H   UNL     1      39.835  46.042  20.099 +0.08 +0.00    +0.164 HD ENDROOTBRANCH   1   5ATOM      5  C   UNL     1      37.990  44.550  21.061 -0.33 +0.00    +0.039 A  ATOM      6  C   UNL     1      37.301  44.411  23.776 -0.31 +0.00    +0.023 A  ATOM      7  C   UNL     1      38.121  45.446  23.313 -0.27 +0.00    +0.013 A  ATOM      8  C   UNL     1      36.827  43.445  22.882 -0.28 +0.00    +0.013 A  ATOM      9  C   UNL     1      38.474  45.508  21.962 -0.28 +0.00    +0.014 A  ATOM     10  C   UNL     1      37.179  43.507  21.527 -0.40 +0.00    +0.014 A  BRANCH   6  11ATOM     11  C   UNL     1      36.891  44.434  25.197 -0.25 +0.01    +0.199 C  ATOM     12  O   UNL     1      36.598  45.521  25.698 -0.53 +0.02    -0.288 OA BRANCH  11  13ATOM     13  C   UNL     1      36.765  43.225  26.044 -0.30 -0.01    +0.104 A  ATOM     14  C   UNL     1      37.639  41.133  26.947 -0.31 -0.03    +0.155 A  ATOM     15  C   UNL     1      36.464  40.957  27.682 -0.52 -0.02    +0.053 A  ATOM     16  C   UNL     1      37.779  42.271  26.135 -0.22 -0.01    +0.179 A  ATOM     17  C   UNL     1      35.452  41.919  27.621 -0.55 -0.02    +0.051 A  ATOM     18  C   UNL     1      35.610  43.048  26.821 -0.39 -0.02    +0.130 A  ATOM     19  F   UNL     1      38.930  42.443  25.464 -0.05 -0.00    -0.202 F  BRANCH  14  20ATOM     20  O   UNL     1      38.703  40.270  26.938 -0.14 +0.00    -0.494 OA ATOM     21  C   UNL     1      39.835  40.626  27.727 -0.20 -0.01    +0.278 C  ENDBRANCH  14  20BRANCH  18  22ATOM     22  O   UNL     1      34.580  43.951  26.848 -0.12 +0.09    -0.507 OA ATOM     23  H   UNL     1      34.978  44.853  26.799 -0.10 -0.16    +0.293 HD ENDBRANCH  18  22ENDBRANCH  11  13ENDBRANCH   6  11ENDBRANCH   1   5BRANCH   3  24ATOM     24  C   UNL     1      39.952  45.675  18.005 -0.44 -0.01    +0.106 C  BRANCH  24  25ATOM     25  C   UNL     1      41.463  45.450  18.142 -0.45 +0.00    +0.028 CG0ATOM     26  G   UNL     1      42.214  46.477  19.005 +0.00 +0.00    +0.000 G0 ENDBRANCH  24  25BRANCH  24  27ATOM     27  C   UNL     1      39.574  46.989  17.264 -0.43 -0.03    +0.118 C  BRANCH  27  28ATOM     28  C   UNL     1      40.772  47.785  16.695 -0.51 -0.02    +0.108 C  BRANCH  28  29ATOM     29  N   UNL     1      41.600  48.525  17.652 -0.48 +0.00    -0.315 NA ATOM     30  H   UNL     1      41.999  49.347  17.203 +0.05 +0.04    +0.122 HD BRANCH  29  31ATOM     31  C   UNL     1      42.654  47.766  18.315 -0.32 +0.00    +0.081 C  BRANCH  31  32ATOM     32  C   UNL     1      42.214  46.477  19.004 -0.53 +0.00    +0.017 CG0ATOM     33  G   UNL     1      41.467  45.446  18.142 +0.00 +0.00    +0.000 G0 ENDBRANCH  31  32ENDBRANCH  29  31ENDBRANCH  28  29ENDBRANCH  27  28BRANCH  27  34ATOM     34  N   UNL     1      38.580  46.713  16.219 -0.17 +0.12    -0.346 N  ATOM     35  C   UNL     1      38.092  47.711  15.407 -0.35 -0.14    +0.251 C  ATOM     36  H   UNL     1      38.473  45.754  15.929 +0.11 -0.05    +0.164 HD ATOM     37  O   UNL     1      38.370  48.896  15.545 -0.37 +0.19    -0.269 OA BRANCH  35  38ATOM     38  C   UNL     1      37.206  47.283  14.297 -0.45 -0.02    +0.042 A  ATOM     39  C   UNL     1      37.682  47.398  12.990 -0.49 -0.01    +0.034 A  ATOM     40  C   UNL     1      35.916  46.801  14.524 -0.37 -0.03    +0.034 A  ATOM     41  C   UNL     1      36.851  47.001  11.961 -0.59 -0.04    +0.112 A  ATOM     42  C   UNL     1      35.163  46.431  13.424 -0.34 -0.08    +0.112 A  ATOM     43  N   UNL     1      35.605  46.516  12.149 -0.39 +0.16    -0.265 NA ENDBRANCH  35  38ENDBRANCH  27  34ENDBRANCH  24  27ENDBRANCH   3  24TORSDOF 8TERENDMDL