MODEL        8USER    Run = 8USERUSER    Estimated Free Energy of Binding    = -12.61 kcal/mol  [=(1)+(2)+(3)-(4)]USERUSER    (1) Final Intermolecular Energy     = -14.40 kcal/molUSER        vdW + Hbond + desolv Energy     = -14.26 kcal/molUSER        Electrostatic Energy            =  -0.14 kcal/molUSER        Moving Ligand-Fixed Receptor    = -14.40 kcal/molUSER        Moving Ligand-Moving Receptor   =  +0.00 kcal/molUSER    (2) Final Total Internal Energy     =  -1.79 kcal/molUSER    (3) Torsional Free Energy           =  +1.79 kcal/molUSER    (4) Unbound System's Energy         =  -1.79 kcal/molUSERUSERREMARK SMILES Oc1nc2ccccc2n1C1CCN(Cc2ccc(-c3cc4ccccc4nc3-c3ccccc3)cc2)CC1REMARK SMILES IDX 11 1 12 2 13 3 14 4 38 5 39 6 10 7 2 8 3 9 4 10 9 11 5 12REMARK SMILES IDX 8 13 6 14 7 15 1 16 15 18 16 19 17 20 37 21 18 22 36 23REMARK SMILES IDX 19 24 20 25 21 26 29 27 22 28 28 29 23 30 27 31 24 32 26 33REMARK SMILES IDX 25 34 30 35 31 36 35 37 32 38 34 39 33 40REMARK H PARENT 1 17USER                              x       y       z     vdW  Elec       q    TypeUSER                           _______ _______ _______ _____ _____    ______ ____ROOTATOM      1  C   UNL     1      30.836  39.985  17.514 -0.34 -0.01    +0.095 C  ATOM      2  C   UNL     1      32.272  40.259  17.985 -0.48 -0.01    +0.041 C  ATOM      3  C   UNL     1      32.501  41.661  18.539 -0.38 -0.01    +0.087 C  ATOM      4  N   UNL     1      31.923  42.731  17.722 -0.11 +0.07    -0.299 NA ATOM      5  C   UNL     1      30.479  42.540  17.566 -0.25 -0.02    +0.087 C  ATOM      6  C   UNL     1      30.082  41.200  16.952 -0.35 -0.01    +0.041 C  ENDROOTBRANCH   1   7ATOM      7  N   UNL     1      30.053  39.159  18.430 -0.19 -0.05    -0.291 N  ATOM      8  C   UNL     1      28.697  38.966  18.303 -0.09 +0.09    +0.295 A  ATOM      9  N   UNL     1      28.183  38.219  19.238 -0.18 -0.03    -0.195 NA ATOM     10  C   UNL     1      29.251  37.889  20.028 -0.28 +0.01    +0.092 A  ATOM     11  C   UNL     1      30.443  38.451  19.549 -0.36 +0.01    +0.072 A  ATOM     12  C   UNL     1      29.264  37.097  21.188 -0.31 -0.00    +0.031 A  ATOM     13  C   UNL     1      31.661  38.227  20.203 -0.48 +0.01    +0.029 A  ATOM     14  C   UNL     1      30.475  36.876  21.847 -0.44 +0.00    +0.002 A  ATOM     15  C   UNL     1      31.654  37.433  21.358 -0.49 +0.00    +0.002 A  BRANCH   8  16ATOM     16  O   UNL     1      27.949  39.470  17.343 -0.05 -0.19    -0.480 OA ATOM     17  H   UNL     1      27.293  39.971  17.861 +0.16 +0.04    +0.296 HD ENDBRANCH   8  16ENDBRANCH   1   7BRANCH   4  18ATOM     18  C   UNL     1      32.642  42.910  16.449 -0.29 -0.06    +0.120 C  BRANCH  18  19ATOM     19  C   UNL     1      33.964  43.631  16.607 -0.32 +0.01    -0.034 A  ATOM     20  C   UNL     1      35.178  42.949  16.461 -0.44 -0.00    +0.006 A  ATOM     21  C   UNL     1      33.990  45.000  16.904 -0.32 -0.00    +0.006 A  ATOM     22  C   UNL     1      36.393  43.624  16.611 -0.37 -0.00    +0.009 A  ATOM     23  C   UNL     1      35.206  45.670  17.063 -0.35 -0.01    +0.009 A  ATOM     24  C   UNL     1      36.424  44.992  16.924 -0.32 +0.01    -0.016 A  BRANCH  24  25ATOM     25  C   UNL     1      37.703  45.701  17.081 -0.37 -0.00    +0.009 A  ATOM     26  C   UNL     1      38.448  45.515  18.255 -0.38 -0.00    +0.021 A  ATOM     27  C   UNL     1      38.258  46.541  16.102 -0.35 -0.03    +0.079 A  ATOM     28  C   UNL     1      39.692  46.135  18.424 -0.44 -0.00    +0.001 A  ATOM     29  N   UNL     1      39.474  47.140  16.248 -0.28 +0.07    -0.247 NA ATOM     30  C   UNL     1      40.456  45.960  19.592 -0.38 +0.00    +0.010 A  ATOM     31  C   UNL     1      40.169  46.945  17.379 -0.44 -0.01    +0.071 A  ATOM     32  C   UNL     1      41.693  46.587  19.726 -0.42 +0.00    +0.001 A  ATOM     33  C   UNL     1      41.406  47.558  17.536 -0.45 -0.00    +0.029 A  ATOM     34  C   UNL     1      42.170  47.388  18.694 -0.56 +0.00    +0.002 A  BRANCH  27  35ATOM     35  C   UNL     1      37.596  46.868  14.824 -0.43 -0.00    +0.001 A  ATOM     36  C   UNL     1      37.343  45.861  13.876 -0.44 -0.00    +0.010 A  ATOM     37  C   UNL     1      37.220  48.183  14.502 -0.52 -0.01    +0.010 A  ATOM     38  C   UNL     1      36.714  46.154  12.662 -0.60 -0.00    +0.001 A  ATOM     39  C   UNL     1      36.592  48.478  13.288 -0.49 -0.00    +0.001 A  ATOM     40  C   UNL     1      36.335  47.461  12.371 -0.69 -0.00    +0.000 A  ENDBRANCH  27  35ENDBRANCH  24  25ENDBRANCH  18  19ENDBRANCH   4  18TORSDOF 6TERENDMDL