MODEL        10USER    Run = 10USERUSER    Estimated Free Energy of Binding    =  -7.66 kcal/mol  [=(1)+(2)+(3)-(4)]USERUSER    (1) Final Intermolecular Energy     = -12.14 kcal/molUSER        vdW + Hbond + desolv Energy     = -12.90 kcal/molUSER        Electrostatic Energy            =  -0.52 kcal/molUSER        Moving Ligand-Fixed Receptor    = -13.42 kcal/molUSER        Moving Ligand-Moving Receptor   =  +1.28 kcal/molUSER    (2) Final Total Internal Energy     =  -1.54 kcal/molUSER    (3) Torsional Free Energy           =  +4.47 kcal/molUSER    (4) Unbound System's Energy         =  -1.54 kcal/molUSERUSERREMARK SMILES COc1ccc(O)c(C(=O)c2ccc(NC[C@@H]3CCCNC[C@@H]3NC(=O)c3ccncc3)cc2)c1FREMARK SMILES IDX 16 1 15 2 14 4 11 5 12 6 34 7 13 8 33 9 9 10 10 11 8 12 3 13REMARK SMILES IDX 4 14 35 15 5 16 6 17 36 18 2 19 1 20 7 21 17 23 18 24 23 26REMARK SMILES IDX 22 27 21 28 20 30 19 31 24 33 25 34 26 36 27 37 28 38 32 39REMARK SMILES IDX 29 40 31 41 30 42REMARK H PARENT 15 3 7 22 21 29 24 35REMARK Flexibility Score:   99.900USER                              x       y       z     vdW  Elec       q    TypeUSER                           _______ _______ _______ _____ _____    ______ ____ROOTATOM      1  C   UNL     1      32.164  43.742  15.890 -0.32 -0.06    +0.118 C  ENDROOTBRANCH   1   2ATOM      2  N   UNL     1      31.369  42.535  15.648 -0.10 +0.22    -0.385 N  ATOM      3  H   UNL     1      31.583  42.083  14.764 -0.33 -0.12    +0.160 HD BRANCH   2   4ATOM      4  C   UNL     1      30.032  42.430  16.020 -0.29 -0.02    +0.034 A  ATOM      5  C   UNL     1      27.347  42.052  16.835 -0.20 -0.00    +0.023 A  ATOM      6  C   UNL     1      27.998  43.263  17.079 -0.22 -0.00    +0.014 A  ATOM      7  C   UNL     1      28.051  41.007  16.235 -0.30 -0.00    +0.014 A  ATOM      8  C   UNL     1      29.328  43.443  16.682 -0.25 -0.01    +0.026 A  ATOM      9  C   UNL     1      29.381  41.201  15.840 -0.37 -0.01    +0.026 A  BRANCH   5  10ATOM     10  C   UNL     1      25.950  41.893  17.303 -0.19 -0.02    +0.199 C  ATOM     11  O   UNL     1      25.063  42.575  16.786 -0.21 +0.01    -0.288 OA BRANCH  10  12ATOM     12  C   UNL     1      25.561  40.988  18.407 -0.19 -0.01    +0.104 A  ATOM     13  C   UNL     1      25.130  40.549  20.768 -0.29 -0.04    +0.155 A  ATOM     14  C   UNL     1      24.804  39.227  20.459 -0.29 -0.03    +0.053 A  ATOM     15  C   UNL     1      25.515  41.418  19.734 -0.23 -0.03    +0.179 A  ATOM     16  C   UNL     1      24.880  38.777  19.139 -0.32 -0.03    +0.051 A  ATOM     17  C   UNL     1      25.270  39.648  18.125 -0.26 -0.01    +0.130 A  ATOM     18  F   UNL     1      25.867  42.675  20.049 -0.11 +0.06    -0.202 F  BRANCH  13  19ATOM     19  O   UNL     1      25.110  41.098  22.022 -0.70 +0.04    -0.494 OA ATOM     20  C   UNL     1      24.083  42.040  22.306 -0.50 -0.06    +0.278 C  ENDBRANCH  13  19BRANCH  17  21ATOM     21  O   UNL     1      25.350  39.118  16.865 -0.63 -0.08    -0.507 OA ATOM     22  H   UNL     1      24.443  39.110  16.483 +0.01 -0.09    +0.293 HD ENDBRANCH  17  21ENDBRANCH  10  12ENDBRANCH   5  10ENDBRANCH   2   4ENDBRANCH   1   2BRANCH   1  23ATOM     23  C   UNL     1      33.502  43.422  16.603 -0.38 -0.01    +0.032 C  BRANCH  23  24ATOM     24  C   UNL     1      33.302  42.277  17.616 -0.43 -0.00    +0.009 CG0ATOM     25  G   UNL     1      33.304  42.608  19.109 +0.00 +0.00    +0.000 G0 ENDBRANCH  23  24BRANCH  23  26ATOM     26  C   UNL     1      34.127  44.715  17.178 -0.30 -0.05    +0.101 C  BRANCH  26  27ATOM     27  C   UNL     1      33.117  45.495  18.053 -0.28 -0.05    +0.106 C  BRANCH  27  28ATOM     28  N   UNL     1      33.021  45.042  19.447 -0.12 +0.09    -0.315 NA ATOM     29  H   UNL     1      33.974  44.969  19.811 -0.19 -0.04    +0.122 HD BRANCH  28  30ATOM     30  C   UNL     1      32.388  43.729  19.578 -0.44 -0.00    +0.081 C  BRANCH  30  31ATOM     31  C   UNL     1      33.310  42.606  19.121 -0.45 -0.00    +0.016 CG0ATOM     32  G   UNL     1      33.302  42.276  17.628 +0.00 +0.00    +0.000 G0 ENDBRANCH  30  31ENDBRANCH  28  30ENDBRANCH  27  28ENDBRANCH  26  27BRANCH  26  33ATOM     33  N   UNL     1      34.666  45.599  16.148 -0.10 +0.31    -0.348 N  ATOM     34  C   UNL     1      35.742  45.271  15.360 -0.23 -0.15    +0.251 C  ATOM     35  H   UNL     1      34.263  46.528  16.133 -0.13 -0.31    +0.164 HD ATOM     36  O   UNL     1      36.345  44.209  15.460 -0.26 +0.10    -0.269 OA BRANCH  34  37ATOM     37  C   UNL     1      36.181  46.287  14.366 -0.40 -0.03    +0.042 A  ATOM     38  C   UNL     1      35.917  46.043  13.018 -0.49 -0.02    +0.034 A  ATOM     39  C   UNL     1      36.814  47.474  14.737 -0.42 -0.02    +0.034 A  ATOM     40  C   UNL     1      36.319  46.987  12.092 -0.59 -0.05    +0.112 A  ATOM     41  C   UNL     1      37.175  48.356  13.734 -0.46 -0.06    +0.112 A  ATOM     42  N   UNL     1      36.947  48.136  12.422 -0.94 +0.06    -0.265 NA ENDBRANCH  34  37ENDBRANCH  26  33ENDBRANCH  23  26ENDBRANCH   1  23TORSDOF 9TERENDMDL