MODEL        6USER    Run = 6USERUSER    Estimated Free Energy of Binding    =  -7.21 kcal/mol  [=(1)+(2)+(3)-(4)]USERUSER    (1) Final Intermolecular Energy     = -11.69 kcal/molUSER        vdW + Hbond + desolv Energy     = -11.79 kcal/molUSER        Electrostatic Energy            =  -0.11 kcal/molUSER        Moving Ligand-Fixed Receptor    = -11.90 kcal/molUSER        Moving Ligand-Moving Receptor   =  +0.22 kcal/molUSER    (2) Final Total Internal Energy     =  -2.56 kcal/molUSER    (3) Torsional Free Energy           =  +4.47 kcal/molUSER    (4) Unbound System's Energy         =  -2.56 kcal/molUSERUSERREMARK SMILES COc1ccc(O)c(C(=O)c2ccc(CN[C@@H]3CCCNC[C@H]3NC(=O)c3ccncc3)cc2)c1FREMARK SMILES IDX 16 1 15 3 14 4 11 5 12 6 34 7 13 8 33 9 9 10 10 11 8 12 3 13REMARK SMILES IDX 4 14 35 15 5 16 6 17 36 18 2 19 1 20 7 21 17 23 18 24 23 26REMARK SMILES IDX 22 27 21 28 20 30 19 31 24 33 25 34 26 36 27 37 28 38 32 39REMARK SMILES IDX 29 40 31 41 30 42REMARK H PARENT 16 2 7 22 21 29 24 35REMARK Flexibility Score:   99.900USER                              x       y       z     vdW  Elec       q    TypeUSER                           _______ _______ _______ _____ _____    ______ ____ROOTATOM      1  N   UNL     1      39.109  47.094  15.978 -0.21 +0.10    -0.308 NA ATOM      2  H   UNL     1      38.696  47.387  16.866 +0.06 -0.05    +0.123 HD ENDROOTBRANCH   1   3ATOM      3  C   UNL     1      40.292  46.277  16.258 -0.41 -0.01    +0.117 C  BRANCH   3   4ATOM      4  C   UNL     1      40.756  46.355  17.692 -0.47 +0.00    -0.034 A  ATOM      5  C   UNL     1      41.612  46.479  20.368 -0.30 +0.00    +0.023 A  ATOM      6  C   UNL     1      40.645  45.544  19.985 -0.40 +0.00    +0.012 A  ATOM      7  C   UNL     1      42.131  47.368  19.419 -0.34 +0.00    +0.012 A  ATOM      8  C   UNL     1      40.228  45.480  18.653 -0.45 -0.00    +0.006 A  ATOM      9  C   UNL     1      41.710  47.302  18.089 -0.49 -0.00    +0.006 A  BRANCH   5  10ATOM     10  C   UNL     1      42.056  46.615  21.776 -0.23 +0.03    +0.199 C  ATOM     11  O   UNL     1      43.204  46.279  22.076 -0.17 -0.09    -0.288 OA BRANCH  10  12ATOM     12  C   UNL     1      41.211  47.195  22.842 -0.09 +0.01    +0.104 A  ATOM     13  C   UNL     1      39.185  47.210  24.198 -0.25 +0.02    +0.155 A  ATOM     14  C   UNL     1      39.644  48.345  24.867 -0.30 +0.01    +0.053 A  ATOM     15  C   UNL     1      39.980  46.640  23.192 -0.17 +0.02    +0.179 A  ATOM     16  C   UNL     1      40.892  48.889  24.550 -0.25 +0.01    +0.051 A  ATOM     17  C   UNL     1      41.675  48.307  23.556 -0.26 +0.02    +0.130 A  ATOM     18  F   UNL     1      39.545  45.525  22.582 -0.06 -0.01    -0.202 F  BRANCH  13  19ATOM     19  O   UNL     1      37.993  46.577  24.436 -0.48 -0.10    -0.494 OA ATOM     20  C   UNL     1      37.553  46.506  25.786 -0.23 +0.00    +0.278 C  ENDBRANCH  13  19BRANCH  17  21ATOM     21  O   UNL     1      42.899  48.879  23.332 -0.81 -0.16    -0.507 OA ATOM     22  H   UNL     1      43.330  48.385  22.596 +0.02 +0.06    +0.293 HD ENDBRANCH  17  21ENDBRANCH  10  12ENDBRANCH   5  10ENDBRANCH   3   4ENDBRANCH   1   3BRANCH   1  23ATOM     23  C   UNL     1      38.065  46.385  15.189 -0.41 -0.03    +0.077 C  BRANCH  23  24ATOM     24  C   UNL     1      37.923  47.127  13.853 -0.54 -0.01    +0.022 CG0ATOM     25  G   UNL     1      37.207  46.350  12.748 +0.00 +0.00    +0.000 G0 ENDBRANCH  23  24BRANCH  23  26ATOM     26  C   UNL     1      36.737  46.317  16.007 -0.36 -0.07    +0.113 C  BRANCH  26  27ATOM     27  C   UNL     1      35.545  45.854  15.133 -0.35 -0.08    +0.107 C  BRANCH  27  28ATOM     28  N   UNL     1      35.081  46.725  14.059 -0.20 +0.28    -0.315 NA ATOM     29  H   UNL     1      35.189  47.700  14.351 +0.12 -0.15    +0.122 HD BRANCH  28  30ATOM     30  C   UNL     1      35.697  46.568  12.749 -0.59 -0.05    +0.081 C  BRANCH  30  31ATOM     31  C   UNL     1      37.207  46.350  12.749 -0.62 -0.01    +0.017 CG0ATOM     32  G   UNL     1      37.920  47.129  13.854 +0.00 +0.00    +0.000 G0 ENDBRANCH  30  31ENDBRANCH  28  30ENDBRANCH  27  28ENDBRANCH  26  27BRANCH  26  33ATOM     33  N   UNL     1      36.905  45.391  17.144 -0.12 +0.13    -0.346 N  ATOM     34  C   UNL     1      35.974  45.318  18.157 -0.21 -0.09    +0.251 C  ATOM     35  H   UNL     1      37.682  44.747  17.110 +0.10 -0.04    +0.164 HD ATOM     36  O   UNL     1      35.009  46.068  18.239 -0.36 +0.16    -0.269 OA BRANCH  34  37ATOM     37  C   UNL     1      36.201  44.287  19.202 -0.35 -0.01    +0.042 A  ATOM     38  C   UNL     1      37.274  44.464  20.077 -0.31 -0.00    +0.034 A  ATOM     39  C   UNL     1      35.365  43.180  19.350 -0.38 -0.00    +0.034 A  ATOM     40  C   UNL     1      37.485  43.506  21.050 -0.30 +0.00    +0.112 A  ATOM     41  C   UNL     1      35.661  42.279  20.359 -0.38 -0.00    +0.112 A  ATOM     42  N   UNL     1      36.705  42.413  21.202 -0.27 -0.01    -0.265 NA ENDBRANCH  34  37ENDBRANCH  26  33ENDBRANCH  23  26ENDBRANCH   1  23TORSDOF 9TERENDMDL