MODEL        8USER    Run = 8USERUSER    Estimated Free Energy of Binding    =  -6.30 kcal/mol  [=(1)+(2)+(3)-(4)]USERUSER    (1) Final Intermolecular Energy     = -10.77 kcal/molUSER        vdW + Hbond + desolv Energy     = -10.79 kcal/molUSER        Electrostatic Energy            =  -0.07 kcal/molUSER        Moving Ligand-Fixed Receptor    = -10.86 kcal/molUSER        Moving Ligand-Moving Receptor   =  +0.09 kcal/molUSER    (2) Final Total Internal Energy     =  -3.45 kcal/molUSER    (3) Torsional Free Energy           =  +4.47 kcal/molUSER    (4) Unbound System's Energy         =  -3.45 kcal/molUSERUSERREMARK SMILES COc1ccc(O)c(C(=O)c2ccc(CO[C@@H]3CCCNC[C@@H]3NC(=O)c3ccncc3)cc2)c1FREMARK SMILES IDX 16 1 15 2 14 3 11 4 12 5 34 6 13 7 33 8 9 9 10 10 8 11 3 12REMARK SMILES IDX 4 13 35 14 5 15 6 16 36 17 2 18 1 19 7 20 17 22 18 23 23 25REMARK SMILES IDX 22 26 21 27 20 29 19 30 24 32 25 33 26 35 27 36 28 37 32 38REMARK SMILES IDX 29 39 31 40 30 41REMARK H PARENT 7 21 21 28 24 34REMARK Flexibility Score:   99.900USER                              x       y       z     vdW  Elec       q    TypeUSER                           _______ _______ _______ _____ _____    ______ ____ROOTATOM      1  O   UNL     1      36.543  45.104  19.415 -0.05 +0.05    -0.371 OA ENDROOTBRANCH   1   2ATOM      2  C   UNL     1      37.404  44.087  19.925 -0.29 -0.01    +0.196 C  BRANCH   2   3ATOM      3  C   UNL     1      38.756  44.700  20.181 -0.35 +0.00    -0.022 A  ATOM      4  C   UNL     1      41.263  45.871  20.668 -0.34 +0.00    +0.023 A  ATOM      5  C   UNL     1      40.276  45.896  21.657 -0.25 +0.00    +0.012 A  ATOM      6  C   UNL     1      41.009  45.233  19.449 -0.42 +0.00    +0.012 A  ATOM      7  C   UNL     1      39.029  45.319  21.410 -0.33 +0.00    +0.007 A  ATOM      8  C   UNL     1      39.761  44.656  19.205 -0.40 -0.00    +0.007 A  BRANCH   4   9ATOM      9  C   UNL     1      42.613  46.440  20.896 -0.29 +0.05    +0.199 C  ATOM     10  O   UNL     1      43.092  47.204  20.054 -0.37 -0.07    -0.288 OA BRANCH   9  11ATOM     11  C   UNL     1      43.454  46.091  22.061 -0.21 +0.04    +0.104 A  ATOM     12  C   UNL     1      44.534  44.453  23.508 -0.08 +0.03    +0.155 A  ATOM     13  C   UNL     1      45.071  45.489  24.276 -0.05 +0.01    +0.053 A  ATOM     14  C   UNL     1      43.722  44.767  22.409 -0.13 +0.06    +0.179 A  ATOM     15  C   UNL     1      44.782  46.818  23.958 -0.11 +0.01    +0.051 A  ATOM     16  C   UNL     1      43.968  47.114  22.867 -0.21 +0.04    +0.130 A  ATOM     17  F   UNL     1      43.182  43.762  21.700 -0.09 -0.05    -0.202 F  BRANCH  12  18ATOM     18  O   UNL     1      44.733  43.117  23.732 -0.02 -0.03    -0.494 OA ATOM     19  C   UNL     1      45.502  42.402  22.774 -0.21 +0.01    +0.278 C  ENDBRANCH  12  18BRANCH  16  20ATOM     20  O   UNL     1      43.710  48.440  22.643 -0.42 -0.11    -0.507 OA ATOM     21  H   UNL     1      43.619  48.570  21.670 -0.43 -0.03    +0.293 HD ENDBRANCH  16  20ENDBRANCH   9  11ENDBRANCH   4   9ENDBRANCH   2   3ENDBRANCH   1   2BRANCH   1  22ATOM     22  C   UNL     1      35.704  44.654  18.329 -0.30 -0.04    +0.142 C  BRANCH  22  23ATOM     23  C   UNL     1      36.123  43.196  18.093 -0.26 -0.01    +0.035 CG0ATOM     24  G   UNL     1      35.318  42.336  17.125 +0.00 +0.00    +0.000 G0 ENDBRANCH  22  23BRANCH  22  25ATOM     25  C   UNL     1      35.871  45.610  17.124 -0.32 -0.07    +0.125 C  BRANCH  25  26ATOM     26  C   UNL     1      35.414  44.931  15.809 -0.32 -0.06    +0.108 C  BRANCH  26  27ATOM     27  N   UNL     1      36.214  43.802  15.339 -0.21 +0.12    -0.315 NA ATOM     28  H   UNL     1      37.156  43.894  15.722 +0.07 -0.04    +0.122 HD BRANCH  27  29ATOM     29  C   UNL     1      35.656  42.494  15.650 -0.09 -0.03    +0.081 C  BRANCH  29  30ATOM     30  C   UNL     1      35.318  42.336  17.125 -0.44 -0.01    +0.018 CG0ATOM     31  G   UNL     1      36.122  43.196  18.094 +0.00 +0.00    +0.000 G0 ENDBRANCH  29  30ENDBRANCH  27  29ENDBRANCH  26  27ENDBRANCH  25  26BRANCH  25  32ATOM     32  N   UNL     1      37.230  46.169  17.073 -0.15 +0.16    -0.345 N  ATOM     33  C   UNL     1      37.643  46.953  16.016 -0.28 -0.14    +0.251 C  ATOM     34  H   UNL     1      37.620  46.407  17.977 +0.08 -0.05    +0.164 HD ATOM     35  O   UNL     1      36.971  47.152  15.013 -0.27 +0.18    -0.269 OA BRANCH  33  36ATOM     36  C   UNL     1      38.972  47.607  16.162 -0.43 -0.02    +0.042 A  ATOM     37  C   UNL     1      39.837  47.132  17.148 -0.45 -0.01    +0.034 A  ATOM     38  C   UNL     1      39.355  48.691  15.372 -0.51 -0.02    +0.034 A  ATOM     39  C   UNL     1      41.064  47.755  17.291 -0.44 -0.01    +0.112 A  ATOM     40  C   UNL     1      40.603  49.245  15.597 -0.54 -0.03    +0.112 A  ATOM     41  N   UNL     1      41.465  48.798  16.533 -0.88 -0.01    -0.265 NA ENDBRANCH  33  36ENDBRANCH  25  32ENDBRANCH  22  25ENDBRANCH   1  22TORSDOF 9TERENDMDL