REMARK SMILES COc1ccc(Cn2c(C)nc3c2=C[C@H](C=C2CCN(CCN4CCNCC4)CC2)C=3)cc1
REMARK SMILES IDX 16 1 15 2 8 3 9 4 13 5 11 6 12 7 14 8 31 9 10 10 7 11 6 12
REMARK SMILES IDX 3 13 4 14 33 15 5 16 32 17 2 18 1 19 17 20 18 21 30 22 19 23
REMARK SMILES IDX 29 24 20 25 21 26 22 27 23 28 24 29 28 30 25 31 27 32 26 33
REMARK H PARENT 26 34
ROOT
ATOM      1  C   UNL     1       0.551  -0.119  -0.532  1.00  0.00    -0.016 C 
ENDROOT
BRANCH   1   2
ATOM      2  C   UNL     1       1.296  -0.871  -1.603  1.00  0.00     0.061 C 
ATOM      3  N   UNL     1       4.889  -1.601  -1.477  1.00  0.00    -0.324 N 
ATOM      4  C   UNL     1       4.935  -2.945  -1.105  1.00  0.00     0.107 A 
ATOM      5  C   UNL     1       3.572  -1.285  -1.540  1.00  0.00     0.065 A 
ATOM      6  N   UNL     1       3.748  -3.506  -0.922  1.00  0.00    -0.234 NA
ATOM      7  C   UNL     1       2.871  -2.490  -1.186  1.00  0.00     0.085 A 
ATOM      8  C   UNL     1       2.702  -0.311  -1.794  1.00  0.00     0.013 C 
ATOM      9  C   UNL     1       1.554  -2.311  -1.201  1.00  0.00     0.015 C 
ATOM     10  C   UNL     1       6.200  -3.718  -0.901  1.00  0.00     0.088 C 
BRANCH   3  11
ATOM     11  C   UNL     1       6.009  -0.722  -1.717  1.00  0.00     0.159 C 
BRANCH  11  12
ATOM     12  C   UNL     1       6.754  -0.381  -0.445  1.00  0.00    -0.028 A 
ATOM     13  C   UNL     1       8.155   0.280   1.914  1.00  0.00     0.118 A 
ATOM     14  C   UNL     1       6.781   0.502   1.827  1.00  0.00     0.047 A 
ATOM     15  C   UNL     1       8.826  -0.267   0.818  1.00  0.00     0.047 A 
ATOM     16  C   UNL     1       6.088   0.178   0.655  1.00  0.00     0.009 A 
ATOM     17  C   UNL     1       8.137  -0.593  -0.353  1.00  0.00     0.009 A 
BRANCH  13  18
ATOM     18  O   UNL     1       8.949   0.549   2.994  1.00  0.00    -0.497 OA
ATOM     19  C   UNL     1       8.304   1.068   4.151  1.00  0.00     0.278 C 
ENDBRANCH  13  18
ENDBRANCH  11  12
ENDBRANCH   3  11
ENDBRANCH   1   2
BRANCH   1  20
ATOM     20  C   UNL     1      -0.628   0.520  -0.667  1.00  0.00    -0.071 C 
ATOM     21  C   UNL     1      -1.428   0.564  -1.950  1.00  0.00     0.046 C 
ATOM     22  C   UNL     1      -1.277   1.240   0.489  1.00  0.00     0.046 C 
ATOM     23  C   UNL     1      -2.798   1.251  -1.782  1.00  0.00     0.089 C 
ATOM     24  C   UNL     1      -2.776   0.903   0.636  1.00  0.00     0.089 C 
ATOM     25  N   UNL     1      -3.521   0.708  -0.625  1.00  0.00    -0.301 NA
BRANCH  25  26
ATOM     26  C   UNL     1      -4.899   1.228  -0.555  1.00  0.00     0.100 C 
BRANCH  26  27
ATOM     27  C   UNL     1      -5.788   0.481   0.471  1.00  0.00     0.100 C 
BRANCH  27  28
ATOM     28  N   UNL     1      -7.152   1.034   0.597  1.00  0.00    -0.300 NA
ATOM     29  C   UNL     1      -7.956   0.830  -0.625  1.00  0.00     0.100 C 
ATOM     30  C   UNL     1      -7.841   0.424   1.754  1.00  0.00     0.100 C 
ATOM     31  C   UNL     1      -9.422   1.293  -0.457  1.00  0.00     0.096 C 
ATOM     32  C   UNL     1      -9.303   0.900   1.896  1.00  0.00     0.096 C 
ATOM     33  N   UNL     1     -10.104   0.658   0.683  1.00  0.00    -0.314 NA
ATOM     34  H   UNL     1     -10.127  -0.348   0.517  1.00  0.00     0.122 HD
ENDBRANCH  27  28
ENDBRANCH  26  27
ENDBRANCH  25  26
ENDBRANCH   1  20
TORSDOF 8
