MODEL        2USER    Run = 2USERUSER    Estimated Free Energy of Binding    =  -9.86 kcal/mol  [=(1)+(2)+(3)-(4)]USERUSER    (1) Final Intermolecular Energy     = -11.35 kcal/molUSER        vdW + Hbond + desolv Energy     = -11.24 kcal/molUSER        Electrostatic Energy            =  -0.10 kcal/molUSER        Moving Ligand-Fixed Receptor    = -11.35 kcal/molUSER        Moving Ligand-Moving Receptor   =  +0.00 kcal/molUSER    (2) Final Total Internal Energy     =  -0.47 kcal/molUSER    (3) Torsional Free Energy           =  +1.49 kcal/molUSER    (4) Unbound System's Energy         =  -0.47 kcal/molUSERUSERREMARK SMILES CN1CCN(c2ccc(CN3CCC(n4c(O)nc5cc(F)ccc54)CC3)cc2)CC1REMARK SMILES IDX 11 1 12 2 13 3 14 4 26 5 27 6 10 7 9 8 6 9 7 10 29 11 8 12REMARK SMILES IDX 28 13 5 14 2 15 3 16 31 17 4 18 30 19 1 20 15 21 16 22 25 23REMARK SMILES IDX 18 24 24 25 19 26 23 27 20 28 21 29 22 30 17 31REMARK H PARENT 17 32USER                              x       y       z     vdW  Elec       q    TypeUSER                           _______ _______ _______ _____ _____    ______ ____ROOTATOM      1  N   UNL     1      40.673  44.912  20.227 -0.19 -0.02    -0.299 NA ATOM      2  C   UNL     1      39.595  44.417  19.355 -0.36 -0.00    +0.087 C  ATOM      3  C   UNL     1      39.495  45.155  18.015 -0.44 -0.00    +0.041 C  ATOM      4  C   UNL     1      39.914  46.619  18.164 -0.43 -0.01    +0.095 C  ATOM      5  C   UNL     1      41.329  46.752  18.756 -0.53 -0.00    +0.041 C  ATOM      6  C   UNL     1      41.785  45.478  19.469 -0.34 +0.01    +0.087 C  ENDROOTBRANCH   1   7ATOM      7  C   UNL     1      41.132  43.883  21.175 -0.29 +0.01    +0.120 C  BRANCH   7   8ATOM      8  C   UNL     1      40.191  43.675  22.342 -0.25 -0.00    -0.034 A  ATOM      9  C   UNL     1      38.424  43.259  24.545 -0.24 +0.00    +0.037 A  ATOM     10  C   UNL     1      37.993  43.110  23.219 -0.33 +0.00    +0.026 A  ATOM     11  C   UNL     1      39.762  43.643  24.733 -0.17 +0.00    +0.026 A  ATOM     12  C   UNL     1      38.859  43.308  22.134 -0.27 +0.00    +0.007 A  ATOM     13  C   UNL     1      40.634  43.842  23.656 -0.19 +0.00    +0.007 A  BRANCH   9  14ATOM     14  N   UNL     1      37.586  43.080  25.658 -0.07 +0.01    -0.369 N  ATOM     15  N   UNL     1      35.537  42.174  27.613 -0.30 +0.10    -0.303 NA ATOM     16  C   UNL     1      36.943  41.715  27.650 -0.46 -0.03    +0.105 C  ATOM     17  C   UNL     1      35.493  43.494  26.947 -0.48 -0.02    +0.105 C  ATOM     18  C   UNL     1      37.699  41.749  26.299 -0.34 -0.01    +0.132 C  ATOM     19  C   UNL     1      36.195  43.567  25.569 -0.30 -0.00    +0.132 C  ATOM     20  C   UNL     1      34.672  41.202  26.949 -0.60 -0.04    +0.105 C  ENDBRANCH   9  14ENDBRANCH   7   8ENDBRANCH   1   7BRANCH   4  21ATOM     21  N   UNL     1      39.740  47.379  16.932 -0.28 +0.07    -0.291 N  ATOM     22  C   UNL     1      40.618  48.313  16.454 -0.30 -0.06    +0.295 A  ATOM     23  C   UNL     1      38.687  47.326  16.041 -0.39 -0.03    +0.072 A  ATOM     24  N   UNL     1      40.228  48.867  15.340 -0.42 +0.06    -0.195 NA ATOM     25  C   UNL     1      37.504  46.574  15.979 -0.37 -0.02    +0.032 A  ATOM     26  C   UNL     1      39.025  48.267  15.062 -0.46 -0.04    +0.095 A  ATOM     27  C   UNL     1      36.657  46.805  14.891 -0.38 -0.03    +0.041 A  ATOM     28  C   UNL     1      38.163  48.485  13.978 -0.42 -0.03    +0.070 A  ATOM     29  C   UNL     1      36.987  47.743  13.917 -0.45 -0.07    +0.125 A  ATOM     30  F   UNL     1      36.149  47.933  12.889 -0.21 +0.11    -0.207 F  BRANCH  22  31ATOM     31  O   UNL     1      41.750  48.647  17.037 -0.68 -0.04    -0.480 OA ATOM     32  H   UNL     1      42.302  47.865  16.851 -0.31 -0.04    +0.296 HD ENDBRANCH  22  31ENDBRANCH   4  21TORSDOF 5TERENDMDL