MODEL        9USER    Run = 9USERUSER    Estimated Free Energy of Binding    =  -9.02 kcal/mol  [=(1)+(2)+(3)-(4)]USERUSER    (1) Final Intermolecular Energy     = -10.21 kcal/molUSER        vdW + Hbond + desolv Energy     = -10.26 kcal/molUSER        Electrostatic Energy            =  +0.05 kcal/molUSER        Moving Ligand-Fixed Receptor    = -10.21 kcal/molUSER        Moving Ligand-Moving Receptor   =  +0.00 kcal/molUSER    (2) Final Total Internal Energy     =  -1.84 kcal/molUSER    (3) Torsional Free Energy           =  +1.19 kcal/molUSER    (4) Unbound System's Energy         =  -1.84 kcal/molUSERUSERREMARK SMILES COc1cncc(C2=CN=C3N=CN=C(N4C[C@@H](C)[C@H](C(=O)N(C)C)C4)[C@@H]23)c1REMARK SMILES IDX 8 1 9 2 10 3 11 4 12 5 13 6 14 7 15 8 27 9 7 10 3 11 4 12REMARK SMILES IDX 28 13 5 14 6 15 2 16 1 17 16 18 17 19 26 20 18 21 20 22REMARK SMILES IDX 19 23 21 24 23 25 22 26 24 27 25 28REMARK H PARENTUSER                              x       y       z     vdW  Elec       q    TypeUSER                           _______ _______ _______ _____ _____    ______ ____ROOTATOM      1  C   UNL     1      38.745  47.176  15.396 -0.52 +0.00    -0.002 C  ATOM      2  C   UNL     1      39.483  48.217  15.801 -0.50 -0.04    +0.118 C  ATOM      3  N   UNL     1      40.303  47.928  16.856 -0.35 +0.05    -0.240 NA ATOM      4  C   UNL     1      40.048  46.681  17.105 -0.44 -0.02    +0.145 C  ATOM      5  N   UNL     1      40.556  46.037  18.183 -0.31 +0.01    -0.220 NA ATOM      6  C   UNL     1      39.708  45.261  18.772 -0.34 -0.01    +0.226 C  ATOM      7  N   UNL     1      38.420  45.024  18.364 -0.25 +0.03    -0.223 NA ATOM      8  C   UNL     1      38.063  45.316  17.142 -0.35 -0.03    +0.121 C  ATOM      9  C   UNL     1      39.086  45.957  16.200 -0.32 -0.04    +0.156 C  ENDROOTBRANCH   1  10ATOM     10  C   UNL     1      37.885  47.201  14.226 -0.48 -0.00    +0.002 A  ATOM     11  C   UNL     1      36.785  46.079  12.390 -0.50 -0.05    +0.137 A  ATOM     12  C   UNL     1      36.300  47.325  12.007 -0.50 -0.08    +0.157 A  ATOM     13  C   UNL     1      37.584  46.024  13.530 -0.41 -0.02    +0.058 A  ATOM     14  N   UNL     1      36.564  48.488  12.654 -0.82 +0.09    -0.260 NA ATOM     15  C   UNL     1      37.343  48.394  13.753 -0.44 -0.06    +0.119 A  BRANCH  11  16ATOM     16  O   UNL     1      36.428  45.028  11.596 -0.20 +0.17    -0.495 OA ATOM     17  C   UNL     1      37.290  43.895  11.616 -0.26 -0.08    +0.278 C  ENDBRANCH  11  16ENDBRANCH   1  10BRANCH   8  18ATOM     18  N   UNL     1      36.791  44.991  16.705 -0.10 +0.14    -0.358 N  ATOM     19  C   UNL     1      36.464  43.786  15.948 -0.37 -0.04    +0.122 C  ATOM     20  C   UNL     1      35.591  45.518  17.365 -0.32 -0.07    +0.131 C  ATOM     21  C   UNL     1      35.088  43.351  16.469 -0.45 -0.01    +0.019 C  ATOM     22  C   UNL     1      34.423  44.691  16.816 -0.30 -0.06    +0.102 C  ATOM     23  C   UNL     1      35.207  42.435  17.688 -0.45 -0.00    +0.010 C  BRANCH  22  24ATOM     24  C   UNL     1      33.785  45.340  15.585 -0.20 -0.19    +0.227 C  ATOM     25  N   UNL     1      32.415  45.155  15.394 -0.14 +0.24    -0.349 N  ATOM     26  O   UNL     1      34.459  45.986  14.781 -0.28 +0.27    -0.275 OA ATOM     27  C   UNL     1      31.482  44.754  16.437 -0.26 -0.05    +0.146 C  ATOM     28  C   UNL     1      31.811  45.764  14.219 -0.41 -0.11    +0.146 C  ENDBRANCH  22  24ENDBRANCH   8  18TORSDOF 4TERENDMDL