REMARK SMILES CN1CCN(c2ccc(CN3CCC(n4c(O)nc5cc(F)ccc54)CC3)cc2)CC1
REMARK SMILES IDX 11 1 12 2 13 3 14 4 26 5 27 6 10 7 9 8 6 9 7 10 29 11 8 12
REMARK SMILES IDX 28 13 5 14 2 15 3 16 31 17 4 18 30 19 1 20 15 21 16 22 25 23
REMARK SMILES IDX 18 24 24 25 19 26 23 27 20 28 21 29 22 30 17 31
REMARK H PARENT 17 32
ROOT
ATOM      1  N   UNL     1      -1.335  -1.297   0.263  1.00  0.00    -0.299 NA
ATOM      2  C   UNL     1      -1.536   0.080   0.746  1.00  0.00     0.087 C 
ATOM      3  C   UNL     1      -2.988   0.563   0.650  1.00  0.00     0.041 C 
ATOM      4  C   UNL     1      -3.697  -0.069  -0.550  1.00  0.00     0.095 C 
ATOM      5  C   UNL     1      -3.636  -1.606  -0.506  1.00  0.00     0.041 C 
ATOM      6  C   UNL     1      -2.531  -2.120   0.419  1.00  0.00     0.087 C 
ENDROOT
BRANCH   1   7
ATOM      7  C   UNL     1      -0.157  -1.931   0.879  1.00  0.00     0.120 C 
BRANCH   7   8
ATOM      8  C   UNL     1       1.146  -1.242   0.536  1.00  0.00    -0.034 A 
ATOM      9  C   UNL     1       3.616   0.033  -0.113  1.00  0.00     0.037 A 
ATOM     10  C   UNL     1       3.181  -0.093   1.214  1.00  0.00     0.026 A 
ATOM     11  C   UNL     1       2.766  -0.480  -1.106  1.00  0.00     0.026 A 
ATOM     12  C   UNL     1       1.971  -0.725   1.538  1.00  0.00     0.007 A 
ATOM     13  C   UNL     1       1.557  -1.112  -0.793  1.00  0.00     0.007 A 
BRANCH   9  14
ATOM     14  N   UNL     1       4.815   0.667  -0.479  1.00  0.00    -0.369 N 
ATOM     15  N   UNL     1       7.649   1.476  -0.875  1.00  0.00    -0.303 NA
ATOM     16  C   UNL     1       6.900   0.661  -1.857  1.00  0.00     0.105 C 
ATOM     17  C   UNL     1       6.680   2.276  -0.094  1.00  0.00     0.105 C 
ATOM     18  C   UNL     1       5.729  -0.176  -1.285  1.00  0.00     0.132 C 
ATOM     19  C   UNL     1       5.515   1.476   0.538  1.00  0.00     0.132 C 
ATOM     20  C   UNL     1       8.485   0.644  -0.013  1.00  0.00     0.105 C 
ENDBRANCH   9  14
ENDBRANCH   7   8
ENDBRANCH   1   7
BRANCH   4  21
ATOM     21  N   UNL     1      -5.050   0.441  -0.732  1.00  0.00    -0.291 N 
ATOM     22  C   UNL     1      -5.477   1.170  -1.808  1.00  0.00     0.295 A 
ATOM     23  C   UNL     1      -6.130   0.313   0.118  1.00  0.00     0.072 A 
ATOM     24  N   UNL     1      -6.729   1.525  -1.729  1.00  0.00    -0.195 NA
ATOM     25  C   UNL     1      -6.321  -0.317   1.357  1.00  0.00     0.032 A 
ATOM     26  C   UNL     1      -7.159   1.001  -0.535  1.00  0.00     0.095 A 
ATOM     27  C   UNL     1      -7.594  -0.228   1.929  1.00  0.00     0.041 A 
ATOM     28  C   UNL     1      -8.428   1.080   0.054  1.00  0.00     0.070 A 
ATOM     29  C   UNL     1      -8.619   0.458   1.285  1.00  0.00     0.125 A 
ATOM     30  F   UNL     1      -9.825   0.519   1.866  1.00  0.00    -0.207 F 
BRANCH  22  31
ATOM     31  O   UNL     1      -4.724   1.503  -2.836  1.00  0.00    -0.480 OA
ATOM     32  H   UNL     1      -5.355   2.006  -3.383  1.00  0.00     0.296 HD
ENDBRANCH  22  31
ENDBRANCH   4  21
TORSDOF 5
