MODEL        3USER    Run = 3USERUSER    Estimated Free Energy of Binding    = -10.71 kcal/mol  [=(1)+(2)+(3)-(4)]USERUSER    (1) Final Intermolecular Energy     = -13.09 kcal/molUSER        vdW + Hbond + desolv Energy     = -13.11 kcal/molUSER        Electrostatic Energy            =  +0.01 kcal/molUSER        Moving Ligand-Fixed Receptor    = -13.09 kcal/molUSER        Moving Ligand-Moving Receptor   =  +0.00 kcal/molUSER    (2) Final Total Internal Energy     =  -1.32 kcal/molUSER    (3) Torsional Free Energy           =  +2.39 kcal/molUSER    (4) Unbound System's Energy         =  -1.32 kcal/molUSERUSERREMARK SMILES COc1ccc(Cn2c(C)nc3c2=C[C@H](C=C2CCN(CCN4CCNCC4)CC2)C=3)cc1REMARK SMILES IDX 16 1 15 2 8 3 9 4 13 5 11 6 12 7 14 8 31 9 10 10 7 11 6 12REMARK SMILES IDX 3 13 4 14 33 15 5 16 32 17 2 18 1 19 17 20 18 21 30 22 19 23REMARK SMILES IDX 29 24 20 25 21 26 22 27 23 28 24 29 28 30 25 31 27 32 26 33REMARK H PARENT 26 34USER                              x       y       z     vdW  Elec       q    TypeUSER                           _______ _______ _______ _____ _____    ______ ____ROOTATOM      1  C   UNL     1      28.892  30.561  24.195 -0.61 -0.01    -0.016 C  ENDROOTBRANCH   1   2ATOM      2  C   UNL     1      27.611  31.221  23.758 -0.35 +0.02    +0.061 C  ATOM      3  N   UNL     1      27.441  34.522  22.167 -0.18 +0.11    -0.324 N  ATOM      4  C   UNL     1      27.243  34.223  20.818 -0.28 -0.09    +0.107 A  ATOM      5  C   UNL     1      27.507  33.324  22.799 -0.36 +0.01    +0.065 A  ATOM      6  N   UNL     1      27.183  32.927  20.545 -0.26 +0.21    -0.234 NA ATOM      7  C   UNL     1      27.347  32.336  21.767 -0.35 -0.05    +0.085 A  ATOM      8  C   UNL     1      27.664  32.729  23.979 -0.39 +0.01    +0.013 C  ATOM      9  C   UNL     1      27.403  31.102  22.259 -0.42 -0.01    +0.015 C  ATOM     10  C   UNL     1      27.122  35.252  19.738 -0.19 -0.05    +0.088 C  BRANCH   3  11ATOM     11  C   UNL     1      27.576  35.831  22.761 -0.22 -0.03    +0.159 C  BRANCH  11  12ATOM     12  C   UNL     1      28.787  36.575  22.242 -0.34 +0.00    -0.028 A  ATOM     13  C   UNL     1      31.036  37.988  21.289 -0.41 +0.01    +0.118 A  ATOM     14  C   UNL     1      31.162  37.111  22.365 -0.35 -0.00    +0.047 A  ATOM     15  C   UNL     1      29.783  38.161  20.695 -0.28 +0.00    +0.047 A  ATOM     16  C   UNL     1      30.045  36.414  22.840 -0.41 +0.00    +0.009 A  ATOM     17  C   UNL     1      28.666  37.465  21.166 -0.28 -0.00    +0.009 A  BRANCH  13  18ATOM     18  O   UNL     1      32.040  38.727  20.728 -0.97 -0.17    -0.497 OA ATOM     19  C   UNL     1      31.697  39.526  19.602 -0.23 +0.05    +0.278 C  ENDBRANCH  13  18ENDBRANCH  11  12ENDBRANCH   3  11ENDBRANCH   1   2BRANCH   1  20ATOM     20  C   UNL     1      29.933  30.220  23.409 -0.60 -0.01    -0.071 C  ATOM     21  C   UNL     1      30.503  31.105  22.323 -0.51 -0.00    +0.046 C  ATOM     22  C   UNL     1      30.651  28.903  23.571 -0.42 +0.00    +0.046 C  ATOM     23  C   UNL     1      31.771  30.518  21.672 -0.46 -0.00    +0.089 C  ATOM     24  C   UNL     1      32.186  29.058  23.586 -0.39 +0.01    +0.089 C  ATOM     25  N   UNL     1      32.740  30.097  22.692 -0.44 -0.01    -0.301 NA BRANCH  25  26ATOM     26  C   UNL     1      34.024  29.698  22.088 -0.49 -0.01    +0.100 C  BRANCH  26  27ATOM     27  C   UNL     1      35.135  29.417  23.131 -0.35 -0.01    +0.100 C  BRANCH  27  28ATOM     28  N   UNL     1      36.077  30.538  23.320 -0.17 -0.01    -0.300 NA ATOM     29  C   UNL     1      35.961  31.150  24.660 -0.40 +0.01    +0.100 C  ATOM     30  C   UNL     1      37.464  30.077  23.102 -0.34 +0.01    +0.100 C  ATOM     31  C   UNL     1      37.028  32.241  24.910 -0.49 +0.00    +0.096 C  ATOM     32  C   UNL     1      38.509  31.184  23.363 -0.31 +0.03    +0.096 C  ATOM     33  N   UNL     1      38.406  31.761  24.715 -0.76 -0.07    -0.314 NA ATOM     34  H   UNL     1      38.579  31.015  25.389 -0.07 +0.03    +0.122 HD ENDBRANCH  27  28ENDBRANCH  26  27ENDBRANCH  25  26ENDBRANCH   1  20TORSDOF 8TERENDMDL