REMARK SMILES COc1cncc(C2=CN=C3N=CN=C(N4C[C@@H](C)[C@H](C(=O)N(C)C)C4)[C@@H]23)c1
REMARK SMILES IDX 8 1 9 2 10 3 11 4 12 5 13 6 14 7 15 8 27 9 7 10 3 11 4 12
REMARK SMILES IDX 28 13 5 14 6 15 2 16 1 17 16 18 17 19 26 20 18 21 20 22
REMARK SMILES IDX 19 23 21 24 23 25 22 26 24 27 25 28
REMARK H PARENT
ROOT
ATOM      1  C   UNL     1       2.658  -1.252  -1.434  1.00  0.00    -0.002 C 
ATOM      2  C   UNL     1       3.786  -1.948  -1.244  1.00  0.00     0.118 C 
ATOM      3  N   UNL     1       3.663  -3.277  -1.538  1.00  0.00    -0.240 NA
ATOM      4  C   UNL     1       2.425  -3.393  -1.906  1.00  0.00     0.145 C 
ATOM      5  N   UNL     1       1.849  -4.595  -2.150  1.00  0.00    -0.220 NA
ATOM      6  C   UNL     1       0.647  -4.699  -1.689  1.00  0.00     0.226 C 
ATOM      7  N   UNL     1      -0.056  -3.708  -1.052  1.00  0.00    -0.223 NA
ATOM      8  C   UNL     1       0.328  -2.465  -1.167  1.00  0.00     0.121 C 
ATOM      9  C   UNL     1       1.585  -2.145  -1.980  1.00  0.00     0.156 C 
ENDROOT
BRANCH   1  10
ATOM     10  C   UNL     1       2.567   0.192  -1.301  1.00  0.00     0.002 A 
ATOM     11  C   UNL     1       2.547   2.190   0.059  1.00  0.00     0.137 A 
ATOM     12  C   UNL     1       2.341   2.906  -1.116  1.00  0.00     0.157 A 
ATOM     13  C   UNL     1       2.672   0.806  -0.047  1.00  0.00     0.058 A 
ATOM     14  N   UNL     1       2.237   2.352  -2.349  1.00  0.00    -0.260 NA
ATOM     15  C   UNL     1       2.362   1.008  -2.411  1.00  0.00     0.119 A 
BRANCH  11  16
ATOM     16  O   UNL     1       2.600   2.925   1.207  1.00  0.00    -0.495 OA
ATOM     17  C   UNL     1       2.647   2.194   2.428  1.00  0.00     0.278 C 
ENDBRANCH  11  16
ENDBRANCH   1  10
BRANCH   8  18
ATOM     18  N   UNL     1      -0.436  -1.458  -0.602  1.00  0.00    -0.358 N 
ATOM     19  C   UNL     1      -0.742  -0.191  -1.258  1.00  0.00     0.122 C 
ATOM     20  C   UNL     1      -1.419  -1.736   0.452  1.00  0.00     0.131 C 
ATOM     21  C   UNL     1      -2.182   0.135  -0.840  1.00  0.00     0.019 C 
ATOM     22  C   UNL     1      -2.263  -0.462   0.573  1.00  0.00     0.102 C 
ATOM     23  C   UNL     1      -3.204  -0.492  -1.789  1.00  0.00     0.010 C 
BRANCH  22  24
ATOM     24  C   UNL     1      -1.707   0.500   1.625  1.00  0.00     0.227 C 
ATOM     25  N   UNL     1      -2.430   1.666   1.880  1.00  0.00    -0.349 N 
ATOM     26  O   UNL     1      -0.650   0.264   2.213  1.00  0.00    -0.275 OA
ATOM     27  C   UNL     1      -3.833   1.859   1.543  1.00  0.00     0.146 C 
ATOM     28  C   UNL     1      -1.896   2.585   2.874  1.00  0.00     0.146 C 
ENDBRANCH  22  24
ENDBRANCH   8  18
TORSDOF 4
