REMARK SMILES Cc1nc2c(n1CC1=CN=CCC1)=C[C@@H](C=C1CCN(CCN3CCNCC3)CC1)C=2
REMARK SMILES IDX 17 1 18 2 19 3 20 4 29 5 30 6 16 7 15 8 2 9 3 10 6 11 4 12
REMARK SMILES IDX 5 13 31 14 14 15 1 16 7 17 8 18 9 19 13 20 10 21 12 22 11 23
REMARK SMILES IDX 21 24 22 25 23 26 24 27 28 28 25 29 27 30 26 31
REMARK H PARENT 26 32
ROOT
ATOM      1  C   UNL     1       0.337   0.427   0.117  1.00  0.00    -0.071 C 
ATOM      2  C   UNL     1       0.975   0.918  -1.169  1.00  0.00     0.046 C 
ATOM      3  C   UNL     1       2.484   0.624  -1.235  1.00  0.00     0.089 C 
ATOM      4  N   UNL     1       3.168   1.171  -0.065  1.00  0.00    -0.301 NA
ATOM      5  C   UNL     1       2.608   0.732   1.221  1.00  0.00     0.089 C 
ATOM      6  C   UNL     1       1.317  -0.109   1.133  1.00  0.00     0.046 C 
ENDROOT
BRANCH   1   7
ATOM      7  C   UNL     1      -0.999   0.514   0.283  1.00  0.00    -0.016 C 
BRANCH   7   8
ATOM      8  C   UNL     1      -1.812   0.075   1.471  1.00  0.00     0.061 C 
ATOM      9  C   UNL     1      -5.885   0.931   2.160  1.00  0.00     0.107 A 
ATOM     10  N   UNL     1      -4.899   1.716   2.570  1.00  0.00    -0.234 NA
ATOM     11  N   UNL     1      -5.470  -0.217   1.485  1.00  0.00    -0.324 N 
ATOM     12  C   UNL     1      -3.775   1.065   2.139  1.00  0.00     0.085 A 
ATOM     13  C   UNL     1      -4.116  -0.154   1.457  1.00  0.00     0.065 A 
ATOM     14  C   UNL     1      -2.460   1.254   2.174  1.00  0.00     0.015 C 
ATOM     15  C   UNL     1      -3.010  -0.770   1.045  1.00  0.00     0.013 C 
ATOM     16  C   UNL     1      -7.318   1.269   2.426  1.00  0.00     0.088 C 
BRANCH  11  17
ATOM     17  C   UNL     1      -6.310  -1.244   0.921  1.00  0.00     0.156 C 
BRANCH  17  18
ATOM     18  C   UNL     1      -6.767  -0.949  -0.490  1.00  0.00    -0.032 C 
ATOM     19  C   UNL     1      -6.408   0.110  -1.236  1.00  0.00     0.111 C 
ATOM     20  C   UNL     1      -7.731  -1.951  -1.066  1.00  0.00     0.040 C 
ATOM     21  N   UNL     1      -6.875   0.391  -2.493  1.00  0.00    -0.269 NA
ATOM     22  C   UNL     1      -7.761  -1.924  -2.585  1.00  0.00     0.052 C 
ATOM     23  C   UNL     1      -7.523  -0.542  -3.117  1.00  0.00     0.084 C 
ENDBRANCH  17  18
ENDBRANCH  11  17
ENDBRANCH   7   8
ENDBRANCH   1   7
BRANCH   4  24
ATOM     24  C   UNL     1       4.634   1.118  -0.126  1.00  0.00     0.100 C 
BRANCH  24  25
ATOM     25  C   UNL     1       5.263  -0.289  -0.293  1.00  0.00     0.100 C 
BRANCH  25  26
ATOM     26  N   UNL     1       6.728  -0.309  -0.119  1.00  0.00    -0.300 NA
ATOM     27  C   UNL     1       7.224  -1.704  -0.082  1.00  0.00     0.100 C 
ATOM     28  C   UNL     1       7.444   0.445  -1.165  1.00  0.00     0.100 C 
ATOM     29  C   UNL     1       8.770  -1.819  -0.108  1.00  0.00     0.096 C 
ATOM     30  C   UNL     1       8.988   0.384  -1.008  1.00  0.00     0.096 C 
ATOM     31  N   UNL     1       9.451  -0.525   0.058  1.00  0.00    -0.314 NA
ATOM     32  H   UNL     1       9.089  -0.131   0.931  1.00  0.00     0.122 HD
ENDBRANCH  25  26
ENDBRANCH  24  25
ENDBRANCH   4  24
TORSDOF 7
