MODEL        5USER    Run = 5USERUSER    Estimated Free Energy of Binding    = -10.89 kcal/mol  [=(1)+(2)+(3)-(4)]USERUSER    (1) Final Intermolecular Energy     = -12.98 kcal/molUSER        vdW + Hbond + desolv Energy     = -12.88 kcal/molUSER        Electrostatic Energy            =  -0.09 kcal/molUSER        Moving Ligand-Fixed Receptor    = -12.98 kcal/molUSER        Moving Ligand-Moving Receptor   =  +0.00 kcal/molUSER    (2) Final Total Internal Energy     =  -2.18 kcal/molUSER    (3) Torsional Free Energy           =  +2.09 kcal/molUSER    (4) Unbound System's Energy         =  -2.18 kcal/molUSERUSERREMARK SMILES Cc1nc2c(n1CC1=CN=CCC1)=C[C@@H](C=C1CCN(CCN3CCNCC3)CC1)C=2REMARK SMILES IDX 17 1 18 2 19 3 20 4 29 5 30 6 16 7 15 8 2 9 3 10 6 11 4 12REMARK SMILES IDX 5 13 31 14 14 15 1 16 7 17 8 18 9 19 13 20 10 21 12 22 11 23REMARK SMILES IDX 21 24 22 25 23 26 24 27 28 28 25 29 27 30 26 31REMARK H PARENT 26 32USER                              x       y       z     vdW  Elec       q    TypeUSER                           _______ _______ _______ _____ _____    ______ ____ROOTATOM      1  C   UNL     1      37.150  47.783  14.472 -0.52 +0.05    -0.071 C  ATOM      2  C   UNL     1      36.312  47.122  13.393 -0.60 -0.03    +0.046 C  ATOM      3  C   UNL     1      35.038  46.462  13.949 -0.41 -0.07    +0.089 C  ATOM      4  N   UNL     1      35.370  45.516  15.013 -0.16 +0.20    -0.301 NA ATOM      5  C   UNL     1      36.177  46.088  16.100 -0.36 -0.06    +0.089 C  ATOM      6  C   UNL     1      36.660  47.537  15.878 -0.30 -0.05    +0.046 C  ENDROOTBRANCH   1   7ATOM      7  C   UNL     1      38.244  48.496  14.133 -0.56 +0.01    -0.016 C  BRANCH   7   8ATOM      8  C   UNL     1      39.688  48.100  14.287 -0.42 -0.02    +0.061 C  ATOM      9  C   UNL     1      41.803  47.743  17.920 -0.40 -0.01    +0.107 A  ATOM     10  N   UNL     1      41.730  48.873  17.230 -0.76 -0.03    -0.234 NA ATOM     11  N   UNL     1      41.130  46.667  17.343 -0.22 +0.03    -0.324 N  ATOM     12  C   UNL     1      40.963  48.535  16.148 -0.51 -0.01    +0.085 A  ATOM     13  C   UNL     1      40.579  47.150  16.202 -0.43 -0.01    +0.065 A  ATOM     14  C   UNL     1      40.474  49.137  15.069 -0.66 -0.00    +0.015 C  ATOM     15  C   UNL     1      39.834  46.844  15.143 -0.53 -0.00    +0.013 C  ATOM     16  C   UNL     1      42.566  47.657  19.204 -0.45 +0.00    +0.088 C  BRANCH  11  17ATOM     17  C   UNL     1      41.028  45.326  17.863 -0.36 -0.00    +0.156 C  BRANCH  17  18ATOM     18  C   UNL     1      39.729  45.052  18.588 -0.47 +0.00    -0.032 C  ATOM     19  C   UNL     1      38.556  44.726  18.019 -0.36 -0.02    +0.111 C  ATOM     20  C   UNL     1      39.797  45.191  20.085 -0.41 +0.00    +0.040 C  ATOM     21  N   UNL     1      37.375  44.535  18.686 -0.18 +0.04    -0.269 NA ATOM     22  C   UNL     1      38.683  44.436  20.791 -0.37 +0.00    +0.052 C  ATOM     23  C   UNL     1      37.424  44.421  19.976 -0.36 -0.00    +0.084 C  ENDBRANCH  17  18ENDBRANCH  11  17ENDBRANCH   7   8ENDBRANCH   1   7BRANCH   4  24ATOM     24  C   UNL     1      34.248  44.689  15.475 -0.23 -0.06    +0.100 C  BRANCH  24  25ATOM     25  C   UNL     1      33.223  45.383  16.408 -0.28 -0.08    +0.100 C  BRANCH  25  26ATOM     26  N   UNL     1      33.201  44.836  17.778 -0.14 +0.12    -0.300 NA ATOM     27  C   UNL     1      32.002  43.990  17.976 -0.28 -0.02    +0.100 C  ATOM     28  C   UNL     1      34.413  44.065  18.111 -0.31 -0.03    +0.100 C  ATOM     29  C   UNL     1      32.001  43.210  19.316 -0.35 -0.00    +0.096 C  ATOM     30  C   UNL     1      34.368  43.450  19.537 -0.40 -0.01    +0.096 C  ATOM     31  N   UNL     1      33.078  43.626  20.230 -0.76 -0.03    -0.314 NA ATOM     32  H   UNL     1      32.966  44.636  20.350 -0.30 -0.02    +0.122 HD ENDBRANCH  25  26ENDBRANCH  24  25ENDBRANCH   4  24TORSDOF 7TERENDMDL