MODEL        7USER    Run = 7USERUSER    Estimated Free Energy of Binding    = -10.22 kcal/mol  [=(1)+(2)+(3)-(4)]USERUSER    (1) Final Intermolecular Energy     = -11.41 kcal/molUSER        vdW + Hbond + desolv Energy     = -11.24 kcal/molUSER        Electrostatic Energy            =  -0.17 kcal/molUSER        Moving Ligand-Fixed Receptor    = -11.41 kcal/molUSER        Moving Ligand-Moving Receptor   =  +0.00 kcal/molUSER    (2) Final Total Internal Energy     =  -1.21 kcal/molUSER    (3) Torsional Free Energy           =  +1.19 kcal/molUSER    (4) Unbound System's Energy         =  -1.21 kcal/molUSERUSERREMARK SMILES C[C@@H]1CN(c2nc(-c3ccc(F)cc3)cc3[nH]ncc23)CC[C@@H]1CN1N=NC1=OREMARK SMILES IDX 1 1 2 2 3 3 4 4 21 5 22 6 23 7 24 8 25 9 26 10 28 11 27 12REMARK SMILES IDX 29 13 5 14 6 15 20 16 7 17 19 18 16 19 15 20 18 21 17 22REMARK SMILES IDX 8 24 9 25 14 26 10 27 13 28 11 29 12 30REMARK H PARENT 17 23USER                              x       y       z     vdW  Elec       q    TypeUSER                           _______ _______ _______ _____ _____    ______ ____ROOTATOM      1  C   UNL     1      35.101  42.150  17.702 -0.45 -0.00    +0.010 C  ATOM      2  C   UNL     1      35.190  43.100  16.502 -0.48 -0.00    +0.010 C  ATOM      3  C   UNL     1      36.409  44.034  16.722 -0.32 -0.04    +0.121 C  ATOM      4  N   UNL     1      36.158  45.344  16.116 -0.09 +0.19    -0.356 N  ATOM      5  C   UNL     1      35.060  46.098  16.740 -0.30 -0.11    +0.118 C  ATOM      6  C   UNL     1      33.880  45.176  17.082 -0.38 -0.02    +0.027 C  ATOM      7  C   UNL     1      33.891  43.909  16.212 -0.38 -0.01    +0.017 C  ENDROOTBRANCH   7   8ATOM      8  C   UNL     1      32.569  43.134  16.346 -0.27 -0.07    +0.156 C  BRANCH   8   9ATOM      9  N   UNL     1      31.392  43.932  16.134 -0.21 +0.08    -0.193 N  ATOM     10  N   UNL     1      30.830  44.760  17.033 -0.61 +0.00    -0.057 NA ATOM     11  C   UNL     1      31.047  44.768  15.166 -0.18 -0.22    +0.385 C  ATOM     12  N   UNL     1      30.338  45.466  16.095 -0.69 +0.01    -0.070 NA ATOM     13  O   UNL     1      31.287  44.928  13.993 -0.35 +0.18    -0.242 OA ENDBRANCH   8   9ENDBRANCH   7   8BRANCH   4  14ATOM     14  C   UNL     1      37.321  46.138  16.038 -0.28 -0.07    +0.140 A  ATOM     15  N   UNL     1      38.280  46.043  17.005 -0.24 +0.07    -0.230 NA ATOM     16  C   UNL     1      37.551  47.041  14.980 -0.38 -0.03    +0.062 A  ATOM     17  C   UNL     1      39.416  46.790  16.969 -0.40 -0.02    +0.075 A  ATOM     18  C   UNL     1      36.877  47.418  13.797 -0.42 -0.08    +0.147 A  ATOM     19  C   UNL     1      38.712  47.805  14.966 -0.45 -0.03    +0.071 A  ATOM     20  C   UNL     1      39.681  47.712  15.958 -0.47 -0.02    +0.057 A  ATOM     21  N   UNL     1      37.522  48.362  13.105 -0.77 +0.04    -0.183 NA ATOM     22  N   UNL     1      38.631  48.574  13.834 -0.26 +0.10    -0.278 N  ATOM     23  H   UNL     1      39.301  49.256  13.499 -0.16 -0.08    +0.190 HD BRANCH  17  24ATOM     24  C   UNL     1      40.349  46.562  18.096 -0.49 -0.00    +0.000 A  ATOM     25  C   UNL     1      41.539  47.311  18.203 -0.52 -0.00    +0.013 A  ATOM     26  C   UNL     1      40.088  45.611  19.103 -0.43 -0.00    +0.013 A  ATOM     27  C   UNL     1      42.435  47.111  19.255 -0.49 +0.00    +0.040 A  ATOM     28  C   UNL     1      40.984  45.407  20.158 -0.36 +0.00    +0.040 A  ATOM     29  C   UNL     1      42.150  46.158  20.223 -0.30 +0.02    +0.123 A  ATOM     30  F   UNL     1      43.006  45.963  21.234 -0.07 -0.08    -0.207 F  ENDBRANCH  17  24ENDBRANCH   4  14TORSDOF 4TERENDMDL