REMARK SMILES C[C@@H]1CN(c2nc(-c3ccc(F)cc3)cc3[nH]ncc23)CC[C@@H]1CN1N=NC1=O
REMARK SMILES IDX 1 1 2 2 3 3 4 4 21 5 22 6 23 7 24 8 25 9 26 10 28 11 27 12
REMARK SMILES IDX 29 13 5 14 6 15 20 16 7 17 19 18 16 19 15 20 18 21 17 22
REMARK SMILES IDX 8 24 9 25 14 26 10 27 13 28 11 29 12 30
REMARK H PARENT 17 23
ROOT
ATOM      1  C   UNL     1       2.845   1.044  -1.868  1.00  0.00     0.010 C 
ATOM      2  C   UNL     1       2.411  -0.112  -0.958  1.00  0.00     0.010 C 
ATOM      3  C   UNL     1       0.895   0.049  -0.673  1.00  0.00     0.121 C 
ATOM      4  N   UNL     1       0.573  -0.469   0.660  1.00  0.00    -0.356 N 
ATOM      5  C   UNL     1       1.188   0.283   1.764  1.00  0.00     0.118 C 
ATOM      6  C   UNL     1       2.633   0.680   1.427  1.00  0.00     0.027 C 
ATOM      7  C   UNL     1       3.232  -0.249   0.359  1.00  0.00     0.017 C 
ENDROOT
BRANCH   7   8
ATOM      8  C   UNL     1       4.751  -0.041   0.232  1.00  0.00     0.156 C 
BRANCH   8   9
ATOM      9  N   UNL     1       5.447  -1.134  -0.392  1.00  0.00    -0.193 N 
ATOM     10  N   UNL     1       5.443  -2.412   0.028  1.00  0.00    -0.057 NA
ATOM     11  C   UNL     1       5.493  -1.558  -1.646  1.00  0.00     0.385 C 
ATOM     12  N   UNL     1       5.674  -2.816  -1.157  1.00  0.00    -0.070 NA
ATOM     13  O   UNL     1       5.363  -1.094  -2.754  1.00  0.00    -0.242 OA
ENDBRANCH   8   9
ENDBRANCH   7   8
BRANCH   4  14
ATOM     14  C   UNL     1      -0.814  -0.607   0.868  1.00  0.00     0.140 A 
ATOM     15  N   UNL     1      -1.694   0.117   0.117  1.00  0.00    -0.230 NA
ATOM     16  C   UNL     1      -1.351  -1.484   1.833  1.00  0.00     0.062 A 
ATOM     17  C   UNL     1      -3.040   0.015   0.285  1.00  0.00     0.075 A 
ATOM     18  C   UNL     1      -0.836  -2.414   2.764  1.00  0.00     0.147 A 
ATOM     19  C   UNL     1      -2.728  -1.567   2.000  1.00  0.00     0.071 A 
ATOM     20  C   UNL     1      -3.620  -0.820   1.238  1.00  0.00     0.057 A 
ATOM     21  N   UNL     1      -1.787  -3.011   3.488  1.00  0.00    -0.183 NA
ATOM     22  N   UNL     1      -2.922  -2.482   3.001  1.00  0.00    -0.278 N 
ATOM     23  H   UNL     1      -3.803  -2.795   3.393  1.00  0.00     0.190 HD
BRANCH  17  24
ATOM     24  C   UNL     1      -3.848   0.871  -0.613  1.00  0.00     0.000 A 
ATOM     25  C   UNL     1      -3.366   2.130  -1.027  1.00  0.00     0.013 A 
ATOM     26  C   UNL     1      -5.109   0.468  -1.097  1.00  0.00     0.013 A 
ATOM     27  C   UNL     1      -4.112   2.956  -1.871  1.00  0.00     0.040 A 
ATOM     28  C   UNL     1      -5.859   1.293  -1.942  1.00  0.00     0.040 A 
ATOM     29  C   UNL     1      -5.354   2.530  -2.319  1.00  0.00     0.123 A 
ATOM     30  F   UNL     1      -6.072   3.318  -3.129  1.00  0.00    -0.207 F 
ENDBRANCH  17  24
ENDBRANCH   4  14
TORSDOF 4
