REMARK SMILES C[C@@H](N)c1ccc(C(=O)Nc2nc(-c3cccc(C(F)(F)F)c3)cs2)cc1N
REMARK SMILES IDX 8 1 9 2 10 3 7 5 4 6 5 7 27 8 6 9 26 10 2 11 1 12 3 13 28 16
REMARK SMILES IDX 11 19 12 20 25 21 13 22 24 23 14 24 15 25 23 26 16 27 18 28
REMARK SMILES IDX 17 29 19 30 20 31 21 32 22 33
REMARK H PARENT 10 4 3 14 3 15 28 17 28 18
ROOT
ATOM      1  C   UNL     1      -0.964   1.948  -0.176  1.00  0.00     0.257 C 
ATOM      2  O   UNL     1      -1.013   3.172  -0.158  1.00  0.00    -0.269 OA
ATOM      3  N   UNL     1       0.160   1.155  -0.164  1.00  0.00    -0.298 N 
ATOM      4  H   UNL     1       0.073   0.154  -0.062  1.00  0.00     0.172 HD
ENDROOT
BRANCH   1   5
ATOM      5  C   UNL     1      -2.253   1.200  -0.170  1.00  0.00     0.042 A 
ATOM      6  C   UNL     1      -4.735  -0.155  -0.158  1.00  0.00    -0.009 A 
ATOM      7  C   UNL     1      -4.570   1.087   0.495  1.00  0.00     0.008 A 
ATOM      8  C   UNL     1      -3.614  -0.732  -0.790  1.00  0.00     0.037 A 
ATOM      9  C   UNL     1      -3.346   1.756   0.491  1.00  0.00     0.014 A 
ATOM     10  C   UNL     1      -2.402  -0.022  -0.834  1.00  0.00     0.039 A 
BRANCH   6  11
ATOM     11  C   UNL     1      -6.109  -0.813  -0.152  1.00  0.00     0.080 C 
ATOM     12  C   UNL     1      -6.567  -1.174   1.263  1.00  0.00     0.029 C 
BRANCH  11  13
ATOM     13  N   UNL     1      -7.117   0.033  -0.801  1.00  0.00    -0.324 NA
ATOM     14  H   UNL     1      -7.251   0.886  -0.264  1.00  0.00     0.119 HD
ATOM     15  H   UNL     1      -6.761   0.325  -1.711  1.00  0.00     0.119 HD
ENDBRANCH  11  13
ENDBRANCH   6  11
BRANCH   8  16
ATOM     16  N   UNL     1      -3.679  -1.899  -1.573  1.00  0.00    -0.398 N 
ATOM     17  H   UNL     1      -4.385  -2.565  -1.276  1.00  0.00     0.156 HD
ATOM     18  H   UNL     1      -3.821  -1.673  -2.557  1.00  0.00     0.156 HD
ENDBRANCH   8  16
ENDBRANCH   1   5
BRANCH   3  19
ATOM     19  C   UNL     1       1.466   1.571  -0.187  1.00  0.00     0.190 A 
ATOM     20  N   UNL     1       2.446   0.702  -0.108  1.00  0.00    -0.220 NA
ATOM     21  S   UNL     1       1.928   3.200  -0.337  1.00  0.00    -0.105 S 
ATOM     22  C   UNL     1       3.672   1.356  -0.165  1.00  0.00     0.084 A 
ATOM     23  C   UNL     1       3.576   2.729  -0.281  1.00  0.00     0.097 A 
BRANCH  22  24
ATOM     24  C   UNL     1       4.925   0.604  -0.091  1.00  0.00     0.002 A 
ATOM     25  C   UNL     1       6.165   1.176  -0.407  1.00  0.00     0.010 A 
ATOM     26  C   UNL     1       4.893  -0.745   0.299  1.00  0.00     0.023 A 
ATOM     27  C   UNL     1       7.340   0.422  -0.330  1.00  0.00     0.001 A 
ATOM     28  C   UNL     1       6.068  -1.512   0.389  1.00  0.00     0.056 A 
ATOM     29  C   UNL     1       7.292  -0.914   0.063  1.00  0.00     0.013 A 
BRANCH  28  30
ATOM     30  C   UNL     1       5.999  -2.964   0.789  1.00  0.00     0.416 C 
ATOM     31  F   UNL     1       5.040  -3.217   1.723  1.00  0.00    -0.166 F 
ATOM     32  F   UNL     1       5.719  -3.779  -0.265  1.00  0.00    -0.166 F 
ATOM     33  F   UNL     1       7.164  -3.429   1.321  1.00  0.00    -0.166 F 
ENDBRANCH  28  30
ENDBRANCH  22  24
ENDBRANCH   3  19
TORSDOF 7
