MODEL        6USER    Run = 6USERUSER    Estimated Free Energy of Binding    =  -9.66 kcal/mol  [=(1)+(2)+(3)-(4)]USERUSER    (1) Final Intermolecular Energy     = -11.15 kcal/molUSER        vdW + Hbond + desolv Energy     = -10.84 kcal/molUSER        Electrostatic Energy            =  -0.31 kcal/molUSER        Moving Ligand-Fixed Receptor    = -11.15 kcal/molUSER        Moving Ligand-Moving Receptor   =  +0.00 kcal/molUSER    (2) Final Total Internal Energy     =  -0.91 kcal/molUSER    (3) Torsional Free Energy           =  +1.49 kcal/molUSER    (4) Unbound System's Energy         =  -0.91 kcal/molUSERUSERREMARK SMILES C[C@@H]1C(=Cc2ccc[nH]2)C=Nc2[nH]cc(-c3cccc(C(=O)O)c3)c21REMARK SMILES IDX 1 1 2 2 3 3 10 4 11 5 12 6 13 7 14 8 15 9 25 10 4 12 5 13REMARK SMILES IDX 6 14 9 15 7 16 8 17 16 19 17 20 24 21 18 22 20 23 19 24REMARK SMILES IDX 21 25 22 26 23 27REMARK H PARENT 13 11 9 18 23 28USER                              x       y       z     vdW  Elec       q    TypeUSER                           _______ _______ _______ _____ _____    ______ ____ROOTATOM      1  C   UNL     1      37.660  44.771  15.174 -0.33 -0.01    +0.018 C  ATOM      2  C   UNL     1      37.124  46.192  15.395 -0.40 -0.03    +0.052 C  ATOM      3  C   UNL     1      35.925  46.452  14.479 -0.47 +0.01    -0.020 C  ATOM      4  C   UNL     1      36.167  47.374  13.309 -0.56 -0.07    +0.118 C  ATOM      5  N   UNL     1      37.214  48.115  13.090 -0.88 +0.07    -0.239 NA ATOM      6  C   UNL     1      38.151  48.030  14.056 -0.42 -0.05    +0.134 A  ATOM      7  N   UNL     1      39.260  48.824  14.069 -0.13 +0.14    -0.346 N  ATOM      8  C   UNL     1      40.016  48.534  15.178 -0.50 -0.03    +0.093 A  ATOM      9  C   UNL     1      39.377  47.533  15.887 -0.50 -0.00    +0.005 A  ATOM     10  C   UNL     1      38.196  47.209  15.161 -0.44 -0.00    +0.011 A  ATOM     11  H   UNL     1      39.466  49.518  13.365 -0.10 -0.09    +0.167 HD ENDROOTBRANCH   3  12ATOM     12  C   UNL     1      34.716  45.918  14.744 -0.39 -0.03    +0.032 C  BRANCH  12  13ATOM     13  C   UNL     1      34.389  45.191  15.910 -0.30 -0.03    +0.038 A  ATOM     14  C   UNL     1      34.534  43.875  16.303 -0.33 -0.01    +0.027 A  ATOM     15  N   UNL     1      33.836  45.875  16.966 -0.08 +0.37    -0.362 N  ATOM     16  C   UNL     1      34.030  43.761  17.622 -0.29 -0.01    +0.020 A  ATOM     17  C   UNL     1      33.603  45.011  18.005 -0.32 -0.04    +0.083 A  ATOM     18  H   UNL     1      33.610  46.862  16.972 -0.37 -0.39    +0.166 HD ENDBRANCH  12  13ENDBRANCH   3  12BRANCH   9  19ATOM     19  C   UNL     1      39.899  46.989  17.127 -0.48 +0.00    -0.016 A  ATOM     20  C   UNL     1      39.172  46.025  17.839 -0.42 -0.00    +0.009 A  ATOM     21  C   UNL     1      41.130  47.430  17.626 -0.50 -0.00    +0.024 A  ATOM     22  C   UNL     1      39.667  45.508  19.038 -0.43 -0.00    +0.002 A  ATOM     23  C   UNL     1      41.628  46.914  18.830 -0.47 +0.00    +0.060 A  ATOM     24  C   UNL     1      40.893  45.953  19.534 -0.42 +0.00    +0.016 A  BRANCH  23  25ATOM     25  C   UNL     1      42.926  47.354  19.394 -0.34 +0.05    +0.335 C  ATOM     26  O   UNL     1      43.913  47.669  18.754 -0.39 -0.06    -0.246 OA BRANCH  25  27ATOM     27  O   UNL     1      42.936  47.372  20.739 -0.20 -0.09    -0.478 OA ATOM     28  H   UNL     1      43.377  48.220  20.955 -0.39 -0.04    +0.297 HD ENDBRANCH  25  27ENDBRANCH  23  25ENDBRANCH   9  19TORSDOF 5TERENDMDL