REMARK SMILES Nc1ncncc1-c1nc(-c2ccc(C(=O)O)cc2)c2ncn(CCO)c2n1
REMARK SMILES IDX 8 1 9 2 10 3 20 4 21 5 22 6 23 7 27 8 28 9 7 10 2 11 3 12
REMARK SMILES IDX 4 13 6 14 5 15 1 16 11 19 12 20 19 21 13 22 18 23 14 24
REMARK SMILES IDX 15 25 16 26 17 27 24 29 25 30 26 31
REMARK H PARENT 1 17 1 18 17 28 26 32
ROOT
ATOM      1  C   UNL     1      -1.570   0.328   0.340  1.00  0.00     0.167 A 
ATOM      2  N   UNL     1      -0.365   0.791  -0.073  1.00  0.00    -0.225 NA
ATOM      3  C   UNL     1       0.643  -0.088  -0.367  1.00  0.00     0.102 A 
ATOM      4  C   UNL     1       0.382  -1.459  -0.237  1.00  0.00     0.134 A 
ATOM      5  N   UNL     1       1.132  -2.599  -0.446  1.00  0.00    -0.233 NA
ATOM      6  C   UNL     1       0.329  -3.603  -0.165  1.00  0.00     0.202 A 
ATOM      7  N   UNL     1      -0.908  -3.168   0.223  1.00  0.00    -0.313 N 
ATOM      8  C   UNL     1      -0.894  -1.800   0.185  1.00  0.00     0.164 A 
ATOM      9  N   UNL     1      -1.905  -0.972   0.499  1.00  0.00    -0.208 NA
ENDROOT
BRANCH   1  10
ATOM     10  C   UNL     1      -2.609   1.321   0.627  1.00  0.00     0.080 A 
ATOM     11  C   UNL     1      -2.374   2.664   0.932  1.00  0.00     0.137 A 
ATOM     12  N   UNL     1      -3.363   3.542   1.184  1.00  0.00    -0.219 NA
ATOM     13  C   UNL     1      -4.619   3.088   1.106  1.00  0.00     0.224 A 
ATOM     14  C   UNL     1      -3.956   0.983   0.589  1.00  0.00     0.128 A 
ATOM     15  N   UNL     1      -4.978   1.835   0.818  1.00  0.00    -0.244 NA
BRANCH  11  16
ATOM     16  N   UNL     1      -1.077   3.176   1.113  1.00  0.00    -0.383 N 
ATOM     17  H   UNL     1      -0.687   2.801   1.972  1.00  0.00     0.158 HD
ATOM     18  H   UNL     1      -0.481   2.828   0.360  1.00  0.00     0.158 HD
ENDBRANCH  11  16
ENDBRANCH   1  10
BRANCH   3  19
ATOM     19  C   UNL     1       1.931   0.469  -0.809  1.00  0.00     0.003 A 
ATOM     20  C   UNL     1       3.151  -0.205  -0.622  1.00  0.00     0.011 A 
ATOM     21  C   UNL     1       1.985   1.730  -1.436  1.00  0.00     0.011 A 
ATOM     22  C   UNL     1       4.367   0.350  -1.043  1.00  0.00     0.016 A 
ATOM     23  C   UNL     1       3.197   2.292  -1.859  1.00  0.00     0.016 A 
ATOM     24  C   UNL     1       4.394   1.601  -1.663  1.00  0.00     0.059 A 
BRANCH  24  25
ATOM     25  C   UNL     1       5.704   2.149  -2.092  1.00  0.00     0.335 C 
ATOM     26  O   UNL     1       6.785   1.609  -1.948  1.00  0.00    -0.246 OA
BRANCH  25  27
ATOM     27  O   UNL     1       5.597   3.353  -2.682  1.00  0.00    -0.478 OA
ATOM     28  H   UNL     1       6.522   3.586  -2.907  1.00  0.00     0.297 HD
ENDBRANCH  25  27
ENDBRANCH  24  25
ENDBRANCH   3  19
BRANCH   7  29
ATOM     29  C   UNL     1      -2.035  -4.013   0.571  1.00  0.00     0.153 C 
BRANCH  29  30
ATOM     30  C   UNL     1      -2.463  -3.862   2.029  1.00  0.00     0.178 C 
BRANCH  30  31
ATOM     31  O   UNL     1      -3.350  -2.761   2.204  1.00  0.00    -0.395 OA
ATOM     32  H   UNL     1      -2.916  -1.965   1.837  1.00  0.00     0.210 HD
ENDBRANCH  30  31
ENDBRANCH  29  30
ENDBRANCH   7  29
TORSDOF 8
