REMARK SMILES CC[C@H](O)[C@@H](N)c1ccc(C(=O)Nc2nc(-c3cccc(C(=O)O)c3)cs2)cc1N
REMARK SMILES IDX 11 1 12 2 13 3 10 5 7 6 8 7 29 8 9 9 28 10 5 11 3 12 2 13
REMARK SMILES IDX 1 14 4 15 6 17 30 20 14 23 15 24 27 25 16 26 26 27 17 28
REMARK SMILES IDX 18 29 25 30 19 31 21 32 20 33 22 34 23 35 24 36
REMARK H PARENT 13 4 4 16 6 18 6 19 30 21 30 22 24 37
ROOT
ATOM      1  C   UNL     1       0.026  -1.519   0.520  1.00  0.00     0.257 C 
ATOM      2  O   UNL     1       0.145  -2.564   1.147  1.00  0.00    -0.269 OA
ATOM      3  N   UNL     1       1.025  -0.652   0.143  1.00  0.00    -0.298 N 
ATOM      4  H   UNL     1       0.825   0.113  -0.483  1.00  0.00     0.172 HD
ENDROOT
BRANCH   1   5
ATOM      5  C   UNL     1      -1.338  -1.133   0.058  1.00  0.00     0.042 A 
ATOM      6  C   UNL     1      -3.964  -0.508  -0.791  1.00  0.00    -0.006 A 
ATOM      7  C   UNL     1      -3.034   0.502  -0.459  1.00  0.00     0.008 A 
ATOM      8  C   UNL     1      -3.543  -1.854  -0.718  1.00  0.00     0.037 A 
ATOM      9  C   UNL     1      -1.736   0.199  -0.045  1.00  0.00     0.014 A 
ATOM     10  C   UNL     1      -2.254  -2.147  -0.243  1.00  0.00     0.039 A 
BRANCH   6  11
ATOM     11  C   UNL     1      -5.399  -0.129  -1.177  1.00  0.00     0.112 C 
BRANCH  11  12
ATOM     12  C   UNL     1      -6.446  -0.368  -0.035  1.00  0.00     0.135 C 
BRANCH  12  13
ATOM     13  C   UNL     1      -6.109   0.170   1.362  1.00  0.00     0.030 C 
ATOM     14  C   UNL     1      -6.064   1.686   1.458  1.00  0.00     0.007 C 
ENDBRANCH  12  13
BRANCH  12  15
ATOM     15  O   UNL     1      -6.745  -1.768   0.082  1.00  0.00    -0.391 OA
ATOM     16  H   UNL     1      -5.901  -2.222   0.292  1.00  0.00     0.211 HD
ENDBRANCH  12  15
ENDBRANCH  11  12
BRANCH  11  17
ATOM     17  N   UNL     1      -5.489   1.238  -1.729  1.00  0.00    -0.322 NA
ATOM     18  H   UNL     1      -6.450   1.407  -2.027  1.00  0.00     0.119 HD
ATOM     19  H   UNL     1      -4.925   1.278  -2.577  1.00  0.00     0.119 HD
ENDBRANCH  11  17
ENDBRANCH   6  11
BRANCH   8  20
ATOM     20  N   UNL     1      -4.438  -2.927  -0.881  1.00  0.00    -0.398 N 
ATOM     21  H   UNL     1      -3.976  -3.820  -1.044  1.00  0.00     0.156 HD
ATOM     22  H   UNL     1      -5.172  -2.775  -1.571  1.00  0.00     0.156 HD
ENDBRANCH   8  20
ENDBRANCH   1   5
BRANCH   3  23
ATOM     23  C   UNL     1       2.360  -0.747   0.444  1.00  0.00     0.190 A 
ATOM     24  N   UNL     1       3.217   0.118  -0.046  1.00  0.00    -0.220 NA
ATOM     25  S   UNL     1       3.007  -1.937   1.470  1.00  0.00    -0.105 S 
ATOM     26  C   UNL     1       4.501  -0.179   0.397  1.00  0.00     0.084 A 
ATOM     27  C   UNL     1       4.571  -1.270   1.243  1.00  0.00     0.097 A 
BRANCH  26  28
ATOM     28  C   UNL     1       5.643   0.637  -0.015  1.00  0.00     0.002 A 
ATOM     29  C   UNL     1       5.415   1.883  -0.618  1.00  0.00     0.010 A 
ATOM     30  C   UNL     1       6.969   0.216   0.164  1.00  0.00     0.026 A 
ATOM     31  C   UNL     1       6.477   2.694  -1.026  1.00  0.00     0.002 A 
ATOM     32  C   UNL     1       8.040   1.027  -0.244  1.00  0.00     0.060 A 
ATOM     33  C   UNL     1       7.790   2.268  -0.838  1.00  0.00     0.016 A 
BRANCH  32  34
ATOM     34  C   UNL     1       9.418   0.525  -0.024  1.00  0.00     0.335 C 
ATOM     35  O   UNL     1       9.714  -0.535   0.496  1.00  0.00    -0.246 OA
BRANCH  34  36
ATOM     36  O   UNL     1      10.362   1.375  -0.465  1.00  0.00    -0.478 OA
ATOM     37  H   UNL     1      11.205   0.920  -0.257  1.00  0.00     0.297 HD
ENDBRANCH  34  36
ENDBRANCH  32  34
ENDBRANCH  26  28
ENDBRANCH   3  23
TORSDOF 11
