MODEL        5USER    Run = 5USERUSER    Estimated Free Energy of Binding    =  -8.82 kcal/mol  [=(1)+(2)+(3)-(4)]USERUSER    (1) Final Intermolecular Energy     = -11.20 kcal/molUSER        vdW + Hbond + desolv Energy     = -10.94 kcal/molUSER        Electrostatic Energy            =  -0.26 kcal/molUSER        Moving Ligand-Fixed Receptor    = -11.20 kcal/molUSER        Moving Ligand-Moving Receptor   =  +0.00 kcal/molUSER    (2) Final Total Internal Energy     =  -3.16 kcal/molUSER    (3) Torsional Free Energy           =  +2.39 kcal/molUSER    (4) Unbound System's Energy         =  -3.16 kcal/molUSERUSERREMARK SMILES Nc1ncncc1-c1nc(-c2ccc(C(=O)O)cc2)c2ncn(CCO)c2n1REMARK SMILES IDX 8 1 9 2 10 3 20 4 21 5 22 6 23 7 27 8 28 9 7 10 2 11 3 12REMARK SMILES IDX 4 13 6 14 5 15 1 16 11 19 12 20 19 21 13 22 18 23 14 24REMARK SMILES IDX 15 25 16 26 17 27 24 29 25 30 26 31REMARK H PARENT 1 17 1 18 17 28 26 32USER                              x       y       z     vdW  Elec       q    TypeUSER                           _______ _______ _______ _____ _____    ______ ____ROOTATOM      1  C   UNL     1      40.359  46.312  18.672 -0.34 -0.01    +0.167 A  ATOM      2  N   UNL     1      39.179  45.739  19.016 -0.27 +0.02    -0.225 NA ATOM      3  C   UNL     1      38.131  45.746  18.135 -0.28 -0.02    +0.102 A  ATOM      4  C   UNL     1      38.325  46.347  16.884 -0.30 -0.05    +0.134 A  ATOM      5  N   UNL     1      37.522  46.530  15.776 -0.21 +0.12    -0.233 NA ATOM      6  C   UNL     1      38.274  47.157  14.897 -0.30 -0.08    +0.202 A  ATOM      7  N   UNL     1      39.529  47.396  15.385 -0.24 +0.09    -0.313 N  ATOM      8  C   UNL     1      39.581  46.887  16.654 -0.35 -0.04    +0.164 A  ATOM      9  N   UNL     1      40.630  46.917  17.494 -0.36 +0.03    -0.208 NA ENDROOTBRANCH   1  10ATOM     10  C   UNL     1      41.443  46.259  19.657 -0.38 +0.01    +0.080 A  ATOM     11  C   UNL     1      42.596  47.049  19.625 -0.40 +0.02    +0.137 A  ATOM     12  N   UNL     1      43.565  46.969  20.556 -0.33 -0.10    -0.219 NA ATOM     13  C   UNL     1      43.378  46.105  21.560 -0.14 +0.10    +0.224 A  ATOM     14  C   UNL     1      41.383  45.401  20.747 -0.27 +0.02    +0.128 A  ATOM     15  N   UNL     1      42.323  45.302  21.711 -0.15 -0.05    -0.244 NA BRANCH  11  16ATOM     16  N   UNL     1      42.886  47.908  18.550 -0.24 -0.01    -0.383 N  ATOM     17  H   UNL     1      42.725  47.417  17.677 -0.47 -0.03    +0.158 HD ATOM     18  H   UNL     1      42.220  48.682  18.563 +0.03 +0.00    +0.158 HD ENDBRANCH  11  16ENDBRANCH   1  10BRANCH   3  19ATOM     19  C   UNL     1      36.874  45.113  18.561 -0.30 -0.00    +0.003 A  ATOM     20  C   UNL     1      36.840  44.000  19.420 -0.37 -0.00    +0.011 A  ATOM     21  C   UNL     1      35.636  45.604  18.100 -0.32 -0.00    +0.011 A  ATOM     22  C   UNL     1      35.630  43.407  19.804 -0.41 -0.00    +0.016 A  ATOM     23  C   UNL     1      34.421  45.016  18.479 -0.39 -0.01    +0.016 A  ATOM     24  C   UNL     1      34.416  43.913  19.335 -0.36 -0.01    +0.059 A  BRANCH  24  25ATOM     25  C   UNL     1      33.160  43.254  19.768 -0.18 +0.01    +0.335 C  ATOM     26  O   UNL     1      32.799  42.133  19.459 -0.53 -0.01    -0.246 OA BRANCH  25  27ATOM     27  O   UNL     1      32.412  44.033  20.570 -0.60 -0.03    -0.478 OA ATOM     28  H   UNL     1      32.908  44.877  20.604 -0.30 -0.09    +0.297 HD ENDBRANCH  25  27ENDBRANCH  24  25ENDBRANCH   3  19BRANCH   7  29ATOM     29  C   UNL     1      40.612  48.038  14.664 -0.42 -0.02    +0.153 C  BRANCH  29  30ATOM     30  C   UNL     1      41.089  49.325  15.331 -0.57 -0.03    +0.178 C  BRANCH  30  31ATOM     31  O   UNL     1      41.791  49.060  16.542 -0.85 -0.07    -0.395 OA ATOM     32  H   UNL     1      42.113  48.137  16.506 -0.33 +0.01    +0.210 HD ENDBRANCH  30  31ENDBRANCH  29  30ENDBRANCH   7  29TORSDOF 8TERENDMDL