MODEL        4USER    Run = 4USERUSER    Estimated Free Energy of Binding    =  -8.95 kcal/mol  [=(1)+(2)+(3)-(4)]USERUSER    (1) Final Intermolecular Energy     = -11.04 kcal/molUSER        vdW + Hbond + desolv Energy     = -11.01 kcal/molUSER        Electrostatic Energy            =  -0.03 kcal/molUSER        Moving Ligand-Fixed Receptor    = -11.04 kcal/molUSER        Moving Ligand-Moving Receptor   =  +0.00 kcal/molUSER    (2) Final Total Internal Energy     =  -1.22 kcal/molUSER    (3) Torsional Free Energy           =  +2.09 kcal/molUSER    (4) Unbound System's Energy         =  -1.22 kcal/molUSERUSERREMARK SMILES C[C@@H](N)c1ccc(C(=O)Nc2nc(-c3cccc(C(F)(F)F)c3)cs2)cc1NREMARK SMILES IDX 8 1 9 2 10 3 7 5 4 6 5 7 27 8 6 9 26 10 2 11 1 12 3 13 28 16REMARK SMILES IDX 11 19 12 20 25 21 13 22 24 23 14 24 15 25 23 26 16 27 18 28REMARK SMILES IDX 17 29 19 30 20 31 21 32 22 33REMARK H PARENT 10 4 3 14 3 15 28 17 28 18USER                              x       y       z     vdW  Elec       q    TypeUSER                           _______ _______ _______ _____ _____    ______ ____ROOTATOM      1  C   UNL     1      39.674  44.685  20.038 -0.26 +0.00    +0.257 C  ATOM      2  O   UNL     1      40.564  44.061  20.603 -0.22 -0.01    -0.269 OA ATOM      3  N   UNL     1      38.317  44.579  20.243 -0.19 +0.01    -0.298 N  ATOM      4  H   UNL     1      37.686  45.231  19.800 +0.09 -0.01    +0.172 HD ENDROOTBRANCH   1   5ATOM      5  C   UNL     1      40.073  45.713  19.036 -0.42 -0.00    +0.042 A  ATOM      6  C   UNL     1      40.761  47.684  17.129 -0.53 +0.00    -0.009 A  ATOM      7  C   UNL     1      39.513  47.023  17.088 -0.46 -0.00    +0.008 A  ATOM      8  C   UNL     1      41.684  47.309  18.127 -0.47 -0.00    +0.037 A  ATOM      9  C   UNL     1      39.173  46.049  18.028 -0.41 -0.00    +0.014 A  ATOM     10  C   UNL     1      41.308  46.367  19.100 -0.45 +0.00    +0.039 A  BRANCH   6  11ATOM     11  C   UNL     1      41.053  48.768  16.099 -0.60 -0.01    +0.080 C  ATOM     12  C   UNL     1      39.784  49.241  15.386 -0.53 -0.01    +0.029 C  BRANCH  11  13ATOM     13  N   UNL     1      41.743  49.915  16.701 -0.70 -0.04    -0.324 NA ATOM     14  H   UNL     1      42.447  50.271  16.060 -0.00 +0.04    +0.119 HD ATOM     15  H   UNL     1      41.069  50.670  16.829 -0.35 -0.04    +0.119 HD ENDBRANCH  11  13ENDBRANCH   6  11BRANCH   8  16ATOM     16  N   UNL     1      42.904  47.974  18.346 -0.12 -0.01    -0.398 N  ATOM     17  H   UNL     1      43.627  47.760  17.667 -0.37 -0.02    +0.156 HD ATOM     18  H   UNL     1      42.769  48.984  18.387 -0.09 +0.01    +0.156 HD ENDBRANCH   8  16ENDBRANCH   1   5BRANCH   3  19ATOM     19  C   UNL     1      37.673  43.710  21.085 -0.25 +0.00    +0.190 A  ATOM     20  N   UNL     1      37.993  43.650  22.356 -0.21 -0.01    -0.220 NA ATOM     21  S   UNL     1      36.422  42.674  20.584 -0.57 +0.00    -0.105 S  ATOM     22  C   UNL     1      37.199  42.712  23.006 -0.36 +0.01    +0.084 A  ATOM     23  C   UNL     1      36.289  42.074  22.185 -0.41 +0.01    +0.097 A  BRANCH  22  24ATOM     24  C   UNL     1      37.365  42.453  24.437 -0.38 +0.00    +0.002 A  ATOM     25  C   UNL     1      38.599  42.591  25.087 -0.23 +0.00    +0.010 A  ATOM     26  C   UNL     1      36.256  42.041  25.193 -0.36 -0.00    +0.023 A  ATOM     27  C   UNL     1      38.719  42.329  26.455 -0.28 -0.00    +0.001 A  ATOM     28  C   UNL     1      36.360  41.782  26.571 -0.45 -0.01    +0.056 A  ATOM     29  C   UNL     1      37.607  41.925  27.192 -0.41 -0.00    +0.013 A  BRANCH  28  30ATOM     30  C   UNL     1      35.156  41.319  27.351 -0.33 -0.17    +0.416 C  ATOM     31  F   UNL     1      35.482  40.675  28.506 -0.25 +0.10    -0.166 F  ATOM     32  F   UNL     1      34.346  42.351  27.714 -0.19 +0.04    -0.166 F  ATOM     33  F   UNL     1      34.368  40.453  26.655 -0.25 +0.10    -0.166 F  ENDBRANCH  28  30ENDBRANCH  22  24ENDBRANCH   3  19TORSDOF 7TERENDMDL