REMARK SMILES C[C@@H]1C(=Cc2ccc[nH]2)C=Nc2[nH]cc(-c3cccc(C(=O)O)c3)c21
REMARK SMILES IDX 1 1 2 2 3 3 10 4 11 5 12 6 13 7 14 8 15 9 25 10 4 12 5 13
REMARK SMILES IDX 6 14 9 15 7 16 8 17 16 19 17 20 24 21 18 22 20 23 19 24
REMARK SMILES IDX 21 25 22 26 23 27
REMARK H PARENT 13 11 9 18 23 28
ROOT
ATOM      1  C   UNL     1       0.428  -0.978   1.702  1.00  0.00     0.018 C 
ATOM      2  C   UNL     1       0.473  -0.136   0.420  1.00  0.00     0.052 C 
ATOM      3  C   UNL     1       1.918   0.011  -0.063  1.00  0.00    -0.020 C 
ATOM      4  C   UNL     1       2.552   1.367   0.131  1.00  0.00     0.118 C 
ATOM      5  N   UNL     1       1.963   2.471   0.490  1.00  0.00    -0.239 NA
ATOM      6  C   UNL     1       0.634   2.341   0.677  1.00  0.00     0.134 A 
ATOM      7  N   UNL     1      -0.175   3.409   0.932  1.00  0.00    -0.346 N 
ATOM      8  C   UNL     1      -1.474   2.980   1.050  1.00  0.00     0.093 A 
ATOM      9  C   UNL     1      -1.495   1.609   0.868  1.00  0.00     0.005 A 
ATOM     10  C   UNL     1      -0.147   1.207   0.642  1.00  0.00     0.011 A 
ATOM     11  H   UNL     1       0.154   4.361   1.007  1.00  0.00     0.167 HD
ENDROOT
BRANCH   3  12
ATOM     12  C   UNL     1       2.558  -1.008  -0.670  1.00  0.00     0.032 C 
BRANCH  12  13
ATOM     13  C   UNL     1       3.896  -0.970  -1.123  1.00  0.00     0.038 A 
ATOM     14  C   UNL     1       5.116  -0.738  -0.519  1.00  0.00     0.027 A 
ATOM     15  N   UNL     1       4.141  -1.261  -2.444  1.00  0.00    -0.362 N 
ATOM     16  C   UNL     1       6.119  -0.868  -1.510  1.00  0.00     0.020 A 
ATOM     17  C   UNL     1       5.488  -1.189  -2.690  1.00  0.00     0.083 A 
ATOM     18  H   UNL     1       3.436  -1.473  -3.138  1.00  0.00     0.166 HD
ENDBRANCH  12  13
ENDBRANCH   3  12
BRANCH   9  19
ATOM     19  C   UNL     1      -2.715   0.825   0.917  1.00  0.00    -0.016 A 
ATOM     20  C   UNL     1      -3.565   0.905   2.028  1.00  0.00     0.009 A 
ATOM     21  C   UNL     1      -3.048  -0.025  -0.144  1.00  0.00     0.024 A 
ATOM     22  C   UNL     1      -4.734   0.143   2.082  1.00  0.00     0.002 A 
ATOM     23  C   UNL     1      -4.219  -0.792  -0.092  1.00  0.00     0.060 A 
ATOM     24  C   UNL     1      -5.060  -0.705   1.024  1.00  0.00     0.016 A 
BRANCH  23  25
ATOM     25  C   UNL     1      -4.608  -1.705  -1.193  1.00  0.00     0.335 C 
ATOM     26  O   UNL     1      -5.625  -2.372  -1.242  1.00  0.00    -0.246 OA
BRANCH  25  27
ATOM     27  O   UNL     1      -3.699  -1.750  -2.184  1.00  0.00    -0.478 OA
ATOM     28  H   UNL     1      -4.092  -2.375  -2.829  1.00  0.00     0.297 HD
ENDBRANCH  25  27
ENDBRANCH  23  25
ENDBRANCH   9  19
TORSDOF 5
