MODEL        3USER    Run = 3USERUSER    Estimated Free Energy of Binding    =  -9.87 kcal/mol  [=(1)+(2)+(3)-(4)]USERUSER    (1) Final Intermolecular Energy     = -13.15 kcal/molUSER        vdW + Hbond + desolv Energy     = -12.94 kcal/molUSER        Electrostatic Energy            =  -0.22 kcal/molUSER        Moving Ligand-Fixed Receptor    = -13.15 kcal/molUSER        Moving Ligand-Moving Receptor   =  +0.00 kcal/molUSER    (2) Final Total Internal Energy     =  -3.01 kcal/molUSER    (3) Torsional Free Energy           =  +3.28 kcal/molUSER    (4) Unbound System's Energy         =  -3.01 kcal/molUSERUSERREMARK SMILES CC[C@H](O)[C@@H](N)c1ccc(C(=O)Nc2nc(-c3cccc(C(=O)O)c3)cs2)cc1NREMARK SMILES IDX 11 1 12 2 13 3 10 5 7 6 8 7 29 8 9 9 28 10 5 11 3 12 2 13REMARK SMILES IDX 1 14 4 15 6 17 30 20 14 23 15 24 27 25 16 26 26 27 17 28REMARK SMILES IDX 18 29 25 30 19 31 21 32 20 33 22 34 23 35 24 36REMARK H PARENT 13 4 4 16 6 18 6 19 30 21 30 22 24 37USER                              x       y       z     vdW  Elec       q    TypeUSER                           _______ _______ _______ _____ _____    ______ ____ROOTATOM      1  C   UNL     1      37.993  44.394  21.874 -0.26 +0.01    +0.257 C  ATOM      2  O   UNL     1      37.143  44.208  21.013 -0.29 -0.00    -0.269 OA ATOM      3  N   UNL     1      39.294  44.799  21.691 -0.15 -0.01    -0.298 N  ATOM      4  H   UNL     1      39.867  45.044  22.484 +0.09 +0.01    +0.172 HD ENDROOTBRANCH   1   5ATOM      5  C   UNL     1      37.594  44.211  23.299 -0.31 +0.00    +0.042 A  ATOM      6  C   UNL     1      36.851  43.748  25.990 -0.35 +0.00    -0.006 A  ATOM      7  C   UNL     1      37.315  45.010  25.558 -0.33 +0.00    +0.008 A  ATOM      8  C   UNL     1      36.736  42.715  25.034 -0.37 -0.00    +0.037 A  ATOM      9  C   UNL     1      37.678  45.245  24.230 -0.25 +0.00    +0.014 A  ATOM     10  C   UNL     1      37.160  42.948  23.716 -0.36 +0.00    +0.039 A  BRANCH   6  11ATOM     11  C   UNL     1      36.527  43.520  27.472 -0.40 -0.03    +0.112 C  BRANCH  11  12ATOM     12  C   UNL     1      35.020  43.186  27.746 -0.55 -0.04    +0.135 C  BRANCH  12  13ATOM     13  C   UNL     1      34.316  43.955  28.872 -0.64 -0.01    +0.030 C  ATOM     14  C   UNL     1      34.550  45.456  28.850 -0.53 -0.00    +0.007 C  ENDBRANCH  12  13BRANCH  12  15ATOM     15  O   UNL     1      34.858  41.780  27.992 -0.32 +0.17    -0.391 OA ATOM     16  H   UNL     1      35.551  41.523  28.637 -0.31 -0.14    +0.211 HD ENDBRANCH  12  15ENDBRANCH  11  12BRANCH  11  17ATOM     17  N   UNL     1      37.432  42.535  28.098 -0.12 +0.09    -0.322 NA ATOM     18  H   UNL     1      36.873  41.761  28.458 -0.48 -0.06    +0.119 HD ATOM     19  H   UNL     1      37.861  42.969  28.914 -0.20 -0.03    +0.119 HD ENDBRANCH  11  17ENDBRANCH   6  11BRANCH   8  20ATOM     20  N   UNL     1      36.430  41.391  25.398 +0.05 +0.10    -0.398 N  ATOM     21  H   UNL     1      35.676  40.983  24.848 -0.21 -0.06    +0.156 HD ATOM     22  H   UNL     1      36.265  41.245  26.393 -0.04 -0.05    +0.156 HD ENDBRANCH   8  20ENDBRANCH   1   5BRANCH   3  23ATOM     23  C   UNL     1      39.930  45.023  20.496 -0.25 +0.00    +0.190 A  ATOM     24  N   UNL     1      39.404  45.826  19.601 -0.26 +0.01    -0.220 NA ATOM     25  S   UNL     1      41.426  44.329  20.087 -0.39 -0.01    -0.105 S  ATOM     26  C   UNL     1      40.225  45.895  18.481 -0.41 -0.01    +0.084 A  ATOM     27  C   UNL     1      41.381  45.143  18.578 -0.31 +0.01    +0.097 A  BRANCH  26  28ATOM     28  C   UNL     1      39.857  46.723  17.333 -0.48 -0.00    +0.002 A  ATOM     29  C   UNL     1      38.653  46.469  16.660 -0.40 -0.00    +0.010 A  ATOM     30  C   UNL     1      40.672  47.766  16.868 -0.53 -0.00    +0.026 A  ATOM     31  C   UNL     1      38.263  47.235  15.559 -0.44 -0.00    +0.002 A  ATOM     32  C   UNL     1      40.285  48.540  15.762 -0.53 -0.02    +0.060 A  ATOM     33  C   UNL     1      39.078  48.272  15.110 -0.52 -0.01    +0.016 A  BRANCH  32  34ATOM     34  C   UNL     1      41.190  49.630  15.323 -0.44 -0.06    +0.335 C  ATOM     35  O   UNL     1      41.409  49.951  14.170 -0.55 +0.07    -0.246 OA BRANCH  34  36ATOM     36  O   UNL     1      41.781  50.266  16.350 -0.75 -0.01    -0.478 OA ATOM     37  H   UNL     1      41.276  51.103  16.431 -0.35 -0.14    +0.297 HD ENDBRANCH  34  36ENDBRANCH  32  34ENDBRANCH  26  28ENDBRANCH   3  23TORSDOF 11TERENDMDL