MODEL        7USER    Run = 7USERUSER    Estimated Free Energy of Binding    = -10.10 kcal/mol  [=(1)+(2)+(3)-(4)]USERUSER    (1) Final Intermolecular Energy     = -13.08 kcal/molUSER        vdW + Hbond + desolv Energy     = -13.01 kcal/molUSER        Electrostatic Energy            =  -0.07 kcal/molUSER        Moving Ligand-Fixed Receptor    = -13.08 kcal/molUSER        Moving Ligand-Moving Receptor   =  +0.00 kcal/molUSER    (2) Final Total Internal Energy     =  -2.71 kcal/molUSER    (3) Torsional Free Energy           =  +2.98 kcal/molUSER    (4) Unbound System's Energy         =  -2.71 kcal/molUSERUSERREMARK SMILES COc1cc(F)c(O)c(C(=O)c2ccc(C(=O)N[C@H]3C[C@H](F)N(C4CNC4)C[C@@H]3NC(=O)c3cnc(OC)nc3)cc2)c1REMARK SMILES IDX 16 1 17 2 18 3 15 5 12 6 13 7 42 8 14 9 41 10 10 11 11 12REMARK SMILES IDX 9 13 3 14 4 15 43 16 5 17 7 18 6 19 2 20 1 21 8 22 19 24REMARK SMILES IDX 20 25 29 26 21 27 28 28 23 29 22 30 30 31 31 32 32 34 33 35REMARK SMILES IDX 34 36 40 37 35 38 39 39 36 40 37 41 38 42 24 43 25 44 27 45REMARK SMILES IDX 26 46REMARK H PARENT 18 4 8 23 30 33 26 47USER                              x       y       z     vdW  Elec       q    TypeUSER                           _______ _______ _______ _____ _____    ______ ____ROOTATOM      1  C   UNL     1      37.663  43.848  22.644 -0.26 +0.02    +0.251 C  ATOM      2  O   UNL     1      36.762  43.047  22.409 -0.30 -0.03    -0.269 OA ATOM      3  N   UNL     1      37.947  44.299  23.919 -0.12 -0.03    -0.347 N  ATOM      4  H   UNL     1      38.471  45.165  24.001 +0.08 +0.01    +0.164 HD ENDROOTBRANCH   1   5ATOM      5  C   UNL     1      38.461  44.436  21.533 -0.33 +0.00    +0.039 A  ATOM      6  C   UNL     1      39.888  45.507  19.397 -0.41 -0.00    +0.023 A  ATOM      7  C   UNL     1      38.769  44.714  19.142 -0.37 -0.00    +0.013 A  ATOM      8  C   UNL     1      40.304  45.774  20.704 -0.30 +0.00    +0.013 A  ATOM      9  C   UNL     1      38.058  44.174  20.215 -0.34 -0.00    +0.014 A  ATOM     10  C   UNL     1      39.594  45.227  21.775 -0.31 +0.00    +0.014 A  BRANCH   6  11ATOM     11  C   UNL     1      40.621  46.108  18.276 -0.41 -0.01    +0.196 C  ATOM     12  O   UNL     1      41.833  45.908  18.208 -0.32 -0.01    -0.288 OA BRANCH  11  13ATOM     13  C   UNL     1      39.935  46.930  17.245 -0.44 -0.01    +0.071 A  ATOM     14  C   UNL     1      38.048  47.338  15.755 -0.35 -0.06    +0.122 A  ATOM     15  C   UNL     1      38.678  48.484  15.275 -0.46 -0.05    +0.089 A  ATOM     16  C   UNL     1      38.678  46.563  16.739 -0.37 -0.02    +0.062 A  ATOM     17  C   UNL     1      39.925  48.847  15.778 -0.42 -0.06    +0.169 A  ATOM     18  C   UNL     1      40.560  48.085  16.755 -0.39 -0.03    +0.162 A  ATOM     19  F   UNL     1      40.516  49.952  15.294 -0.18 +0.09    -0.203 F  BRANCH  14  20ATOM     20  O   UNL     1      36.832  46.860  15.351 -0.08 +0.35    -0.497 OA ATOM     21  C   UNL     1      36.425  47.172  14.024 -0.33 -0.18    +0.278 C  ENDBRANCH  14  20BRANCH  18  22ATOM     22  O   UNL     1      41.787  48.511  17.194 -0.62 -0.03    -0.504 OA ATOM     23  H   UNL     1      42.397  47.740  17.212 -0.36 -0.05    +0.293 HD ENDBRANCH  18  22ENDBRANCH  11  13ENDBRANCH   6  11ENDBRANCH   1   5BRANCH   3  24ATOM     24  C   UNL     1      37.143  43.877  25.076 -0.32 +0.00    +0.110 C  ATOM     25  C   UNL     1      37.133  42.353  25.210 -0.39 -0.00    +0.081 C  ATOM     26  C   UNL     1      37.607  44.586  26.383 -0.27 -0.01    +0.119 C  ATOM     27  C   UNL     1      38.086  41.882  26.300 -0.24 -0.02    +0.240 C  ATOM     28  C   UNL     1      37.159  43.742  27.598 -0.36 -0.02    +0.114 C  ATOM     29  N   UNL     1      37.730  42.379  27.634 -0.21 +0.05    -0.266 NA ATOM     30  F   UNL     1      38.035  40.523  26.333 +0.03 +0.02    -0.230 F  BRANCH  26  31ATOM     31  N   UNL     1      37.101  45.961  26.431 -0.16 +0.04    -0.346 N  ATOM     32  C   UNL     1      37.775  46.983  25.793 -0.24 +0.01    +0.254 C  ATOM     33  H   UNL     1      36.083  46.033  26.461 -0.50 -0.07    +0.164 HD ATOM     34  O   UNL     1      38.877  46.833  25.272 -0.16 -0.02    -0.269 OA BRANCH  32  35ATOM     35  C   UNL     1      37.110  48.299  25.727 -0.39 +0.00    +0.076 A  ATOM     36  C   UNL     1      37.426  49.181  24.715 -0.32 +0.01    +0.132 A  ATOM     37  C   UNL     1      36.188  48.768  26.638 -0.34 -0.01    +0.132 A  ATOM     38  N   UNL     1      36.886  50.416  24.594 -0.10 +0.00    -0.203 NA ATOM     39  N   UNL     1      35.617  49.994  26.567 -0.19 -0.00    -0.203 NA ATOM     40  C   UNL     1      36.002  50.770  25.543 -0.20 -0.00    +0.316 A  BRANCH  40  41ATOM     41  O   UNL     1      35.424  52.019  25.516 -0.19 -0.04    -0.467 OA ATOM     42  C   UNL     1      36.102  52.965  26.329 -0.23 +0.09    +0.282 C  ENDBRANCH  40  41ENDBRANCH  32  35ENDBRANCH  26  31BRANCH  29  43ATOM     43  C   UNL     1      38.948  42.370  28.473 -0.32 -0.00    +0.087 C  ATOM     44  C   UNL     1      39.824  41.123  28.180 -0.29 -0.00    +0.101 C  ATOM     45  C   UNL     1      40.113  43.125  27.772 -0.19 -0.00    +0.101 C  ATOM     46  N   UNL     1      41.009  42.023  28.221 -0.09 +0.01    -0.314 NA ATOM     47  H   UNL     1      41.746  41.781  27.558 +0.02 -0.01    +0.122 HD ENDBRANCH  29  43ENDBRANCH   3  24TORSDOF 10TERENDMDL