REMARK SMILES COc1cc(F)c(O)c(C(=O)c2ccc(C(=O)N[C@@H]3CCN([C@H]4CCOC4)C[C@@H]3NC(=O)c3cnc(N4CCOCC4)nc3)cc2)c1
REMARK SMILES IDX 12 1 13 2 14 3 15 4 45 5 46 6 10 7 11 8 9 9 3 10 4 11 47 12
REMARK SMILES IDX 5 13 7 14 6 15 2 16 1 17 8 18 16 20 18 21 17 22 19 24 20 25
REMARK SMILES IDX 29 26 21 27 28 28 22 29 30 30 31 31 32 33 33 34 34 35 44 36
REMARK SMILES IDX 35 37 43 38 36 39 37 40 38 41 42 42 39 43 41 44 40 45 23 46
REMARK SMILES IDX 24 47 27 48 25 49 26 50
REMARK H PARENT 8 19 18 23 30 32
ROOT
ATOM      1  C   UNL     1       4.472  -1.881   0.627  1.00  0.00     0.023 A 
ATOM      2  C   UNL     1       4.847  -0.666   1.206  1.00  0.00     0.013 A 
ATOM      3  C   UNL     1       4.045   0.463   1.024  1.00  0.00     0.014 A 
ATOM      4  C   UNL     1       2.859   0.393   0.275  1.00  0.00     0.039 A 
ATOM      5  C   UNL     1       2.483  -0.834  -0.288  1.00  0.00     0.014 A 
ATOM      6  C   UNL     1       3.279  -1.971  -0.100  1.00  0.00     0.013 A 
ENDROOT
BRANCH   1   7
ATOM      7  C   UNL     1       5.296  -3.099   0.792  1.00  0.00     0.196 C 
ATOM      8  O   UNL     1       4.739  -4.170   1.024  1.00  0.00    -0.288 OA
BRANCH   7   9
ATOM      9  C   UNL     1       6.778  -3.071   0.708  1.00  0.00     0.071 A 
ATOM     10  C   UNL     1       8.842  -2.062  -0.104  1.00  0.00     0.122 A 
ATOM     11  C   UNL     1       9.583  -3.007   0.600  1.00  0.00     0.089 A 
ATOM     12  C   UNL     1       7.444  -2.101  -0.056  1.00  0.00     0.062 A 
ATOM     13  C   UNL     1       8.921  -3.992   1.330  1.00  0.00     0.169 A 
ATOM     14  C   UNL     1       7.529  -4.042   1.381  1.00  0.00     0.162 A 
ATOM     15  F   UNL     1       9.654  -4.905   1.983  1.00  0.00    -0.203 F 
BRANCH  10  16
ATOM     16  O   UNL     1       9.354  -1.050  -0.867  1.00  0.00    -0.497 OA
ATOM     17  C   UNL     1      10.772  -0.999  -1.003  1.00  0.00     0.278 C 
ENDBRANCH  10  16
BRANCH  14  18
ATOM     18  O   UNL     1       6.952  -5.054   2.102  1.00  0.00    -0.504 OA
ATOM     19  H   UNL     1       5.992  -5.066   1.890  1.00  0.00     0.293 HD
ENDBRANCH  14  18
ENDBRANCH   7   9
ENDBRANCH   1   7
BRANCH   4  20
ATOM     20  C   UNL     1       2.076   1.654   0.110  1.00  0.00     0.251 C 
ATOM     21  N   UNL     1       0.784   1.553  -0.356  1.00  0.00    -0.347 N 
ATOM     22  O   UNL     1       2.588   2.733   0.397  1.00  0.00    -0.269 OA
ATOM     23  H   UNL     1       0.357   0.653  -0.532  1.00  0.00     0.164 HD
BRANCH  21  24
ATOM     24  C   UNL     1      -0.062   2.734  -0.511  1.00  0.00     0.107 C 
ATOM     25  C   UNL     1      -0.604   3.215   0.841  1.00  0.00     0.042 C 
ATOM     26  C   UNL     1      -1.231   2.492  -1.489  1.00  0.00     0.118 C 
ATOM     27  C   UNL     1      -1.520   4.431   0.667  1.00  0.00     0.087 C 
ATOM     28  C   UNL     1      -2.056   3.791  -1.605  1.00  0.00     0.112 C 
ATOM     29  N   UNL     1      -2.617   4.166  -0.286  1.00  0.00    -0.296 NA
BRANCH  26  30
ATOM     30  N   UNL     1      -2.114   1.401  -1.037  1.00  0.00    -0.346 N 
ATOM     31  C   UNL     1      -1.989   0.104  -1.467  1.00  0.00     0.254 C 
ATOM     32  H   UNL     1      -2.892   1.704  -0.458  1.00  0.00     0.164 HD
ATOM     33  O   UNL     1      -1.081  -0.283  -2.197  1.00  0.00    -0.269 OA
BRANCH  31  34
ATOM     34  C   UNL     1      -3.025  -0.840  -1.028  1.00  0.00     0.076 A 
ATOM     35  C   UNL     1      -3.465  -1.839  -1.863  1.00  0.00     0.130 A 
ATOM     36  C   UNL     1      -3.620  -0.812   0.208  1.00  0.00     0.130 A 
ATOM     37  N   UNL     1      -4.447  -2.708  -1.534  1.00  0.00    -0.221 NA
ATOM     38  N   UNL     1      -4.588  -1.676   0.584  1.00  0.00    -0.221 NA
ATOM     39  C   UNL     1      -4.991  -2.603  -0.307  1.00  0.00     0.225 A 
BRANCH  39  40
ATOM     40  N   UNL     1      -6.022  -3.443   0.038  1.00  0.00    -0.336 N 
ATOM     41  C   UNL     1      -6.466  -4.449  -0.926  1.00  0.00     0.148 C 
ATOM     42  C   UNL     1      -6.259  -3.731   1.452  1.00  0.00     0.148 C 
ATOM     43  C   UNL     1      -7.766  -5.093  -0.414  1.00  0.00     0.181 C 
ATOM     44  C   UNL     1      -6.549  -5.230   1.652  1.00  0.00     0.181 C 
ATOM     45  O   UNL     1      -7.651  -5.717   0.877  1.00  0.00    -0.378 OA
ENDBRANCH  39  40
ENDBRANCH  31  34
ENDBRANCH  26  30
BRANCH  29  46
ATOM     46  C   UNL     1      -3.581   5.292  -0.429  1.00  0.00     0.084 C 
ATOM     47  C   UNL     1      -4.423   5.492   0.824  1.00  0.00     0.050 C 
ATOM     48  C   UNL     1      -3.013   6.696  -0.637  1.00  0.00     0.179 C 
ATOM     49  C   UNL     1      -3.814   6.692   1.526  1.00  0.00     0.162 C 
ATOM     50  O   UNL     1      -2.803   7.235   0.672  1.00  0.00    -0.380 OA
ENDBRANCH  29  46
ENDBRANCH  21  24
ENDBRANCH   4  20
TORSDOF 10
