MODEL        6USER    Run = 6USERUSER    Estimated Free Energy of Binding    =  -9.35 kcal/mol  [=(1)+(2)+(3)-(4)]USERUSER    (1) Final Intermolecular Energy     = -12.34 kcal/molUSER        vdW + Hbond + desolv Energy     = -12.22 kcal/molUSER        Electrostatic Energy            =  -0.12 kcal/molUSER        Moving Ligand-Fixed Receptor    = -12.34 kcal/molUSER        Moving Ligand-Moving Receptor   =  +0.00 kcal/molUSER    (2) Final Total Internal Energy     =  -3.26 kcal/molUSER    (3) Torsional Free Energy           =  +2.98 kcal/molUSER    (4) Unbound System's Energy         =  -3.26 kcal/molUSERUSERREMARK SMILES COc1cc(F)c(O)c(C(=O)c2ccc(C(=O)N[C@@H]3CCN([C@H]4CCOC4)C[C@@H]3NC(=O)c3cnc(N4CCOCC4)nc3)cc2)c1REMARK SMILES IDX 12 1 13 2 14 3 15 4 45 5 46 6 10 7 11 8 9 9 3 10 4 11 47 12REMARK SMILES IDX 5 13 7 14 6 15 2 16 1 17 8 18 16 20 18 21 17 22 19 24 20 25REMARK SMILES IDX 29 26 21 27 28 28 22 29 30 30 31 31 32 33 33 34 34 35 44 36REMARK SMILES IDX 35 37 43 38 36 39 37 40 38 41 42 42 39 43 41 44 40 45 23 46REMARK SMILES IDX 24 47 27 48 25 49 26 50REMARK H PARENT 8 19 18 23 30 32USER                              x       y       z     vdW  Elec       q    TypeUSER                           _______ _______ _______ _____ _____    ______ ____ROOTATOM      1  C   UNL     1      41.036  46.234  18.829 -0.47 +0.00    +0.023 A  ATOM      2  C   UNL     1      40.923  45.817  20.157 -0.38 +0.00    +0.013 A  ATOM      3  C   UNL     1      41.901  46.187  21.083 -0.33 +0.00    +0.014 A  ATOM      4  C   UNL     1      42.993  46.983  20.701 -0.39 +0.01    +0.039 A  ATOM      5  C   UNL     1      43.088  47.411  19.370 -0.48 +0.00    +0.014 A  ATOM      6  C   UNL     1      42.105  47.050  18.440 -0.49 -0.00    +0.013 A  ENDROOTBRANCH   1   7ATOM      7  C   UNL     1      40.024  45.860  17.816 -0.38 -0.02    +0.196 C  ATOM      8  O   UNL     1      39.514  44.742  17.866 -0.23 +0.03    -0.288 OA BRANCH   7   9ATOM      9  C   UNL     1      39.615  46.781  16.725 -0.42 -0.02    +0.071 A  ATOM     10  C   UNL     1      40.173  48.383  14.976 -0.47 -0.03    +0.122 A  ATOM     11  C   UNL     1      38.827  48.481  14.635 -0.45 -0.04    +0.089 A  ATOM     12  C   UNL     1      40.563  47.541  16.024 -0.47 -0.01    +0.062 A  ATOM     13  C   UNL     1      37.882  47.753  15.355 -0.34 -0.10    +0.169 A  ATOM     14  C   UNL     1      38.260  46.915  16.403 -0.29 -0.07    +0.162 A  ATOM     15  F   UNL     1      36.589  47.879  15.023 -0.11 +0.20    -0.203 F  BRANCH  10  16ATOM     16  O   UNL     1      41.203  49.043  14.367 -0.26 +0.08    -0.497 OA ATOM     17  C   UNL     1      41.623  50.270  14.961 -0.49 -0.06    +0.278 C  ENDBRANCH  10  16BRANCH  14  18ATOM     18  O   UNL     1      37.270  46.249  17.077 -0.09 +0.23    -0.504 OA ATOM     19  H   UNL     1      37.643  45.398  17.397 +0.19 -0.09    +0.293 HD ENDBRANCH  14  18ENDBRANCH   7   9ENDBRANCH   1   7BRANCH   4  20ATOM     20  C   UNL     1      44.004  47.310  21.750 -0.22 +0.10    +0.251 C  ATOM     21  N   UNL     1      43.650  48.215  22.726 -0.18 -0.08    -0.347 N  ATOM     22  O   UNL     1      45.107  46.769  21.726 -0.76 -0.33    -0.269 OA ATOM     23  H   UNL     1      42.719  48.608  22.766 +0.02 +0.04    +0.164 HD BRANCH  21  24ATOM     24  C   UNL     1      44.567  48.562  23.809 -0.22 +0.03    +0.107 C  ATOM     25  C   UNL     1      45.107  47.308  24.509 -0.13 +0.01    +0.042 C  ATOM     26  C   UNL     1      43.919  49.504  24.845 -0.22 +0.03    +0.118 C  ATOM     27  C   UNL     1      46.038  47.681  25.667 -0.06 +0.01    +0.087 C  ATOM     28  C   UNL     1      44.960  49.831  25.936 -0.23 +0.01    +0.112 C  ATOM     29  N   UNL     1      45.388  48.593  26.629 -0.04 -0.02    -0.296 NA BRANCH  26  30ATOM     30  N   UNL     1      42.734  48.897  25.479 -0.16 -0.04    -0.346 N  ATOM     31  C   UNL     1      41.512  48.810  24.861 -0.27 +0.04    +0.254 C  ATOM     32  H   UNL     1      42.865  48.640  26.453 +0.02 +0.01    +0.164 HD ATOM     33  O   UNL     1      41.315  49.148  23.698 -0.38 -0.06    -0.269 OA BRANCH  31  34ATOM     34  C   UNL     1      40.398  48.299  25.671 -0.23 +0.01    +0.076 A  ATOM     35  C   UNL     1      40.602  47.309  26.602 -0.13 +0.01    +0.130 A  ATOM     36  C   UNL     1      39.105  48.749  25.576 -0.20 +0.02    +0.130 A  ATOM     37  N   UNL     1      39.610  46.766  27.343 -0.32 -0.01    -0.221 NA ATOM     38  N   UNL     1      38.090  48.250  26.314 -0.19 -0.01    -0.221 NA ATOM     39  C   UNL     1      38.366  47.253  27.178 -0.14 -0.02    +0.225 A  BRANCH  39  40ATOM     40  N   UNL     1      37.331  46.690  27.885 -0.11 +0.07    -0.336 N  ATOM     41  C   UNL     1      36.066  47.416  27.984 -0.24 -0.04    +0.148 C  ATOM     42  C   UNL     1      37.271  45.234  28.014 -0.25 -0.03    +0.148 C  ATOM     43  C   UNL     1      35.162  46.708  29.008 -0.30 -0.04    +0.181 C  ATOM     44  C   UNL     1      35.828  44.737  27.808 -0.34 -0.05    +0.181 C  ATOM     45  O   UNL     1      34.876  45.333  28.697 -0.36 +0.10    -0.378 OA ENDBRANCH  39  40ENDBRANCH  31  34ENDBRANCH  26  30BRANCH  29  46ATOM     46  C   UNL     1      46.227  48.921  27.815 -0.05 +0.00    +0.084 C  ATOM     47  C   UNL     1      46.324  50.422  28.055 -0.10 +0.00    +0.050 C  ATOM     48  C   UNL     1      45.754  48.428  29.182 -0.02 +0.00    +0.179 C  ATOM     49  C   UNL     1      45.376  50.703  29.207 -0.09 +0.01    +0.162 C  ATOM     50  O   UNL     1      44.891  49.449  29.694 -0.02 -0.02    -0.380 OA ENDBRANCH  29  46ENDBRANCH  21  24ENDBRANCH   4  20TORSDOF 10TERENDMDL