REMARK SMILES COc1cc(F)c(O)c(C(=O)c2ccc(S(=O)(=O)N[C@@H]3CCN(C4CNC4)C[C@@H]3NC(=O)c3cnc(OC)nc3)cc2)c1
REMARK SMILES IDX 16 1 17 2 18 3 15 4 12 5 13 6 42 7 14 8 41 9 10 10 11 11
REMARK SMILES IDX 9 12 3 13 4 14 43 15 5 16 7 17 6 18 2 19 1 20 8 21 19 23
REMARK SMILES IDX 20 25 21 26 29 27 22 28 28 29 23 30 30 31 31 32 32 34 33 35
REMARK SMILES IDX 34 36 40 37 35 38 39 39 36 40 37 41 38 42 24 43 25 44 27 45
REMARK SMILES IDX 26 46
REMARK H PARENT 8 22 19 24 30 33 26 47
ROOT
ATOM      1  S   UNL     1       0.612  -2.316  -3.033  1.00  0.00     0.240 S 
ATOM      2  O   UNL     1       0.628  -1.531  -4.246  1.00  0.00    -0.207 OA
ATOM      3  O   UNL     1       0.925  -3.724  -3.018  1.00  0.00    -0.207 OA
ENDROOT
BRANCH   1   4
ATOM      4  C   UNL     1       1.621  -1.475  -1.839  1.00  0.00     0.082 A 
ATOM      5  C   UNL     1       3.185  -0.131   0.051  1.00  0.00     0.023 A 
ATOM      6  C   UNL     1       2.517   0.588  -0.950  1.00  0.00     0.013 A 
ATOM      7  C   UNL     1       3.070  -1.529   0.088  1.00  0.00     0.013 A 
ATOM      8  C   UNL     1       1.742  -0.083  -1.901  1.00  0.00     0.022 A 
ATOM      9  C   UNL     1       2.293  -2.205  -0.857  1.00  0.00     0.022 A 
BRANCH   5  10
ATOM     10  C   UNL     1       4.048   0.529   1.074  1.00  0.00     0.196 C 
ATOM     11  O   UNL     1       4.662  -0.132   1.908  1.00  0.00    -0.288 OA
BRANCH  10  12
ATOM     12  C   UNL     1       4.206   1.989   1.091  1.00  0.00     0.071 A 
ATOM     13  C   UNL     1       5.477   3.935   0.400  1.00  0.00     0.122 A 
ATOM     14  C   UNL     1       4.571   4.752   1.080  1.00  0.00     0.089 A 
ATOM     15  C   UNL     1       5.298   2.550   0.415  1.00  0.00     0.062 A 
ATOM     16  C   UNL     1       3.492   4.177   1.754  1.00  0.00     0.169 A 
ATOM     17  C   UNL     1       3.291   2.801   1.754  1.00  0.00     0.162 A 
ATOM     18  F   UNL     1       2.630   4.971   2.406  1.00  0.00    -0.203 F 
BRANCH  13  19
ATOM     19  O   UNL     1       6.565   4.361  -0.312  1.00  0.00    -0.497 OA
ATOM     20  C   UNL     1       6.877   5.748  -0.245  1.00  0.00     0.278 C 
ENDBRANCH  13  19
BRANCH  17  21
ATOM     21  O   UNL     1       2.208   2.258   2.382  1.00  0.00    -0.504 OA
ATOM     22  H   UNL     1       1.609   2.986   2.654  1.00  0.00     0.293 HD
ENDBRANCH  17  21
ENDBRANCH  10  12
ENDBRANCH   5  10
ENDBRANCH   1   4
BRANCH   1  23
ATOM     23  N   UNL     1      -0.917  -2.101  -2.370  1.00  0.00    -0.206 NA
ATOM     24  H   UNL     1      -1.604  -1.789  -3.060  1.00  0.00     0.141 HD
BRANCH  23  25
ATOM     25  C   UNL     1      -1.379  -3.036  -1.302  1.00  0.00     0.095 C 
ATOM     26  C   UNL     1      -2.240  -4.134  -1.929  1.00  0.00     0.038 C 
ATOM     27  C   UNL     1      -2.130  -2.250  -0.193  1.00  0.00     0.114 C 
ATOM     28  C   UNL     1      -3.224  -4.698  -0.910  1.00  0.00     0.086 C 
ATOM     29  C   UNL     1      -3.654  -2.326  -0.418  1.00  0.00     0.111 C 
ATOM     30  N   UNL     1      -4.206  -3.695  -0.469  1.00  0.00    -0.296 NA
BRANCH  27  31
ATOM     31  N   UNL     1      -1.657  -0.864  -0.135  1.00  0.00    -0.346 N 
ATOM     32  C   UNL     1      -1.822  -0.072   0.976  1.00  0.00     0.254 C 
ATOM     33  H   UNL     1      -1.143  -0.556  -0.953  1.00  0.00     0.164 HD
ATOM     34  O   UNL     1      -2.353  -0.469   2.005  1.00  0.00    -0.269 OA
BRANCH  32  35
ATOM     35  C   UNL     1      -1.311   1.307   0.899  1.00  0.00     0.076 A 
ATOM     36  C   UNL     1      -1.091   1.995  -0.272  1.00  0.00     0.132 A 
ATOM     37  C   UNL     1      -1.038   2.018   2.047  1.00  0.00     0.132 A 
ATOM     38  N   UNL     1      -0.623   3.262  -0.329  1.00  0.00    -0.203 NA
ATOM     39  N   UNL     1      -0.556   3.284   2.053  1.00  0.00    -0.203 NA
ATOM     40  C   UNL     1      -0.392   3.859   0.852  1.00  0.00     0.316 A 
BRANCH  40  41
ATOM     41  O   UNL     1       0.114   5.137   0.895  1.00  0.00    -0.467 OA
ATOM     42  C   UNL     1       0.199   5.750  -0.385  1.00  0.00     0.282 C 
ENDBRANCH  40  41
ENDBRANCH  32  35
ENDBRANCH  27  31
BRANCH  30  43
ATOM     43  C   UNL     1      -4.755  -4.070   0.864  1.00  0.00     0.084 C 
ATOM     44  C   UNL     1      -5.618  -5.361   0.798  1.00  0.00     0.101 C 
ATOM     45  C   UNL     1      -6.124  -3.371   1.111  1.00  0.00     0.101 C 
ATOM     46  N   UNL     1      -6.811  -4.537   0.522  1.00  0.00    -0.314 NA
ATOM     47  H   UNL     1      -7.659  -4.827   1.003  1.00  0.00     0.122 HD
ENDBRANCH  30  43
ENDBRANCH  23  25
ENDBRANCH   1  23
TORSDOF 11
