REMARK SMILES COc1cc(F)c(O)c(C(=O)c2ccc(C(=O)N[C@@H]3CCN(C)C[C@H]3NC(=O)c3cnc(N4CCN(C)CC4)nc3)cc2)c1F
REMARK SMILES IDX 16 1 17 2 18 3 15 5 12 6 13 7 43 8 14 9 42 10 10 11 11 12
REMARK SMILES IDX 9 13 3 14 4 15 44 16 5 17 7 18 45 19 6 20 2 21 1 22 8 23
REMARK SMILES IDX 19 25 20 26 25 27 21 28 24 29 22 30 23 31 26 32 27 33 28 35
REMARK SMILES IDX 29 36 30 37 41 38 31 39 40 40 32 41 33 42 34 43 39 44 35 45
REMARK SMILES IDX 38 46 36 47 37 48
REMARK H PARENT 18 4 8 24 26 34
ROOT
ATOM      1  C   UNL     1       2.209  -2.013  -0.348  1.00  0.00     0.251 C 
ATOM      2  O   UNL     1       1.609  -3.076  -0.420  1.00  0.00    -0.269 OA
ATOM      3  N   UNL     1       1.639  -0.776  -0.589  1.00  0.00    -0.347 N 
ATOM      4  H   UNL     1       2.099   0.008  -0.142  1.00  0.00     0.164 HD
ENDROOT
BRANCH   1   5
ATOM      5  C   UNL     1       3.644  -1.998   0.044  1.00  0.00     0.039 A 
ATOM      6  C   UNL     1       6.347  -2.055   0.778  1.00  0.00     0.023 A 
ATOM      7  C   UNL     1       5.885  -1.085  -0.120  1.00  0.00     0.013 A 
ATOM      8  C   UNL     1       5.461  -3.018   1.279  1.00  0.00     0.013 A 
ATOM      9  C   UNL     1       4.534  -1.051  -0.480  1.00  0.00     0.014 A 
ATOM     10  C   UNL     1       4.113  -2.990   0.912  1.00  0.00     0.014 A 
BRANCH   6  11
ATOM     11  C   UNL     1       7.779  -2.156   1.154  1.00  0.00     0.199 C 
ATOM     12  O   UNL     1       8.276  -3.274   1.306  1.00  0.00    -0.288 OA
BRANCH  11  13
ATOM     13  C   UNL     1       8.671  -0.986   1.301  1.00  0.00     0.107 A 
ATOM     14  C   UNL     1       9.050   1.356   1.888  1.00  0.00     0.158 A 
ATOM     15  C   UNL     1      10.394   1.222   1.544  1.00  0.00     0.092 A 
ATOM     16  C   UNL     1       8.200   0.244   1.772  1.00  0.00     0.180 A 
ATOM     17  C   UNL     1      10.874  -0.012   1.109  1.00  0.00     0.169 A 
ATOM     18  C   UNL     1      10.032  -1.117   0.997  1.00  0.00     0.165 A 
ATOM     19  F   UNL     1       6.918   0.376   2.145  1.00  0.00    -0.202 F 
ATOM     20  F   UNL     1      12.174  -0.118   0.798  1.00  0.00    -0.203 F 
BRANCH  14  21
ATOM     21  O   UNL     1       8.457   2.506   2.337  1.00  0.00    -0.494 OA
ATOM     22  C   UNL     1       9.290   3.648   2.504  1.00  0.00     0.278 C 
ENDBRANCH  14  21
BRANCH  18  23
ATOM     23  O   UNL     1      10.584  -2.303   0.584  1.00  0.00    -0.504 OA
ATOM     24  H   UNL     1       9.936  -3.023   0.756  1.00  0.00     0.293 HD
ENDBRANCH  18  23
ENDBRANCH  11  13
ENDBRANCH   6  11
ENDBRANCH   1   5
BRANCH   3  25
ATOM     25  C   UNL     1       0.196  -0.647  -0.843  1.00  0.00     0.107 C 
ATOM     26  C   UNL     1      -0.214  -1.272  -2.191  1.00  0.00     0.042 C 
ATOM     27  C   UNL     1      -0.263   0.836  -0.796  1.00  0.00     0.118 C 
ATOM     28  C   UNL     1       0.224  -0.422  -3.385  1.00  0.00     0.086 C 
ATOM     29  C   UNL     1       0.227   1.591  -2.049  1.00  0.00     0.111 C 
ATOM     30  N   UNL     1      -0.287   0.956  -3.279  1.00  0.00    -0.304 NA
ATOM     31  C   UNL     1       0.114   1.732  -4.455  1.00  0.00     0.105 C 
BRANCH  27  32
ATOM     32  N   UNL     1      -1.726   0.934  -0.717  1.00  0.00    -0.346 N 
ATOM     33  C   UNL     1      -2.397   0.776   0.475  1.00  0.00     0.254 C 
ATOM     34  H   UNL     1      -2.192   0.892  -1.615  1.00  0.00     0.164 HD
ATOM     35  O   UNL     1      -1.809   0.689   1.550  1.00  0.00    -0.269 OA
BRANCH  33  36
ATOM     36  C   UNL     1      -3.872   0.710   0.443  1.00  0.00     0.076 A 
ATOM     37  C   UNL     1      -4.653   0.769  -0.684  1.00  0.00     0.130 A 
ATOM     38  C   UNL     1      -4.584   0.576   1.612  1.00  0.00     0.130 A 
ATOM     39  N   UNL     1      -6.005   0.701  -0.671  1.00  0.00    -0.221 NA
ATOM     40  N   UNL     1      -5.936   0.507   1.671  1.00  0.00    -0.221 NA
ATOM     41  C   UNL     1      -6.624   0.568   0.517  1.00  0.00     0.225 A 
BRANCH  41  42
ATOM     42  N   UNL     1      -8.017   0.539   0.551  1.00  0.00    -0.338 N 
ATOM     43  C   UNL     1      -8.633   0.051  -0.693  1.00  0.00     0.135 C 
ATOM     44  C   UNL     1      -8.576  -0.057   1.774  1.00  0.00     0.135 C 
ATOM     45  C   UNL     1     -10.174   0.159  -0.621  1.00  0.00     0.105 C 
ATOM     46  C   UNL     1     -10.119   0.052   1.782  1.00  0.00     0.105 C 
ATOM     47  N   UNL     1     -10.741  -0.517   0.566  1.00  0.00    -0.303 NA
ATOM     48  C   UNL     1     -12.193  -0.352   0.606  1.00  0.00     0.105 C 
ENDBRANCH  41  42
ENDBRANCH  33  36
ENDBRANCH  27  32
ENDBRANCH   3  25
TORSDOF 9
