MODEL        5USER    Run = 5USERUSER    Estimated Free Energy of Binding    =  -9.75 kcal/mol  [=(1)+(2)+(3)-(4)]USERUSER    (1) Final Intermolecular Energy     = -12.44 kcal/molUSER        vdW + Hbond + desolv Energy     = -11.77 kcal/molUSER        Electrostatic Energy            =  -0.67 kcal/molUSER        Moving Ligand-Fixed Receptor    = -12.44 kcal/molUSER        Moving Ligand-Moving Receptor   =  +0.00 kcal/molUSER    (2) Final Total Internal Energy     =  -1.51 kcal/molUSER    (3) Torsional Free Energy           =  +2.68 kcal/molUSER    (4) Unbound System's Energy         =  -1.51 kcal/molUSERUSERREMARK SMILES COc1cc(F)c(O)c(C(=O)c2ccc(C(=O)N[C@@H]3CCN(C)C[C@H]3NC(=O)c3cnc(N4CCN(C)CC4)nc3)cc2)c1FREMARK SMILES IDX 16 1 17 2 18 3 15 5 12 6 13 7 43 8 14 9 42 10 10 11 11 12REMARK SMILES IDX 9 13 3 14 4 15 44 16 5 17 7 18 45 19 6 20 2 21 1 22 8 23REMARK SMILES IDX 19 25 20 26 25 27 21 28 24 29 22 30 23 31 26 32 27 33 28 35REMARK SMILES IDX 29 36 30 37 41 38 31 39 40 40 32 41 33 42 34 43 39 44 35 45REMARK SMILES IDX 38 46 36 47 37 48REMARK H PARENT 18 4 8 24 26 34USER                              x       y       z     vdW  Elec       q    TypeUSER                           _______ _______ _______ _____ _____    ______ ____ROOTATOM      1  C   UNL     1      33.527  29.274  22.750 -0.34 -0.01    +0.251 C  ATOM      2  O   UNL     1      33.620  28.183  23.293 -0.08 +0.01    -0.269 OA ATOM      3  N   UNL     1      34.545  29.882  22.037 -0.24 +0.07    -0.347 N  ATOM      4  H   UNL     1      34.246  30.557  21.343 -0.47 -0.06    +0.164 HD ENDROOTBRANCH   1   5ATOM      5  C   UNL     1      32.244  30.026  22.812 -0.57 +0.00    +0.039 A  ATOM      6  C   UNL     1      29.858  31.482  22.998 -0.46 +0.00    +0.023 A  ATOM      7  C   UNL     1      30.431  31.233  21.745 -0.42 -0.00    +0.013 A  ATOM      8  C   UNL     1      30.501  31.033  24.159 -0.52 +0.01    +0.013 A  ATOM      9  C   UNL     1      31.618  30.499  21.651 -0.50 -0.00    +0.014 A  ATOM     10  C   UNL     1      31.692  30.307  24.066 -0.55 +0.00    +0.014 A  BRANCH   6  11ATOM     11  C   UNL     1      28.625  32.294  23.149 -0.36 +0.05    +0.199 C  ATOM     12  O   UNL     1      28.100  32.376  24.261 -0.59 -0.28    -0.288 OA BRANCH  11  13ATOM     13  C   UNL     1      28.015  33.067  22.046 -0.36 -0.02    +0.107 A  ATOM     14  C   UNL     1      27.437  35.192  20.986 -0.22 -0.11    +0.158 A  ATOM     15  C   UNL     1      26.822  34.502  19.943 -0.30 -0.09    +0.092 A  ATOM     16  C   UNL     1      28.038  34.466  22.027 -0.28 -0.04    +0.180 A  ATOM     17  C   UNL     1      26.829  33.108  19.941 -0.26 -0.18    +0.169 A  ATOM     18  C   UNL     1      27.429  32.386  20.971 -0.21 -0.14    +0.165 A  ATOM     19  F   UNL     1      28.662  35.142  23.003 -0.10 -0.04    -0.202 F  ATOM     20  F   UNL     1      26.243  32.468  18.918 -0.19 +0.24    -0.203 F  BRANCH  14  21ATOM     21  O   UNL     1      27.509  36.555  21.101 -0.07 +0.23    -0.494 OA ATOM     22  C   UNL     1      28.348  37.245  20.182 -0.20 -0.01    +0.278 C  ENDBRANCH  14  21BRANCH  18  23ATOM     23  O   UNL     1      27.414  31.017  20.886 -0.07 +0.62    -0.504 OA ATOM     24  H   UNL     1      26.537  30.737  20.540 -0.21 -0.79    +0.293 HD ENDBRANCH  18  23ENDBRANCH  11  13ENDBRANCH   6  11ENDBRANCH   1   5BRANCH   3  25ATOM     25  C   UNL     1      35.810  29.177  21.781 -0.38 -0.03    +0.107 C  ATOM     26  C   UNL     1      36.307  28.408  23.021 -0.32 -0.00    +0.042 C  ATOM     27  C   UNL     1      36.919  30.151  21.295 -0.38 -0.01    +0.118 C  ATOM     28  C   UNL     1      36.869  29.337  24.098 -0.30 +0.01    +0.086 C  ATOM     29  C   UNL     1      37.413  31.030  22.462 -0.45 +0.01    +0.111 C  ATOM     30  N   UNL     1      37.939  30.196  23.561 -0.16 -0.05    -0.304 NA ATOM     31  C   UNL     1      38.484  31.044  24.624 -0.38 +0.03    +0.105 C  BRANCH  27  32ATOM     32  N   UNL     1      38.057  29.415  20.731 -0.11 -0.02    -0.346 N  ATOM     33  C   UNL     1      38.491  29.634  19.442 -0.25 +0.05    +0.254 C  ATOM     34  H   UNL     1      38.331  28.602  21.268 +0.09 +0.01    +0.164 HD ATOM     35  O   UNL     1      38.048  30.546  18.748 +0.12 -0.09    -0.269 OA BRANCH  33  36ATOM     36  C   UNL     1      39.522  28.732  18.890 -0.22 +0.03    +0.076 A  ATOM     37  C   UNL     1      40.855  29.028  18.751 -0.20 +0.11    +0.130 A  ATOM     38  C   UNL     1      39.180  27.471  18.461 -0.07 +0.01    +0.130 A  ATOM     39  N   UNL     1      41.770  28.170  18.242 -0.45 -0.23    -0.221 NA ATOM     40  N   UNL     1      40.063  26.582  17.943 -0.01 -0.02    -0.221 NA ATOM     41  C   UNL     1      41.352  26.953  17.847 -0.03 +0.08    +0.225 A  BRANCH  41  42ATOM     42  N   UNL     1      42.275  26.074  17.283 -0.02 -0.05    -0.338 N  ATOM     43  C   UNL     1      43.056  25.315  18.272 -0.06 +0.04    +0.135 C  ATOM     44  C   UNL     1      41.733  25.257  16.187 -0.15 -0.03    +0.135 C  ATOM     45  C   UNL     1      44.134  24.453  17.574 -0.10 +0.01    +0.105 C  ATOM     46  C   UNL     1      42.844  24.395  15.544 -0.20 -0.02    +0.105 C  ATOM     47  N   UNL     1      43.573  23.567  16.531 -0.07 +0.03    -0.303 NA ATOM     48  C   UNL     1      44.636  22.805  15.878 -0.12 -0.01    +0.105 C  ENDBRANCH  41  42ENDBRANCH  33  36ENDBRANCH  27  32ENDBRANCH   3  25TORSDOF 9TERENDMDL