MODEL        2USER    Run = 2USERUSER    Estimated Free Energy of Binding    = -10.96 kcal/mol  [=(1)+(2)+(3)-(4)]USERUSER    (1) Final Intermolecular Energy     = -14.24 kcal/molUSER        vdW + Hbond + desolv Energy     = -14.17 kcal/molUSER        Electrostatic Energy            =  -0.07 kcal/molUSER        Moving Ligand-Fixed Receptor    = -14.24 kcal/molUSER        Moving Ligand-Moving Receptor   =  +0.00 kcal/molUSER    (2) Final Total Internal Energy     =  -3.11 kcal/molUSER    (3) Torsional Free Energy           =  +3.28 kcal/molUSER    (4) Unbound System's Energy         =  -3.11 kcal/molUSERUSERREMARK SMILES COc1cc(F)c(O)c(C(=O)c2ccc(S(=O)(=O)N[C@@H]3CCN(C4CNC4)C[C@@H]3NC(=O)c3cnc(OC)nc3)cc2)c1REMARK SMILES IDX 16 1 17 2 18 3 15 4 12 5 13 6 42 7 14 8 41 9 10 10 11 11REMARK SMILES IDX 9 12 3 13 4 14 43 15 5 16 7 17 6 18 2 19 1 20 8 21 19 23REMARK SMILES IDX 20 25 21 26 29 27 22 28 28 29 23 30 30 31 31 32 32 34 33 35REMARK SMILES IDX 34 36 40 37 35 38 39 39 36 40 37 41 38 42 24 43 25 44 27 45REMARK SMILES IDX 26 46REMARK H PARENT 8 22 19 24 30 33 26 47USER                              x       y       z     vdW  Elec       q    TypeUSER                           _______ _______ _______ _____ _____    ______ ____ROOTATOM      1  S   UNL     1      35.135  44.253  17.673 -0.30 -0.09    +0.240 S  ATOM      2  O   UNL     1      35.854  43.485  16.682 -0.29 +0.07    -0.207 OA ATOM      3  O   UNL     1      33.695  44.334  17.694 -0.21 +0.08    -0.207 OA ENDROOTBRANCH   1   4ATOM      4  C   UNL     1      35.720  43.744  19.270 -0.33 -0.01    +0.082 A  ATOM      5  C   UNL     1      36.635  42.972  21.798 -0.40 +0.00    +0.023 A  ATOM      6  C   UNL     1      37.180  44.098  21.165 -0.39 +0.00    +0.013 A  ATOM      7  C   UNL     1      35.636  42.232  21.147 -0.35 +0.00    +0.013 A  ATOM      8  C   UNL     1      36.730  44.480  19.898 -0.29 -0.00    +0.022 A  ATOM      9  C   UNL     1      35.179  42.612  19.882 -0.43 -0.00    +0.022 A  BRANCH   5  10ATOM     10  C   UNL     1      37.096  42.502  23.137 -0.36 +0.02    +0.196 C  ATOM     11  O   UNL     1      37.606  41.393  23.279 -0.16 -0.04    -0.288 OA BRANCH  10  12ATOM     12  C   UNL     1      36.975  43.368  24.318 -0.32 +0.01    +0.071 A  ATOM     13  C   UNL     1      37.261  45.565  25.303 -0.23 +0.01    +0.122 A  ATOM     14  C   UNL     1      36.775  45.070  26.515 -0.26 -0.01    +0.089 A  ATOM     15  C   UNL     1      37.370  44.708  24.206 -0.27 +0.01    +0.062 A  ATOM     16  C   UNL     1      36.391  43.731  26.612 -0.28 -0.02    +0.169 A  ATOM     17  C   UNL     1      36.472  42.876  25.518 -0.27 -0.01    +0.162 A  ATOM     18  F   UNL     1      35.928  43.267  27.781 -0.12 +0.06    -0.203 F  BRANCH  13  19ATOM     19  O   UNL     1      37.657  46.852  25.061 -0.63 -0.08    -0.497 OA ATOM     20  C   UNL     1      38.715  47.038  24.128 -0.24 +0.04    +0.278 C  ENDBRANCH  13  19BRANCH  17  21ATOM     21  O   UNL     1      36.054  41.581  25.618 -0.14 +0.12    -0.504 OA ATOM     22  H   UNL     1      36.742  41.001  25.227 -0.05 -0.10    +0.293 HD ENDBRANCH  17  21ENDBRANCH  10  12ENDBRANCH   5  10ENDBRANCH   1   4BRANCH   1  23ATOM     23  N   UNL     1      35.757  45.811  17.584 -0.24 +0.11    -0.206 NA ATOM     24  H   UNL     1      36.536  45.960  18.230 +0.08 -0.05    +0.141 HD BRANCH  23  25ATOM     25  C   UNL     1      35.814  46.492  16.257 -0.35 -0.09    +0.095 C  ATOM     26  C   UNL     1      34.837  45.809  15.297 -0.37 -0.03    +0.038 C  ATOM     27  C   UNL     1      37.271  46.496  15.721 -0.37 -0.06    +0.114 C  ATOM     28  C   UNL     1      35.283  45.993  13.851 -0.36 -0.06    +0.086 C  ATOM     29  C   UNL     1      37.483  45.333  14.730 -0.36 -0.04    +0.111 C  ATOM     30  N   UNL     1      36.565  45.328  13.574 -0.23 +0.12    -0.296 NA BRANCH  27  31ATOM     31  N   UNL     1      38.227  46.447  16.831 -0.17 +0.13    -0.346 N  ATOM     32  C   UNL     1      39.585  46.547  16.642 -0.34 -0.05    +0.254 C  ATOM     33  H   UNL     1      37.807  46.398  17.752 +0.08 -0.06    +0.164 HD ATOM     34  O   UNL     1      40.095  46.708  15.541 -0.31 +0.04    -0.269 OA BRANCH  32  35ATOM     35  C   UNL     1      40.436  46.471  17.841 -0.44 -0.01    +0.076 A  ATOM     36  C   UNL     1      41.497  47.309  18.102 -0.42 -0.01    +0.132 A  ATOM     37  C   UNL     1      40.189  45.532  18.818 -0.36 -0.00    +0.132 A  ATOM     38  N   UNL     1      42.270  47.229  19.208 -0.40 -0.02    -0.203 NA ATOM     39  N   UNL     1      40.935  45.396  19.940 -0.27 -0.01    -0.203 NA ATOM     40  C   UNL     1      41.936  46.276  20.093 -0.20 +0.05    +0.316 A  BRANCH  40  41ATOM     41  O   UNL     1      42.683  46.098  21.234 -0.11 -0.14    -0.467 OA ATOM     42  C   UNL     1      43.140  47.319  21.801 -0.24 +0.06    +0.282 C  ENDBRANCH  40  41ENDBRANCH  32  35ENDBRANCH  27  31BRANCH  30  43ATOM     43  C   UNL     1      37.226  45.962  12.399 -0.49 -0.03    +0.084 C  ATOM     44  C   UNL     1      37.807  47.362  12.742 -0.42 -0.02    +0.101 C  ATOM     45  C   UNL     1      36.197  46.781  11.566 -0.49 -0.05    +0.101 C  ATOM     46  N   UNL     1      36.519  47.978  12.368 -0.85 +0.12    -0.314 NA ATOM     47  H   UNL     1      36.589  48.845  11.841 -0.23 -0.03    +0.122 HD ENDBRANCH  30  43ENDBRANCH  23  25ENDBRANCH   1  23TORSDOF 11TERENDMDL