REMARK SMILES COc1cc(F)c(O)c(C(=O)c2ccc(C(=O)N[C@H]3C[C@H](F)N(C4CNC4)C[C@@H]3NC(=O)c3cnc(OC)nc3)cc2)c1
REMARK SMILES IDX 16 1 17 2 18 3 15 5 12 6 13 7 42 8 14 9 41 10 10 11 11 12
REMARK SMILES IDX 9 13 3 14 4 15 43 16 5 17 7 18 6 19 2 20 1 21 8 22 19 24
REMARK SMILES IDX 20 25 29 26 21 27 28 28 23 29 22 30 30 31 31 32 32 34 33 35
REMARK SMILES IDX 34 36 40 37 35 38 39 39 36 40 37 41 38 42 24 43 25 44 27 45
REMARK SMILES IDX 26 46
REMARK H PARENT 18 4 8 23 30 33 26 47
ROOT
ATOM      1  C   UNL     1       0.222  -0.051  -1.089  1.00  0.00     0.251 C 
ATOM      2  O   UNL     1      -0.346   1.018  -1.296  1.00  0.00    -0.269 OA
ATOM      3  N   UNL     1      -0.244  -1.252  -1.589  1.00  0.00    -0.347 N 
ATOM      4  H   UNL     1       0.078  -2.102  -1.136  1.00  0.00     0.164 HD
ENDROOT
BRANCH   1   5
ATOM      5  C   UNL     1       1.424  -0.112  -0.214  1.00  0.00     0.039 A 
ATOM      6  C   UNL     1       3.637  -0.159   1.474  1.00  0.00     0.023 A 
ATOM      7  C   UNL     1       2.695   0.861   1.610  1.00  0.00     0.013 A 
ATOM      8  C   UNL     1       3.489  -1.157   0.508  1.00  0.00     0.013 A 
ATOM      9  C   UNL     1       1.589   0.885   0.759  1.00  0.00     0.014 A 
ATOM     10  C   UNL     1       2.384  -1.127  -0.346  1.00  0.00     0.014 A 
BRANCH   6  11
ATOM     11  C   UNL     1       4.785  -0.212   2.388  1.00  0.00     0.196 C 
ATOM     12  O   UNL     1       4.686  -0.911   3.395  1.00  0.00    -0.288 OA
BRANCH  11  13
ATOM     13  C   UNL     1       6.035   0.544   2.117  1.00  0.00     0.071 A 
ATOM     14  C   UNL     1       7.414   1.927   0.656  1.00  0.00     0.122 A 
ATOM     15  C   UNL     1       8.420   1.938   1.620  1.00  0.00     0.089 A 
ATOM     16  C   UNL     1       6.224   1.230   0.907  1.00  0.00     0.062 A 
ATOM     17  C   UNL     1       8.231   1.258   2.821  1.00  0.00     0.169 A 
ATOM     18  C   UNL     1       7.053   0.562   3.080  1.00  0.00     0.162 A 
ATOM     19  F   UNL     1       9.218   1.277   3.732  1.00  0.00    -0.203 F 
BRANCH  14  20
ATOM     20  O   UNL     1       7.464   2.542  -0.564  1.00  0.00    -0.497 OA
ATOM     21  C   UNL     1       8.601   3.354  -0.832  1.00  0.00     0.278 C 
ENDBRANCH  14  20
BRANCH  18  22
ATOM     22  O   UNL     1       6.949  -0.083   4.286  1.00  0.00    -0.504 OA
ATOM     23  H   UNL     1       6.104  -0.586   4.299  1.00  0.00     0.293 HD
ENDBRANCH  18  22
ENDBRANCH  11  13
ENDBRANCH   6  11
ENDBRANCH   1   5
BRANCH   3  24
ATOM     24  C   UNL     1      -1.491  -1.325  -2.366  1.00  0.00     0.110 C 
ATOM     25  C   UNL     1      -1.541  -2.604  -3.204  1.00  0.00     0.081 C 
ATOM     26  C   UNL     1      -2.743  -1.162  -1.454  1.00  0.00     0.119 C 
ATOM     27  C   UNL     1      -2.435  -3.657  -2.563  1.00  0.00     0.240 C 
ATOM     28  C   UNL     1      -3.966  -1.786  -2.164  1.00  0.00     0.114 C 
ATOM     29  N   UNL     1      -3.834  -3.231  -2.443  1.00  0.00    -0.266 NA
ATOM     30  F   UNL     1      -2.401  -4.763  -3.354  1.00  0.00    -0.230 F 
BRANCH  26  31
ATOM     31  N   UNL     1      -2.948   0.247  -1.105  1.00  0.00    -0.346 N 
ATOM     32  C   UNL     1      -3.804   0.603  -0.082  1.00  0.00     0.254 C 
ATOM     33  H   UNL     1      -2.124   0.836  -1.239  1.00  0.00     0.164 HD
ATOM     34  O   UNL     1      -4.526  -0.205   0.495  1.00  0.00    -0.269 OA
BRANCH  32  35
ATOM     35  C   UNL     1      -3.814   2.019   0.334  1.00  0.00     0.076 A 
ATOM     36  C   UNL     1      -4.475   2.395   1.485  1.00  0.00     0.132 A 
ATOM     37  C   UNL     1      -3.232   3.055  -0.365  1.00  0.00     0.132 A 
ATOM     38  N   UNL     1      -4.558   3.672   1.925  1.00  0.00    -0.203 NA
ATOM     39  N   UNL     1      -3.285   4.350   0.027  1.00  0.00    -0.203 NA
ATOM     40  C   UNL     1      -3.958   4.601   1.160  1.00  0.00     0.316 A 
BRANCH  40  41
ATOM     41  O   UNL     1      -4.016   5.929   1.515  1.00  0.00    -0.467 OA
ATOM     42  C   UNL     1      -4.807   6.163   2.671  1.00  0.00     0.282 C 
ENDBRANCH  40  41
ENDBRANCH  32  35
ENDBRANCH  26  31
BRANCH  29  43
ATOM     43  C   UNL     1      -4.464  -4.009  -1.354  1.00  0.00     0.087 C 
ATOM     44  C   UNL     1      -6.012  -3.956  -1.448  1.00  0.00     0.101 C 
ATOM     45  C   UNL     1      -4.673  -5.491  -1.777  1.00  0.00     0.101 C 
ATOM     46  N   UNL     1      -6.018  -5.413  -1.143  1.00  0.00    -0.314 NA
ATOM     47  H   UNL     1      -6.744  -5.943  -1.626  1.00  0.00     0.122 HD
ENDBRANCH  29  43
ENDBRANCH   3  24
TORSDOF 10
