MODEL        5USER    Run = 5USERUSER    Estimated Free Energy of Binding    = -12.23 kcal/mol  [=(1)+(2)+(3)-(4)]USERUSER    (1) Final Intermolecular Energy     = -14.32 kcal/molUSER        vdW + Hbond + desolv Energy     = -13.95 kcal/molUSER        Electrostatic Energy            =  -0.37 kcal/molUSER        Moving Ligand-Fixed Receptor    = -14.32 kcal/molUSER        Moving Ligand-Moving Receptor   =  +0.00 kcal/molUSER    (2) Final Total Internal Energy     =  -1.70 kcal/molUSER    (3) Torsional Free Energy           =  +2.09 kcal/molUSER    (4) Unbound System's Energy         =  -1.70 kcal/molUSERUSERREMARK SMILES CC(=O)N[C@H]1CCN(C(=O)[C@@H]2CCN(c3ccc(C(=O)Nc4cccc(N5CCOCC5)c4F)cc3)CN2)C1REMARK SMILES IDX 11 1 12 2 13 3 14 4 37 5 38 6 9 8 10 9 8 10 5 11 6 12 39 13REMARK SMILES IDX 7 14 4 15 2 16 1 17 3 18 15 20 16 21 36 22 17 23 35 24 18 25REMARK SMILES IDX 19 26 21 27 20 28 22 30 23 31 33 32 24 33 26 34 25 35 34 36REMARK SMILES IDX 27 37 28 38 32 39 29 40 31 41 30 42REMARK H PARENT 38 7 4 19 21 29USER                              x       y       z     vdW  Elec       q    TypeUSER                           _______ _______ _______ _____ _____    ______ ____ROOTATOM      1  C   UNL     1      27.827  41.129  16.161 -0.26 -0.03    +0.147 C  ATOM      2  C   UNL     1      29.163  40.376  16.226 -0.41 -0.00    +0.050 C  ATOM      3  C   UNL     1      29.899  40.652  17.538 -0.29 -0.01    +0.120 C  ATOM      4  N   UNL     1      30.057  42.101  17.713 -0.04 +0.06    -0.359 N  ATOM      5  C   UNL     1      28.773  42.790  17.644 -0.11 -0.03    +0.202 C  ATOM      6  N   UNL     1      27.967  42.578  16.444 -0.08 +0.10    -0.289 NA ATOM      7  H   UNL     1      28.501  42.983  15.679 +0.07 -0.08    +0.125 HD ENDROOTBRANCH   1   8ATOM      8  C   UNL     1      26.772  40.449  17.075 -0.18 +0.01    +0.239 C  ATOM      9  O   UNL     1      26.446  39.266  16.952 -0.41 -0.14    -0.273 OA BRANCH   8  10ATOM     10  N   UNL     1      26.131  41.248  18.004 -0.06 +0.03    -0.339 N  ATOM     11  C   UNL     1      24.969  42.075  19.910 -0.42 -0.02    +0.103 C  ATOM     12  C   UNL     1      25.115  43.177  18.861 -0.38 -0.01    +0.048 C  ATOM     13  C   UNL     1      25.973  41.008  19.435 -0.24 -0.02    +0.144 C  ATOM     14  C   UNL     1      25.355  42.398  17.581 -0.26 -0.01    +0.122 C  BRANCH  11  15ATOM     15  N   UNL     1      25.205  42.561  21.255 -0.25 +0.12    -0.352 N  ATOM     16  C   UNL     1      24.190  42.588  22.185 -0.57 -0.06    +0.217 C  ATOM     17  C   UNL     1      24.560  43.248  23.486 -0.53 -0.04    +0.114 C  ATOM     18  O   UNL     1      23.075  42.122  21.975 -0.89 +0.01    -0.275 OA ATOM     19  H   UNL     1      26.050  43.092  21.442 -0.49 -0.10    +0.163 HD ENDBRANCH  11  15ENDBRANCH   8  10ENDBRANCH   1   8BRANCH   4  20ATOM     20  C   UNL     1      31.228  42.694  17.248 -0.27 -0.01    +0.038 A  ATOM     21  C   UNL     1      32.512  42.206  17.546 -0.33 -0.01    +0.027 A  ATOM     22  C   UNL     1      31.167  43.805  16.388 -0.30 -0.01    +0.027 A  ATOM     23  C   UNL     1      33.670  42.807  17.033 -0.36 -0.01    +0.016 A  ATOM     24  C   UNL     1      32.315  44.413  15.862 -0.34 -0.01    +0.016 A  ATOM     25  C   UNL     1      33.575  43.904  16.178 -0.30 -0.02    +0.040 A  BRANCH  25  26ATOM     26  C   UNL     1      34.828  44.495  15.634 -0.18 -0.14    +0.255 C  ATOM     27  N   UNL     1      34.682  45.748  15.072 -0.16 +0.28    -0.319 N  ATOM     28  O   UNL     1      35.856  43.833  15.696 -0.28 +0.10    -0.269 OA ATOM     29  H   UNL     1      33.749  46.150  15.036 -0.11 -0.23    +0.170 HD BRANCH  27  30ATOM     30  C   UNL     1      35.677  46.541  14.456 -0.35 -0.06    +0.079 A  ATOM     31  C   UNL     1      35.607  46.996  13.144 -0.53 -0.02    +0.029 A  ATOM     32  C   UNL     1      36.795  46.889  15.240 -0.28 -0.12    +0.169 A  ATOM     33  C   UNL     1      36.633  47.792  12.637 -0.64 -0.00    +0.005 A  ATOM     34  C   UNL     1      37.848  47.699  14.765 -0.44 -0.04    +0.075 A  ATOM     35  C   UNL     1      37.730  48.135  13.435 -0.41 -0.01    +0.029 A  ATOM     36  F   UNL     1      36.812  46.439  16.510 -0.08 +0.13    -0.202 F  BRANCH  34  37ATOM     37  N   UNL     1      38.955  48.049  15.528 -0.21 +0.16    -0.364 N  ATOM     38  C   UNL     1      39.177  47.470  16.865 -0.35 -0.05    +0.145 C  ATOM     39  C   UNL     1      40.084  48.803  14.964 -0.52 -0.05    +0.145 C  ATOM     40  C   UNL     1      40.683  47.318  17.140 -0.45 -0.03    +0.181 C  ATOM     41  C   UNL     1      40.880  49.468  16.101 -0.48 -0.04    +0.181 C  ATOM     42  O   UNL     1      41.411  48.550  17.068 -0.78 +0.01    -0.378 OA ENDBRANCH  34  37ENDBRANCH  27  30ENDBRANCH  25  26ENDBRANCH   4  20TORSDOF 7TERENDMDL