MODEL        10USER    Run = 10USERUSER    Estimated Free Energy of Binding    = -11.90 kcal/mol  [=(1)+(2)+(3)-(4)]USERUSER    (1) Final Intermolecular Energy     = -13.99 kcal/molUSER        vdW + Hbond + desolv Energy     = -13.63 kcal/molUSER        Electrostatic Energy            =  -0.36 kcal/molUSER        Moving Ligand-Fixed Receptor    = -13.99 kcal/molUSER        Moving Ligand-Moving Receptor   =  +0.00 kcal/molUSER    (2) Final Total Internal Energy     =  -1.70 kcal/molUSER    (3) Torsional Free Energy           =  +2.09 kcal/molUSER    (4) Unbound System's Energy         =  -1.70 kcal/molUSERUSERREMARK SMILES CC(=O)N[C@@H]1CN(C(=O)[C@H]2CCN(c3ccc(C(=O)Nc4cccc(N5CCOCC5)c4)cc3F)CN2)C[C@H]1CREMARK SMILES IDX 10 1 11 2 12 3 13 4 36 5 37 6 8 8 9 9 7 10 5 11 6 12 39 13REMARK SMILES IDX 38 14 40 15 4 16 2 17 1 18 3 19 14 21 15 22 34 23 16 24REMARK SMILES IDX 33 25 17 26 35 27 18 28 20 29 19 30 21 32 22 33 32 34 23 35REMARK SMILES IDX 25 36 24 37 26 38 27 39 31 40 28 41 30 42 29 43REMARK H PARENT 37 7 4 20 20 31USER                              x       y       z     vdW  Elec       q    TypeUSER                           _______ _______ _______ _____ _____    ______ ____ROOTATOM      1  C   UNL     1      36.555  46.416  14.509 -0.37 -0.09    +0.147 C  ATOM      2  C   UNL     1      36.892  44.914  14.565 -0.42 -0.02    +0.050 C  ATOM      3  C   UNL     1      36.824  44.347  15.980 -0.34 -0.04    +0.120 C  ATOM      4  N   UNL     1      35.594  44.773  16.645 -0.07 +0.17    -0.356 N  ATOM      5  C   UNL     1      35.360  46.212  16.576 -0.26 -0.19    +0.202 C  ATOM      6  N   UNL     1      36.344  46.994  15.851 -0.20 +0.27    -0.289 NA ATOM      7  H   UNL     1      36.064  47.968  15.778 +0.08 -0.20    +0.125 HD ENDROOTBRANCH   1   8ATOM      8  C   UNL     1      37.678  47.197  13.780 -0.38 -0.09    +0.239 C  ATOM      9  O   UNL     1      37.656  47.398  12.563 -0.99 +0.05    -0.273 OA BRANCH   8  10ATOM     10  N   UNL     1      38.724  47.672  14.549 -0.23 +0.12    -0.339 N  ATOM     11  C   UNL     1      40.079  47.967  16.482 -0.50 -0.03    +0.106 C  ATOM     12  C   UNL     1      39.054  47.035  15.818 -0.41 -0.05    +0.144 C  ATOM     13  C   UNL     1      40.716  48.686  15.284 -0.65 -0.01    +0.030 C  ATOM     14  C   UNL     1      39.529  48.865  14.339 -0.26 -0.05    +0.125 C  ATOM     15  C   UNL     1      41.386  49.999  15.651 -0.72 -0.00    +0.012 C  BRANCH  11  16ATOM     16  N   UNL     1      41.053  47.259  17.294 -0.26 +0.04    -0.351 N  ATOM     17  C   UNL     1      40.638  46.418  18.301 -0.40 -0.01    +0.217 C  ATOM     18  C   UNL     1      41.746  45.639  18.958 -0.35 +0.01    +0.114 C  ATOM     19  O   UNL     1      39.467  46.308  18.651 -0.31 +0.03    -0.275 OA ATOM     20  H   UNL     1      41.980  47.113  16.909 -0.41 -0.05    +0.163 HD ENDBRANCH  11  16ENDBRANCH   8  10ENDBRANCH   1   8BRANCH   4  21ATOM     21  C   UNL     1      34.489  43.938  16.779 -0.27 -0.03    +0.074 A  ATOM     22  C   UNL     1      33.331  44.202  16.019 -0.30 -0.02    +0.030 A  ATOM     23  C   UNL     1      34.428  42.832  17.650 -0.27 -0.05    +0.147 A  ATOM     24  C   UNL     1      32.176  43.420  16.134 -0.32 -0.01    +0.016 A  ATOM     25  C   UNL     1      33.294  42.030  17.760 -0.36 -0.02    +0.055 A  ATOM     26  C   UNL     1      32.160  42.337  17.014 -0.26 -0.02    +0.043 A  ATOM     27  F   UNL     1      35.490  42.484  18.392 -0.09 +0.04    -0.205 F  BRANCH  26  28ATOM     28  C   UNL     1      30.948  41.498  17.176 -0.21 -0.07    +0.255 C  ATOM     29  N   UNL     1      29.813  42.033  16.599 -0.11 +0.10    -0.322 N  ATOM     30  O   UNL     1      31.042  40.469  17.834 -0.23 +0.03    -0.269 OA ATOM     31  H   UNL     1      29.885  42.975  16.235 +0.11 -0.07    +0.170 HD BRANCH  29  32ATOM     32  C   UNL     1      28.518  41.474  16.594 -0.25 -0.01    +0.043 A  ATOM     33  C   UNL     1      27.869  41.031  15.444 -0.33 -0.01    +0.026 A  ATOM     34  C   UNL     1      27.855  41.375  17.828 -0.15 -0.00    +0.052 A  ATOM     35  C   UNL     1      26.583  40.499  15.530 -0.35 -0.00    +0.004 A  ATOM     36  C   UNL     1      26.567  40.819  17.946 -0.21 -0.00    +0.039 A  ATOM     37  C   UNL     1      25.943  40.394  16.767 -0.32 +0.00    +0.026 A  BRANCH  36  38ATOM     38  N   UNL     1      25.979  40.722  19.221 -0.05 +0.05    -0.367 N  ATOM     39  C   UNL     1      26.544  39.732  20.163 -0.23 -0.03    +0.145 C  ATOM     40  C   UNL     1      25.799  42.047  19.869 -0.35 -0.03    +0.145 C  ATOM     41  C   UNL     1      25.676  39.663  21.431 -0.32 -0.06    +0.181 C  ATOM     42  C   UNL     1      24.979  41.896  21.162 -0.46 -0.04    +0.181 C  ATOM     43  O   UNL     1      25.576  40.950  22.062 -0.84 +0.00    -0.378 OA ENDBRANCH  36  38ENDBRANCH  29  32ENDBRANCH  26  28ENDBRANCH   4  21TORSDOF 7TERENDMDL