REMARK SMILES CC(=O)N[C@H]1CCN(C(=O)[C@@H]2CCN(c3ccc(C(=O)Nc4cccc(N5CCOCC5)c4F)cc3)CN2)C1
REMARK SMILES IDX 11 1 12 2 13 3 14 4 37 5 38 6 9 8 10 9 8 10 5 11 6 12 39 13
REMARK SMILES IDX 7 14 4 15 2 16 1 17 3 18 15 20 16 21 36 22 17 23 35 24 18 25
REMARK SMILES IDX 19 26 21 27 20 28 22 30 23 31 33 32 24 33 26 34 25 35 34 36
REMARK SMILES IDX 27 37 28 38 32 39 29 40 31 41 30 42
REMARK H PARENT 38 7 4 19 21 29
ROOT
ATOM      1  C   UNL     1       4.426  -1.368  -0.424  1.00  0.00     0.147 C 
ATOM      2  C   UNL     1       3.652  -0.310   0.374  1.00  0.00     0.050 C 
ATOM      3  C   UNL     1       2.521  -0.939   1.189  1.00  0.00     0.120 C 
ATOM      4  N   UNL     1       1.656  -1.722   0.299  1.00  0.00    -0.359 N 
ATOM      5  C   UNL     1       2.418  -2.717  -0.448  1.00  0.00     0.202 C 
ATOM      6  N   UNL     1       3.544  -2.233  -1.244  1.00  0.00    -0.289 NA
ATOM      7  H   UNL     1       3.136  -1.646  -1.968  1.00  0.00     0.125 HD
ENDROOT
BRANCH   1   8
ATOM      8  C   UNL     1       5.352  -2.190   0.513  1.00  0.00     0.239 C 
ATOM      9  O   UNL     1       5.002  -3.252   1.033  1.00  0.00    -0.273 OA
BRANCH   8  10
ATOM     10  N   UNL     1       6.585  -1.645   0.821  1.00  0.00    -0.339 N 
ATOM     11  C   UNL     1       8.666  -0.491   0.761  1.00  0.00     0.103 C 
ATOM     12  C   UNL     1       8.544  -1.292   2.057  1.00  0.00     0.048 C 
ATOM     13  C   UNL     1       7.222  -0.476   0.224  1.00  0.00     0.144 C 
ATOM     14  C   UNL     1       7.497  -2.335   1.714  1.00  0.00     0.122 C 
BRANCH  11  15
ATOM     15  N   UNL     1       9.236   0.824   0.978  1.00  0.00    -0.352 N 
ATOM     16  C   UNL     1       9.478   1.673  -0.079  1.00  0.00     0.217 C 
ATOM     17  C   UNL     1      10.199   2.939   0.296  1.00  0.00     0.114 C 
ATOM     18  O   UNL     1       9.143   1.421  -1.232  1.00  0.00    -0.275 OA
ATOM     19  H   UNL     1       9.668   1.028   1.874  1.00  0.00     0.163 HD
ENDBRANCH  11  15
ENDBRANCH   8  10
ENDBRANCH   1   8
BRANCH   4  20
ATOM     20  C   UNL     1       0.541  -1.094  -0.252  1.00  0.00     0.038 A 
ATOM     21  C   UNL     1       0.201  -1.179  -1.613  1.00  0.00     0.027 A 
ATOM     22  C   UNL     1      -0.346  -0.376   0.570  1.00  0.00     0.027 A 
ATOM     23  C   UNL     1      -0.948  -0.564  -2.129  1.00  0.00     0.016 A 
ATOM     24  C   UNL     1      -1.502   0.239   0.070  1.00  0.00     0.016 A 
ATOM     25  C   UNL     1      -1.811   0.136  -1.286  1.00  0.00     0.040 A 
BRANCH  25  26
ATOM     26  C   UNL     1      -3.034   0.751  -1.870  1.00  0.00     0.255 C 
ATOM     27  N   UNL     1      -4.159   0.675  -1.072  1.00  0.00    -0.319 N 
ATOM     28  O   UNL     1      -2.961   1.236  -2.992  1.00  0.00    -0.269 OA
ATOM     29  H   UNL     1      -4.083   0.184  -0.185  1.00  0.00     0.170 HD
BRANCH  27  30
ATOM     30  C   UNL     1      -5.461   1.140  -1.366  1.00  0.00     0.079 A 
ATOM     31  C   UNL     1      -5.804   1.804  -2.538  1.00  0.00     0.029 A 
ATOM     32  C   UNL     1      -6.461   0.895  -0.404  1.00  0.00     0.169 A 
ATOM     33  C   UNL     1      -7.124   2.203  -2.742  1.00  0.00     0.005 A 
ATOM     34  C   UNL     1      -7.808   1.276  -0.577  1.00  0.00     0.075 A 
ATOM     35  C   UNL     1      -8.104   1.941  -1.778  1.00  0.00     0.029 A 
ATOM     36  F   UNL     1      -6.086   0.234   0.709  1.00  0.00    -0.202 F 
BRANCH  34  37
ATOM     37  N   UNL     1      -8.802   1.040   0.364  1.00  0.00    -0.364 N 
ATOM     38  C   UNL     1     -10.208   0.856  -0.037  1.00  0.00     0.145 C 
ATOM     39  C   UNL     1      -8.490   0.710   1.762  1.00  0.00     0.145 C 
ATOM     40  C   UNL     1     -10.911  -0.132   0.910  1.00  0.00     0.181 C 
ATOM     41  C   UNL     1      -9.714   1.002   2.648  1.00  0.00     0.181 C 
ATOM     42  O   UNL     1     -10.896   0.274   2.284  1.00  0.00    -0.378 OA
ENDBRANCH  34  37
ENDBRANCH  27  30
ENDBRANCH  25  26
ENDBRANCH   4  20
TORSDOF 7
