REMARK SMILES CC(=O)N[C@@H]1CN(C(=O)[C@H]2CCN(c3ccc(C(=O)Nc4cccc(N5CCOCC5)c4)cc3F)CN2)C[C@H]1C
REMARK SMILES IDX 10 1 11 2 12 3 13 4 36 5 37 6 8 8 9 9 7 10 5 11 6 12 39 13
REMARK SMILES IDX 38 14 40 15 4 16 2 17 1 18 3 19 14 21 15 22 34 23 16 24
REMARK SMILES IDX 33 25 17 26 35 27 18 28 20 29 19 30 21 32 22 33 32 34 23 35
REMARK SMILES IDX 25 36 24 37 26 38 27 39 31 40 28 41 30 42 29 43
REMARK H PARENT 37 7 4 20 20 31
ROOT
ATOM      1  C   UNL     1      -3.954  -1.535  -0.452  1.00  0.00     0.147 C 
ATOM      2  C   UNL     1      -3.345  -0.710   0.697  1.00  0.00     0.050 C 
ATOM      3  C   UNL     1      -2.076  -1.339   1.265  1.00  0.00     0.120 C 
ATOM      4  N   UNL     1      -1.173  -1.738   0.187  1.00  0.00    -0.356 N 
ATOM      5  C   UNL     1      -1.816  -2.542  -0.847  1.00  0.00     0.202 C 
ATOM      6  N   UNL     1      -3.233  -2.803  -0.676  1.00  0.00    -0.289 NA
ATOM      7  H   UNL     1      -3.619  -3.295  -1.477  1.00  0.00     0.125 HD
ENDROOT
BRANCH   1   8
ATOM      8  C   UNL     1      -5.450  -1.832  -0.172  1.00  0.00     0.239 C 
ATOM      9  O   UNL     1      -5.846  -2.950   0.166  1.00  0.00    -0.273 OA
BRANCH   8  10
ATOM     10  N   UNL     1      -6.342  -0.785  -0.313  1.00  0.00    -0.339 N 
ATOM     11  C   UNL     1      -8.443   0.296  -0.586  1.00  0.00     0.106 C 
ATOM     12  C   UNL     1      -7.769  -1.001  -0.113  1.00  0.00     0.144 C 
ATOM     13  C   UNL     1      -7.337   1.345  -0.399  1.00  0.00     0.030 C 
ATOM     14  C   UNL     1      -6.078   0.567  -0.779  1.00  0.00     0.125 C 
ATOM     15  C   UNL     1      -7.538   2.595  -1.239  1.00  0.00     0.012 C 
BRANCH  11  16
ATOM     16  N   UNL     1      -9.650   0.617   0.155  1.00  0.00    -0.351 N 
ATOM     17  C   UNL     1     -10.836  -0.015  -0.143  1.00  0.00     0.217 C 
ATOM     18  C   UNL     1     -11.965   0.303   0.800  1.00  0.00     0.114 C 
ATOM     19  O   UNL     1     -10.978  -0.771  -1.099  1.00  0.00    -0.275 OA
ATOM     20  H   UNL     1      -9.550   1.021   1.079  1.00  0.00     0.163 HD
ENDBRANCH  11  16
ENDBRANCH   8  10
ENDBRANCH   1   8
BRANCH   4  21
ATOM     21  C   UNL     1      -0.058  -0.986  -0.170  1.00  0.00     0.074 A 
ATOM     22  C   UNL     1       1.016  -1.619  -0.829  1.00  0.00     0.030 A 
ATOM     23  C   UNL     1       0.095   0.389   0.098  1.00  0.00     0.147 A 
ATOM     24  C   UNL     1       2.179  -0.926  -1.183  1.00  0.00     0.016 A 
ATOM     25  C   UNL     1       1.236   1.099  -0.268  1.00  0.00     0.055 A 
ATOM     26  C   UNL     1       2.288   0.435  -0.893  1.00  0.00     0.043 A 
ATOM     27  F   UNL     1      -0.886   1.084   0.694  1.00  0.00    -0.205 F 
BRANCH  26  28
ATOM     28  C   UNL     1       3.512   1.198  -1.236  1.00  0.00     0.255 C 
ATOM     29  N   UNL     1       4.685   0.583  -0.844  1.00  0.00    -0.322 N 
ATOM     30  O   UNL     1       3.380   2.295  -1.764  1.00  0.00    -0.269 OA
ATOM     31  H   UNL     1       4.598  -0.247  -0.271  1.00  0.00     0.170 HD
BRANCH  29  32
ATOM     32  C   UNL     1       5.999   1.065  -1.024  1.00  0.00     0.043 A 
ATOM     33  C   UNL     1       6.319   2.165  -1.815  1.00  0.00     0.026 A 
ATOM     34  C   UNL     1       7.032   0.377  -0.368  1.00  0.00     0.052 A 
ATOM     35  C   UNL     1       7.648   2.568  -1.944  1.00  0.00     0.004 A 
ATOM     36  C   UNL     1       8.378   0.778  -0.461  1.00  0.00     0.039 A 
ATOM     37  C   UNL     1       8.663   1.882  -1.273  1.00  0.00     0.026 A 
BRANCH  36  38
ATOM     38  N   UNL     1       9.356   0.059   0.252  1.00  0.00    -0.367 N 
ATOM     39  C   UNL     1      10.768   0.236  -0.153  1.00  0.00     0.145 C 
ATOM     40  C   UNL     1       9.194   0.180   1.724  1.00  0.00     0.145 C 
ATOM     41  C   UNL     1      11.662  -0.742   0.628  1.00  0.00     0.181 C 
ATOM     42  C   UNL     1      10.161  -0.777   2.442  1.00  0.00     0.181 C 
ATOM     43  O   UNL     1      11.523  -0.553   2.046  1.00  0.00    -0.378 OA
ENDBRANCH  36  38
ENDBRANCH  29  32
ENDBRANCH  26  28
ENDBRANCH   4  21
TORSDOF 7
