MODEL        8USER    Run = 8USERUSER    Estimated Free Energy of Binding    =  -9.28 kcal/mol  [=(1)+(2)+(3)-(4)]USERUSER    (1) Final Intermolecular Energy     = -10.78 kcal/molUSER        vdW + Hbond + desolv Energy     = -10.69 kcal/molUSER        Electrostatic Energy            =  -0.09 kcal/molUSER        Moving Ligand-Fixed Receptor    = -10.78 kcal/molUSER        Moving Ligand-Moving Receptor   =  +0.00 kcal/molUSER    (2) Final Total Internal Energy     =  -1.78 kcal/molUSER    (3) Torsional Free Energy           =  +1.49 kcal/molUSER    (4) Unbound System's Energy         =  -1.78 kcal/molUSERUSERREMARK SMILES C1=C(NCCN2CCOCC2)NC2=CCN=C(c3cccc4cccnc34)C2=N1REMARK SMILES IDX 3 1 2 3 1 4 29 5 12 6 28 7 13 8 17 9 14 10 16 11 15 12 18 14REMARK SMILES IDX 19 15 27 16 20 17 26 18 22 19 21 20 25 21 23 22 24 23 4 24REMARK SMILES IDX 5 25 6 26 7 27 11 28 8 29 10 30 9 31REMARK H PARENT 3 2 12 13USER                              x       y       z     vdW  Elec       q    TypeUSER                           _______ _______ _______ _____ _____    ______ ____ROOTATOM      1  N   UNL     1      40.647  46.297  16.773 -0.18 +0.03    -0.369 N  ATOM      2  H   UNL     1      41.390  46.648  17.370 -0.09 -0.02    +0.162 HD ENDROOTBRANCH   1   3ATOM      3  C   UNL     1      39.560  45.841  17.499 -0.41 -0.02    +0.122 C  ATOM      4  C   UNL     1      39.735  45.134  18.646 -0.38 -0.01    +0.156 C  ATOM      5  N   UNL     1      38.728  44.626  19.447 -0.22 +0.01    -0.249 NA ATOM      6  N   UNL     1      38.265  46.082  17.096 -0.17 +0.10    -0.339 N  ATOM      7  C   UNL     1      37.509  44.845  19.028 -0.31 -0.01    +0.112 C  ATOM      8  C   UNL     1      37.178  45.662  17.821 -0.34 -0.02    +0.066 C  ATOM      9  C   UNL     1      36.336  44.285  19.800 -0.37 -0.01    +0.095 C  ATOM     10  C   UNL     1      35.893  45.944  17.600 -0.39 -0.01    +0.025 C  ATOM     11  N   UNL     1      35.113  44.635  19.579 -0.21 +0.06    -0.278 NA ATOM     12  C   UNL     1      34.769  45.529  18.483 -0.36 -0.08    +0.172 C  ATOM     13  H   UNL     1      38.119  46.585  16.237 +0.11 -0.07    +0.168 HD BRANCH   9  14ATOM     14  C   UNL     1      36.611  43.313  20.875 -0.41 +0.00    +0.028 A  ATOM     15  C   UNL     1      36.219  41.982  20.667 -0.48 -0.00    +0.013 A  ATOM     16  C   UNL     1      37.265  43.740  22.035 -0.34 +0.01    +0.080 A  ATOM     17  C   UNL     1      36.447  41.040  21.661 -0.51 +0.00    +0.001 A  ATOM     18  N   UNL     1      37.695  45.015  22.198 -0.21 -0.02    -0.256 NA ATOM     19  C   UNL     1      37.483  42.765  23.035 -0.40 +0.00    +0.001 A  ATOM     20  C   UNL     1      37.071  41.432  22.843 -0.43 +0.00    +0.010 A  ATOM     21  C   UNL     1      38.307  45.354  23.352 -0.24 +0.01    +0.112 A  ATOM     22  C   UNL     1      38.128  43.153  24.216 -0.29 +0.00    +0.012 A  ATOM     23  C   UNL     1      38.544  44.468  24.382 -0.23 +0.00    +0.021 A  ENDBRANCH   9  14ENDBRANCH   1   3BRANCH   1  24ATOM     24  C   UNL     1      40.568  46.953  15.473 -0.41 -0.01    +0.130 C  BRANCH  24  25ATOM     25  C   UNL     1      39.610  46.184  14.537 -0.34 -0.02    +0.106 C  BRANCH  25  26ATOM     26  N   UNL     1      38.239  46.727  14.496 -0.20 +0.10    -0.297 NA ATOM     27  C   UNL     1      37.413  46.047  13.473 -0.45 -0.04    +0.113 C  ATOM     28  C   UNL     1      38.229  48.192  14.281 -0.51 -0.05    +0.113 C  ATOM     29  C   UNL     1      37.294  46.834  12.159 -0.52 -0.05    +0.175 C  ATOM     30  C   UNL     1      36.917  48.674  13.642 -0.41 -0.09    +0.175 C  ATOM     31  O   UNL     1      36.716  48.136  12.329 -0.96 +0.11    -0.379 OA ENDBRANCH  25  26ENDBRANCH  24  25ENDBRANCH   1  24TORSDOF 5TERENDMDL