REMARK SMILES C1=C(NCCN2CCOCC2)NC2=CCN=C(c3cccc4cccnc34)C2=N1
REMARK SMILES IDX 3 1 2 3 1 4 29 5 12 6 28 7 13 8 17 9 14 10 16 11 15 12 18 14
REMARK SMILES IDX 19 15 27 16 20 17 26 18 22 19 21 20 25 21 23 22 24 23 4 24
REMARK SMILES IDX 5 25 6 26 7 27 11 28 8 29 10 30 9 31
REMARK H PARENT 3 2 12 13
ROOT
ATOM      1  N   UNL     1      -1.560   0.725  -0.300  1.00  0.00    -0.369 N 
ATOM      2  H   UNL     1      -1.617   1.521   0.329  1.00  0.00     0.162 HD
ENDROOT
BRANCH   1   3
ATOM      3  C   UNL     1      -0.335   0.085  -0.228  1.00  0.00     0.122 C 
ATOM      4  C   UNL     1       0.709   0.649   0.435  1.00  0.00     0.156 C 
ATOM      5  N   UNL     1       1.974   0.105   0.567  1.00  0.00    -0.249 NA
ATOM      6  N   UNL     1      -0.121  -1.142  -0.818  1.00  0.00    -0.339 N 
ATOM      7  C   UNL     1       2.159  -1.045  -0.025  1.00  0.00     0.112 C 
ATOM      8  C   UNL     1       1.079  -1.802  -0.729  1.00  0.00     0.066 C 
ATOM      9  C   UNL     1       3.521  -1.700   0.011  1.00  0.00     0.095 C 
ATOM     10  C   UNL     1       1.361  -3.037  -1.146  1.00  0.00     0.025 C 
ATOM     11  N   UNL     1       3.728  -2.921  -0.356  1.00  0.00    -0.278 NA
ATOM     12  C   UNL     1       2.663  -3.727  -0.935  1.00  0.00     0.172 C 
ATOM     13  H   UNL     1      -0.877  -1.562  -1.331  1.00  0.00     0.168 HD
BRANCH   9  14
ATOM     14  C   UNL     1       4.659  -0.909   0.515  1.00  0.00     0.028 A 
ATOM     15  C   UNL     1       5.284  -1.342   1.694  1.00  0.00     0.013 A 
ATOM     16  C   UNL     1       5.085   0.214  -0.201  1.00  0.00     0.080 A 
ATOM     17  C   UNL     1       6.349  -0.616   2.209  1.00  0.00     0.001 A 
ATOM     18  N   UNL     1       4.513   0.587  -1.372  1.00  0.00    -0.256 NA
ATOM     19  C   UNL     1       6.168   0.940   0.344  1.00  0.00     0.001 A 
ATOM     20  C   UNL     1       6.785   0.525   1.540  1.00  0.00     0.010 A 
ATOM     21  C   UNL     1       4.971   1.691  -1.999  1.00  0.00     0.112 A 
ATOM     22  C   UNL     1       6.620   2.077  -0.339  1.00  0.00     0.012 A 
ATOM     23  C   UNL     1       6.012   2.463  -1.527  1.00  0.00     0.021 A 
ENDBRANCH   9  14
ENDBRANCH   1   3
BRANCH   1  24
ATOM     24  C   UNL     1      -2.837   0.062  -0.538  1.00  0.00     0.130 C 
BRANCH  24  25
ATOM     25  C   UNL     1      -3.967   1.104  -0.688  1.00  0.00     0.106 C 
BRANCH  25  26
ATOM     26  N   UNL     1      -5.293   0.521  -0.968  1.00  0.00    -0.297 NA
ATOM     27  C   UNL     1      -6.292   1.566  -1.286  1.00  0.00     0.113 C 
ATOM     28  C   UNL     1      -5.770  -0.332   0.144  1.00  0.00     0.113 C 
ATOM     29  C   UNL     1      -7.192   1.936  -0.097  1.00  0.00     0.175 C 
ATOM     30  C   UNL     1      -7.303  -0.439   0.174  1.00  0.00     0.175 C 
ATOM     31  O   UNL     1      -7.937   0.823   0.417  1.00  0.00    -0.379 OA
ENDBRANCH  25  26
ENDBRANCH  24  25
ENDBRANCH   1  24
TORSDOF 5
