MODEL        5USER    Run = 5USERUSER    Estimated Free Energy of Binding    =  -9.46 kcal/mol  [=(1)+(2)+(3)-(4)]USERUSER    (1) Final Intermolecular Energy     = -11.25 kcal/molUSER        vdW + Hbond + desolv Energy     = -10.96 kcal/molUSER        Electrostatic Energy            =  -0.29 kcal/molUSER        Moving Ligand-Fixed Receptor    = -11.25 kcal/molUSER        Moving Ligand-Moving Receptor   =  +0.00 kcal/molUSER    (2) Final Total Internal Energy     =  -0.55 kcal/molUSER    (3) Torsional Free Energy           =  +1.79 kcal/molUSER    (4) Unbound System's Energy         =  -0.55 kcal/molUSERUSERREMARK SMILES O=C(C1=CN=C(/C=C/c2ccc(O)cc2)NC1)N1CCN(C(=O)c2ccncc2)CC1REMARK SMILES IDX 7 1 6 2 3 3 4 4 17 5 5 6 16 7 2 9 18 10 19 11 31 12 20 13REMARK SMILES IDX 30 14 21 15 22 16 1 17 23 18 24 19 25 20 29 21 26 22 28 23REMARK SMILES IDX 27 24 8 25 9 26 10 27 15 28 11 29 14 30 12 31 13 32REMARK H PARENT 16 8 13 33USER                              x       y       z     vdW  Elec       q    TypeUSER                           _______ _______ _______ _____ _____    ______ ____ROOTATOM      1  C   UNL     1      34.852  44.026  17.074 -0.34 -0.02    +0.047 C  ENDROOTBRANCH   1   2ATOM      2  C   UNL     1      34.043  42.917  17.669 -0.33 -0.04    +0.126 C  ATOM      3  C   UNL     1      32.420  41.052  18.795 -0.42 -0.00    +0.055 C  ATOM      4  C   UNL     1      32.468  42.321  19.216 -0.34 -0.00    +0.124 C  ATOM      5  C   UNL     1      33.166  40.612  17.589 -0.19 -0.07    +0.157 C  ATOM      6  N   UNL     1      33.242  43.290  18.635 -0.19 +0.04    -0.239 NA ATOM      7  N   UNL     1      34.147  41.617  17.222 -0.12 +0.18    -0.366 N  ATOM      8  H   UNL     1      34.566  41.473  16.314 -0.35 -0.11    +0.162 HD BRANCH   3   9ATOM      9  C   UNL     1      31.525  40.056  19.421 -0.25 +0.03    +0.253 C  ATOM     10  N   UNL     1      30.303  39.807  18.822 -0.11 -0.02    -0.335 N  ATOM     11  C   UNL     1      29.699  40.667  17.786 -0.24 -0.01    +0.141 C  ATOM     12  C   UNL     1      29.410  38.816  19.429 -0.29 +0.02    +0.141 C  ATOM     13  C   UNL     1      28.227  40.330  17.502 -0.22 +0.01    +0.141 C  ATOM     14  C   UNL     1      28.066  39.445  19.830 -0.15 -0.00    +0.141 C  ATOM     15  N   UNL     1      27.450  40.224  18.743 -0.06 -0.00    -0.335 N  ATOM     16  C   UNL     1      26.329  41.029  18.903 -0.14 -0.03    +0.254 C  ATOM     17  O   UNL     1      31.883  39.528  20.472 -1.07 -0.10    -0.269 OA ATOM     18  O   UNL     1      25.943  41.844  18.069 -0.15 +0.03    -0.269 OA BRANCH  16  19ATOM     19  C   UNL     1      25.558  40.923  20.157 -0.32 -0.01    +0.043 A  ATOM     20  C   UNL     1      25.375  42.038  20.970 -0.48 -0.01    +0.034 A  ATOM     21  C   UNL     1      25.067  39.677  20.540 -0.31 -0.01    +0.034 A  ATOM     22  C   UNL     1      24.652  41.865  22.134 -0.50 -0.02    +0.112 A  ATOM     23  C   UNL     1      24.357  39.612  21.722 -0.33 -0.05    +0.112 A  ATOM     24  N   UNL     1      24.127  40.680  22.518 -0.61 +0.05    -0.265 NA ENDBRANCH  16  19ENDBRANCH   3   9ENDBRANCH   1   2BRANCH   1  25ATOM     25  C   UNL     1      34.367  44.933  16.215 -0.37 -0.01    +0.012 C  BRANCH  25  26ATOM     26  C   UNL     1      35.234  45.855  15.470 -0.33 +0.02    -0.025 A  ATOM     27  C   UNL     1      36.369  46.433  16.053 -0.37 -0.01    +0.012 A  ATOM     28  C   UNL     1      34.943  46.134  14.129 -0.36 -0.01    +0.012 A  ATOM     29  C   UNL     1      37.184  47.293  15.313 -0.40 -0.03    +0.047 A  ATOM     30  C   UNL     1      35.756  46.997  13.388 -0.50 -0.03    +0.047 A  ATOM     31  C   UNL     1      36.869  47.571  13.990 -0.43 -0.07    +0.115 A  BRANCH  31  32ATOM     32  O   UNL     1      37.688  48.420  13.306 -0.53 +0.13    -0.508 OA ATOM     33  H   UNL     1      37.737  49.261  13.787 -0.14 -0.17    +0.293 HD ENDBRANCH  31  32ENDBRANCH  25  26ENDBRANCH   1  25TORSDOF 6TERENDMDL