REMARK SMILES O=C(C1=CN=C(/C=C/c2ccc(O)cc2)NC1)N1CCN(C(=O)c2ccncc2)CC1
REMARK SMILES IDX 7 1 6 2 3 3 4 4 17 5 5 6 16 7 2 9 18 10 19 11 31 12 20 13
REMARK SMILES IDX 30 14 21 15 22 16 1 17 23 18 24 19 25 20 29 21 26 22 28 23
REMARK SMILES IDX 27 24 8 25 9 26 10 27 15 28 11 29 14 30 12 31 13 32
REMARK H PARENT 16 8 13 33
ROOT
ATOM      1  C   UNL     1       4.191   0.465  -0.445  1.00  0.00     0.047 C 
ENDROOT
BRANCH   1   2
ATOM      2  C   UNL     1       2.750   0.490  -0.847  1.00  0.00     0.126 C 
ATOM      3  C   UNL     1       0.169   0.734  -1.660  1.00  0.00     0.055 C 
ATOM      4  C   UNL     1       0.906   1.778  -1.263  1.00  0.00     0.124 C 
ATOM      5  C   UNL     1       0.763  -0.619  -1.803  1.00  0.00     0.157 C 
ATOM      6  N   UNL     1       2.222   1.687  -0.894  1.00  0.00    -0.239 NA
ATOM      7  N   UNL     1       2.053  -0.664  -1.138  1.00  0.00    -0.366 N 
ATOM      8  H   UNL     1       2.596  -1.491  -1.345  1.00  0.00     0.162 HD
BRANCH   3   9
ATOM      9  C   UNL     1      -1.232   0.893  -2.102  1.00  0.00     0.253 C 
ATOM     10  N   UNL     1      -2.148   1.404  -1.200  1.00  0.00    -0.335 N 
ATOM     11  C   UNL     1      -1.904   1.520   0.251  1.00  0.00     0.141 C 
ATOM     12  C   UNL     1      -3.540   1.574  -1.629  1.00  0.00     0.141 C 
ATOM     13  C   UNL     1      -3.174   1.844   1.054  1.00  0.00     0.141 C 
ATOM     14  C   UNL     1      -4.499   0.750  -0.756  1.00  0.00     0.141 C 
ATOM     15  N   UNL     1      -4.284   0.957   0.686  1.00  0.00    -0.335 N 
ATOM     16  C   UNL     1      -4.899   0.204   1.679  1.00  0.00     0.254 C 
ATOM     17  O   UNL     1      -1.534   0.520  -3.234  1.00  0.00    -0.269 OA
ATOM     18  O   UNL     1      -4.564   0.221   2.860  1.00  0.00    -0.269 OA
BRANCH  16  19
ATOM     19  C   UNL     1      -6.009  -0.691   1.300  1.00  0.00     0.043 A 
ATOM     20  C   UNL     1      -7.208  -0.166   0.824  1.00  0.00     0.034 A 
ATOM     21  C   UNL     1      -5.857  -2.063   1.482  1.00  0.00     0.034 A 
ATOM     22  C   UNL     1      -8.208  -1.061   0.498  1.00  0.00     0.112 A 
ATOM     23  C   UNL     1      -6.918  -2.871   1.124  1.00  0.00     0.112 A 
ATOM     24  N   UNL     1      -8.083  -2.401   0.623  1.00  0.00    -0.265 NA
ENDBRANCH  16  19
ENDBRANCH   3   9
ENDBRANCH   1   2
BRANCH   1  25
ATOM     25  C   UNL     1       4.884  -0.656  -0.204  1.00  0.00     0.012 C 
BRANCH  25  26
ATOM     26  C   UNL     1       6.301  -0.639   0.180  1.00  0.00    -0.025 A 
ATOM     27  C   UNL     1       6.782   0.208   1.187  1.00  0.00     0.012 A 
ATOM     28  C   UNL     1       7.190  -1.521  -0.447  1.00  0.00     0.012 A 
ATOM     29  C   UNL     1       8.133   0.189   1.542  1.00  0.00     0.047 A 
ATOM     30  C   UNL     1       8.543  -1.539  -0.095  1.00  0.00     0.047 A 
ATOM     31  C   UNL     1       9.002  -0.680   0.896  1.00  0.00     0.115 A 
BRANCH  31  32
ATOM     32  O   UNL     1      10.313  -0.663   1.270  1.00  0.00    -0.508 OA
ATOM     33  H   UNL     1      10.801  -1.300   0.724  1.00  0.00     0.293 HD
ENDBRANCH  31  32
ENDBRANCH  25  26
ENDBRANCH   1  25
TORSDOF 6
