MODEL        6USER    Run = 6USERUSER    Estimated Free Energy of Binding    =  -7.96 kcal/mol  [=(1)+(2)+(3)-(4)]USERUSER    (1) Final Intermolecular Energy     =  -9.45 kcal/molUSER        vdW + Hbond + desolv Energy     =  -9.36 kcal/molUSER        Electrostatic Energy            =  -0.09 kcal/molUSER        Moving Ligand-Fixed Receptor    =  -9.45 kcal/molUSER        Moving Ligand-Moving Receptor   =  +0.00 kcal/molUSER    (2) Final Total Internal Energy     =  -0.66 kcal/molUSER    (3) Torsional Free Energy           =  +1.49 kcal/molUSER    (4) Unbound System's Energy         =  -0.66 kcal/molUSERUSERREMARK SMILES N#Cc1c(-c2ccc(-c3cccc(C(F)(F)F)c3)cc2)ccnc1NREMARK SMILES IDX 5 1 6 2 7 3 8 4 19 5 20 6 4 7 3 8 24 9 21 10 23 11 22 12REMARK SMILES IDX 2 13 1 14 25 15 9 18 10 19 18 20 11 21 13 22 12 23 14 24REMARK SMILES IDX 15 25 16 26 17 27REMARK H PARENT 25 16 25 17USER                              x       y       z     vdW  Elec       q    TypeUSER                           _______ _______ _______ _____ _____    ______ ____ROOTATOM      1  C   UNL     1      37.632  46.979  15.921 -0.40 +0.01    -0.017 A  ATOM      2  C   UNL     1      37.141  46.705  14.637 -0.42 -0.00    +0.009 A  ATOM      3  C   UNL     1      35.885  46.114  14.462 -0.41 -0.01    +0.009 A  ATOM      4  C   UNL     1      35.081  45.780  15.563 -0.33 +0.02    -0.018 A  ATOM      5  C   UNL     1      35.575  46.062  16.845 -0.35 -0.01    +0.009 A  ATOM      6  C   UNL     1      36.830  46.654  17.023 -0.15 -0.01    +0.009 A  ENDROOTBRANCH   1   7ATOM      7  C   UNL     1      38.953  47.598  16.102 -0.46 -0.00    +0.005 A  ATOM      8  C   UNL     1      39.912  47.098  17.004 -0.41 -0.02    +0.102 A  ATOM      9  C   UNL     1      41.148  47.748  17.116 -0.36 -0.02    +0.141 A  ATOM     10  C   UNL     1      39.282  48.731  15.348 -0.50 -0.01    +0.030 A  ATOM     11  N   UNL     1      41.449  48.840  16.386 -0.92 -0.00    -0.238 NA ATOM     12  C   UNL     1      40.524  49.308  15.524 -0.52 -0.04    +0.114 A  BRANCH   8  13ATOM     13  C   UNL     1      39.645  45.936  17.797 -0.43 -0.01    +0.104 C  ATOM     14  N   UNL     1      39.465  45.001  18.461 -0.29 +0.02    -0.192 NA ENDBRANCH   8  13BRANCH   9  15ATOM     15  N   UNL     1      42.156  47.314  17.986 -0.16 +0.03    -0.383 N  ATOM     16  H   UNL     1      43.064  47.670  17.695 -0.45 -0.02    +0.158 HD ATOM     17  H   UNL     1      42.212  46.299  18.001 -0.20 -0.01    +0.158 HD ENDBRANCH   9  15ENDBRANCH   1   7BRANCH   4  18ATOM     18  C   UNL     1      33.762  45.154  15.378 -0.30 +0.01    -0.018 A  ATOM     19  C   UNL     1      33.491  43.877  15.893 -0.29 -0.00    +0.009 A  ATOM     20  C   UNL     1      32.737  45.818  14.683 -0.25 -0.02    +0.021 A  ATOM     21  C   UNL     1      32.239  43.282  15.722 -0.34 -0.00    +0.001 A  ATOM     22  C   UNL     1      31.473  45.228  14.496 -0.39 -0.04    +0.056 A  ATOM     23  C   UNL     1      31.233  43.955  15.031 -0.36 -0.01    +0.013 A  BRANCH  22  24ATOM     24  C   UNL     1      30.386  45.976  13.768 -0.27 -0.30    +0.416 C  ATOM     25  F   UNL     1      29.137  45.707  14.242 -0.08 +0.15    -0.166 F  ATOM     26  F   UNL     1      30.536  47.327  13.856 -0.07 +0.04    -0.166 F  ATOM     27  F   UNL     1      30.345  45.691  12.435 -0.22 +0.17    -0.166 F  ENDBRANCH  22  24ENDBRANCH   4  18TORSDOF 5TERENDMDL