REMARK SMILES N#Cc1c(-c2ccc(-c3cc(F)cc(F)c3)cc2)ccnc1N
REMARK SMILES IDX 3 1 4 2 19 3 20 4 21 5 22 6 2 7 1 8 5 9 6 10 18 11 7 12
REMARK SMILES IDX 17 13 8 14 9 15 10 16 16 17 11 18 14 19 13 20 12 21 15 22
REMARK SMILES IDX 23 23
REMARK H PARENT 23 24 23 25
ROOT
ATOM      1  C   UNL     1      -3.476   0.014   0.659  1.00  0.00     0.102 A 
ATOM      2  C   UNL     1      -2.586  -0.596  -0.246  1.00  0.00     0.005 A 
ATOM      3  C   UNL     1      -3.113  -1.471  -1.205  1.00  0.00     0.030 A 
ATOM      4  C   UNL     1      -4.477  -1.695  -1.225  1.00  0.00     0.114 A 
ATOM      5  N   UNL     1      -5.341  -1.115  -0.368  1.00  0.00    -0.238 NA
ATOM      6  C   UNL     1      -4.841  -0.270   0.555  1.00  0.00     0.141 A 
ENDROOT
BRANCH   1   7
ATOM      7  C   UNL     1      -3.006   0.911   1.672  1.00  0.00     0.104 C 
ATOM      8  N   UNL     1      -2.631   1.665   2.472  1.00  0.00    -0.192 NA
ENDBRANCH   1   7
BRANCH   2   9
ATOM      9  C   UNL     1      -1.137  -0.356  -0.219  1.00  0.00    -0.017 A 
ATOM     10  C   UNL     1      -0.593   0.832  -0.725  1.00  0.00     0.009 A 
ATOM     11  C   UNL     1      -0.263  -1.316   0.309  1.00  0.00     0.009 A 
ATOM     12  C   UNL     1       0.789   1.056  -0.695  1.00  0.00     0.009 A 
ATOM     13  C   UNL     1       1.118  -1.090   0.336  1.00  0.00     0.009 A 
ATOM     14  C   UNL     1       1.668   0.100  -0.164  1.00  0.00    -0.018 A 
BRANCH  14  15
ATOM     15  C   UNL     1       3.120   0.340  -0.130  1.00  0.00    -0.013 A 
ATOM     16  C   UNL     1       3.648   1.514   0.432  1.00  0.00     0.048 A 
ATOM     17  C   UNL     1       4.023  -0.598  -0.657  1.00  0.00     0.048 A 
ATOM     18  C   UNL     1       5.025   1.731   0.459  1.00  0.00     0.126 A 
ATOM     19  C   UNL     1       5.396  -0.360  -0.620  1.00  0.00     0.126 A 
ATOM     20  C   UNL     1       5.909   0.801  -0.065  1.00  0.00     0.078 A 
ATOM     21  F   UNL     1       5.501   2.859   1.002  1.00  0.00    -0.207 F 
ATOM     22  F   UNL     1       6.234  -1.270  -1.133  1.00  0.00    -0.207 F 
ENDBRANCH  14  15
ENDBRANCH   2   9
BRANCH   6  23
ATOM     23  N   UNL     1      -5.793   0.250   1.429  1.00  0.00    -0.383 N 
ATOM     24  H   UNL     1      -5.760   1.261   1.511  1.00  0.00     0.158 HD
ATOM     25  H   UNL     1      -6.706  -0.076   1.118  1.00  0.00     0.158 HD
ENDBRANCH   6  23
TORSDOF 4
