MODEL        8USER    Run = 8USERUSER    Estimated Free Energy of Binding    =  -8.17 kcal/mol  [=(1)+(2)+(3)-(4)]USERUSER    (1) Final Intermolecular Energy     =  -9.36 kcal/molUSER        vdW + Hbond + desolv Energy     =  -9.25 kcal/molUSER        Electrostatic Energy            =  -0.11 kcal/molUSER        Moving Ligand-Fixed Receptor    =  -9.36 kcal/molUSER        Moving Ligand-Moving Receptor   =  +0.00 kcal/molUSER    (2) Final Total Internal Energy     =  -0.51 kcal/molUSER    (3) Torsional Free Energy           =  +1.19 kcal/molUSER    (4) Unbound System's Energy         =  -0.51 kcal/molUSERUSERREMARK SMILES N#Cc1c(-c2ccc(-c3cc(F)cc(F)c3)cc2)ccnc1NREMARK SMILES IDX 3 1 4 2 19 3 20 4 21 5 22 6 2 7 1 8 5 9 6 10 18 11 7 12REMARK SMILES IDX 17 13 8 14 9 15 10 16 16 17 11 18 14 19 13 20 12 21 15 22REMARK SMILES IDX 23 23REMARK H PARENT 23 24 23 25USER                              x       y       z     vdW  Elec       q    TypeUSER                           _______ _______ _______ _____ _____    ______ ____ROOTATOM      1  C   UNL     1      41.770  46.698  19.083 -0.43 +0.01    +0.102 A  ATOM      2  C   UNL     1      40.815  45.733  18.708 -0.47 -0.00    +0.005 A  ATOM      3  C   UNL     1      40.651  44.610  19.530 -0.38 +0.00    +0.030 A  ATOM      4  C   UNL     1      41.425  44.499  20.670 -0.28 +0.01    +0.114 A  ATOM      5  N   UNL     1      42.340  45.417  21.043 -0.17 -0.06    -0.238 NA ATOM      6  C   UNL     1      42.501  46.500  20.258 -0.30 +0.03    +0.141 A  ENDROOTBRANCH   1   7ATOM      7  C   UNL     1      41.998  47.865  18.285 -0.43 -0.00    +0.104 C  ATOM      8  N   UNL     1      42.155  48.803  17.618 -0.41 -0.04    -0.192 NA ENDBRANCH   1   7BRANCH   2   9ATOM      9  C   UNL     1      39.996  45.855  17.495 -0.44 +0.00    -0.017 A  ATOM     10  C   UNL     1      38.615  45.619  17.530 -0.39 -0.00    +0.009 A  ATOM     11  C   UNL     1      40.580  46.205  16.270 -0.37 -0.00    +0.009 A  ATOM     12  C   UNL     1      37.839  45.739  16.371 -0.36 -0.00    +0.009 A  ATOM     13  C   UNL     1      39.802  46.322  15.113 -0.43 -0.00    +0.009 A  ATOM     14  C   UNL     1      38.418  46.092  15.143 -0.39 +0.01    -0.018 A  BRANCH  14  15ATOM     15  C   UNL     1      37.599  46.221  13.927 -0.44 +0.00    -0.013 A  ATOM     16  C   UNL     1      37.062  47.461  13.542 -0.53 -0.02    +0.048 A  ATOM     17  C   UNL     1      37.329  45.109  13.112 -0.41 -0.02    +0.048 A  ATOM     18  C   UNL     1      36.287  47.572  12.388 -0.57 -0.06    +0.126 A  ATOM     19  C   UNL     1      36.552  45.243  11.963 -0.45 -0.04    +0.126 A  ATOM     20  C   UNL     1      36.025  46.469  11.591 -0.44 -0.04    +0.078 A  ATOM     21  F   UNL     1      35.789  48.767  12.044 -0.13 +0.11    -0.207 F  ATOM     22  F   UNL     1      36.308  44.165  11.206 -0.07 +0.07    -0.207 F  ENDBRANCH  14  15ENDBRANCH   2   9BRANCH   6  23ATOM     23  N   UNL     1      43.495  47.376  20.690 -0.16 -0.11    -0.383 N  ATOM     24  H   UNL     1      44.061  47.751  19.935 -0.46 +0.04    +0.158 HD ATOM     25  H   UNL     1      43.043  48.112  21.228 -0.36 -0.00    +0.158 HD ENDBRANCH   6  23TORSDOF 4TERENDMDL