REMARK SMILES N#Cc1c(-c2ccc(-c3cccc(C(F)(F)F)c3)cc2)ccnc1N
REMARK SMILES IDX 5 1 6 2 7 3 8 4 19 5 20 6 4 7 3 8 24 9 21 10 23 11 22 12
REMARK SMILES IDX 2 13 1 14 25 15 9 18 10 19 18 20 11 21 13 22 12 23 14 24
REMARK SMILES IDX 15 25 16 26 17 27
REMARK H PARENT 25 16 25 17
ROOT
ATOM      1  C   UNL     1       1.680   0.360   0.047  1.00  0.00    -0.017 A 
ATOM      2  C   UNL     1       0.889   0.664  -1.069  1.00  0.00     0.009 A 
ATOM      3  C   UNL     1      -0.480   0.375  -1.077  1.00  0.00     0.009 A 
ATOM      4  C   UNL     1      -1.100  -0.226   0.029  1.00  0.00    -0.018 A 
ATOM      5  C   UNL     1      -0.305  -0.523   1.146  1.00  0.00     0.009 A 
ATOM      6  C   UNL     1       1.064  -0.233   1.157  1.00  0.00     0.009 A 
ENDROOT
BRANCH   1   7
ATOM      7  C   UNL     1       3.118   0.664   0.052  1.00  0.00     0.005 A 
ATOM      8  C   UNL     1       4.107  -0.328  -0.099  1.00  0.00     0.102 A 
ATOM      9  C   UNL     1       5.457   0.047  -0.083  1.00  0.00     0.141 A 
ATOM     10  C   UNL     1       3.532   1.992   0.210  1.00  0.00     0.030 A 
ATOM     11  N   UNL     1       5.840   1.329   0.073  1.00  0.00    -0.238 NA
ATOM     12  C   UNL     1       4.885   2.270   0.215  1.00  0.00     0.114 A 
BRANCH   8  13
ATOM     13  C   UNL     1       3.753  -1.704  -0.277  1.00  0.00     0.104 C 
ATOM     14  N   UNL     1       3.506  -2.830  -0.416  1.00  0.00    -0.192 NA
ENDBRANCH   8  13
BRANCH   9  15
ATOM     15  N   UNL     1       6.501  -0.875  -0.230  1.00  0.00    -0.383 N 
ATOM     16  H   UNL     1       6.436  -1.358  -1.123  1.00  0.00     0.158 HD
ATOM     17  H   UNL     1       6.473  -1.577   0.505  1.00  0.00     0.158 HD
ENDBRANCH   9  15
ENDBRANCH   1   7
BRANCH   4  18
ATOM     18  C   UNL     1      -2.539  -0.535   0.018  1.00  0.00    -0.018 A 
ATOM     19  C   UNL     1      -3.001  -1.833   0.286  1.00  0.00     0.009 A 
ATOM     20  C   UNL     1      -3.491   0.461  -0.260  1.00  0.00     0.021 A 
ATOM     21  C   UNL     1      -4.366  -2.128   0.280  1.00  0.00     0.001 A 
ATOM     22  C   UNL     1      -4.869   0.177  -0.278  1.00  0.00     0.056 A 
ATOM     23  C   UNL     1      -5.296  -1.128   0.003  1.00  0.00     0.013 A 
BRANCH  22  24
ATOM     24  C   UNL     1      -5.867   1.272  -0.555  1.00  0.00     0.416 C 
ATOM     25  F   UNL     1      -7.046   0.811  -1.060  1.00  0.00    -0.166 F 
ATOM     26  F   UNL     1      -6.190   1.975   0.566  1.00  0.00    -0.166 F 
ATOM     27  F   UNL     1      -5.413   2.191  -1.454  1.00  0.00    -0.166 F 
ENDBRANCH  22  24
ENDBRANCH   4  18
TORSDOF 5
