MODEL        6USER    Run = 6USERUSER    Estimated Free Energy of Binding    =  -9.62 kcal/mol  [=(1)+(2)+(3)-(4)]USERUSER    (1) Final Intermolecular Energy     = -10.51 kcal/molUSER        vdW + Hbond + desolv Energy     = -10.10 kcal/molUSER        Electrostatic Energy            =  -0.41 kcal/molUSER        Moving Ligand-Fixed Receptor    = -10.51 kcal/molUSER        Moving Ligand-Moving Receptor   =  +0.00 kcal/molUSER    (2) Final Total Internal Energy     =  -0.65 kcal/molUSER    (3) Torsional Free Energy           =  +0.89 kcal/molUSER    (4) Unbound System's Energy         =  -0.65 kcal/molUSERUSERREMARK SMILES Cn1ccnccc(-c2cccc(-c3ccc(O)c(Cl)c3)c2)cc1REMARK SMILES IDX 9 1 10 2 11 3 12 4 13 5 22 6 8 7 2 8 3 9 24 10 4 11 23 12REMARK SMILES IDX 5 13 6 14 7 15 1 16 14 17 15 18 21 19 16 20 19 21 17 22REMARK SMILES IDX 20 23 18 24REMARK H PARENT 18 25USER                              x       y       z     vdW  Elec       q    TypeUSER                           _______ _______ _______ _____ _____    ______ ____ROOTATOM      1  C   UNL     1      38.044  45.701  17.094 -0.37 +0.01    -0.018 A  ATOM      2  C   UNL     1      37.146  45.008  17.914 -0.35 -0.00    +0.009 A  ATOM      3  C   UNL     1      37.487  44.709  19.231 -0.35 -0.00    +0.001 A  ATOM      4  C   UNL     1      38.731  45.099  19.736 -0.37 -0.00    +0.009 A  ATOM      5  C   UNL     1      39.654  45.801  18.941 -0.42 +0.00    -0.018 A  ATOM      6  C   UNL     1      39.288  46.097  17.616 -0.43 -0.00    +0.017 A  ENDROOTBRANCH   1   7ATOM      7  C   UNL     1      37.686  46.009  15.671 -0.36 +0.01    -0.015 A  ATOM      8  N   UNL     1      36.850  45.280  12.678 -0.25 +0.12    -0.356 N  ATOM      9  C   UNL     1      36.204  46.443  12.312 -0.57 -0.05    +0.105 A  ATOM     10  C   UNL     1      36.533  44.754  13.913 -0.30 -0.03    +0.086 A  ATOM     11  C   UNL     1      36.512  47.724  12.538 -0.56 -0.05    +0.129 A  ATOM     12  C   UNL     1      36.889  45.060  15.161 -0.35 -0.01    +0.026 A  ATOM     13  N   UNL     1      37.450  48.437  13.169 -0.69 +0.07    -0.263 NA ATOM     14  C   UNL     1      38.155  48.035  14.239 -0.44 -0.05    +0.111 A  ATOM     15  C   UNL     1      38.261  47.142  15.239 -0.42 -0.01    +0.029 A  ATOM     16  C   UNL     1      37.128  44.336  11.592 -0.36 -0.04    +0.149 C  ENDBRANCH   1   7BRANCH   5  17ATOM     17  C   UNL     1      40.968  46.209  19.475 -0.41 -0.00    -0.017 A  ATOM     18  C   UNL     1      41.843  47.003  18.713 -0.54 +0.00    +0.012 A  ATOM     19  C   UNL     1      41.387  45.816  20.759 -0.33 +0.00    +0.033 A  ATOM     20  C   UNL     1      43.091  47.395  19.209 -0.48 +0.01    +0.048 A  ATOM     21  C   UNL     1      42.635  46.200  21.258 -0.28 +0.02    +0.083 A  ATOM     22  C   UNL     1      43.485  46.991  20.482 -0.28 +0.06    +0.134 A  ATOM     23  Cl  UNL     1      43.089  45.678  22.839 -0.25 -0.02    -0.080 Cl BRANCH  22  24ATOM     24  O   UNL     1      44.707  47.370  20.966 -0.54 -0.47    -0.506 OA ATOM     25  H   UNL     1      44.636  48.266  21.333 -0.41 +0.03    +0.293 HD ENDBRANCH  22  24ENDBRANCH   5  17TORSDOF 3TERENDMDL