REMARK SMILES Cn1ccnccc(-c2cccc(-c3ccc(O)c(Cl)c3)c2)cc1
REMARK SMILES IDX 9 1 10 2 11 3 12 4 13 5 22 6 8 7 2 8 3 9 24 10 4 11 23 12
REMARK SMILES IDX 5 13 6 14 7 15 1 16 14 17 15 18 21 19 16 20 19 21 17 22
REMARK SMILES IDX 20 23 18 24
REMARK H PARENT 18 25
ROOT
ATOM      1  C   UNL     1      -0.273  -1.212  -0.480  1.00  0.00    -0.018 A 
ATOM      2  C   UNL     1      -0.137  -2.373  -1.250  1.00  0.00     0.009 A 
ATOM      3  C   UNL     1       1.128  -2.823  -1.621  1.00  0.00     0.001 A 
ATOM      4  C   UNL     1       2.266  -2.114  -1.225  1.00  0.00     0.009 A 
ATOM      5  C   UNL     1       2.165  -0.948  -0.446  1.00  0.00    -0.018 A 
ATOM      6  C   UNL     1       0.879  -0.513  -0.079  1.00  0.00     0.017 A 
ENDROOT
BRANCH   1   7
ATOM      7  C   UNL     1      -1.634  -0.716  -0.094  1.00  0.00    -0.015 A 
ATOM      8  N   UNL     1      -3.995   1.427   0.051  1.00  0.00    -0.356 N 
ATOM      9  C   UNL     1      -5.084   0.588   0.171  1.00  0.00     0.105 A 
ATOM     10  C   UNL     1      -3.060   1.101  -0.908  1.00  0.00     0.086 A 
ATOM     11  C   UNL     1      -5.257  -0.524   0.893  1.00  0.00     0.129 A 
ATOM     12  C   UNL     1      -2.072   0.207  -0.962  1.00  0.00     0.026 A 
ATOM     13  N   UNL     1      -4.559  -1.301   1.727  1.00  0.00    -0.263 NA
ATOM     14  C   UNL     1      -3.226  -1.464   1.718  1.00  0.00     0.111 A 
ATOM     15  C   UNL     1      -2.082  -1.291   1.033  1.00  0.00     0.029 A 
ATOM     16  C   UNL     1      -4.259   2.850   0.282  1.00  0.00     0.149 C 
ENDBRANCH   1   7
BRANCH   5  17
ATOM     17  C   UNL     1       3.367  -0.199  -0.032  1.00  0.00    -0.017 A 
ATOM     18  C   UNL     1       3.436   1.198  -0.184  1.00  0.00     0.012 A 
ATOM     19  C   UNL     1       4.479  -0.855   0.525  1.00  0.00     0.033 A 
ATOM     20  C   UNL     1       4.571   1.918   0.204  1.00  0.00     0.048 A 
ATOM     21  C   UNL     1       5.618  -0.141   0.910  1.00  0.00     0.083 A 
ATOM     22  C   UNL     1       5.661   1.245   0.750  1.00  0.00     0.134 A 
ATOM     23  Cl  UNL     1       6.950  -1.010   1.581  1.00  0.00    -0.080 Cl
BRANCH  22  24
ATOM     24  O   UNL     1       6.773   1.948   1.126  1.00  0.00    -0.506 OA
ATOM     25  H   UNL     1       6.601   2.896   1.007  1.00  0.00     0.293 HD
ENDBRANCH  22  24
ENDBRANCH   5  17
TORSDOF 3
