MODEL        7USER    Run = 7USERUSER    Estimated Free Energy of Binding    =  -8.76 kcal/mol  [=(1)+(2)+(3)-(4)]USERUSER    (1) Final Intermolecular Energy     = -10.55 kcal/molUSER        vdW + Hbond + desolv Energy     = -10.35 kcal/molUSER        Electrostatic Energy            =  -0.20 kcal/molUSER        Moving Ligand-Fixed Receptor    = -10.55 kcal/molUSER        Moving Ligand-Moving Receptor   =  +0.00 kcal/molUSER    (2) Final Total Internal Energy     =  -1.19 kcal/molUSER    (3) Torsional Free Energy           =  +1.79 kcal/molUSER    (4) Unbound System's Energy         =  -1.19 kcal/molUSERUSERREMARK SMILES COc1ccc(O)c(C(=O)c2ccc(C(=O)N[C@@H]3CCNC3)cc2)c1REMARK SMILES IDX 11 1 12 2 13 3 14 4 23 5 24 6 9 7 10 8 8 9 3 10 4 11 25 12REMARK SMILES IDX 5 13 6 14 2 15 1 16 7 17 15 19 17 20 16 21 18 23 19 24 22 25REMARK SMILES IDX 20 26 21 27REMARK H PARENT 7 18 17 22 21 28USER                              x       y       z     vdW  Elec       q    TypeUSER                           _______ _______ _______ _____ _____    ______ ____ROOTATOM      1  C   UNL     1      39.873  47.451  16.411 -0.49 -0.01    +0.023 A  ATOM      2  C   UNL     1      41.036  48.112  16.826 -0.54 -0.00    +0.013 A  ATOM      3  C   UNL     1      41.688  47.720  17.999 -0.50 -0.00    +0.014 A  ATOM      4  C   UNL     1      41.182  46.659  18.762 -0.47 -0.00    +0.039 A  ATOM      5  C   UNL     1      40.040  45.975  18.322 -0.45 -0.00    +0.014 A  ATOM      6  C   UNL     1      39.387  46.366  17.148 -0.44 -0.00    +0.013 A  ENDROOTBRANCH   1   7ATOM      7  C   UNL     1      39.229  47.884  15.148 -0.43 -0.07    +0.196 C  ATOM      8  O   UNL     1      39.702  48.846  14.541 -0.37 +0.12    -0.288 OA BRANCH   7   9ATOM      9  C   UNL     1      38.048  47.193  14.571 -0.41 -0.03    +0.068 A  ATOM     10  C   UNL     1      36.672  45.207  14.283 -0.32 -0.05    +0.119 A  ATOM     11  C   UNL     1      35.809  45.927  13.456 -0.42 -0.03    +0.050 A  ATOM     12  C   UNL     1      37.786  45.844  14.843 -0.34 -0.02    +0.062 A  ATOM     13  C   UNL     1      36.048  47.281  13.203 -0.54 -0.03    +0.051 A  ATOM     14  C   UNL     1      37.153  47.911  13.769 -0.46 -0.06    +0.127 A  BRANCH  10  15ATOM     15  O   UNL     1      36.545  43.888  14.622 -0.11 +0.17    -0.497 OA ATOM     16  C   UNL     1      36.155  43.601  15.960 -0.28 -0.10    +0.278 C  ENDBRANCH  10  15BRANCH  14  17ATOM     17  O   UNL     1      37.299  49.245  13.496 -0.21 +0.23    -0.507 OA ATOM     18  H   UNL     1      37.917  49.619  14.165 -0.33 -0.24    +0.293 HD ENDBRANCH  14  17ENDBRANCH   7   9ENDBRANCH   1   7BRANCH   4  19ATOM     19  C   UNL     1      41.841  46.198  20.016 -0.30 +0.04    +0.251 C  ATOM     20  N   UNL     1      42.780  47.045  20.569 -0.21 -0.08    -0.348 N  ATOM     21  O   UNL     1      41.520  45.130  20.523 -0.24 -0.04    -0.269 OA ATOM     22  H   UNL     1      42.844  47.995  20.231 -0.29 -0.00    +0.164 HD BRANCH  20  23ATOM     23  C   UNL     1      43.421  46.715  21.841 -0.32 +0.04    +0.097 C  ATOM     24  C   UNL     1      42.416  46.728  22.986 -0.24 +0.01    +0.041 C  ATOM     25  C   UNL     1      44.411  47.792  22.291 -0.21 +0.04    +0.105 C  ATOM     26  C   UNL     1      42.453  48.153  23.529 -0.35 +0.02    +0.083 C  ATOM     27  N   UNL     1      43.555  48.855  22.856 -0.61 -0.09    -0.315 NA ATOM     28  H   UNL     1      43.171  49.375  22.066 -0.45 +0.02    +0.122 HD ENDBRANCH  20  23ENDBRANCH   4  19TORSDOF 6TERENDMDL