REMARK SMILES COc1ccc(O)c(C(=O)c2ccc(C(=O)N[C@@H]3CCNC3)cc2)c1
REMARK SMILES IDX 11 1 12 2 13 3 14 4 23 5 24 6 9 7 10 8 8 9 3 10 4 11 25 12
REMARK SMILES IDX 5 13 6 14 2 15 1 16 7 17 15 19 17 20 16 21 18 23 19 24 22 25
REMARK SMILES IDX 20 26 21 27
REMARK H PARENT 7 18 17 22 21 28
ROOT
ATOM      1  C   UNL     1       1.053  -1.388  -0.045  1.00  0.00     0.023 A 
ATOM      2  C   UNL     1      -0.107  -1.658   0.692  1.00  0.00     0.013 A 
ATOM      3  C   UNL     1      -1.319  -1.054   0.345  1.00  0.00     0.014 A 
ATOM      4  C   UNL     1      -1.379  -0.178  -0.747  1.00  0.00     0.039 A 
ATOM      5  C   UNL     1      -0.224   0.059  -1.506  1.00  0.00     0.014 A 
ATOM      6  C   UNL     1       0.989  -0.545  -1.160  1.00  0.00     0.013 A 
ENDROOT
BRANCH   1   7
ATOM      7  C   UNL     1       2.310  -2.070   0.344  1.00  0.00     0.196 C 
ATOM      8  O   UNL     1       2.256  -3.239   0.728  1.00  0.00    -0.288 OA
BRANCH   7   9
ATOM      9  C   UNL     1       3.638  -1.409   0.270  1.00  0.00     0.068 A 
ATOM     10  C   UNL     1       5.030   0.586   0.315  1.00  0.00     0.119 A 
ATOM     11  C   UNL     1       6.164  -0.203   0.120  1.00  0.00     0.050 A 
ATOM     12  C   UNL     1       3.771  -0.020   0.396  1.00  0.00     0.062 A 
ATOM     13  C   UNL     1       6.043  -1.592   0.022  1.00  0.00     0.051 A 
ATOM     14  C   UNL     1       4.789  -2.190   0.111  1.00  0.00     0.127 A 
BRANCH  10  15
ATOM     15  O   UNL     1       5.012   1.948   0.442  1.00  0.00    -0.497 OA
ATOM     16  C   UNL     1       6.266   2.618   0.380  1.00  0.00     0.278 C 
ENDBRANCH  10  15
BRANCH  14  17
ATOM     17  O   UNL     1       4.759  -3.557   0.036  1.00  0.00    -0.507 OA
ATOM     18  H   UNL     1       3.857  -3.849   0.299  1.00  0.00     0.293 HD
ENDBRANCH  14  17
ENDBRANCH   7   9
ENDBRANCH   1   7
BRANCH   4  19
ATOM     19  C   UNL     1      -2.645   0.487  -1.163  1.00  0.00     0.251 C 
ATOM     20  N   UNL     1      -3.589   0.692  -0.177  1.00  0.00    -0.348 N 
ATOM     21  O   UNL     1      -2.797   0.852  -2.323  1.00  0.00    -0.269 OA
ATOM     22  H   UNL     1      -3.324   0.569   0.790  1.00  0.00     0.164 HD
BRANCH  20  23
ATOM     23  C   UNL     1      -4.829   1.408  -0.472  1.00  0.00     0.097 C 
ATOM     24  C   UNL     1      -5.620   1.689   0.799  1.00  0.00     0.041 C 
ATOM     25  C   UNL     1      -5.820   0.554  -1.266  1.00  0.00     0.105 C 
ATOM     26  C   UNL     1      -6.548   0.489   0.961  1.00  0.00     0.083 C 
ATOM     27  N   UNL     1      -6.427  -0.331  -0.252  1.00  0.00    -0.315 NA
ATOM     28  H   UNL     1      -5.753  -1.077  -0.071  1.00  0.00     0.122 HD
ENDBRANCH  20  23
ENDBRANCH   4  19
TORSDOF 6
