MODEL        7USER    Run = 7USERUSER    Estimated Free Energy of Binding    =  -8.60 kcal/mol  [=(1)+(2)+(3)-(4)]USERUSER    (1) Final Intermolecular Energy     = -10.69 kcal/molUSER        vdW + Hbond + desolv Energy     = -10.59 kcal/molUSER        Electrostatic Energy            =  -0.09 kcal/molUSER        Moving Ligand-Fixed Receptor    = -10.69 kcal/molUSER        Moving Ligand-Moving Receptor   =  +0.00 kcal/molUSER    (2) Final Total Internal Energy     =  -1.74 kcal/molUSER    (3) Torsional Free Energy           =  +2.09 kcal/molUSER    (4) Unbound System's Energy         =  -1.74 kcal/molUSERUSERREMARK SMILES C[C@@H]1CN[C@H]1C(=O)C=C(CO)Nc1cccc(Br)c1REMARK SMILES IDX 8 1 6 2 7 3 5 4 2 5 3 6 4 7 1 8 9 10 10 11 11 12 12 14 13 16REMARK SMILES IDX 14 17 19 18 15 19 17 20 16 21 18 22REMARK H PARENT 4 9 11 13 12 15USER                              x       y       z     vdW  Elec       q    TypeUSER                           _______ _______ _______ _____ _____    ______ ____ROOTATOM      1  C   UNL     1      39.783  47.619  14.597 -0.49 -0.02    +0.072 C  ENDROOTBRANCH   1   2ATOM      2  C   UNL     1      38.415  47.918  14.067 -0.44 -0.06    +0.174 C  ATOM      3  O   UNL     1      37.900  48.972  14.470 -0.36 +0.20    -0.293 OA BRANCH   2   4ATOM      4  C   UNL     1      37.745  47.003  13.001 -0.47 -0.03    +0.130 C  ATOM      5  C   UNL     1      36.439  46.255  13.416 -0.57 -0.01    +0.025 C  ATOM      6  C   UNL     1      35.975  46.584  11.984 -0.65 -0.05    +0.087 C  ATOM      7  N   UNL     1      36.894  47.749  12.000 -0.97 +0.09    -0.307 NA ATOM      8  C   UNL     1      36.566  44.789  13.789 -0.43 -0.00    +0.011 C  ATOM      9  H   UNL     1      36.457  48.582  12.401 +0.01 -0.04    +0.123 HD ENDBRANCH   2   4ENDBRANCH   1   2BRANCH   1  10ATOM     10  C   UNL     1      40.572  48.224  15.509 -0.61 -0.01    +0.045 C  BRANCH  10  11ATOM     11  C   UNL     1      40.896  49.703  15.469 -0.54 -0.06    +0.209 C  BRANCH  11  12ATOM     12  O   UNL     1      41.780  50.026  16.531 -0.88 -0.04    -0.390 OA ATOM     13  H   UNL     1      41.578  50.941  16.795 -0.45 -0.07    +0.211 HD ENDBRANCH  11  12ENDBRANCH  10  11BRANCH  10  14ATOM     14  N   UNL     1      41.046  47.465  16.586 -0.21 +0.04    -0.357 N  ATOM     15  H   UNL     1      41.976  47.713  16.920 -0.39 -0.02    +0.166 HD BRANCH  14  16ATOM     16  C   UNL     1      40.411  46.507  17.393 -0.46 -0.00    +0.039 A  ATOM     17  C   UNL     1      41.067  45.793  18.405 -0.47 -0.00    +0.026 A  ATOM     18  C   UNL     1      39.037  46.290  17.214 -0.40 -0.01    +0.041 A  ATOM     19  C   UNL     1      40.371  44.901  19.227 -0.43 +0.00    +0.003 A  ATOM     20  C   UNL     1      38.344  45.397  18.034 -0.38 -0.00    +0.020 A  ATOM     21  C   UNL     1      39.004  44.705  19.046 -0.38 -0.00    +0.016 A  ATOM     22  Br  UNL     1      36.488  45.130  17.780 -0.65 +0.02    -0.051 Br ENDBRANCH  14  16ENDBRANCH  10  14ENDBRANCH   1  10TORSDOF 7TERENDMDL