MODEL        10USER    Run = 10USERUSER    Estimated Free Energy of Binding    = -12.68 kcal/mol  [=(1)+(2)+(3)-(4)]USERUSER    (1) Final Intermolecular Energy     = -14.47 kcal/molUSER        vdW + Hbond + desolv Energy     = -14.21 kcal/molUSER        Electrostatic Energy            =  -0.27 kcal/molUSER        Moving Ligand-Fixed Receptor    = -14.47 kcal/molUSER        Moving Ligand-Moving Receptor   =  +0.00 kcal/molUSER    (2) Final Total Internal Energy     =  -2.05 kcal/molUSER    (3) Torsional Free Energy           =  +1.79 kcal/molUSER    (4) Unbound System's Energy         =  -2.05 kcal/molUSERUSERREMARK SMILES Cn1ccc2ccc3c4[nH]c5c(CCCN[C@H]6CC[C@H](O)CC6)cccc5c4c4c(c3c21)C(=O)NC4=OREMARK SMILES IDX 15 1 14 2 13 3 12 4 2 5 3 6 32 7 4 8 31 9 5 10 30 11 8 12REMARK SMILES IDX 6 13 29 14 33 15 7 16 9 17 28 18 36 19 35 20 10 21 27 22REMARK SMILES IDX 11 23 26 24 25 25 24 26 1 27 34 28 37 29 16 32 17 34 23 35REMARK SMILES IDX 18 36 22 37 19 38 20 39 21 40REMARK H PARENT 35 30 10 31 16 33 21 41USER                              x       y       z     vdW  Elec       q    TypeUSER                           _______ _______ _______ _____ _____    ______ ____ROOTATOM      1  C   UNL     1      35.774  42.609  20.902 -0.44 +0.00    +0.081 C  ENDROOTBRANCH   1   2ATOM      2  C   UNL     1      36.605  43.130  22.078 -0.41 +0.00    +0.020 C  BRANCH   2   3ATOM      3  C   UNL     1      37.866  42.298  22.338 -0.42 +0.00    +0.039 C  BRANCH   3   4ATOM      4  C   UNL     1      39.155  43.065  22.176 -0.16 -0.00    -0.024 A  ATOM      5  N   UNL     1      39.619  47.961  15.032 -0.24 +0.11    -0.350 N  ATOM      6  C   UNL     1      38.644  48.404  14.169 -0.42 -0.04    +0.086 A  ATOM      7  C   UNL     1      39.047  47.346  16.140 -0.42 -0.02    +0.057 A  ATOM      8  C   UNL     1      37.447  47.890  14.591 -0.50 -0.02    +0.028 A  ATOM      9  C   UNL     1      39.566  46.853  17.395 -0.44 -0.00    +0.022 A  ATOM     10  C   UNL     1      37.699  47.160  15.781 -0.42 -0.00    +0.000 A  ATOM     11  C   UNL     1      40.796  47.139  18.008 -0.46 -0.01    +0.063 A  ATOM     12  C   UNL     1      38.702  45.968  18.113 -0.37 -0.00    +0.009 A  ATOM     13  C   UNL     1      36.863  46.364  16.581 -0.36 -0.01    +0.011 A  ATOM     14  C   UNL     1      41.232  46.486  19.168 -0.41 +0.00    +0.063 A  ATOM     15  C   UNL     1      41.796  48.192  17.759 -0.23 -0.00    +0.259 C  ATOM     16  C   UNL     1      37.380  45.732  17.708 -0.33 -0.00    +0.012 A  ATOM     17  C   UNL     1      39.180  45.313  19.292 -0.37 -0.00    +0.055 A  ATOM     18  C   UNL     1      40.453  45.535  19.832 -0.40 +0.00    +0.022 A  ATOM     19  C   UNL     1      42.535  47.037  19.534 -0.38 +0.04    +0.259 C  ATOM     20  N   UNL     1      42.848  47.948  18.580 -0.33 -0.01    -0.288 N  ATOM     21  N   UNL     1      38.570  44.393  20.116 -0.14 +0.01    -0.354 N  ATOM     22  C   UNL     1      40.588  44.698  20.991 -0.33 +0.00    +0.008 A  ATOM     23  C   UNL     1      39.394  43.993  21.141 -0.21 +0.00    +0.050 A  ATOM     24  C   UNL     1      41.613  44.466  21.932 -0.27 +0.00    +0.011 A  ATOM     25  C   UNL     1      41.411  43.554  22.973 -0.26 +0.00    +0.001 A  ATOM     26  C   UNL     1      40.206  42.870  23.090 -0.27 +0.00    +0.006 A  ATOM     27  C   UNL     1      41.008  47.945  14.623 -0.31 -0.01    +0.149 C  ATOM     28  O   UNL     1      41.677  49.167  17.047 -0.94 -0.04    -0.269 OA ATOM     29  O   UNL     1      43.195  46.792  20.522 -0.32 -0.10    -0.269 OA ATOM     30  H   UNL     1      43.603  48.606  18.701 -0.42 -0.01    +0.173 HD ATOM     31  H   UNL     1      37.639  44.031  19.977 +0.11 -0.01    +0.167 HD ENDBRANCH   3   4ENDBRANCH   2   3ENDBRANCH   1   2BRANCH   1  32ATOM     32  N   UNL     1      35.705  43.641  19.866 -0.19 +0.03    -0.314 NA ATOM     33  H   UNL     1      35.772  44.566  20.290 +0.06 -0.01    +0.122 HD BRANCH  32  34ATOM     34  C   UNL     1      34.485  43.550  19.052 -0.41 -0.01    +0.053 C  ATOM     35  C   UNL     1      33.531  44.745  19.258 -0.44 -0.01    +0.021 C  ATOM     36  C   UNL     1      34.933  43.414  17.583 -0.38 -0.01    +0.021 C  ATOM     37  C   UNL     1      33.751  45.850  18.226 -0.52 -0.02    +0.033 C  ATOM     38  C   UNL     1      33.831  43.852  16.627 -0.36 -0.01    +0.033 C  ATOM     39  C   UNL     1      33.503  45.338  16.802 -0.30 -0.09    +0.114 C  BRANCH  39  40ATOM     40  O   UNL     1      32.132  45.524  16.453 -0.52 +0.22    -0.393 OA ATOM     41  H   UNL     1      32.046  46.409  16.059 -0.31 -0.24    +0.210 HD ENDBRANCH  39  40ENDBRANCH  32  34ENDBRANCH   1  32TORSDOF 6TERENDMDL