MODEL        6USER    Run = 6USERUSER    Estimated Free Energy of Binding    = -12.87 kcal/mol  [=(1)+(2)+(3)-(4)]USERUSER    (1) Final Intermolecular Energy     = -15.25 kcal/molUSER        vdW + Hbond + desolv Energy     = -15.12 kcal/molUSER        Electrostatic Energy            =  -0.13 kcal/molUSER        Moving Ligand-Fixed Receptor    = -15.25 kcal/molUSER        Moving Ligand-Moving Receptor   =  +0.00 kcal/molUSER    (2) Final Total Internal Energy     =  -2.54 kcal/molUSER    (3) Torsional Free Energy           =  +2.39 kcal/molUSER    (4) Unbound System's Energy         =  -2.54 kcal/molUSERUSERREMARK SMILES N#Cc1cnc(-c2ccc(CNCc3ccc(-c4csnn4)cc3)cc2)c(-c2ccccc2)c1REMARK SMILES IDX 11 1 10 2 7 3 8 4 26 5 9 6 25 7 6 8 3 9 4 10 34 11 5 12REMARK SMILES IDX 27 13 2 14 1 15 28 16 29 17 33 18 30 19 32 20 31 21 12 22REMARK SMILES IDX 13 24 14 25 15 26 24 27 16 28 23 29 17 30 18 31 19 32 22 33REMARK SMILES IDX 20 34 21 35REMARK H PARENT 12 23USER                              x       y       z     vdW  Elec       q    TypeUSER                           _______ _______ _______ _____ _____    ______ ____ROOTATOM      1  C   UNL     1      36.275  43.276  20.388 -0.41 -0.00    +0.117 C  ENDROOTBRANCH   1   2ATOM      2  C   UNL     1      35.430  43.814  19.258 -0.36 +0.01    -0.034 A  ATOM      3  C   UNL     1      33.812  44.837  17.160 -0.32 -0.00    +0.001 A  ATOM      4  C   UNL     1      34.224  43.493  17.175 -0.33 -0.00    +0.011 A  ATOM      5  C   UNL     1      34.244  45.662  18.211 -0.45 -0.01    +0.011 A  ATOM      6  C   UNL     1      35.016  42.984  18.210 -0.36 -0.00    +0.006 A  ATOM      7  C   UNL     1      35.033  45.157  19.250 -0.25 -0.00    +0.006 A  BRANCH   3   8ATOM      8  C   UNL     1      32.975  45.348  16.055 -0.24 -0.06    +0.078 A  ATOM      9  C   UNL     1      31.169  46.205  14.143 -0.51 -0.05    +0.071 A  ATOM     10  C   UNL     1      30.774  45.736  15.381 -0.36 -0.06    +0.131 A  ATOM     11  C   UNL     1      32.534  46.252  13.869 -0.16 -0.03    +0.032 A  ATOM     12  N   UNL     1      31.638  45.317  16.333 -0.68 +0.10    -0.254 NA ATOM     13  C   UNL     1      33.477  45.825  14.827 -0.14 -0.01    +0.009 A  BRANCH   9  14ATOM     14  C   UNL     1      30.201  46.635  13.186 -0.57 -0.05    +0.101 C  ATOM     15  N   UNL     1      29.417  46.985  12.407 -0.74 +0.09    -0.192 NA ENDBRANCH   9  14BRANCH  13  16ATOM     16  C   UNL     1      34.911  45.937  14.507 -0.35 +0.01    -0.016 A  ATOM     17  C   UNL     1      35.828  44.982  14.981 -0.35 -0.00    +0.009 A  ATOM     18  C   UNL     1      35.398  46.985  13.710 -0.41 -0.01    +0.009 A  ATOM     19  C   UNL     1      37.188  45.079  14.677 -0.38 -0.00    +0.001 A  ATOM     20  C   UNL     1      36.758  47.084  13.407 -0.57 -0.00    +0.001 A  ATOM     21  C   UNL     1      37.652  46.132  13.891 -0.45 -0.00    +0.000 A  ENDBRANCH  13  16ENDBRANCH   3   8ENDBRANCH   1   2BRANCH   1  22ATOM     22  N   UNL     1      37.218  44.294  20.852 -0.20 -0.00    -0.309 NA ATOM     23  H   UNL     1      37.197  44.307  21.870 +0.06 +0.01    +0.123 HD BRANCH  22  24ATOM     24  C   UNL     1      38.586  44.021  20.409 -0.25 -0.00    +0.117 C  BRANCH  24  25ATOM     25  C   UNL     1      39.104  45.026  19.406 -0.37 +0.00    -0.034 A  ATOM     26  C   UNL     1      40.397  45.552  19.522 -0.42 +0.00    +0.006 A  ATOM     27  C   UNL     1      38.293  45.464  18.353 -0.38 -0.00    +0.006 A  ATOM     28  C   UNL     1      40.871  46.490  18.597 -0.48 -0.00    +0.011 A  ATOM     29  C   UNL     1      38.765  46.401  17.430 -0.39 -0.00    +0.011 A  ATOM     30  C   UNL     1      40.063  46.922  17.535 -0.48 -0.00    +0.003 A  BRANCH  30  31ATOM     31  C   UNL     1      40.527  47.897  16.553 -0.46 -0.02    +0.105 A  ATOM     32  C   UNL     1      40.112  47.944  15.232 -0.45 -0.03    +0.118 A  ATOM     33  N   UNL     1      41.435  48.894  16.903 -0.99 -0.00    -0.138 NA ATOM     34  S   UNL     1      40.919  49.262  14.484 -0.83 +0.00    -0.020 S  ATOM     35  N   UNL     1      41.729  49.682  15.884 -1.06 -0.01    -0.091 NA ENDBRANCH  30  31ENDBRANCH  24  25ENDBRANCH  22  24ENDBRANCH   1  22TORSDOF 8TERENDMDL