MODEL        2USER    Run = 2USERUSER    Estimated Free Energy of Binding    =  -4.53 kcal/mol  [=(1)+(2)+(3)-(4)]USERUSER    (1) Final Intermolecular Energy     =  -9.01 kcal/molUSER        vdW + Hbond + desolv Energy     = -10.00 kcal/molUSER        Electrostatic Energy            =  -0.12 kcal/molUSER        Moving Ligand-Fixed Receptor    = -10.13 kcal/molUSER        Moving Ligand-Moving Receptor   =  +1.12 kcal/molUSER    (2) Final Total Internal Energy     =  -3.03 kcal/molUSER    (3) Torsional Free Energy           =  +4.47 kcal/molUSER    (4) Unbound System's Energy         =  -3.03 kcal/molUSERUSERREMARK SMILES COc1ccc(O)c(C(=O)c2ccc(CO[C@@H]3CCCNC[C@@H]3NC(=O)c3ccncc3)cc2)c1FREMARK SMILES IDX 16 1 15 2 14 3 11 4 12 5 34 6 13 7 33 8 9 9 10 10 8 11 3 12REMARK SMILES IDX 4 13 35 14 5 15 6 16 36 17 2 18 1 19 7 20 17 22 18 23 23 25REMARK SMILES IDX 22 26 21 27 20 29 19 30 24 32 25 33 26 35 27 36 28 37 32 38REMARK SMILES IDX 29 39 31 40 30 41REMARK H PARENT 7 21 21 28 24 34REMARK Flexibility Score:   99.900USER                              x       y       z     vdW  Elec       q    TypeUSER                           _______ _______ _______ _____ _____    ______ ____ROOTATOM      1  O   UNL     1      28.252  43.748  15.145 +0.04 +0.40    -0.371 OA ENDROOTBRANCH   1   2ATOM      2  C   UNL     1      28.928  45.004  15.137 -0.04 -0.14    +0.196 C  BRANCH   2   3ATOM      3  C   UNL     1      30.385  44.756  15.429 -0.35 +0.01    -0.022 A  ATOM      4  C   UNL     1      33.111  44.323  15.956 -0.31 -0.01    +0.023 A  ATOM      5  C   UNL     1      32.504  45.520  16.349 -0.26 -0.01    +0.012 A  ATOM      6  C   UNL     1      32.348  43.331  15.330 -0.25 -0.01    +0.012 A  ATOM      7  C   UNL     1      31.151  45.735  16.079 -0.15 -0.00    +0.007 A  ATOM      8  C   UNL     1      30.995  43.548  15.063 -0.32 -0.00    +0.007 A  BRANCH   4   9ATOM      9  C   UNL     1      34.535  44.036  16.251 -0.26 -0.09    +0.199 C  ATOM     10  O   UNL     1      34.814  43.089  16.991 -0.23 +0.11    -0.288 OA BRANCH   9  11ATOM     11  C   UNL     1      35.650  44.868  15.752 -0.27 -0.05    +0.104 A  ATOM     12  C   UNL     1      36.552  46.563  14.249 -0.32 -0.09    +0.155 A  ATOM     13  C   UNL     1      37.803  46.433  14.857 -0.37 -0.02    +0.053 A  ATOM     14  C   UNL     1      35.487  45.770  14.700 -0.25 -0.12    +0.179 A  ATOM     15  C   UNL     1      37.987  45.509  15.888 -0.32 -0.02    +0.051 A  ATOM     16  C   UNL     1      36.922  44.723  16.321 -0.26 -0.05    +0.130 A  ATOM     17  F   UNL     1      34.298  45.878  14.084 -0.07 +0.16    -0.202 F  BRANCH  12  18ATOM     18  O   UNL     1      36.255  47.419  13.223 -0.26 +0.28    -0.494 OA ATOM     19  C   UNL     1      36.289  46.893  11.902 -0.49 -0.13    +0.278 C  ENDBRANCH  12  18BRANCH  16  20ATOM     20  O   UNL     1      37.195  43.822  17.314 -0.02 +0.12    -0.507 OA ATOM     21  H   UNL     1      36.376  43.300  17.482 +0.20 -0.08    +0.293 HD ENDBRANCH  16  20ENDBRANCH   9  11ENDBRANCH   4   9ENDBRANCH   2   3ENDBRANCH   1   2BRANCH   1  22ATOM     22  C   UNL     1      27.093  43.725  16.007 -0.23 -0.05    +0.142 C  BRANCH  22  23ATOM     23  C   UNL     1      27.094  42.316  16.619 -0.25 -0.01    +0.035 CG0ATOM     24  G   UNL     1      27.284  41.108  15.709 +0.00 +0.00    +0.000 G0 ENDBRANCH  22  23BRANCH  22  25ATOM     25  C   UNL     1      25.837  44.107  15.188 -0.29 -0.03    +0.125 C  BRANCH  25  26ATOM     26  C   UNL     1      24.940  42.869  14.939 -0.33 -0.02    +0.108 C  BRANCH  26  27ATOM     27  N   UNL     1      25.506  41.799  14.120 -0.09 +0.15    -0.315 NA ATOM     28  H   UNL     1      26.206  42.207  13.498 -0.31 -0.19    +0.122 HD BRANCH  27  29ATOM     29  C   UNL     1      26.073  40.693  14.878 -0.38 -0.02    +0.081 C  BRANCH  29  30ATOM     30  C   UNL     1      27.278  41.108  15.709 -0.36 -0.00    +0.018 CG0ATOM     31  G   UNL     1      27.080  42.311  16.624 +0.00 +0.00    +0.000 G0 ENDBRANCH  29  30ENDBRANCH  27  29ENDBRANCH  26  27ENDBRANCH  25  26BRANCH  25  32ATOM     32  N   UNL     1      26.202  44.842  13.969 -0.09 +0.20    -0.345 N  ATOM     33  C   UNL     1      25.740  46.122  13.739 -0.07 -0.03    +0.251 C  ATOM     34  H   UNL     1      27.129  44.639  13.617 -0.41 -0.30    +0.164 HD ATOM     35  O   UNL     1      24.928  46.691  14.456 -0.72 -0.07    -0.269 OA BRANCH  33  36ATOM     36  C   UNL     1      26.319  46.829  12.564 -0.33 -0.01    +0.042 A  ATOM     37  C   UNL     1      27.707  46.916  12.463 -0.35 -0.02    +0.034 A  ATOM     38  C   UNL     1      25.518  47.429  11.593 -0.31 -0.01    +0.034 A  ATOM     39  C   UNL     1      28.239  47.589  11.378 -0.37 -0.05    +0.112 A  ATOM     40  C   UNL     1      26.148  48.081  10.547 -0.31 -0.08    +0.112 A  ATOM     41  N   UNL     1      27.489  48.168  10.417 -0.20 +0.18    -0.265 NA ENDBRANCH  33  36ENDBRANCH  25  32ENDBRANCH  22  25ENDBRANCH   1  22TORSDOF 9TERENDMDL