MODEL        10USER    Run = 10USERUSER    Estimated Free Energy of Binding    =  -7.10 kcal/mol  [=(1)+(2)+(3)-(4)]USERUSER    (1) Final Intermolecular Energy     = -11.57 kcal/molUSER        vdW + Hbond + desolv Energy     = -12.38 kcal/molUSER        Electrostatic Energy            =  -0.10 kcal/molUSER        Moving Ligand-Fixed Receptor    = -12.48 kcal/molUSER        Moving Ligand-Moving Receptor   =  +0.90 kcal/molUSER    (2) Final Total Internal Energy     =  -2.36 kcal/molUSER    (3) Torsional Free Energy           =  +4.47 kcal/molUSER    (4) Unbound System's Energy         =  -2.36 kcal/molUSERUSERREMARK SMILES COc1ccc(O)c(C(=O)c2ccc(CN[C@@H]3CCCNC[C@H]3NC(=O)c3ccncc3)cc2)c1FREMARK SMILES IDX 16 1 15 3 14 4 11 5 12 6 34 7 13 8 33 9 9 10 10 11 8 12 3 13REMARK SMILES IDX 4 14 35 15 5 16 6 17 36 18 2 19 1 20 7 21 17 23 18 24 23 26REMARK SMILES IDX 22 27 21 28 20 30 19 31 24 33 25 34 26 36 27 37 28 38 32 39REMARK SMILES IDX 29 40 31 41 30 42REMARK H PARENT 16 2 7 22 21 29 24 35REMARK Flexibility Score:   99.900USER                              x       y       z     vdW  Elec       q    TypeUSER                           _______ _______ _______ _____ _____    ______ ____ROOTATOM      1  N   UNL     1      38.446  44.961  23.855 -0.14 -0.03    -0.308 NA ATOM      2  H   UNL     1      38.174  44.340  24.620 +0.06 +0.01    +0.123 HD ENDROOTBRANCH   1   3ATOM      3  C   UNL     1      37.701  44.579  22.653 -0.32 +0.01    +0.117 C  BRANCH   3   4ATOM      4  C   UNL     1      38.424  44.897  21.367 -0.33 -0.00    -0.034 A  ATOM      5  C   UNL     1      39.750  45.487  18.958 -0.42 -0.00    +0.023 A  ATOM      6  C   UNL     1      38.527  44.810  18.935 -0.38 -0.00    +0.012 A  ATOM      7  C   UNL     1      40.322  45.845  20.185 -0.34 +0.00    +0.012 A  ATOM      8  C   UNL     1      37.866  44.526  20.133 -0.35 -0.00    +0.006 A  ATOM      9  C   UNL     1      39.659  45.557  21.380 -0.31 +0.00    +0.006 A  BRANCH   5  10ATOM     10  C   UNL     1      40.510  45.775  17.718 -0.38 -0.01    +0.199 C  ATOM     11  O   UNL     1      41.581  45.197  17.525 -0.27 -0.01    -0.288 OA BRANCH  10  12ATOM     12  C   UNL     1      40.020  46.683  16.658 -0.40 -0.02    +0.104 A  ATOM     13  C   UNL     1      38.425  47.268  14.909 -0.35 -0.06    +0.155 A  ATOM     14  C   UNL     1      39.143  48.437  14.650 -0.49 -0.02    +0.053 A  ATOM     15  C   UNL     1      38.869  46.402  15.919 -0.29 -0.05    +0.179 A  ATOM     16  C   UNL     1      40.276  48.746  15.407 -0.55 -0.01    +0.051 A  ATOM     17  C   UNL     1      40.700  47.882  16.413 -0.44 -0.02    +0.130 A  ATOM     18  F   UNL     1      38.149  45.300  16.186 -0.07 +0.06    -0.202 F  BRANCH  13  19ATOM     19  O   UNL     1      37.291  46.872  14.250 -0.09 +0.24    -0.494 OA ATOM     20  C   UNL     1      36.678  47.817  13.383 -0.43 -0.14    +0.278 C  ENDBRANCH  13  19BRANCH  17  21ATOM     21  O   UNL     1      41.797  48.276  17.132 -0.54 -0.01    -0.507 OA ATOM     22  H   UNL     1      42.314  47.467  17.357 -0.33 -0.06    +0.293 HD ENDBRANCH  17  21ENDBRANCH  10  12ENDBRANCH   5  10ENDBRANCH   3   4ENDBRANCH   1   3BRANCH   1  23ATOM     23  C   UNL     1      38.205  46.366  24.287 -0.23 +0.01    +0.077 C  BRANCH  23  24ATOM     24  C   UNL     1      39.510  47.141  24.059 -0.34 +0.00    +0.022 CG0ATOM     25  G   UNL     1      39.525  48.568  24.605 +0.00 +0.00    +0.000 G0 ENDBRANCH  23  24BRANCH  23  26ATOM     26  C   UNL     1      37.719  46.388  25.770 -0.31 +0.00    +0.113 C  BRANCH  26  27ATOM     27  C   UNL     1      36.826  47.619  26.065 -0.35 -0.01    +0.107 C  BRANCH  27  28ATOM     28  N   UNL     1      37.383  48.954  25.874 -0.21 -0.01    -0.315 NA ATOM     29  H   UNL     1      37.974  49.186  26.676 +0.06 +0.01    +0.122 HD BRANCH  28  30ATOM     30  C   UNL     1      38.145  49.199  24.658 -0.24 +0.01    +0.081 C  BRANCH  30  31ATOM     31  C   UNL     1      39.533  48.568  24.607 -0.35 +0.00    +0.017 CG0ATOM     32  G   UNL     1      39.519  47.140  24.061 +0.00 +0.00    +0.000 G0 ENDBRANCH  30  31ENDBRANCH  28  30ENDBRANCH  27  28ENDBRANCH  26  27BRANCH  26  33ATOM     33  N   UNL     1      36.968  45.152  26.063 -0.16 +0.03    -0.346 N  ATOM     34  C   UNL     1      37.597  44.024  26.544 -0.19 -0.02    +0.251 C  ATOM     35  H   UNL     1      35.962  45.187  25.982 -0.41 -0.04    +0.164 HD ATOM     36  O   UNL     1      38.812  43.934  26.670 -0.11 +0.01    -0.269 OA BRANCH  34  37ATOM     37  C   UNL     1      36.729  42.868  26.888 -0.37 -0.01    +0.042 A  ATOM     38  C   UNL     1      37.304  41.795  27.568 -0.43 -0.01    +0.034 A  ATOM     39  C   UNL     1      35.368  42.842  26.583 -0.43 -0.00    +0.034 A  ATOM     40  C   UNL     1      36.498  40.721  27.890 -0.33 -0.04    +0.112 A  ATOM     41  C   UNL     1      34.646  41.720  26.952 -0.46 -0.03    +0.112 A  ATOM     42  N   UNL     1      35.183  40.658  27.587 -0.36 +0.14    -0.265 NA ENDBRANCH  34  37ENDBRANCH  26  33ENDBRANCH  23  26ENDBRANCH   1  23TORSDOF 9TERENDMDL