MODEL        2USER    Run = 2USERUSER    Estimated Free Energy of Binding    =  -6.16 kcal/mol  [=(1)+(2)+(3)-(4)]USERUSER    (1) Final Intermolecular Energy     = -10.63 kcal/molUSER        vdW + Hbond + desolv Energy     = -10.66 kcal/molUSER        Electrostatic Energy            =  -0.32 kcal/molUSER        Moving Ligand-Fixed Receptor    = -10.98 kcal/molUSER        Moving Ligand-Moving Receptor   =  +0.35 kcal/molUSER    (2) Final Total Internal Energy     =  -2.95 kcal/molUSER    (3) Torsional Free Energy           =  +4.47 kcal/molUSER    (4) Unbound System's Energy         =  -2.95 kcal/molUSERUSERREMARK SMILES COc1ccc(O)c(C(=O)c2ccc(NC[C@@H]3CCCNC[C@@H]3NC(=O)c3ccncc3)cc2)c1FREMARK SMILES IDX 16 1 15 2 14 4 11 5 12 6 34 7 13 8 33 9 9 10 10 11 8 12 3 13REMARK SMILES IDX 4 14 35 15 5 16 6 17 36 18 2 19 1 20 7 21 17 23 18 24 23 26REMARK SMILES IDX 22 27 21 28 20 30 19 31 24 33 25 34 26 36 27 37 28 38 32 39REMARK SMILES IDX 29 40 31 41 30 42REMARK H PARENT 15 3 7 22 21 29 24 35REMARK Flexibility Score:   99.900USER                              x       y       z     vdW  Elec       q    TypeUSER                           _______ _______ _______ _____ _____    ______ ____ROOTATOM      1  C   UNL     1      39.014  43.735  27.599 -0.20 -0.01    +0.118 C  ENDROOTBRANCH   1   2ATOM      2  N   UNL     1      39.643  42.882  26.586 -0.05 +0.01    -0.385 N  ATOM      3  H   UNL     1      39.929  41.977  26.946 +0.06 -0.01    +0.160 HD BRANCH   2   4ATOM      4  C   UNL     1      40.488  43.385  25.601 -0.14 -0.00    +0.034 A  ATOM      5  C   UNL     1      42.220  44.243  23.533 -0.14 +0.00    +0.023 A  ATOM      6  C   UNL     1      41.095  44.997  23.873 -0.12 +0.00    +0.014 A  ATOM      7  C   UNL     1      42.452  43.031  24.184 -0.18 -0.00    +0.014 A  ATOM      8  C   UNL     1      40.236  44.565  24.891 -0.11 +0.00    +0.026 A  ATOM      9  C   UNL     1      41.587  42.612  25.203 -0.11 -0.00    +0.026 A  BRANCH   5  10ATOM     10  C   UNL     1      43.083  44.720  22.426 -0.17 +0.05    +0.199 C  ATOM     11  O   UNL     1      44.295  44.503  22.475 -0.14 -0.12    -0.288 OA BRANCH  10  12ATOM     12  C   UNL     1      42.573  45.501  21.277 -0.19 +0.03    +0.104 A  ATOM     13  C   UNL     1      40.919  45.914  19.533 -0.32 +0.01    +0.155 A  ATOM     14  C   UNL     1      41.647  47.029  19.111 -0.40 +0.00    +0.053 A  ATOM     15  C   UNL     1      41.396  45.154  20.612 -0.24 +0.02    +0.179 A  ATOM     16  C   UNL     1      42.843  47.365  19.749 -0.43 +0.01    +0.051 A  ATOM     17  C   UNL     1      43.308  46.598  20.813 -0.22 +0.06    +0.130 A  ATOM     18  F   UNL     1      40.710  44.060  20.980 -0.07 -0.01    -0.202 F  BRANCH  13  19ATOM     19  O   UNL     1      39.746  45.477  18.977 -0.14 +0.03    -0.494 OA ATOM     20  C   UNL     1      39.332  46.090  17.762 -0.30 -0.05    +0.278 C  ENDBRANCH  13  19BRANCH  17  21ATOM     21  O   UNL     1      44.505  46.977  21.359 -0.58 -0.45    -0.507 OA ATOM     22  H   UNL     1      44.538  46.633  22.281 +0.11 +0.18    +0.293 HD ENDBRANCH  17  21ENDBRANCH  10  12ENDBRANCH   5  10ENDBRANCH   2   4ENDBRANCH   1   2BRANCH   1  23ATOM     23  C   UNL     1      37.568  43.284  27.921 -0.37 -0.01    +0.032 C  BRANCH  23  24ATOM     24  C   UNL     1      37.493  41.745  27.978 -0.44 -0.00    +0.009 CG0ATOM     25  G   UNL     1      36.563  41.019  27.005 +0.00 +0.00    +0.000 G0 ENDBRANCH  23  24BRANCH  23  26ATOM     26  C   UNL     1      36.566  43.961  26.957 -0.39 -0.02    +0.101 C  BRANCH  26  27ATOM     27  C   UNL     1      35.104  43.755  27.418 -0.52 -0.02    +0.106 C  BRANCH  27  28ATOM     28  N   UNL     1      34.822  42.449  28.029 -0.30 +0.11    -0.315 NA ATOM     29  H   UNL     1      35.444  42.348  28.834 -0.45 -0.09    +0.122 HD BRANCH  28  30ATOM     30  C   UNL     1      35.075  41.328  27.123 -0.64 -0.03    +0.081 C  BRANCH  30  31ATOM     31  C   UNL     1      36.562  41.018  27.003 -0.51 -0.01    +0.016 CG0ATOM     32  G   UNL     1      37.494  41.745  27.973 +0.00 +0.00    +0.000 G0 ENDBRANCH  30  31ENDBRANCH  28  30ENDBRANCH  27  28ENDBRANCH  26  27BRANCH  26  33ATOM     33  N   UNL     1      36.709  43.515  25.573 -0.14 +0.01    -0.348 N  ATOM     34  C   UNL     1      37.082  44.349  24.546 -0.20 +0.03    +0.251 C  ATOM     35  H   UNL     1      36.398  42.568  25.399 +0.11 -0.01    +0.164 HD ATOM     36  O   UNL     1      37.319  45.540  24.706 -0.68 -0.05    -0.269 OA BRANCH  34  37ATOM     37  C   UNL     1      37.167  43.746  23.190 -0.32 +0.00    +0.042 A  ATOM     38  C   UNL     1      36.872  42.388  23.055 -0.43 +0.00    +0.034 A  ATOM     39  C   UNL     1      37.500  44.491  22.058 -0.33 +0.00    +0.034 A  ATOM     40  C   UNL     1      36.945  41.826  21.795 -0.45 +0.00    +0.112 A  ATOM     41  C   UNL     1      37.544  43.834  20.841 -0.31 +0.00    +0.112 A  ATOM     42  N   UNL     1      37.280  42.520  20.686 -0.15 +0.00    -0.265 NA ENDBRANCH  34  37ENDBRANCH  26  33ENDBRANCH  23  26ENDBRANCH   1  23TORSDOF 9TERENDMDL