MODEL        2USER    Run = 2USERUSER    Estimated Free Energy of Binding    =  -7.05 kcal/mol  [=(1)+(2)+(3)-(4)]USERUSER    (1) Final Intermolecular Energy     = -11.52 kcal/molUSER        vdW + Hbond + desolv Energy     = -11.89 kcal/molUSER        Electrostatic Energy            =  +0.02 kcal/molUSER        Moving Ligand-Fixed Receptor    = -11.87 kcal/molUSER        Moving Ligand-Moving Receptor   =  +0.35 kcal/molUSER    (2) Final Total Internal Energy     =  -2.00 kcal/molUSER    (3) Torsional Free Energy           =  +4.47 kcal/molUSER    (4) Unbound System's Energy         =  -2.00 kcal/molUSERUSERREMARK SMILES COc1ccc(O)c(C(=O)c2ccc(/C=C/[C@@H]3CCCNC[C@H]3NC(=O)c3ccncc3)cc2)c1FREMARK SMILES IDX 16 1 15 2 14 3 11 4 12 5 34 6 13 7 33 8 9 9 10 10 8 11 3 12REMARK SMILES IDX 4 13 35 14 5 15 6 16 36 17 2 18 1 19 7 20 17 22 18 23 23 25REMARK SMILES IDX 22 26 21 27 20 29 19 30 24 32 25 33 26 35 27 36 28 37 32 38REMARK SMILES IDX 29 39 31 40 30 41REMARK H PARENT 7 21 21 28 24 34REMARK Flexibility Score:   99.900USER                              x       y       z     vdW  Elec       q    TypeUSER                           _______ _______ _______ _____ _____    ______ ____ROOTATOM      1  C   UNL     1      35.817  43.528  19.356 -0.44 +0.00    -0.021 C  ENDROOTBRANCH   1   2ATOM      2  C   UNL     1      36.594  42.675  20.042 -0.41 -0.00    +0.004 C  BRANCH   2   3ATOM      3  C   UNL     1      36.678  42.656  21.507 -0.45 -0.00    -0.026 A  ATOM      4  C   UNL     1      36.866  42.544  24.306 -0.39 +0.00    +0.023 A  ATOM      5  C   UNL     1      36.536  41.394  23.582 -0.30 -0.00    +0.013 A  ATOM      6  C   UNL     1      37.140  43.738  23.634 -0.32 +0.00    +0.013 A  ATOM      7  C   UNL     1      36.448  41.453  22.187 -0.56 +0.00    +0.009 A  ATOM      8  C   UNL     1      37.038  43.794  22.243 -0.37 +0.00    +0.009 A  BRANCH   4   9ATOM      9  C   UNL     1      37.000  42.512  25.778 -0.30 -0.02    +0.199 C  ATOM     10  O   UNL     1      36.035  42.844  26.469 -0.28 +0.04    -0.288 OA BRANCH   9  11ATOM     11  C   UNL     1      38.261  42.149  26.463 -0.26 -0.01    +0.104 A  ATOM     12  C   UNL     1      40.696  42.140  26.592 -0.12 -0.01    +0.155 A  ATOM     13  C   UNL     1      40.626  41.440  27.797 -0.21 -0.00    +0.053 A  ATOM     14  C   UNL     1      39.507  42.487  25.933 -0.13 -0.00    +0.179 A  ATOM     15  C   UNL     1      39.384  41.072  28.322 -0.22 +0.00    +0.051 A  ATOM     16  C   UNL     1      38.214  41.412  27.652 -0.35 -0.01    +0.130 A  ATOM     17  F   UNL     1      39.589  43.127  24.755 -0.03 -0.01    -0.202 F  BRANCH  12  18ATOM     18  O   UNL     1      41.850  42.537  25.972 -0.05 +0.05    -0.494 OA ATOM     19  C   UNL     1      43.035  41.809  26.269 -0.07 -0.04    +0.278 C  ENDBRANCH  12  18BRANCH  16  20ATOM     20  O   UNL     1      37.042  40.986  28.220 -0.23 +0.17    -0.507 OA ATOM     21  H   UNL     1      36.477  41.778  28.374 -0.28 -0.16    +0.293 HD ENDBRANCH  16  20ENDBRANCH   9  11ENDBRANCH   4   9ENDBRANCH   2   3ENDBRANCH   1   2BRANCH   1  22ATOM     22  C   UNL     1      36.302  44.681  18.480 -0.38 -0.01    +0.035 C  BRANCH  22  23ATOM     23  C   UNL     1      35.074  45.565  18.186 -0.45 -0.01    +0.011 CG0ATOM     24  G   UNL     1      33.789  44.889  17.723 +0.00 +0.00    +0.000 G0 ENDBRANCH  22  23BRANCH  22  25ATOM     25  C   UNL     1      37.130  44.296  17.216 -0.31 -0.03    +0.103 C  BRANCH  25  26ATOM     26  C   UNL     1      36.236  44.274  15.942 -0.35 -0.04    +0.106 C  BRANCH  26  27ATOM     27  N   UNL     1      34.969  43.555  16.004 -0.17 +0.13    -0.315 NA ATOM     28  H   UNL     1      35.044  42.797  16.684 +0.07 -0.05    +0.122 HD BRANCH  27  29ATOM     29  C   UNL     1      33.802  44.377  16.286 -0.32 -0.04    +0.081 C  BRANCH  29  30ATOM     30  C   UNL     1      33.790  44.891  17.718 -0.40 -0.01    +0.016 CG0ATOM     31  G   UNL     1      35.075  45.564  18.186 +0.00 +0.00    +0.000 G0 ENDBRANCH  29  30ENDBRANCH  27  29ENDBRANCH  26  27ENDBRANCH  25  26BRANCH  25  32ATOM     32  N   UNL     1      38.234  45.240  16.993 -0.14 +0.09    -0.347 N  ATOM     33  C   UNL     1      38.014  46.521  16.539 -0.27 -0.10    +0.251 C  ATOM     34  H   UNL     1      39.144  44.994  17.361 +0.11 -0.02    +0.164 HD ATOM     35  O   UNL     1      36.904  46.970  16.285 -0.28 +0.20    -0.269 OA BRANCH  33  36ATOM     36  C   UNL     1      39.218  47.379  16.396 -0.44 -0.01    +0.042 A  ATOM     37  C   UNL     1      39.318  48.341  15.391 -0.51 -0.01    +0.034 A  ATOM     38  C   UNL     1      40.251  47.231  17.320 -0.47 -0.01    +0.034 A  ATOM     39  C   UNL     1      40.472  49.100  15.340 -0.52 -0.03    +0.112 A  ATOM     40  C   UNL     1      41.364  48.037  17.179 -0.39 -0.01    +0.112 A  ATOM     41  N   UNL     1      41.501  48.961  16.203 -0.88 -0.01    -0.265 NA ENDBRANCH  33  36ENDBRANCH  25  32ENDBRANCH  22  25ENDBRANCH   1  22TORSDOF 9TERENDMDL