MODEL        7USER    Run = 7USERUSER    Estimated Free Energy of Binding    = -12.47 kcal/mol  [=(1)+(2)+(3)-(4)]USERUSER    (1) Final Intermolecular Energy     = -14.26 kcal/molUSER        vdW + Hbond + desolv Energy     = -14.14 kcal/molUSER        Electrostatic Energy            =  -0.12 kcal/molUSER        Moving Ligand-Fixed Receptor    = -14.26 kcal/molUSER        Moving Ligand-Moving Receptor   =  +0.00 kcal/molUSER    (2) Final Total Internal Energy     =  -1.93 kcal/molUSER    (3) Torsional Free Energy           =  +1.79 kcal/molUSER    (4) Unbound System's Energy         =  -1.93 kcal/molUSERUSERREMARK SMILES Oc1nc2ccccc2n1C1CCN(Cc2ccc(-c3cc4ccccc4nc3-c3ccccc3)cc2)CC1REMARK SMILES IDX 11 1 12 2 13 3 14 4 38 5 39 6 10 7 2 8 3 9 4 10 9 11 5 12REMARK SMILES IDX 8 13 6 14 7 15 1 16 15 18 16 19 17 20 37 21 18 22 36 23REMARK SMILES IDX 19 24 20 25 21 26 29 27 22 28 28 29 23 30 27 31 24 32 26 33REMARK SMILES IDX 25 34 30 35 31 36 35 37 32 38 34 39 33 40REMARK H PARENT 1 17USER                              x       y       z     vdW  Elec       q    TypeUSER                           _______ _______ _______ _____ _____    ______ ____ROOTATOM      1  C   UNL     1      31.304  39.931  17.360 -0.24 -0.01    +0.095 C  ATOM      2  C   UNL     1      32.419  40.858  17.865 -0.43 -0.01    +0.041 C  ATOM      3  C   UNL     1      31.957  42.263  18.236 -0.33 -0.01    +0.087 C  ATOM      4  N   UNL     1      31.063  42.880  17.253 -0.10 +0.08    -0.299 NA ATOM      5  C   UNL     1      29.870  42.054  17.048 -0.26 -0.02    +0.087 C  ATOM      6  C   UNL     1      30.162  40.624  16.601 -0.42 -0.01    +0.041 C  ENDROOTBRANCH   1   7ATOM      7  N   UNL     1      30.864  38.937  18.337 -0.22 -0.04    -0.291 N  ATOM      8  C   UNL     1      31.643  37.880  18.742 -0.29 +0.07    +0.295 A  ATOM      9  N   UNL     1      31.056  37.093  19.598 -0.66 -0.07    -0.195 NA ATOM     10  C   UNL     1      29.822  37.656  19.779 -0.32 +0.02    +0.092 A  ATOM     11  C   UNL     1      29.666  38.820  19.013 -0.31 +0.01    +0.072 A  ATOM     12  C   UNL     1      28.774  37.211  20.602 -0.30 -0.00    +0.031 A  ATOM     13  C   UNL     1      28.480  39.562  19.060 -0.21 +0.00    +0.029 A  ATOM     14  C   UNL     1      27.587  37.945  20.647 -0.28 -0.00    +0.002 A  ATOM     15  C   UNL     1      27.447  39.103  19.888 -0.25 -0.00    +0.002 A  BRANCH   8  16ATOM     16  O   UNL     1      32.872  37.645  18.331 -0.17 -0.02    -0.480 OA ATOM     17  H   UNL     1      33.180  38.550  18.138 +0.18 -0.04    +0.296 HD ENDBRANCH   8  16ENDBRANCH   1   7BRANCH   4  18ATOM     18  C   UNL     1      31.765  43.234  16.008 -0.32 -0.06    +0.120 C  BRANCH  18  19ATOM     19  C   UNL     1      33.150  43.796  16.243 -0.31 +0.02    -0.034 A  ATOM     20  C   UNL     1      33.332  45.136  16.610 -0.32 -0.00    +0.006 A  ATOM     21  C   UNL     1      34.279  42.978  16.095 -0.36 -0.00    +0.006 A  ATOM     22  C   UNL     1      34.616  45.645  16.822 -0.33 -0.01    +0.009 A  ATOM     23  C   UNL     1      35.561  43.493  16.299 -0.40 -0.00    +0.009 A  ATOM     24  C   UNL     1      35.749  44.834  16.661 -0.31 +0.01    -0.016 A  BRANCH  24  25ATOM     25  C   UNL     1      37.100  45.371  16.885 -0.35 -0.00    +0.009 A  ATOM     26  C   UNL     1      37.728  45.149  18.119 -0.36 -0.00    +0.021 A  ATOM     27  C   UNL     1      37.833  46.074  15.915 -0.32 -0.03    +0.079 A  ATOM     28  C   UNL     1      39.031  45.603  18.356 -0.42 -0.00    +0.001 A  ATOM     29  N   UNL     1      39.108  46.510  16.128 -0.23 +0.07    -0.247 NA ATOM     30  C   UNL     1      39.680  45.390  19.585 -0.40 -0.00    +0.010 A  ATOM     31  C   UNL     1      39.688  46.284  17.316 -0.41 -0.01    +0.071 A  ATOM     32  C   UNL     1      40.980  45.850  19.786 -0.42 +0.00    +0.001 A  ATOM     33  C   UNL     1      40.984  46.731  17.540 -0.47 -0.00    +0.029 A  ATOM     34  C   UNL     1      41.635  46.522  18.760 -0.52 +0.00    +0.002 A  BRANCH  27  35ATOM     35  C   UNL     1      37.314  46.418  14.578 -0.41 -0.00    +0.001 A  ATOM     36  C   UNL     1      37.002  47.751  14.256 -0.52 -0.01    +0.010 A  ATOM     37  C   UNL     1      37.093  45.437  13.596 -0.46 -0.00    +0.010 A  ATOM     38  C   UNL     1      36.513  48.093  12.992 -0.62 -0.00    +0.001 A  ATOM     39  C   UNL     1      36.603  45.777  12.332 -0.61 -0.00    +0.001 A  ATOM     40  C   UNL     1      36.317  47.107  12.029 -0.68 -0.00    +0.000 A  ENDBRANCH  27  35ENDBRANCH  24  25ENDBRANCH  18  19ENDBRANCH   4  18TORSDOF 6TERENDMDL