MODEL        5USER    Run = 5USERUSER    Estimated Free Energy of Binding    = -13.56 kcal/mol  [=(1)+(2)+(3)-(4)]USERUSER    (1) Final Intermolecular Energy     = -15.35 kcal/molUSER        vdW + Hbond + desolv Energy     = -15.21 kcal/molUSER        Electrostatic Energy            =  -0.14 kcal/molUSER        Moving Ligand-Fixed Receptor    = -15.35 kcal/molUSER        Moving Ligand-Moving Receptor   =  +0.00 kcal/molUSER    (2) Final Total Internal Energy     =  -2.67 kcal/molUSER    (3) Torsional Free Energy           =  +1.79 kcal/molUSER    (4) Unbound System's Energy         =  -2.67 kcal/molUSERUSERREMARK SMILES Oc1nc2ccccc2n1C1CCN(Cc2ccc(-c3nc4ccccc4nc3-c3ccccc3)cc2)CC1REMARK SMILES IDX 11 1 12 2 13 3 14 4 38 5 39 6 10 7 2 8 3 9 4 10 9 11 5 12REMARK SMILES IDX 8 13 6 14 7 15 1 16 15 18 16 19 17 20 37 21 18 22 36 23REMARK SMILES IDX 19 24 20 25 21 26 29 27 22 28 28 29 23 30 27 31 24 32 26 33REMARK SMILES IDX 25 34 30 35 31 36 35 37 32 38 34 39 33 40REMARK H PARENT 1 17USER                              x       y       z     vdW  Elec       q    TypeUSER                           _______ _______ _______ _____ _____    ______ ____ROOTATOM      1  C   UNL     1      38.559  47.183  15.331 -0.45 -0.04    +0.095 C  ATOM      2  C   UNL     1      37.716  48.387  14.877 -0.58 -0.03    +0.041 C  ATOM      3  C   UNL     1      37.194  48.211  13.451 -0.55 -0.04    +0.087 C  ATOM      4  N   UNL     1      36.670  46.871  13.173 -0.33 +0.14    -0.299 NA ATOM      5  C   UNL     1      37.654  45.807  13.434 -0.43 -0.03    +0.087 C  ATOM      6  C   UNL     1      38.925  46.266  14.158 -0.39 -0.01    +0.041 C  ENDROOTBRANCH   1   7ATOM      7  N   UNL     1      39.713  47.576  16.125 -0.27 +0.08    -0.291 N  ATOM      8  C   UNL     1      40.506  48.670  15.921 -0.33 -0.07    +0.295 A  ATOM      9  N   UNL     1      41.468  48.783  16.794 -0.93 -0.00    -0.195 NA ATOM     10  C   UNL     1      41.295  47.708  17.631 -0.44 -0.01    +0.092 A  ATOM     11  C   UNL     1      40.200  46.931  17.244 -0.45 -0.01    +0.072 A  ATOM     12  C   UNL     1      42.042  47.333  18.759 -0.51 +0.00    +0.031 A  ATOM     13  C   UNL     1      39.808  45.782  17.945 -0.43 -0.00    +0.029 A  ATOM     14  C   UNL     1      41.667  46.187  19.470 -0.45 +0.00    +0.002 A  ATOM     15  C   UNL     1      40.568  45.427  19.067 -0.45 +0.00    +0.002 A  BRANCH   8  16ATOM     16  O   UNL     1      40.338  49.551  14.956 -0.21 +0.21    -0.480 OA ATOM     17  H   UNL     1      39.615  50.096  15.317 -0.19 -0.23    +0.296 HD ENDBRANCH   8  16ENDBRANCH   1   7BRANCH   4  18ATOM     18  C   UNL     1      35.379  46.584  13.822 -0.44 -0.09    +0.120 C  BRANCH  18  19ATOM     19  C   UNL     1      35.506  45.885  15.157 -0.35 +0.03    -0.034 A  ATOM     20  C   UNL     1      35.604  44.491  15.228 -0.29 -0.00    +0.006 A  ATOM     21  C   UNL     1      35.512  46.622  16.348 -0.25 -0.01    +0.006 A  ATOM     22  C   UNL     1      35.725  43.851  16.467 -0.36 -0.00    +0.011 A  ATOM     23  C   UNL     1      35.634  45.981  17.583 -0.36 -0.01    +0.011 A  ATOM     24  C   UNL     1      35.760  44.584  17.664 -0.31 -0.00    +0.002 A  BRANCH  24  25ATOM     25  C   UNL     1      35.907  43.893  18.956 -0.29 -0.02    +0.097 A  ATOM     26  N   UNL     1      37.056  44.210  19.621 -0.22 +0.02    -0.244 NA ATOM     27  C   UNL     1      34.991  42.971  19.487 -0.35 -0.01    +0.097 A  ATOM     28  C   UNL     1      37.294  43.580  20.784 -0.33 -0.00    +0.089 A  ATOM     29  N   UNL     1      35.246  42.327  20.663 -0.32 -0.01    -0.244 NA ATOM     30  C   UNL     1      38.457  43.862  21.491 -0.30 +0.00    +0.030 A  ATOM     31  C   UNL     1      36.386  42.632  21.306 -0.40 +0.00    +0.089 A  ATOM     32  C   UNL     1      38.744  43.228  22.701 -0.30 +0.00    +0.002 A  ATOM     33  C   UNL     1      36.681  42.006  22.511 -0.50 +0.00    +0.030 A  ATOM     34  C   UNL     1      37.851  42.296  23.213 -0.35 +0.00    +0.002 A  BRANCH  27  35ATOM     35  C   UNL     1      33.694  42.615  18.882 -0.39 -0.00    +0.002 A  ATOM     36  C   UNL     1      32.618  43.520  18.928 -0.39 -0.00    +0.010 A  ATOM     37  C   UNL     1      33.492  41.392  18.218 -0.37 -0.00    +0.010 A  ATOM     38  C   UNL     1      31.380  43.205  18.359 -0.28 -0.00    +0.001 A  ATOM     39  C   UNL     1      32.254  41.074  17.651 -0.36 -0.00    +0.001 A  ATOM     40  C   UNL     1      31.199  41.979  17.724 -0.29 -0.00    +0.000 A  ENDBRANCH  27  35ENDBRANCH  24  25ENDBRANCH  18  19ENDBRANCH   4  18TORSDOF 6TERENDMDL