MODEL        2USER    Run = 2USERUSER    Estimated Free Energy of Binding    =  -7.11 kcal/mol  [=(1)+(2)+(3)-(4)]USERUSER    (1) Final Intermolecular Energy     = -11.29 kcal/molUSER        vdW + Hbond + desolv Energy     = -11.62 kcal/molUSER        Electrostatic Energy            =  -0.13 kcal/molUSER        Moving Ligand-Fixed Receptor    = -11.75 kcal/molUSER        Moving Ligand-Moving Receptor   =  +0.46 kcal/molUSER    (2) Final Total Internal Energy     =  -2.74 kcal/molUSER    (3) Torsional Free Energy           =  +4.18 kcal/molUSER    (4) Unbound System's Energy         =  -2.74 kcal/molUSERUSERREMARK SMILES COc1ccc(O)c(C(=O)c2ccc(C(=O)N[C@@H]3CCCNC[C@H]3NC(=O)c3ccncc3)cc2)c1FREMARK SMILES IDX 15 1 16 2 17 3 14 5 11 6 12 7 35 8 13 9 34 10 9 11 10 12REMARK SMILES IDX 8 13 3 14 4 15 36 16 5 17 6 18 37 19 2 20 1 21 7 22 18 24REMARK SMILES IDX 19 25 24 27 23 28 22 29 21 31 20 32 25 34 26 35 27 37 28 38REMARK SMILES IDX 29 39 33 40 30 41 32 42 31 43REMARK H PARENT 17 4 7 23 22 30 25 36REMARK Flexibility Score:   88.900USER                              x       y       z     vdW  Elec       q    TypeUSER                           _______ _______ _______ _____ _____    ______ ____ROOTATOM      1  C   UNL     1      38.714  43.370  22.654 -0.20 +0.01    +0.251 C  ATOM      2  O   UNL     1      38.417  42.181  22.623 -0.25 -0.03    -0.269 OA ATOM      3  N   UNL     1      38.603  44.150  23.787 -0.07 -0.02    -0.347 N  ATOM      4  H   UNL     1      38.667  45.153  23.681 +0.08 +0.01    +0.164 HD ENDROOTBRANCH   1   5ATOM      5  C   UNL     1      39.152  44.068  21.413 -0.27 +0.00    +0.039 A  ATOM      6  C   UNL     1      40.089  45.297  19.074 -0.43 -0.00    +0.023 A  ATOM      7  C   UNL     1      40.992  44.882  20.057 -0.38 +0.00    +0.013 A  ATOM      8  C   UNL     1      38.716  45.099  19.260 -0.38 -0.00    +0.013 A  ATOM      9  C   UNL     1      40.524  44.281  21.228 -0.30 +0.00    +0.014 A  ATOM     10  C   UNL     1      38.246  44.494  20.434 -0.36 -0.00    +0.014 A  BRANCH   6  11ATOM     11  C   UNL     1      40.637  45.856  17.819 -0.39 -0.01    +0.199 C  ATOM     12  O   UNL     1      41.783  45.538  17.496 -0.22 -0.00    -0.288 OA BRANCH  11  13ATOM     13  C   UNL     1      39.878  46.736  16.900 -0.40 -0.02    +0.104 A  ATOM     14  C   UNL     1      37.929  47.226  15.515 -0.32 -0.08    +0.155 A  ATOM     15  C   UNL     1      38.485  48.460  15.167 -0.49 -0.03    +0.053 A  ATOM     16  C   UNL     1      38.633  46.374  16.384 -0.28 -0.06    +0.179 A  ATOM     17  C   UNL     1      39.718  48.845  15.698 -0.52 -0.02    +0.051 A  ATOM     18  C   UNL     1      40.399  47.995  16.567 -0.43 -0.03    +0.130 A  ATOM     19  F   UNL     1      38.067  45.209  16.737 -0.07 +0.06    -0.202 F  BRANCH  14  20ATOM     20  O   UNL     1      36.724  46.748  15.073 -0.08 +0.33    -0.494 OA ATOM     21  C   UNL     1      36.360  47.048  13.729 -0.36 -0.17    +0.278 C  ENDBRANCH  14  20BRANCH  18  22ATOM     22  O   UNL     1      41.585  48.469  17.062 -0.62 -0.01    -0.507 OA ATOM     23  H   UNL     1      42.189  47.696  17.170 -0.35 -0.04    +0.293 HD ENDBRANCH  18  22ENDBRANCH  11  13ENDBRANCH   6  11ENDBRANCH   1   5BRANCH   3  24ATOM     24  C   UNL     1      37.923  43.643  24.986 -0.26 +0.00    +0.106 C  BRANCH  24  25ATOM     25  C   UNL     1      36.555  43.065  24.601 -0.38 +0.00    +0.028 CG0ATOM     26  G   UNL     1      35.862  42.216  25.680 +0.00 +0.00    +0.000 G0 ENDBRANCH  24  25BRANCH  24  27ATOM     27  C   UNL     1      37.856  44.748  26.078 -0.25 -0.00    +0.118 C  BRANCH  27  28ATOM     28  C   UNL     1      37.793  44.224  27.533 -0.31 -0.01    +0.108 C  BRANCH  28  29ATOM     29  N   UNL     1      37.095  42.955  27.758 -0.16 +0.08    -0.315 NA ATOM     30  H   UNL     1      37.705  42.177  27.516 +0.06 -0.02    +0.122 HD BRANCH  29  31ATOM     31  C   UNL     1      35.809  42.799  27.088 -0.51 -0.02    +0.081 C  BRANCH  31  32ATOM     32  C   UNL     1      35.858  42.218  25.677 -0.35 -0.00    +0.017 CG0ATOM     33  G   UNL     1      36.552  43.066  24.599 +0.00 +0.00    +0.000 G0 ENDBRANCH  31  32ENDBRANCH  29  31ENDBRANCH  28  29ENDBRANCH  27  28BRANCH  27  34ATOM     34  N   UNL     1      38.964  45.697  25.907 -0.05 -0.01    -0.346 N  ATOM     35  C   UNL     1      38.848  46.799  25.092 -0.19 +0.02    +0.251 C  ATOM     36  H   UNL     1      39.695  45.678  26.599 +0.05 +0.00    +0.164 HD ATOM     37  O   UNL     1      37.871  47.025  24.390 -0.56 -0.07    -0.269 OA BRANCH  35  38ATOM     38  C   UNL     1      39.980  47.758  25.116 -0.24 +0.00    +0.042 A  ATOM     39  C   UNL     1      40.692  47.972  23.936 -0.29 +0.00    +0.034 A  ATOM     40  C   UNL     1      40.362  48.421  26.284 -0.24 +0.00    +0.034 A  ATOM     41  C   UNL     1      41.746  48.862  23.966 -0.34 +0.02    +0.112 A  ATOM     42  C   UNL     1      41.434  49.291  26.210 -0.21 +0.01    +0.112 A  ATOM     43  N   UNL     1      42.131  49.530  25.075 -0.28 -0.06    -0.265 NA ENDBRANCH  35  38ENDBRANCH  27  34ENDBRANCH  24  27ENDBRANCH   3  24TORSDOF 8TERENDMDL