MODEL        7USER    Run = 7USERUSER    Estimated Free Energy of Binding    =  -6.00 kcal/mol  [=(1)+(2)+(3)-(4)]USERUSER    (1) Final Intermolecular Energy     = -10.47 kcal/molUSER        vdW + Hbond + desolv Energy     = -11.64 kcal/molUSER        Electrostatic Energy            =  -0.23 kcal/molUSER        Moving Ligand-Fixed Receptor    = -11.87 kcal/molUSER        Moving Ligand-Moving Receptor   =  +1.40 kcal/molUSER    (2) Final Total Internal Energy     =  -2.97 kcal/molUSER    (3) Torsional Free Energy           =  +4.47 kcal/molUSER    (4) Unbound System's Energy         =  -2.97 kcal/molUSERUSERREMARK SMILES COc1ccc(O)c(C(=O)c2ccc(C(=O)O[C@@H]3CCCNC[C@H]3NC(=O)c3ccncc3)cc2)c1FREMARK SMILES IDX 17 1 15 2 16 3 14 4 11 5 12 6 35 7 13 8 34 9 9 10 10 11 8 12REMARK SMILES IDX 3 13 4 14 36 15 5 16 6 17 37 18 2 19 1 20 7 21 18 23 24 25REMARK SMILES IDX 23 26 22 27 21 29 20 30 19 31 25 33 26 34 27 36 28 37 29 38REMARK SMILES IDX 33 39 30 40 32 41 31 42REMARK H PARENT 7 22 22 28 25 35REMARK Flexibility Score:   99.900USER                              x       y       z     vdW  Elec       q    TypeUSER                           _______ _______ _______ _____ _____    ______ ____ROOTATOM      1  O   UNL     1      38.811  47.551  16.122 -0.16 +0.19    -0.457 OA ENDROOTBRANCH   1   2ATOM      2  C   UNL     1      40.143  47.404  15.907 -0.31 -0.07    +0.338 C  ATOM      3  O   UNL     1      40.725  47.469  14.834 -0.36 +0.02    -0.246 OA BRANCH   2   4ATOM      4  C   UNL     1      40.836  47.191  17.202 -0.46 -0.01    +0.060 A  ATOM      5  C   UNL     1      42.202  46.840  19.630 -0.45 +0.00    +0.023 A  ATOM      6  C   UNL     1      41.161  45.972  19.276 -0.45 +0.00    +0.013 A  ATOM      7  C   UNL     1      42.559  47.880  18.760 -0.46 +0.00    +0.013 A  ATOM      8  C   UNL     1      40.480  46.147  18.067 -0.48 -0.00    +0.016 A  ATOM      9  C   UNL     1      41.886  48.050  17.547 -0.19 -0.00    +0.016 A  BRANCH   5  10ATOM     10  C   UNL     1      42.941  46.714  20.916 -0.31 +0.06    +0.199 C  ATOM     11  O   UNL     1      44.153  46.529  20.932 -0.43 -0.27    -0.288 OA BRANCH  10  12ATOM     12  C   UNL     1      42.231  46.805  22.198 -0.23 +0.02    +0.104 A  ATOM     13  C   UNL     1      40.572  45.895  23.715 -0.12 +0.01    +0.155 A  ATOM     14  C   UNL     1      40.812  46.961  24.592 -0.17 +0.00    +0.053 A  ATOM     15  C   UNL     1      41.287  45.832  22.512 -0.14 +0.02    +0.179 A  ATOM     16  C   UNL     1      41.773  47.932  24.282 -0.26 +0.01    +0.051 A  ATOM     17  C   UNL     1      42.487  47.847  23.089 -0.26 +0.02    +0.130 A  ATOM     18  F   UNL     1      41.089  44.797  21.679 -0.05 -0.02    -0.202 F  BRANCH  13  19ATOM     19  O   UNL     1      39.698  44.865  23.937 +0.01 -0.02    -0.494 OA ATOM     20  C   UNL     1      38.348  45.205  24.228 -0.18 +0.02    +0.278 C  ENDBRANCH  13  19BRANCH  17  21ATOM     21  O   UNL     1      43.441  48.778  22.791 -0.61 -0.14    -0.507 OA ATOM     22  H   UNL     1      43.937  48.506  22.002 -0.45 +0.02    +0.293 HD ENDBRANCH  17  21ENDBRANCH  10  12ENDBRANCH   5  10ENDBRANCH   2   4ENDBRANCH   1   2BRANCH   1  23ATOM     23  C   UNL     1      37.924  46.918  15.162 -0.34 -0.09    +0.200 CG0ATOM     24  G   UNL     1      37.678  47.930  14.043 +0.00 +0.00    +0.000 G0 BRANCH  23  25ATOM     25  C   UNL     1      36.654  46.497  15.928 -0.34 -0.09    +0.137 C  BRANCH  25  26ATOM     26  C   UNL     1      35.661  45.650  15.106 -0.35 -0.07    +0.109 C  BRANCH  26  27ATOM     27  N   UNL     1      36.139  45.289  13.770 -0.18 +0.14    -0.315 NA ATOM     28  H   UNL     1      35.595  44.490  13.443 +0.18 -0.05    +0.122 HD BRANCH  27  29ATOM     29  C   UNL     1      36.071  46.345  12.756 -0.61 -0.04    +0.081 C  BRANCH  29  30ATOM     30  C   UNL     1      37.217  47.363  12.695 -0.67 -0.01    +0.019 C  BRANCH  30  31ATOM     31  C   UNL     1      37.701  47.931  14.035 -0.57 -0.02    +0.049 CG0ATOM     32  G   UNL     1      37.923  46.921  15.160 +0.00 +0.00    +0.000 G0 ENDBRANCH  30  31ENDBRANCH  29  30ENDBRANCH  27  29ENDBRANCH  26  27ENDBRANCH  25  26BRANCH  25  33ATOM     33  N   UNL     1      37.044  45.776  17.147 -0.13 +0.14    -0.344 N  ATOM     34  C   UNL     1      36.121  45.234  18.007 -0.22 -0.09    +0.251 C  ATOM     35  H   UNL     1      37.993  45.428  17.168 +0.11 -0.05    +0.164 HD ATOM     36  O   UNL     1      34.910  45.341  17.866 -0.24 +0.14    -0.269 OA BRANCH  34  37ATOM     37  C   UNL     1      36.672  44.473  19.152 -0.33 -0.01    +0.042 A  ATOM     38  C   UNL     1      37.943  44.800  19.621 -0.31 -0.00    +0.034 A  ATOM     39  C   UNL     1      35.964  43.422  19.733 -0.39 -0.00    +0.034 A  ATOM     40  C   UNL     1      38.447  44.070  20.682 -0.25 -0.00    +0.112 A  ATOM     41  C   UNL     1      36.560  42.751  20.785 -0.37 +0.00    +0.112 A  ATOM     42  N   UNL     1      37.781  43.056  21.276 -0.15 -0.01    -0.265 NA ENDBRANCH  34  37ENDBRANCH  25  33ENDBRANCH  23  25ENDBRANCH   1  23TORSDOF 9TERENDMDL