REMARK SMILES C[C@@H]1CN(Cc2ccc(-c3nc4ncccc4nc3-c3ccc(O[C@@H]4CNCCO4)cc3)cc2)CC[C@@H]1n1c(O)nc2ccccc21
REMARK SMILES IDX 6 1 7 2 8 3 9 4 33 5 34 6 5 7 4 8 2 9 3 10 37 11 36 12 35 13
REMARK SMILES IDX 1 14 38 15 39 16 47 17 41 18 46 19 42 20 45 21 43 22 44 23
REMARK SMILES IDX 40 24 10 26 11 27 19 28 12 29 18 30 13 31 17 32 14 33 16 34
REMARK SMILES IDX 15 35 20 36 21 37 32 38 22 39 31 40 23 41 24 42 25 43 26 44
REMARK SMILES IDX 30 45 27 46 29 47 28 48
REMARK H PARENT 40 25 27 49
ROOT
ATOM      1  C   UNL     1       0.385  -0.499  -0.666  1.00  0.00    -0.034 A 
ATOM      2  C   UNL     1       0.078   0.157  -1.864  1.00  0.00     0.006 A 
ATOM      3  C   UNL     1      -0.685   1.325  -1.855  1.00  0.00     0.011 A 
ATOM      4  C   UNL     1      -1.189   1.849  -0.654  1.00  0.00     0.002 A 
ATOM      5  C   UNL     1      -0.870   1.194   0.543  1.00  0.00     0.011 A 
ATOM      6  C   UNL     1      -0.085   0.037   0.539  1.00  0.00     0.006 A 
ENDROOT
BRANCH   1   7
ATOM      7  C   UNL     1       1.227  -1.756  -0.674  1.00  0.00     0.120 C 
BRANCH   7   8
ATOM      8  N   UNL     1       2.621  -1.550  -0.240  1.00  0.00    -0.299 NA
ATOM      9  C   UNL     1       4.807  -2.866  -0.127  1.00  0.00     0.023 C 
ATOM     10  C   UNL     1       3.264  -2.859   0.004  1.00  0.00     0.090 C 
ATOM     11  C   UNL     1       5.325  -1.480   0.322  1.00  0.00     0.098 C 
ATOM     12  C   UNL     1       4.799  -0.407  -0.653  1.00  0.00     0.041 C 
ATOM     13  C   UNL     1       3.377  -0.698  -1.160  1.00  0.00     0.087 C 
ATOM     14  C   UNL     1       5.201  -3.279  -1.560  1.00  0.00     0.011 C 
BRANCH  11  15
ATOM     15  N   UNL     1       6.749  -1.325   0.611  1.00  0.00    -0.291 N 
ATOM     16  C   UNL     1       7.789  -2.186   0.384  1.00  0.00     0.295 A 
ATOM     17  C   UNL     1       7.301  -0.231   1.262  1.00  0.00     0.072 A 
ATOM     18  N   UNL     1       8.959  -1.683   0.669  1.00  0.00    -0.195 NA
ATOM     19  C   UNL     1       6.758   0.919   1.852  1.00  0.00     0.029 A 
ATOM     20  C   UNL     1       8.675  -0.469   1.234  1.00  0.00     0.092 A 
ATOM     21  C   UNL     1       7.652   1.847   2.400  1.00  0.00     0.002 A 
ATOM     22  C   UNL     1       9.555   0.482   1.774  1.00  0.00     0.031 A 
ATOM     23  C   UNL     1       9.031   1.640   2.355  1.00  0.00     0.002 A 
BRANCH  16  24
ATOM     24  O   UNL     1       7.691  -3.421  -0.060  1.00  0.00    -0.480 OA
ATOM     25  H   UNL     1       8.627  -3.691  -0.064  1.00  0.00     0.296 HD
ENDBRANCH  16  24
ENDBRANCH  11  15
ENDBRANCH   7   8
ENDBRANCH   1   7
BRANCH   4  26
ATOM     26  C   UNL     1      -2.009   3.066  -0.670  1.00  0.00     0.099 A 
ATOM     27  N   UNL     1      -1.285   4.179  -0.985  1.00  0.00    -0.224 NA
ATOM     28  C   UNL     1      -3.384   3.127  -0.394  1.00  0.00     0.097 A 
ATOM     29  C   UNL     1      -1.897   5.361  -0.998  1.00  0.00     0.178 A 
ATOM     30  N   UNL     1      -4.012   4.338  -0.402  1.00  0.00    -0.242 NA
ATOM     31  N   UNL     1      -1.177   6.450  -1.295  1.00  0.00    -0.235 NA
ATOM     32  C   UNL     1      -3.273   5.429  -0.694  1.00  0.00     0.108 A 
ATOM     33  C   UNL     1      -1.789   7.652  -1.288  1.00  0.00     0.114 A 
ATOM     34  C   UNL     1      -3.868   6.681  -0.703  1.00  0.00     0.034 A 
ATOM     35  C   UNL     1      -3.125   7.819  -0.998  1.00  0.00     0.022 A 
BRANCH  28  36
ATOM     36  C   UNL     1      -4.287   1.986  -0.082  1.00  0.00     0.003 A 
ATOM     37  C   UNL     1      -5.404   2.181   0.751  1.00  0.00     0.014 A 
ATOM     38  C   UNL     1      -4.122   0.693  -0.607  1.00  0.00     0.014 A 
ATOM     39  C   UNL     1      -6.293   1.141   1.056  1.00  0.00     0.047 A 
ATOM     40  C   UNL     1      -5.003  -0.356  -0.293  1.00  0.00     0.047 A 
ATOM     41  C   UNL     1      -6.102  -0.132   0.533  1.00  0.00     0.122 A 
BRANCH  41  42
ATOM     42  O   UNL     1      -7.044  -1.053   0.905  1.00  0.00    -0.464 OA
BRANCH  42  43
ATOM     43  C   UNL     1      -7.040  -2.315   0.229  1.00  0.00     0.321 C 
ATOM     44  C   UNL     1      -8.422  -3.007   0.413  1.00  0.00     0.157 C 
ATOM     45  O   UNL     1      -5.982  -3.190   0.656  1.00  0.00    -0.340 OA
ATOM     46  N   UNL     1      -8.660  -3.543   1.771  1.00  0.00    -0.309 NA
ATOM     47  C   UNL     1      -6.182  -3.609   2.015  1.00  0.00     0.180 C 
ATOM     48  C   UNL     1      -7.510  -4.362   2.175  1.00  0.00     0.109 C 
ATOM     49  H   UNL     1      -9.509  -4.108   1.770  1.00  0.00     0.123 HD
ENDBRANCH  42  43
ENDBRANCH  41  42
ENDBRANCH  28  36
ENDBRANCH   4  26
TORSDOF 8
