MODEL        6USER    Run = 6USERUSER    Estimated Free Energy of Binding    =  -9.86 kcal/mol  [=(1)+(2)+(3)-(4)]USERUSER    (1) Final Intermolecular Energy     = -12.25 kcal/molUSER        vdW + Hbond + desolv Energy     = -11.80 kcal/molUSER        Electrostatic Energy            =  -0.44 kcal/molUSER        Moving Ligand-Fixed Receptor    = -12.25 kcal/molUSER        Moving Ligand-Moving Receptor   =  +0.00 kcal/molUSER    (2) Final Total Internal Energy     =  -1.64 kcal/molUSER    (3) Torsional Free Energy           =  +2.39 kcal/molUSER    (4) Unbound System's Energy         =  -1.64 kcal/molUSERUSERREMARK SMILES COc1ccc(O)c(C(=O)c2ccc(CN3CC[C@H](n4c(O)nc5ncccc54)C[C@H]3C)cc2)c1FREMARK SMILES IDX 11 1 12 2 13 3 14 4 33 5 34 6 9 7 10 8 8 9 3 10 4 11 35 12REMARK SMILES IDX 5 13 6 14 36 15 2 16 1 17 7 18 15 20 16 21 17 22 31 23 18 24REMARK SMILES IDX 30 25 19 26 32 27 20 28 21 29 29 30 23 31 28 32 24 33 27 34REMARK SMILES IDX 25 35 26 36 22 37REMARK H PARENT 7 19 22 38USER                              x       y       z     vdW  Elec       q    TypeUSER                           _______ _______ _______ _____ _____    ______ ____ROOTATOM      1  C   UNL     1      30.349  42.747  16.239 -0.29 -0.01    +0.023 A  ATOM      2  C   UNL     1      30.924  43.183  17.438 -0.27 -0.00    +0.012 A  ATOM      3  C   UNL     1      32.036  44.030  17.422 -0.29 -0.00    +0.006 A  ATOM      4  C   UNL     1      32.575  44.479  16.210 -0.31 +0.02    -0.034 A  ATOM      5  C   UNL     1      31.967  44.079  15.011 -0.28 -0.00    +0.006 A  ATOM      6  C   UNL     1      30.872  43.213  15.026 -0.21 -0.01    +0.012 A  ENDROOTBRANCH   1   7ATOM      7  C   UNL     1      29.218  41.775  16.188 -0.24 -0.07    +0.199 C  ATOM      8  O   UNL     1      29.418  40.568  16.301 -0.28 +0.03    -0.288 OA BRANCH   7   9ATOM      9  C   UNL     1      27.828  42.218  16.041 -0.18 -0.04    +0.104 A  ATOM     10  C   UNL     1      26.168  43.924  16.449 -0.23 -0.02    +0.155 A  ATOM     11  C   UNL     1      25.200  43.121  15.841 -0.30 -0.01    +0.053 A  ATOM     12  C   UNL     1      27.476  43.454  16.581 -0.14 -0.05    +0.179 A  ATOM     13  C   UNL     1      25.553  41.881  15.303 -0.30 -0.01    +0.051 A  ATOM     14  C   UNL     1      26.873  41.447  15.372 -0.23 -0.05    +0.130 A  ATOM     15  F   UNL     1      28.385  44.179  17.247 -0.01 +0.02    -0.202 F  BRANCH  10  16ATOM     16  O   UNL     1      25.737  45.140  16.915 -0.57 -0.10    -0.494 OA ATOM     17  C   UNL     1      26.044  45.341  18.296 -0.31 +0.01    +0.278 C  ENDBRANCH  10  16BRANCH  14  18ATOM     18  O   UNL     1      27.154  40.244  14.784 -0.46 +0.06    -0.507 OA ATOM     19  H   UNL     1      28.117  40.180  14.622 +0.13 -0.06    +0.293 HD ENDBRANCH  14  18ENDBRANCH   7   9ENDBRANCH   1   7BRANCH   4  20ATOM     20  C   UNL     1      33.804  45.367  16.183 -0.27 -0.10    +0.120 C  BRANCH  20  21ATOM     21  N   UNL     1      35.060  44.600  16.171 -0.12 +0.15    -0.296 NA ATOM     22  C   UNL     1      35.741  44.675  14.863 -0.25 -0.04    +0.087 C  ATOM     23  C   UNL     1      35.973  44.899  17.288 -0.34 -0.02    +0.056 C  ATOM     24  C   UNL     1      37.100  45.384  14.881 -0.41 -0.02    +0.041 C  ATOM     25  C   UNL     1      36.557  46.318  17.192 -0.33 -0.03    +0.044 C  ATOM     26  C   UNL     1      37.038  46.637  15.764 -0.39 -0.06    +0.095 C  ATOM     27  C   UNL     1      35.366  44.648  18.672 -0.41 -0.01    +0.024 C  BRANCH  26  28ATOM     28  N   UNL     1      38.266  47.416  15.743 -0.22 +0.14    -0.289 N  ATOM     29  C   UNL     1      38.570  48.374  14.815 -0.28 -0.15    +0.296 A  ATOM     30  C   UNL     1      39.334  47.353  16.611 -0.40 -0.03    +0.091 A  ATOM     31  N   UNL     1      39.745  48.914  14.988 -0.40 +0.07    -0.175 NA ATOM     32  C   UNL     1      39.633  46.611  17.754 -0.43 -0.01    +0.032 A  ATOM     33  C   UNL     1      40.236  48.290  16.102 -0.41 -0.05    +0.181 A  ATOM     34  C   UNL     1      40.879  46.861  18.324 -0.49 -0.00    +0.022 A  ATOM     35  N   UNL     1      41.442  48.541  16.652 -0.85 +0.00    -0.235 NA ATOM     36  C   UNL     1      41.717  47.815  17.752 -0.35 -0.01    +0.114 A  BRANCH  29  37ATOM     37  O   UNL     1      37.764  48.766  13.850 -0.36 +0.23    -0.480 OA ATOM     38  H   UNL     1      37.684  49.717  14.056 -0.33 -0.24    +0.296 HD ENDBRANCH  29  37ENDBRANCH  26  28ENDBRANCH  20  21ENDBRANCH   4  20TORSDOF 8TERENDMDL