MODEL        2USER    Run = 2USERUSER    Estimated Free Energy of Binding    = -13.73 kcal/mol  [=(1)+(2)+(3)-(4)]USERUSER    (1) Final Intermolecular Energy     = -16.12 kcal/molUSER        vdW + Hbond + desolv Energy     = -15.64 kcal/molUSER        Electrostatic Energy            =  -0.47 kcal/molUSER        Moving Ligand-Fixed Receptor    = -16.12 kcal/molUSER        Moving Ligand-Moving Receptor   =  +0.00 kcal/molUSER    (2) Final Total Internal Energy     =  -2.04 kcal/molUSER    (3) Torsional Free Energy           =  +2.39 kcal/molUSER    (4) Unbound System's Energy         =  -2.04 kcal/molUSERUSERREMARK SMILES C[C@@H]1CN(Cc2ccc(-c3nc4ncccc4nc3-c3ccc(O[C@@H]4CNCCO4)cc3)cc2)CC[C@@H]1n1c(O)nc2ccccc21REMARK SMILES IDX 6 1 7 2 8 3 9 4 33 5 34 6 5 7 4 8 2 9 3 10 37 11 36 12 35 13REMARK SMILES IDX 1 14 38 15 39 16 47 17 41 18 46 19 42 20 45 21 43 22 44 23REMARK SMILES IDX 40 24 10 26 11 27 19 28 12 29 18 30 13 31 17 32 14 33 16 34REMARK SMILES IDX 15 35 20 36 21 37 32 38 22 39 31 40 23 41 24 42 25 43 26 44REMARK SMILES IDX 30 45 27 46 29 47 28 48REMARK H PARENT 40 25 27 49USER                              x       y       z     vdW  Elec       q    TypeUSER                           _______ _______ _______ _____ _____    ______ ____ROOTATOM      1  C   UNL     1      32.197  42.847  17.231 -0.29 +0.01    -0.034 A  ATOM      2  C   UNL     1      33.269  41.955  17.115 -0.22 -0.00    +0.006 A  ATOM      3  C   UNL     1      34.369  42.056  17.967 -0.41 -0.00    +0.011 A  ATOM      4  C   UNL     1      34.442  43.071  18.934 -0.39 -0.00    +0.002 A  ATOM      5  C   UNL     1      33.361  43.955  19.053 -0.41 -0.00    +0.011 A  ATOM      6  C   UNL     1      32.247  43.841  18.216 -0.32 -0.00    +0.006 A  ENDROOTBRANCH   1   7ATOM      7  C   UNL     1      30.996  42.726  16.318 -0.30 -0.05    +0.120 C  BRANCH   7   8ATOM      8  N   UNL     1      29.814  42.118  16.955 -0.10 +0.08    -0.299 NA ATOM      9  C   UNL     1      27.331  41.780  16.460 -0.27 -0.01    +0.023 C  ATOM     10  C   UNL     1      28.583  42.686  16.365 -0.24 -0.03    +0.090 C  ATOM     11  C   UNL     1      27.440  40.961  17.766 -0.20 -0.00    +0.098 C  ATOM     12  C   UNL     1      28.662  40.025  17.672 -0.30 +0.01    +0.041 C  ATOM     13  C   UNL     1      29.847  40.654  16.921 -0.36 -0.01    +0.087 C  ATOM     14  C   UNL     1      27.201  40.943  15.171 -0.38 -0.00    +0.011 C  BRANCH  11  15ATOM     15  N   UNL     1      26.249  40.278  18.266 -0.10 +0.01    -0.291 N  ATOM     16  C   UNL     1      25.506  39.279  17.695 -0.16 +0.01    +0.295 A  ATOM     17  C   UNL     1      25.601  40.599  19.450 -0.23 -0.01    +0.072 A  ATOM     18  N   UNL     1      24.560  38.821  18.469 -0.33 +0.08    -0.195 NA ATOM     19  C   UNL     1      25.791  41.596  20.417 -0.39 -0.01    +0.029 A  ATOM     20  C   UNL     1      24.592  39.643  19.563 -0.27 -0.03    +0.092 A  ATOM     21  C   UNL     1      24.939  41.589  21.528 -0.55 -0.00    +0.002 A  ATOM     22  C   UNL     1      23.759  39.643  20.692 -0.32 -0.01    +0.031 A  ATOM     23  C   UNL     1      23.942  40.623  21.672 -0.47 -0.00    +0.002 A  BRANCH  16  24ATOM     24  O   UNL     1      25.664  38.790  16.484 -0.63 -0.24    -0.480 OA ATOM     25  H   UNL     1      24.800  38.364  16.342 -0.14 -0.04    +0.296 HD ENDBRANCH  16  24ENDBRANCH  11  15ENDBRANCH   7   8ENDBRANCH   1   7BRANCH   4  26ATOM     26  C   UNL     1      35.618  43.174  19.805 -0.36 -0.01    +0.099 A  ATOM     27  N   UNL     1      35.424  42.578  21.017 -0.28 -0.02    -0.224 NA ATOM     28  C   UNL     1      36.826  43.808  19.473 -0.29 -0.01    +0.097 A  ATOM     29  C   UNL     1      36.399  42.629  21.922 -0.27 +0.01    +0.178 A  ATOM     30  N   UNL     1      37.825  43.866  20.401 -0.20 +0.01    -0.242 NA ATOM     31  N   UNL     1      36.196  42.054  23.113 -0.29 -0.02    -0.235 NA ATOM     32  C   UNL     1      37.604  43.290  21.601 -0.31 +0.00    +0.108 A  ATOM     33  C   UNL     1      37.174  42.123  24.040 -0.33 +0.00    +0.114 A  ATOM     34  C   UNL     1      38.587  43.335  22.577 -0.29 +0.00    +0.034 A  ATOM     35  C   UNL     1      38.380  42.751  23.822 -0.27 +0.00    +0.022 A  BRANCH  28  36ATOM     36  C   UNL     1      37.173  44.452  18.177 -0.34 -0.00    +0.003 A  ATOM     37  C   UNL     1      36.824  43.828  16.966 -0.28 -0.00    +0.014 A  ATOM     38  C   UNL     1      37.813  45.699  18.072 -0.32 -0.00    +0.014 A  ATOM     39  C   UNL     1      37.113  44.407  15.722 -0.31 -0.02    +0.047 A  ATOM     40  C   UNL     1      38.116  46.277  16.827 -0.36 -0.02    +0.047 A  ATOM     41  C   UNL     1      37.756  45.637  15.644 -0.28 -0.04    +0.122 A  BRANCH  41  42ATOM     42  O   UNL     1      37.973  46.091  14.371 -0.11 +0.16    -0.464 OA BRANCH  42  43ATOM     43  C   UNL     1      37.320  47.304  13.981 -0.32 -0.15    +0.321 C  ATOM     44  C   UNL     1      35.779  47.092  13.994 -0.34 -0.12    +0.157 C  ATOM     45  O   UNL     1      37.746  47.796  12.698 -0.87 +0.03    -0.340 OA ATOM     46  N   UNL     1      35.267  46.259  12.884 -0.25 +0.20    -0.309 NA ATOM     47  C   UNL     1      37.329  46.910  11.647 -0.48 -0.05    +0.180 C  ATOM     48  C   UNL     1      35.801  46.768  11.614 -0.37 -0.06    +0.109 C  ATOM     49  H   UNL     1      34.248  46.293  12.874 -0.34 -0.10    +0.123 HD ENDBRANCH  42  43ENDBRANCH  41  42ENDBRANCH  28  36ENDBRANCH   4  26TORSDOF 8TERENDMDL