MODEL        1USER    Run = 1USERUSER    Estimated Free Energy of Binding    = -11.38 kcal/mol  [=(1)+(2)+(3)-(4)]USERUSER    (1) Final Intermolecular Energy     = -13.76 kcal/molUSER        vdW + Hbond + desolv Energy     = -13.37 kcal/molUSER        Electrostatic Energy            =  -0.39 kcal/molUSER        Moving Ligand-Fixed Receptor    = -13.76 kcal/molUSER        Moving Ligand-Moving Receptor   =  +0.00 kcal/molUSER    (2) Final Total Internal Energy     =  -4.35 kcal/molUSER    (3) Torsional Free Energy           =  +2.39 kcal/molUSER    (4) Unbound System's Energy         =  -4.35 kcal/molUSERUSERREMARK SMILES NS(=O)(=O)c1ccc(-c2nc3ccccc3nc2-c2ccc(CN3CCC(n4c(O)nc5ncccc54)CC3)cc2)cc1REMARK SMILES IDX 19 1 20 2 21 3 22 4 40 5 41 6 18 7 9 8 10 9 11 10 17 11REMARK SMILES IDX 12 12 16 13 13 14 15 15 14 16 8 17 5 18 6 19 43 20 7 21REMARK SMILES IDX 42 22 2 23 3 24 4 25 1 26 23 29 24 30 25 31 39 32 26 33REMARK SMILES IDX 38 34 27 35 28 36 29 37 37 38 31 39 36 40 32 41 35 42 33 43REMARK SMILES IDX 34 44 30 45REMARK H PARENT 1 27 1 28 30 46USER                              x       y       z     vdW  Elec       q    TypeUSER                           _______ _______ _______ _____ _____    ______ ____ROOTATOM      1  C   UNL     1      31.409  39.576  19.512 -0.40 +0.00    +0.002 A  ATOM      2  C   UNL     1      31.171  38.423  18.746 -0.46 +0.00    +0.011 A  ATOM      3  C   UNL     1      30.688  37.252  19.337 -0.21 +0.00    +0.006 A  ATOM      4  C   UNL     1      30.431  37.202  20.712 -0.40 -0.00    -0.034 A  ATOM      5  C   UNL     1      30.678  38.343  21.486 -0.33 +0.00    +0.006 A  ATOM      6  C   UNL     1      31.171  39.509  20.894 -0.10 +0.00    +0.011 A  ENDROOTBRANCH   1   7ATOM      7  C   UNL     1      31.903  40.821  18.902 -0.31 -0.00    +0.097 A  ATOM      8  C   UNL     1      31.252  41.520  17.873 -0.25 -0.02    +0.097 A  ATOM      9  N   UNL     1      31.803  42.638  17.322 -0.15 +0.07    -0.244 NA ATOM     10  C   UNL     1      32.982  43.057  17.818 -0.27 -0.02    +0.089 A  ATOM     11  N   UNL     1      33.088  41.259  19.413 -0.31 -0.03    -0.244 NA ATOM     12  C   UNL     1      33.581  44.196  17.294 -0.29 -0.01    +0.030 A  ATOM     13  C   UNL     1      33.626  42.365  18.871 -0.34 -0.01    +0.089 A  ATOM     14  C   UNL     1      34.803  44.666  17.783 -0.32 -0.00    +0.002 A  ATOM     15  C   UNL     1      34.841  42.839  19.348 -0.40 -0.00    +0.030 A  ATOM     16  C   UNL     1      35.437  43.982  18.813 -0.35 -0.00    +0.002 A  BRANCH   8  17ATOM     17  C   UNL     1      29.939  41.158  17.307 -0.29 -0.00    +0.002 A  ATOM     18  C   UNL     1      27.449  40.477  16.190 -0.24 +0.00    +0.082 A  ATOM     19  C   UNL     1      27.593  40.532  17.578 -0.22 +0.00    +0.022 A  ATOM     20  C   UNL     1      28.526  40.754  15.350 -0.35 -0.01    +0.022 A  ATOM     21  C   UNL     1      28.830  40.880  18.128 -0.08 -0.00    +0.012 A  ATOM     22  C   UNL     1      29.760  41.101  15.910 -0.40 -0.00    +0.012 A  BRANCH  18  23ATOM     23  S   UNL     1      25.874  40.040  15.504 -0.38 +0.01    +0.238 S  ATOM     24  O   UNL     1      26.084  39.513  14.177 -0.92 -0.01    -0.207 OA ATOM     25  O   UNL     1      24.938  41.103  15.781 -0.23 +0.01    -0.207 OA BRANCH  23  26ATOM     26  N   UNL     1      25.410  38.768  16.507 -0.77 -0.07    -0.225 NA ATOM     27  H   UNL     1      26.131  38.504  17.180 +0.11 +0.13    +0.137 HD ATOM     28  H   UNL     1      24.538  39.029  16.976 -0.03 -0.03    +0.137 HD ENDBRANCH  23  26ENDBRANCH  18  23ENDBRANCH   8  17ENDBRANCH   1   7BRANCH   4  29ATOM     29  C   UNL     1      29.905  35.933  21.350 -0.07 -0.00    +0.120 C  BRANCH  29  30ATOM     30  N   UNL     1      28.479  36.011  21.713 -0.15 +0.06    -0.299 NA ATOM     31  C   UNL     1      28.184  37.158  22.587 -0.30 -0.01    +0.087 C  ATOM     32  C   UNL     1      27.608  35.909  20.539 -0.30 -0.04    +0.087 C  ATOM     33  C   UNL     1      26.901  37.905  22.220 -0.33 -0.02    +0.041 C  ATOM     34  C   UNL     1      27.400  37.232  19.807 -0.30 -0.01    +0.041 C  ATOM     35  C   UNL     1      26.996  38.367  20.761 -0.28 -0.03    +0.095 C  BRANCH  35  36ATOM     36  N   UNL     1      25.815  39.098  20.321 -0.13 +0.12    -0.289 N  ATOM     37  C   UNL     1      24.997  38.717  19.286 -0.14 -0.17    +0.296 A  ATOM     38  C   UNL     1      25.293  40.264  20.828 -0.32 -0.02    +0.091 A  ATOM     39  N   UNL     1      24.013  39.543  19.070 -0.23 +0.06    -0.175 NA ATOM     40  C   UNL     1      25.632  41.125  21.874 -0.20 -0.00    +0.032 A  ATOM     41  C   UNL     1      24.182  40.514  20.020 -0.24 -0.05    +0.181 A  ATOM     42  C   UNL     1      24.799  42.230  22.040 -0.59 -0.01    +0.022 A  ATOM     43  N   UNL     1      23.370  41.584  20.175 -0.14 +0.05    -0.235 NA ATOM     44  C   UNL     1      23.715  42.405  21.187 -0.39 -0.03    +0.114 A  BRANCH  37  45ATOM     45  O   UNL     1      25.159  37.623  18.566 -0.23 +0.31    -0.480 OA ATOM     46  H   UNL     1      24.302  37.173  18.698 -0.34 -0.62    +0.296 HD ENDBRANCH  37  45ENDBRANCH  35  36ENDBRANCH  29  30ENDBRANCH   4  29TORSDOF 8TERENDMDL