MODEL        8USER    Run = 8USERUSER    Estimated Free Energy of Binding    =  -9.00 kcal/mol  [=(1)+(2)+(3)-(4)]USERUSER    (1) Final Intermolecular Energy     = -10.79 kcal/molUSER        vdW + Hbond + desolv Energy     = -10.26 kcal/molUSER        Electrostatic Energy            =  -0.53 kcal/molUSER        Moving Ligand-Fixed Receptor    = -10.79 kcal/molUSER        Moving Ligand-Moving Receptor   =  +0.00 kcal/molUSER    (2) Final Total Internal Energy     =  -1.45 kcal/molUSER    (3) Torsional Free Energy           =  +1.79 kcal/molUSER    (4) Unbound System's Energy         =  -1.45 kcal/molUSERUSERREMARK SMILES COc1ccc(O)c(C(=O)c2ccc(C(=O)N[C@@H]3CCCNC3)cc2C)c1FREMARK SMILES IDX 11 1 12 2 13 3 14 4 24 5 25 6 26 7 9 8 10 9 8 10 3 11 4 12REMARK SMILES IDX 27 13 5 14 6 15 28 16 2 17 1 18 7 19 15 21 17 22 16 23 18 25REMARK SMILES IDX 19 26 23 27 20 28 22 29 21 30REMARK H PARENT 7 20 17 24 22 31USER                              x       y       z     vdW  Elec       q    TypeUSER                           _______ _______ _______ _____ _____    ______ ____ROOTATOM      1  C   UNL     1      38.324  28.783  20.379 -0.24 +0.00    +0.026 A  ATOM      2  C   UNL     1      37.765  29.998  20.804 -0.36 +0.00    +0.013 A  ATOM      3  C   UNL     1      36.519  30.014  21.434 -0.38 -0.00    +0.014 A  ATOM      4  C   UNL     1      35.816  28.818  21.622 -0.35 -0.01    +0.040 A  ATOM      5  C   UNL     1      36.381  27.605  21.199 -0.29 -0.01    +0.018 A  ATOM      6  C   UNL     1      37.638  27.571  20.572 -0.15 +0.01    -0.039 A  ATOM      7  C   UNL     1      38.196  26.255  20.109 -0.08 -0.01    +0.045 C  ENDROOTBRANCH   1   8ATOM      8  C   UNL     1      39.627  28.811  19.680 -0.20 +0.08    +0.200 C  ATOM      9  O   UNL     1      40.656  28.719  20.348 -0.11 -0.31    -0.288 OA BRANCH   8  10ATOM     10  C   UNL     1      39.738  28.885  18.202 -0.23 +0.04    +0.104 A  ATOM     11  C   UNL     1      38.780  28.683  15.965 -0.22 +0.01    +0.155 A  ATOM     12  C   UNL     1      40.012  29.026  15.407 -0.30 -0.00    +0.053 A  ATOM     13  C   UNL     1      38.653  28.620  17.362 -0.17 +0.02    +0.179 A  ATOM     14  C   UNL     1      41.099  29.314  16.237 -0.23 +0.01    +0.051 A  ATOM     15  C   UNL     1      40.957  29.254  17.621 -0.26 +0.08    +0.130 A  ATOM     16  F   UNL     1      37.451  28.318  17.879 -0.05 +0.01    -0.202 F  BRANCH  11  17ATOM     17  O   UNL     1      37.644  28.390  15.259 -0.64 +0.01    -0.494 OA ATOM     18  C   UNL     1      37.418  27.028  14.921 -0.26 -0.09    +0.278 C  ENDBRANCH  11  17BRANCH  15  19ATOM     19  O   UNL     1      42.072  29.569  18.354 -0.70 -0.75    -0.507 OA ATOM     20  H   UNL     1      41.783  30.105  19.128 -0.45 +0.44    +0.293 HD ENDBRANCH  15  19ENDBRANCH   8  10ENDBRANCH   1   8BRANCH   4  21ATOM     21  C   UNL     1      34.484  28.779  22.287 -0.29 -0.05    +0.251 C  ATOM     22  N   UNL     1      33.538  29.670  21.823 -0.24 +0.04    -0.348 N  ATOM     23  O   UNL     1      34.265  27.967  23.177 -0.26 +0.04    -0.269 OA ATOM     24  H   UNL     1      33.755  30.283  21.050 -0.50 -0.07    +0.164 HD BRANCH  22  25ATOM     25  C   UNL     1      32.217  29.761  22.433 -0.49 +0.00    +0.096 C  ATOM     26  C   UNL     1      31.291  30.626  21.572 -0.57 -0.00    +0.027 C  ATOM     27  C   UNL     1      32.291  30.322  23.872 -0.48 +0.02    +0.105 C  ATOM     28  C   UNL     1      29.943  30.824  22.259 -0.60 -0.00    +0.017 C  ATOM     29  N   UNL     1      30.970  30.506  24.492 -0.73 -0.15    -0.315 NA ATOM     30  C   UNL     1      30.116  31.368  23.675 -0.51 +0.03    +0.081 C  ATOM     31  H   UNL     1      30.531  29.589  24.592 +0.10 +0.08    +0.122 HD ENDBRANCH  22  25ENDBRANCH   4  21TORSDOF 6TERENDMDL