MODEL        9USER    Run = 9USERUSER    Estimated Free Energy of Binding    =  -8.54 kcal/mol  [=(1)+(2)+(3)-(4)]USERUSER    (1) Final Intermolecular Energy     = -10.33 kcal/molUSER        vdW + Hbond + desolv Energy     = -10.05 kcal/molUSER        Electrostatic Energy            =  -0.28 kcal/molUSER        Moving Ligand-Fixed Receptor    = -10.33 kcal/molUSER        Moving Ligand-Moving Receptor   =  +0.00 kcal/molUSER    (2) Final Total Internal Energy     =  -1.27 kcal/molUSER    (3) Torsional Free Energy           =  +1.79 kcal/molUSER    (4) Unbound System's Energy         =  -1.27 kcal/molUSERUSERREMARK SMILES COc1ccc(O)c(C(=O)c2ccc(C(=O)N[C@H]3CNC[C@@H](F)C3)cc2)c1FREMARK SMILES IDX 11 1 12 2 13 3 14 4 25 5 26 6 9 7 10 8 8 9 3 10 4 11 27 12REMARK SMILES IDX 5 13 6 14 28 15 2 16 1 17 7 18 15 20 17 21 16 22 18 24 19 25REMARK SMILES IDX 24 26 20 27 22 28 21 29 23 31REMARK H PARENT 7 19 17 23 20 30USER                              x       y       z     vdW  Elec       q    TypeUSER                           _______ _______ _______ _____ _____    ______ ____ROOTATOM      1  C   UNL     1      41.798  46.890  19.222 -0.46 +0.00    +0.023 A  ATOM      2  C   UNL     1      40.795  45.913  19.175 -0.45 +0.00    +0.013 A  ATOM      3  C   UNL     1      39.949  45.833  18.061 -0.45 -0.00    +0.014 A  ATOM      4  C   UNL     1      40.120  46.711  16.983 -0.46 -0.01    +0.039 A  ATOM      5  C   UNL     1      41.129  47.682  17.033 -0.45 -0.00    +0.014 A  ATOM      6  C   UNL     1      41.974  47.763  18.143 -0.46 -0.00    +0.013 A  ENDROOTBRANCH   1   7ATOM      7  C   UNL     1      42.733  46.989  20.367 -0.35 +0.05    +0.199 C  ATOM      8  O   UNL     1      43.896  47.336  20.152 -0.38 -0.14    -0.288 OA BRANCH   7   9ATOM      9  C   UNL     1      42.360  46.635  21.755 -0.25 +0.02    +0.104 A  ATOM     10  C   UNL     1      41.514  45.057  23.412 -0.09 +0.01    +0.155 A  ATOM     11  C   UNL     1      41.682  46.018  24.411 -0.09 +0.00    +0.053 A  ATOM     12  C   UNL     1      41.849  45.380  22.088 -0.16 +0.02    +0.179 A  ATOM     13  C   UNL     1      42.163  47.289  24.085 -0.19 +0.01    +0.051 A  ATOM     14  C   UNL     1      42.485  47.597  22.766 -0.24 +0.02    +0.130 A  ATOM     15  F   UNL     1      41.649  44.459  21.132 -0.08 -0.03    -0.202 F  BRANCH  10  16ATOM     16  O   UNL     1      41.040  43.787  23.606 -0.02 -0.01    -0.494 OA ATOM     17  C   UNL     1      39.713  43.513  23.177 -0.15 +0.01    +0.278 C  ENDBRANCH  10  16BRANCH  14  18ATOM     18  O   UNL     1      42.921  48.874  22.530 -0.67 -0.11    -0.507 OA ATOM     19  H   UNL     1      43.473  48.859  21.714 -0.42 -0.05    +0.293 HD ENDBRANCH  14  18ENDBRANCH   7   9ENDBRANCH   1   7BRANCH   4  20ATOM     20  C   UNL     1      39.244  46.667  15.781 -0.32 -0.07    +0.251 C  ATOM     21  N   UNL     1      38.065  47.381  15.854 -0.17 +0.18    -0.348 N  ATOM     22  O   UNL     1      39.572  46.002  14.805 -0.31 +0.05    -0.269 OA ATOM     23  H   UNL     1      37.788  47.800  16.730 +0.10 -0.12    +0.164 HD BRANCH  21  24ATOM     24  C   UNL     1      37.115  47.396  14.745 -0.45 -0.06    +0.099 C  ATOM     25  C   UNL     1      37.745  47.976  13.462 -0.48 -0.03    +0.106 C  ATOM     26  C   UNL     1      36.539  45.991  14.493 -0.42 -0.03    +0.065 C  ATOM     27  N   UNL     1      36.804  48.112  12.342 -0.92 +0.08    -0.312 NA ATOM     28  C   UNL     1      36.176  45.762  13.031 -0.43 -0.08    +0.182 C  ATOM     29  C   UNL     1      35.773  47.060  12.328 -0.57 -0.07    +0.118 C  ATOM     30  H   UNL     1      37.337  48.066  11.472 -0.15 +0.00    +0.122 HD ATOM     31  F   UNL     1      37.275  45.256  12.393 -0.11 +0.08    -0.246 F  ENDBRANCH  21  24ENDBRANCH   4  20TORSDOF 6TERENDMDL