REMARK SMILES COc1ccc(O)c(C(=O)c2ccc(C(=O)N[C@H]3CNC[C@@H](F)C3)cc2)c1F
REMARK SMILES IDX 11 1 12 2 13 3 14 4 25 5 26 6 9 7 10 8 8 9 3 10 4 11 27 12
REMARK SMILES IDX 5 13 6 14 28 15 2 16 1 17 7 18 15 20 17 21 16 22 18 24 19 25
REMARK SMILES IDX 24 26 20 27 22 28 21 29 23 31
REMARK H PARENT 7 19 17 23 20 30
ROOT
ATOM      1  C   UNL     1       1.803   1.493   0.968  1.00  0.00     0.023 A 
ATOM      2  C   UNL     1       1.198   0.886  -0.140  1.00  0.00     0.013 A 
ATOM      3  C   UNL     1      -0.150   0.510  -0.082  1.00  0.00     0.014 A 
ATOM      4  C   UNL     1      -0.902   0.763   1.073  1.00  0.00     0.039 A 
ATOM      5  C   UNL     1      -0.293   1.376   2.176  1.00  0.00     0.014 A 
ATOM      6  C   UNL     1       1.051   1.752   2.119  1.00  0.00     0.013 A 
ENDROOT
BRANCH   1   7
ATOM      7  C   UNL     1       3.217   1.934   0.937  1.00  0.00     0.199 C 
ATOM      8  O   UNL     1       3.509   3.019   1.443  1.00  0.00    -0.288 OA
BRANCH   7   9
ATOM      9  C   UNL     1       4.295   1.164   0.277  1.00  0.00     0.104 A 
ATOM     10  C   UNL     1       5.299  -0.944  -0.431  1.00  0.00     0.155 A 
ATOM     11  C   UNL     1       6.363  -0.243  -1.002  1.00  0.00     0.053 A 
ATOM     12  C   UNL     1       4.275  -0.230   0.211  1.00  0.00     0.179 A 
ATOM     13  C   UNL     1       6.410   1.151  -0.915  1.00  0.00     0.051 A 
ATOM     14  C   UNL     1       5.391   1.845  -0.268  1.00  0.00     0.130 A 
ATOM     15  F   UNL     1       3.276  -0.918   0.786  1.00  0.00    -0.202 F 
BRANCH  10  16
ATOM     16  O   UNL     1       5.151  -2.305  -0.440  1.00  0.00    -0.494 OA
ATOM     17  C   UNL     1       6.200  -3.072  -1.016  1.00  0.00     0.278 C 
ENDBRANCH  10  16
BRANCH  14  18
ATOM     18  O   UNL     1       5.530   3.206  -0.203  1.00  0.00    -0.507 OA
ATOM     19  H   UNL     1       4.875   3.546   0.450  1.00  0.00     0.293 HD
ENDBRANCH  14  18
ENDBRANCH   7   9
ENDBRANCH   1   7
BRANCH   4  20
ATOM     20  C   UNL     1      -2.335   0.378   1.183  1.00  0.00     0.251 C 
ATOM     21  N   UNL     1      -3.064   0.381   0.011  1.00  0.00    -0.348 N 
ATOM     22  O   UNL     1      -2.816   0.103   2.276  1.00  0.00    -0.269 OA
ATOM     23  H   UNL     1      -2.648   0.744  -0.835  1.00  0.00     0.164 HD
BRANCH  21  24
ATOM     24  C   UNL     1      -4.484   0.041  -0.003  1.00  0.00     0.099 C 
ATOM     25  C   UNL     1      -5.171   0.513  -1.300  1.00  0.00     0.106 C 
ATOM     26  C   UNL     1      -4.691  -1.468   0.216  1.00  0.00     0.065 C 
ATOM     27  N   UNL     1      -6.623   0.290  -1.324  1.00  0.00    -0.312 NA
ATOM     28  C   UNL     1      -5.941  -1.993  -0.480  1.00  0.00     0.182 C 
ATOM     29  C   UNL     1      -7.029  -0.923  -0.594  1.00  0.00     0.118 C 
ATOM     30  H   UNL     1      -6.915   0.205  -2.299  1.00  0.00     0.122 HD
ATOM     31  F   UNL     1      -5.593  -2.383  -1.745  1.00  0.00    -0.246 F 
ENDBRANCH  21  24
ENDBRANCH   4  20
TORSDOF 6
