REMARK SMILES COc1ccc(O)c(C(=O)c2ccc(C(=O)N[C@H]3CCCNC3)cc2)c1
REMARK SMILES IDX 11 1 12 2 13 3 14 4 24 5 25 6 9 7 10 8 8 9 3 10 4 11 26 12
REMARK SMILES IDX 5 13 6 14 2 15 1 16 7 17 15 19 17 20 16 21 18 23 19 24 23 25
REMARK SMILES IDX 20 26 22 27 21 28
REMARK H PARENT 7 18 17 22 22 29
ROOT
ATOM      1  C   UNL     1       1.252  -0.774   1.181  1.00  0.00     0.023 A 
ATOM      2  C   UNL     1       1.327  -1.358  -0.088  1.00  0.00     0.013 A 
ATOM      3  C   UNL     1       0.265  -1.209  -0.984  1.00  0.00     0.014 A 
ATOM      4  C   UNL     1      -0.884  -0.500  -0.608  1.00  0.00     0.039 A 
ATOM      5  C   UNL     1      -0.958   0.080   0.664  1.00  0.00     0.014 A 
ATOM      6  C   UNL     1       0.104  -0.068   1.561  1.00  0.00     0.013 A 
ENDROOT
BRANCH   1   7
ATOM      7  C   UNL     1       2.347  -0.925   2.168  1.00  0.00     0.196 C 
ATOM      8  O   UNL     1       2.060  -1.150   3.344  1.00  0.00    -0.288 OA
BRANCH   7   9
ATOM      9  C   UNL     1       3.780  -0.839   1.789  1.00  0.00     0.068 A 
ATOM     10  C   UNL     1       5.555  -0.011   0.346  1.00  0.00     0.119 A 
ATOM     11  C   UNL     1       6.495  -0.709   1.106  1.00  0.00     0.050 A 
ATOM     12  C   UNL     1       4.201  -0.075   0.692  1.00  0.00     0.062 A 
ATOM     13  C   UNL     1       6.086  -1.452   2.217  1.00  0.00     0.051 A 
ATOM     14  C   UNL     1       4.739  -1.504   2.563  1.00  0.00     0.127 A 
BRANCH  10  15
ATOM     15  O   UNL     1       5.823   0.763  -0.750  1.00  0.00    -0.497 OA
ATOM     16  C   UNL     1       7.189   0.897  -1.127  1.00  0.00     0.278 C 
ENDBRANCH  10  15
BRANCH  14  17
ATOM     17  O   UNL     1       4.423  -2.228   3.681  1.00  0.00    -0.507 OA
ATOM     18  H   UNL     1       3.492  -2.015   3.919  1.00  0.00     0.293 HD
ENDBRANCH  14  17
ENDBRANCH   7   9
ENDBRANCH   1   7
BRANCH   4  19
ATOM     19  C   UNL     1      -1.982  -0.366  -1.603  1.00  0.00     0.251 C 
ATOM     20  N   UNL     1      -3.266  -0.348  -1.101  1.00  0.00    -0.348 N 
ATOM     21  O   UNL     1      -1.716  -0.292  -2.797  1.00  0.00    -0.269 OA
ATOM     22  H   UNL     1      -3.397  -0.262  -0.103  1.00  0.00     0.164 HD
BRANCH  20  23
ATOM     23  C   UNL     1      -4.392   0.091  -1.924  1.00  0.00     0.096 C 
ATOM     24  C   UNL     1      -5.690  -0.594  -1.465  1.00  0.00     0.027 C 
ATOM     25  C   UNL     1      -4.526   1.625  -1.841  1.00  0.00     0.105 C 
ATOM     26  C   UNL     1      -6.611   0.343  -0.681  1.00  0.00     0.017 C 
ATOM     27  N   UNL     1      -4.810   2.087  -0.470  1.00  0.00    -0.315 NA
ATOM     28  C   UNL     1      -5.832   1.297   0.220  1.00  0.00     0.081 C 
ATOM     29  H   UNL     1      -5.090   3.067  -0.506  1.00  0.00     0.122 HD
ENDBRANCH  20  23
ENDBRANCH   4  19
TORSDOF 6
