MODEL        2USER    Run = 2USERUSER    Estimated Free Energy of Binding    =  -8.91 kcal/mol  [=(1)+(2)+(3)-(4)]USERUSER    (1) Final Intermolecular Energy     = -11.00 kcal/molUSER        vdW + Hbond + desolv Energy     = -10.62 kcal/molUSER        Electrostatic Energy            =  -0.37 kcal/molUSER        Moving Ligand-Fixed Receptor    = -11.00 kcal/molUSER        Moving Ligand-Moving Receptor   =  +0.00 kcal/molUSER    (2) Final Total Internal Energy     =  -1.77 kcal/molUSER    (3) Torsional Free Energy           =  +2.09 kcal/molUSER    (4) Unbound System's Energy         =  -1.77 kcal/molUSERUSERREMARK SMILES COc1ccc(O)c(C(=O)c2ccc(C(=O)N[C@@H]3CCCNC3)cc2O)c1FREMARK SMILES IDX 11 1 12 2 13 3 14 4 24 5 25 6 9 7 10 8 8 9 3 10 4 11 27 12REMARK SMILES IDX 5 13 6 14 28 15 2 16 1 17 7 18 26 20 15 22 17 23 16 24 18 26REMARK SMILES IDX 19 27 23 28 20 29 22 30 21 31REMARK H PARENT 7 19 26 21 17 25 22 32USER                              x       y       z     vdW  Elec       q    TypeUSER                           _______ _______ _______ _____ _____    ______ ____ROOTATOM      1  C   UNL     1      41.414  45.975  19.772 -0.38 +0.01    +0.065 A  ATOM      2  C   UNL     1      40.224  45.317  19.436 -0.42 -0.00    +0.017 A  ATOM      3  C   UNL     1      39.585  45.594  18.221 -0.43 -0.00    +0.015 A  ATOM      4  C   UNL     1      40.124  46.529  17.326 -0.45 -0.01    +0.043 A  ATOM      5  C   UNL     1      41.296  47.208  17.669 -0.42 -0.01    +0.060 A  ATOM      6  C   UNL     1      41.931  46.929  18.880 -0.44 +0.01    +0.127 A  ENDROOTBRANCH   1   7ATOM      7  C   UNL     1      42.124  45.704  21.054 -0.25 +0.04    +0.203 C  ATOM      8  O   UNL     1      42.600  44.588  21.262 -0.16 -0.08    -0.288 OA BRANCH   7   9ATOM      9  C   UNL     1      42.270  46.734  22.089 -0.23 +0.02    +0.104 A  ATOM     10  C   UNL     1      41.289  47.955  23.942 -0.23 +0.02    +0.155 A  ATOM     11  C   UNL     1      42.456  48.720  24.038 -0.36 +0.01    +0.053 A  ATOM     12  C   UNL     1      41.207  46.964  22.957 -0.13 +0.02    +0.179 A  ATOM     13  C   UNL     1      43.526  48.494  23.162 -0.30 +0.01    +0.051 A  ATOM     14  C   UNL     1      43.431  47.503  22.188 -0.27 +0.03    +0.130 A  ATOM     15  F   UNL     1      40.100  46.208  22.872 -0.06 -0.02    -0.202 F  BRANCH  10  16ATOM     16  O   UNL     1      40.191  48.081  24.750 -0.09 -0.06    -0.494 OA ATOM     17  C   UNL     1      38.970  48.479  24.141 -0.26 +0.04    +0.278 C  ENDBRANCH  10  16BRANCH  14  18ATOM     18  O   UNL     1      44.473  47.276  21.335 -0.52 -0.36    -0.507 OA ATOM     19  H   UNL     1      44.525  47.994  20.682 -0.37 +0.07    +0.293 HD ENDBRANCH  14  18ENDBRANCH   7   9ENDBRANCH   1   7BRANCH   6  20ATOM     20  O   UNL     1      43.073  47.646  19.132 -0.29 -0.05    -0.507 OA ATOM     21  H   UNL     1      42.954  48.103  19.997 -0.30 -0.02    +0.293 HD ENDBRANCH   6  20BRANCH   4  22ATOM     22  C   UNL     1      39.395  46.777  16.051 -0.33 -0.06    +0.251 C  ATOM     23  N   UNL     1      38.041  46.518  16.041 -0.15 +0.15    -0.348 N  ATOM     24  O   UNL     1      40.000  47.213  15.077 -0.33 +0.05    -0.269 OA ATOM     25  H   UNL     1      37.579  46.163  16.866 +0.11 -0.07    +0.164 HD BRANCH  23  26ATOM     26  C   UNL     1      37.251  46.655  14.823 -0.40 -0.05    +0.096 C  ATOM     27  C   UNL     1      37.622  45.572  13.810 -0.48 -0.01    +0.027 C  ATOM     28  C   UNL     1      37.413  48.061  14.186 -0.53 -0.06    +0.105 C  ATOM     29  C   UNL     1      36.800  45.702  12.524 -0.64 -0.01    +0.017 C  ATOM     30  N   UNL     1      37.141  48.125  12.742 -0.87 +0.07    -0.315 NA ATOM     31  C   UNL     1      36.200  47.095  12.322 -0.70 -0.04    +0.081 C  ATOM     32  H   UNL     1      36.780  49.051  12.511 +0.05 -0.02    +0.122 HD ENDBRANCH  23  26ENDBRANCH   4  22TORSDOF 7TERENDMDL