MODEL        8USER    Run = 8USERUSER    Estimated Free Energy of Binding    =  -8.68 kcal/mol  [=(1)+(2)+(3)-(4)]USERUSER    (1) Final Intermolecular Energy     =  -9.57 kcal/molUSER        vdW + Hbond + desolv Energy     =  -9.43 kcal/molUSER        Electrostatic Energy            =  -0.14 kcal/molUSER        Moving Ligand-Fixed Receptor    =  -9.57 kcal/molUSER        Moving Ligand-Moving Receptor   =  +0.00 kcal/molUSER    (2) Final Total Internal Energy     =  -0.79 kcal/molUSER    (3) Torsional Free Energy           =  +0.89 kcal/molUSER    (4) Unbound System's Energy         =  -0.79 kcal/molUSERUSERREMARK SMILES CO[C@H]1CC=C(F)C=C1[C@H]1c2cc(-c3n[nH]c4ccccc34)[nH]c21REMARK SMILES IDX 3 1 4 2 5 3 6 4 7 5 8 6 9 7 2 8 1 9 10 10 11 11 24 12 12 13REMARK SMILES IDX 23 14 13 15 14 17 15 18 22 19 16 20 21 21 17 22 20 23 18 24REMARK SMILES IDX 19 25REMARK H PARENT 23 16 16 26USER                              x       y       z     vdW  Elec       q    TypeUSER                           _______ _______ _______ _____ _____    ______ ____ROOTATOM      1  C   UNL     1      36.341  47.167  13.644 -0.48 -0.09    +0.149 C  ATOM      2  C   UNL     1      35.755  46.831  12.246 -0.60 -0.04    +0.067 C  ATOM      3  C   UNL     1      36.366  45.623  11.593 -0.44 -0.01    +0.015 C  ATOM      4  C   UNL     1      37.046  44.722  12.307 -0.43 -0.04    +0.119 C  ATOM      5  F   UNL     1      37.553  43.628  11.704 -0.16 +0.06    -0.207 F  ATOM      6  C   UNL     1      37.189  44.830  13.733 -0.40 -0.01    +0.042 C  ATOM      7  C   UNL     1      36.882  45.959  14.406 -0.45 +0.01    -0.025 C  ENDROOTBRANCH   1   8ATOM      8  O   UNL     1      37.429  48.092  13.482 -0.64 +0.14    -0.377 OA ATOM      9  C   UNL     1      37.298  49.247  14.297 -0.19 -0.15    +0.195 C  ENDBRANCH   1   8BRANCH   7  10ATOM     10  C   UNL     1      36.952  46.094  15.873 -0.36 -0.05    +0.097 C  ATOM     11  C   UNL     1      38.105  45.598  16.592 -0.36 +0.00    -0.012 A  ATOM     12  C   UNL     1      37.914  47.026  16.441 -0.35 -0.02    +0.031 A  ATOM     13  C   UNL     1      39.271  45.445  17.314 -0.33 -0.01    +0.035 A  ATOM     14  N   UNL     1      38.969  47.568  17.073 -0.10 +0.14    -0.356 N  ATOM     15  C   UNL     1      39.807  46.658  17.619 -0.42 -0.01    +0.067 A  ATOM     16  H   UNL     1      39.147  48.561  17.141 +0.13 -0.09    +0.166 HD BRANCH  15  17ATOM     17  C   UNL     1      41.087  47.046  18.403 -0.41 -0.01    +0.116 A  ATOM     18  N   UNL     1      41.825  48.076  17.964 -0.55 +0.00    -0.173 NA ATOM     19  C   UNL     1      41.631  46.453  19.576 -0.42 +0.00    +0.029 A  ATOM     20  N   UNL     1      42.835  48.138  18.845 -0.32 -0.00    -0.277 N  ATOM     21  C   UNL     1      41.310  45.393  20.447 -0.36 +0.00    +0.013 A  ATOM     22  C   UNL     1      42.778  47.198  19.838 -0.42 +0.01    +0.066 A  ATOM     23  C   UNL     1      42.147  45.125  21.538 -0.28 +0.00    +0.001 A  ATOM     24  C   UNL     1      43.629  46.948  20.920 -0.34 +0.01    +0.028 A  ATOM     25  C   UNL     1      43.288  45.892  21.769 -0.26 +0.00    +0.002 A  ATOM     26  H   UNL     1      43.541  48.853  18.716 -0.46 -0.02    +0.190 HD ENDBRANCH  15  17ENDBRANCH   7  10TORSDOF 3TERENDMDL