REMARK SMILES CO[C@H]1CCCN(c2cc(Nc3cc(C)[nH]n3)nc(C)c2CCOC(N)=O)C1
REMARK SMILES IDX 22 1 21 2 8 3 9 4 10 5 19 6 18 7 20 8 7 9 3 10 4 11 28 12
REMARK SMILES IDX 5 13 6 14 2 15 1 16 11 17 12 19 13 20 17 21 14 22 16 23
REMARK SMILES IDX 15 24 23 26 24 27 25 28 26 29 27 30
REMARK H PARENT 11 18 16 25 26 31 26 32
ROOT
ATOM      1  C   UNL     1       1.096   2.285  -0.430  1.00  0.00     0.081 C 
ENDROOT
BRANCH   1   2
ATOM      2  C   UNL     1      -0.053   1.310  -0.302  1.00  0.00     0.000 A 
ATOM      3  C   UNL     1       0.168  -0.079  -0.373  1.00  0.00     0.046 A 
ATOM      4  C   UNL     1      -0.928  -0.940  -0.244  1.00  0.00     0.073 A 
ATOM      5  C   UNL     1      -2.212  -0.429  -0.074  1.00  0.00     0.133 A 
ATOM      6  C   UNL     1      -1.374   1.746  -0.138  1.00  0.00     0.045 A 
ATOM      7  N   UNL     1      -2.425   0.897  -0.033  1.00  0.00    -0.236 NA
ATOM      8  C   UNL     1      -1.739   3.201  -0.064  1.00  0.00     0.067 C 
BRANCH   3   9
ATOM      9  N   UNL     1       1.471  -0.577  -0.552  1.00  0.00    -0.369 N 
ATOM     10  C   UNL     1       3.549  -1.456   0.457  1.00  0.00     0.137 C 
ATOM     11  C   UNL     1       3.392  -2.815  -0.243  1.00  0.00     0.036 C 
ATOM     12  C   UNL     1       2.159  -0.852   0.728  1.00  0.00     0.148 C 
ATOM     13  C   UNL     1       2.111  -2.920  -1.074  1.00  0.00     0.024 C 
ATOM     14  C   UNL     1       1.668  -1.568  -1.625  1.00  0.00     0.117 C 
BRANCH  10  15
ATOM     15  O   UNL     1       4.298  -1.673   1.659  1.00  0.00    -0.380 OA
ATOM     16  C   UNL     1       4.932  -0.490   2.131  1.00  0.00     0.195 C 
ENDBRANCH  10  15
ENDBRANCH   3   9
BRANCH   5  17
ATOM     17  N   UNL     1      -3.276  -1.353   0.052  1.00  0.00    -0.323 N 
ATOM     18  H   UNL     1      -3.194  -2.060  -0.663  1.00  0.00     0.170 HD
BRANCH  17  19
ATOM     19  C   UNL     1      -4.508  -1.130   0.564  1.00  0.00     0.153 A 
ATOM     20  C   UNL     1      -5.622  -1.924   0.187  1.00  0.00     0.071 A 
ATOM     21  N   UNL     1      -4.862  -0.240   1.493  1.00  0.00    -0.158 NA
ATOM     22  C   UNL     1      -6.691  -1.438   0.907  1.00  0.00     0.034 A 
ATOM     23  N   UNL     1      -6.176  -0.421   1.659  1.00  0.00    -0.281 N 
ATOM     24  C   UNL     1      -8.117  -1.825   0.947  1.00  0.00     0.066 C 
ATOM     25  H   UNL     1      -6.659   0.183   2.316  1.00  0.00     0.190 HD
ENDBRANCH  17  19
ENDBRANCH   5  17
ENDBRANCH   1   2
BRANCH   1  26
ATOM     26  C   UNL     1       1.647   2.378  -1.852  1.00  0.00     0.240 C 
BRANCH  26  27
ATOM     27  O   UNL     1       2.620   3.435  -1.948  1.00  0.00    -0.449 OA
BRANCH  27  28
ATOM     28  C   UNL     1       3.862   3.124  -1.518  1.00  0.00     0.404 C 
ATOM     29  N   UNL     1       4.678   4.189  -1.679  1.00  0.00    -0.335 N 
ATOM     30  O   UNL     1       4.235   2.061  -1.052  1.00  0.00    -0.225 OA
ATOM     31  H   UNL     1       5.656   4.095  -1.454  1.00  0.00     0.163 HD
ATOM     32  H   UNL     1       4.330   5.020  -2.131  1.00  0.00     0.163 HD
ENDBRANCH  27  28
ENDBRANCH  26  27
ENDBRANCH   1  26
TORSDOF 8
