MODEL        9USER    Run = 9USERUSER    Estimated Free Energy of Binding    = -13.07 kcal/mol  [=(1)+(2)+(3)-(4)]USERUSER    (1) Final Intermolecular Energy     = -15.16 kcal/molUSER        vdW + Hbond + desolv Energy     = -14.96 kcal/molUSER        Electrostatic Energy            =  -0.20 kcal/molUSER        Moving Ligand-Fixed Receptor    = -15.16 kcal/molUSER        Moving Ligand-Moving Receptor   =  +0.00 kcal/molUSER    (2) Final Total Internal Energy     =  -2.44 kcal/molUSER    (3) Torsional Free Energy           =  +2.09 kcal/molUSER    (4) Unbound System's Energy         =  -2.44 kcal/molUSERUSERREMARK SMILES Oc1ccc(-c2nc3cc(F)ccc3nc2-c2ccc(CN3CCC(n4c(O)nc5ccccc54)CC3)cc2)cc1REMARK SMILES IDX 17 1 18 2 19 3 20 4 38 5 39 6 16 7 6 8 7 9 8 10 15 11 9 12REMARK SMILES IDX 14 13 10 14 13 15 12 16 11 17 5 18 2 19 3 20 41 21 4 22REMARK SMILES IDX 40 23 1 24 21 26 22 27 23 28 37 29 24 30 36 31 25 32 26 33REMARK SMILES IDX 27 34 35 35 29 36 34 37 30 38 33 39 31 40 32 41 28 42REMARK H PARENT 1 25 28 43USER                              x       y       z     vdW  Elec       q    TypeUSER                           _______ _______ _______ _____ _____    ______ ____ROOTATOM      1  C   UNL     1      35.773  44.702  17.600 -0.32 -0.00    +0.002 A  ATOM      2  C   UNL     1      35.925  43.993  16.396 -0.35 -0.00    +0.011 A  ATOM      3  C   UNL     1      35.866  44.642  15.158 -0.33 -0.00    +0.006 A  ATOM      4  C   UNL     1      35.643  46.022  15.092 -0.35 +0.03    -0.034 A  ATOM      5  C   UNL     1      35.469  46.734  16.285 -0.09 -0.01    +0.006 A  ATOM      6  C   UNL     1      35.529  46.082  17.521 -0.36 -0.01    +0.011 A  ENDROOTBRANCH   1   7ATOM      7  C   UNL     1      35.858  43.996  18.890 -0.29 -0.02    +0.097 A  ATOM      8  C   UNL     1      34.978  42.989  19.319 -0.34 -0.01    +0.097 A  ATOM      9  N   UNL     1      35.176  42.345  20.506 -0.34 -0.01    -0.244 NA ATOM     10  C   UNL     1      36.215  42.735  21.263 -0.38 +0.00    +0.092 A  ATOM     11  N   UNL     1      36.904  44.397  19.670 -0.23 +0.02    -0.244 NA ATOM     12  C   UNL     1      36.438  42.114  22.483 -0.43 +0.01    +0.069 A  ATOM     13  C   UNL     1      37.083  43.771  20.844 -0.34 +0.00    +0.090 A  ATOM     14  C   UNL     1      37.500  42.507  23.288 -0.33 +0.01    +0.125 A  ATOM     15  C   UNL     1      38.140  44.148  21.666 -0.34 +0.00    +0.033 A  ATOM     16  C   UNL     1      38.356  43.522  22.894 -0.29 +0.00    +0.041 A  ATOM     17  F   UNL     1      37.697  41.896  24.463 -0.08 -0.01    -0.207 F  BRANCH   8  18ATOM     18  C   UNL     1      33.771  42.542  18.596 -0.39 -0.00    +0.003 A  ATOM     19  C   UNL     1      31.468  41.734  17.193 -0.23 -0.04    +0.115 A  ATOM     20  C   UNL     1      31.692  43.086  17.422 -0.27 -0.01    +0.047 A  ATOM     21  C   UNL     1      32.374  40.780  17.642 -0.32 -0.01    +0.047 A  ATOM     22  C   UNL     1      32.840  43.484  18.117 -0.32 -0.00    +0.014 A  ATOM     23  C   UNL     1      33.521  41.182  18.332 -0.20 -0.00    +0.014 A  BRANCH  19  24ATOM     24  O   UNL     1      30.367  41.299  16.518 -0.10 +0.16    -0.508 OA ATOM     25  H   UNL     1      30.654  40.892  15.684 -0.20 -0.14    +0.293 HD ENDBRANCH  19  24ENDBRANCH   8  18ENDBRANCH   1   7BRANCH   4  26ATOM     26  C   UNL     1      35.573  46.727  13.754 -0.45 -0.09    +0.120 C  BRANCH  26  27ATOM     27  N   UNL     1      36.871  47.221  13.264 -0.38 +0.13    -0.299 NA ATOM     28  C   UNL     1      37.267  48.519  13.825 -0.56 -0.05    +0.087 C  ATOM     29  C   UNL     1      37.915  46.191  13.399 -0.36 -0.03    +0.087 C  ATOM     30  C   UNL     1      37.743  48.442  15.276 -0.55 -0.03    +0.041 C  ATOM     31  C   UNL     1      39.160  46.634  14.171 -0.42 -0.01    +0.041 C  ATOM     32  C   UNL     1      38.742  47.292  15.491 -0.46 -0.04    +0.095 C  BRANCH  32  33ATOM     33  N   UNL     1      39.883  47.676  16.310 -0.29 +0.08    -0.291 N  ATOM     34  C   UNL     1      40.698  48.756  16.112 -0.33 -0.06    +0.295 A  ATOM     35  C   UNL     1      40.348  47.023  17.433 -0.45 -0.01    +0.072 A  ATOM     36  N   UNL     1      41.641  48.864  17.008 -0.86 -0.02    -0.195 NA ATOM     37  C   UNL     1      39.942  45.869  18.119 -0.44 -0.00    +0.029 A  ATOM     38  C   UNL     1      41.440  47.792  17.845 -0.43 -0.01    +0.092 A  ATOM     39  C   UNL     1      40.675  45.505  19.255 -0.44 +0.00    +0.002 A  ATOM     40  C   UNL     1      42.161  47.410  18.987 -0.47 +0.00    +0.031 A  ATOM     41  C   UNL     1      41.766  46.261  19.686 -0.44 +0.00    +0.002 A  BRANCH  34  42ATOM     42  O   UNL     1      40.568  49.628  15.133 -0.28 +0.18    -0.480 OA ATOM     43  H   UNL     1      39.746  50.084  15.395 -0.15 -0.21    +0.296 HD ENDBRANCH  34  42ENDBRANCH  32  33ENDBRANCH  26  27ENDBRANCH   4  26TORSDOF 7TERENDMDL