MODEL        4USER    Run = 4USERUSER    Estimated Free Energy of Binding    = -10.74 kcal/mol  [=(1)+(2)+(3)-(4)]USERUSER    (1) Final Intermolecular Energy     = -13.42 kcal/molUSER        vdW + Hbond + desolv Energy     = -13.21 kcal/molUSER        Electrostatic Energy            =  -0.21 kcal/molUSER        Moving Ligand-Fixed Receptor    = -13.42 kcal/molUSER        Moving Ligand-Moving Receptor   =  +0.00 kcal/molUSER    (2) Final Total Internal Energy     =  -3.48 kcal/molUSER    (3) Torsional Free Energy           =  +2.68 kcal/molUSER    (4) Unbound System's Energy         =  -3.48 kcal/molUSERUSERREMARK SMILES C[C@@H](O)NC[C@H]1C(=O)N[C@@H](c2c(Cl)cccc2Cl)N1C(=O)CN1CCC(c2ccc(F)c3c2CCC3)CC1REMARK SMILES IDX 6 1 7 2 8 3 9 4 10 5 19 6 5 8 4 9 2 11 1 12 3 13 20 15 21 16REMARK SMILES IDX 22 17 23 18 24 19 38 20 25 21 37 22 26 23 27 24 28 25 33 26REMARK SMILES IDX 29 27 32 28 34 29 30 30 36 31 35 32 31 33 11 34 12 35 17 36REMARK SMILES IDX 14 37 16 38 15 39 13 40 18 41REMARK H PARENT 9 7 4 10 3 14USER                              x       y       z     vdW  Elec       q    TypeUSER                           _______ _______ _______ _____ _____    ______ ____ROOTATOM      1  C   UNL     1      31.784  40.507  18.238 -0.33 -0.02    +0.190 C  ATOM      2  C   UNL     1      30.521  40.252  17.388 -0.26 -0.02    +0.246 C  ATOM      3  O   UNL     1      29.791  39.274  17.396 -0.27 -0.07    -0.273 OA ATOM      4  N   UNL     1      30.381  41.290  16.498 -0.17 +0.10    -0.330 N  ATOM      5  C   UNL     1      31.508  42.142  16.544 -0.12 -0.10    +0.216 C  ATOM      6  N   UNL     1      32.077  41.925  17.871 -0.14 +0.07    -0.304 N  ATOM      7  H   UNL     1      29.678  41.270  15.771 +0.07 -0.06    +0.166 HD ENDROOTBRANCH   1   8ATOM      8  C   UNL     1      31.547  40.129  19.716 -0.29 +0.02    +0.118 C  BRANCH   8   9ATOM      9  N   UNL     1      31.991  38.794  20.128 -0.60 -0.09    -0.290 NA ATOM     10  H   UNL     1      32.787  38.498  19.565 +0.09 +0.05    +0.125 HD BRANCH   9  11ATOM     11  C   UNL     1      30.986  37.759  20.083 -0.41 +0.04    +0.179 C  ATOM     12  C   UNL     1      29.567  38.277  20.288 -0.34 +0.00    +0.056 C  BRANCH  11  13ATOM     13  O   UNL     1      31.068  37.206  18.791 -0.85 -0.17    -0.379 OA ATOM     14  H   UNL     1      30.423  37.734  18.284 +0.12 +0.10    +0.212 HD ENDBRANCH  11  13ENDBRANCH   9  11ENDBRANCH   8   9ENDBRANCH   1   8BRANCH   6  15ATOM     15  C   UNL     1      31.950  42.928  18.837 -0.23 -0.02    +0.239 C  ATOM     16  O   UNL     1      30.911  43.557  19.027 -0.08 -0.00    -0.273 OA BRANCH  15  17ATOM     17  C   UNL     1      33.242  43.243  19.619 -0.32 +0.00    +0.185 C  BRANCH  17  18ATOM     18  N   UNL     1      34.263  43.890  18.772 -0.15 +0.07    -0.294 NA ATOM     19  C   UNL     1      35.610  43.813  19.333 -0.39 -0.01    +0.085 C  ATOM     20  C   UNL     1      33.873  45.272  18.446 -0.44 -0.04    +0.085 C  ATOM     21  C   UNL     1      36.657  44.247  18.298 -0.37 -0.01    +0.024 C  ATOM     22  C   UNL     1      35.057  46.180  18.076 -0.43 -0.02    +0.024 C  ATOM     23  C   UNL     1      36.152  45.372  17.375 -0.38 -0.01    +0.022 C  BRANCH  23  24ATOM     24  C   UNL     1      37.300  46.165  16.772 -0.34 +0.02    -0.041 A  ATOM     25  C   UNL     1      38.490  46.268  17.532 -0.38 -0.00    +0.007 A  ATOM     26  C   UNL     1      37.261  46.859  15.559 -0.38 +0.02    -0.038 A  ATOM     27  C   UNL     1      39.582  47.038  17.105 -0.44 -0.01    +0.040 A  ATOM     28  C   UNL     1      38.358  47.640  15.145 -0.48 +0.00    -0.009 A  ATOM     29  C   UNL     1      36.151  47.010  14.558 -0.45 -0.03    +0.036 C  ATOM     30  C   UNL     1      39.506  47.734  15.910 -0.41 -0.04    +0.126 A  ATOM     31  C   UNL     1      38.076  48.375  13.874 -0.53 -0.02    +0.039 C  ATOM     32  C   UNL     1      36.888  47.577  13.336 -0.66 -0.00    +0.010 C  ATOM     33  F   UNL     1      40.530  48.496  15.510 -0.15 +0.05    -0.207 F  ENDBRANCH  23  24ENDBRANCH  17  18ENDBRANCH  15  17ENDBRANCH   6  15BRANCH   5  34ATOM     34  C   UNL     1      31.387  43.540  15.981 -0.32 -0.01    +0.032 A  ATOM     35  C   UNL     1      30.165  44.228  15.815 -0.29 -0.02    +0.049 A  ATOM     36  C   UNL     1      32.560  44.236  15.603 -0.29 -0.03    +0.049 A  ATOM     37  C   UNL     1      30.131  45.537  15.306 -0.41 -0.01    +0.021 A  ATOM     38  C   UNL     1      32.518  45.541  15.097 -0.34 -0.02    +0.021 A  ATOM     39  C   UNL     1      31.302  46.195  14.951 -0.50 -0.00    +0.003 A  ATOM     40  Cl  UNL     1      28.617  43.556  16.206 -0.38 +0.04    -0.084 Cl ATOM     41  Cl  UNL     1      34.140  43.525  15.723 -0.18 +0.04    -0.084 Cl ENDBRANCH   5  34TORSDOF 9TERENDMDL