MODEL        2USER    Run = 2USERUSER    Estimated Free Energy of Binding    =  -9.70 kcal/mol  [=(1)+(2)+(3)-(4)]USERUSER    (1) Final Intermolecular Energy     = -12.09 kcal/molUSER        vdW + Hbond + desolv Energy     = -11.88 kcal/molUSER        Electrostatic Energy            =  -0.20 kcal/molUSER        Moving Ligand-Fixed Receptor    = -12.09 kcal/molUSER        Moving Ligand-Moving Receptor   =  +0.00 kcal/molUSER    (2) Final Total Internal Energy     =  -1.23 kcal/molUSER    (3) Torsional Free Energy           =  +2.39 kcal/molUSER    (4) Unbound System's Energy         =  -1.23 kcal/molUSERUSERREMARK SMILES CO[C@H]1CCCN(c2cc(Nc3cc(C)[nH]n3)nc(C)c2CCOC(N)=O)C1REMARK SMILES IDX 22 1 21 2 8 3 9 4 10 5 19 6 18 7 20 8 7 9 3 10 4 11 28 12REMARK SMILES IDX 5 13 6 14 2 15 1 16 11 17 12 19 13 20 17 21 14 22 16 23REMARK SMILES IDX 15 24 23 26 24 27 25 28 26 29 27 30REMARK H PARENT 11 18 16 25 26 31 26 32USER                              x       y       z     vdW  Elec       q    TypeUSER                           _______ _______ _______ _____ _____    ______ ____ROOTATOM      1  C   UNL     1      40.631  46.738  16.765 -0.48 -0.01    +0.081 C  ENDROOTBRANCH   1   2ATOM      2  C   UNL     1      39.337  46.159  17.291 -0.44 -0.00    +0.000 A  ATOM      3  C   UNL     1      38.163  46.190  16.513 -0.36 -0.02    +0.046 A  ATOM      4  C   UNL     1      36.992  45.636  17.044 -0.31 -0.03    +0.073 A  ATOM      5  C   UNL     1      36.986  45.090  18.324 -0.25 -0.03    +0.133 A  ATOM      6  C   UNL     1      39.248  45.600  18.572 -0.39 -0.00    +0.045 A  ATOM      7  N   UNL     1      38.100  45.084  19.076 -0.24 +0.03    -0.236 NA ATOM      8  C   UNL     1      40.425  45.523  19.502 -0.44 +0.00    +0.067 C  BRANCH   3   9ATOM      9  N   UNL     1      38.186  46.752  15.225 -0.13 +0.15    -0.369 N  ATOM     10  C   UNL     1      37.339  46.739  12.903 -0.52 -0.04    +0.137 C  ATOM     11  C   UNL     1      36.741  48.148  13.043 -0.63 -0.01    +0.036 C  ATOM     12  C   UNL     1      37.317  46.031  14.270 -0.37 -0.06    +0.148 C  ATOM     13  C   UNL     1      36.916  48.739  14.444 -0.53 -0.02    +0.024 C  ATOM     14  C   UNL     1      38.174  48.223  15.135 -0.50 -0.07    +0.117 C  BRANCH  10  15ATOM     15  O   UNL     1      36.575  46.042  11.911 -0.39 +0.15    -0.380 OA ATOM     16  C   UNL     1      36.922  44.666  11.819 -0.41 -0.06    +0.195 C  ENDBRANCH  10  15ENDBRANCH   3   9BRANCH   5  17ATOM     17  N   UNL     1      35.770  44.544  18.801 -0.15 +0.08    -0.323 N  ATOM     18  H   UNL     1      35.663  44.766  19.779 +0.10 -0.03    +0.170 HD BRANCH  17  19ATOM     19  C   UNL     1      35.115  43.456  18.337 -0.23 -0.04    +0.153 A  ATOM     20  C   UNL     1      33.935  42.978  18.964 -0.34 -0.01    +0.071 A  ATOM     21  N   UNL     1      35.394  42.730  17.252 -0.31 +0.05    -0.158 NA ATOM     22  C   UNL     1      33.532  41.887  18.226 -0.39 -0.01    +0.034 A  ATOM     23  N   UNL     1      34.454  41.780  17.224 -0.22 +0.13    -0.281 N  ATOM     24  C   UNL     1      32.395  40.955  18.376 -0.43 -0.01    +0.066 C  ATOM     25  H   UNL     1      34.496  41.092  16.479 -0.45 -0.16    +0.190 HD ENDBRANCH  17  19ENDBRANCH   5  17ENDBRANCH   1   2BRANCH   1  26ATOM     26  C   UNL     1      40.922  48.139  17.300 -0.32 -0.03    +0.240 C  BRANCH  26  27ATOM     27  O   UNL     1      41.779  48.858  16.394 -0.75 -0.07    -0.449 OA BRANCH  27  28ATOM     28  C   UNL     1      41.154  49.476  15.368 -0.36 -0.07    +0.404 C  ATOM     29  N   UNL     1      40.884  50.756  15.707 -0.32 +0.14    -0.335 N  ATOM     30  O   UNL     1      40.857  48.994  14.289 -0.49 +0.05    -0.225 OA ATOM     31  H   UNL     1      40.367  51.334  15.062 -0.37 -0.12    +0.163 HD ATOM     32  H   UNL     1      41.093  51.081  16.638 -0.47 -0.08    +0.163 HD ENDBRANCH  27  28ENDBRANCH  26  27ENDBRANCH   1  26TORSDOF 8TERENDMDL