MODEL        7USER    Run = 7USERUSER    Estimated Free Energy of Binding    = -10.64 kcal/mol  [=(1)+(2)+(3)-(4)]USERUSER    (1) Final Intermolecular Energy     = -13.03 kcal/molUSER        vdW + Hbond + desolv Energy     = -12.74 kcal/molUSER        Electrostatic Energy            =  -0.29 kcal/molUSER        Moving Ligand-Fixed Receptor    = -13.03 kcal/molUSER        Moving Ligand-Moving Receptor   =  +0.00 kcal/molUSER    (2) Final Total Internal Energy     =  -1.36 kcal/molUSER    (3) Torsional Free Energy           =  +2.39 kcal/molUSER    (4) Unbound System's Energy         =  -1.36 kcal/molUSERUSERREMARK SMILES Cc1nc(NCC2CCOCC2)ccc1-c1ccc(C=C2SC(=O)NC2=O)cc1CNREMARK SMILES IDX 1 1 2 2 3 3 4 4 13 5 14 6 15 7 16 8 17 9 29 10 18 11 28 12REMARK SMILES IDX 19 13 30 14 31 15 20 18 21 19 22 20 26 21 23 22 25 23 27 24REMARK SMILES IDX 24 25 5 27 6 29 7 30 8 31 12 32 9 33 11 34 10 35REMARK H PARENT 31 16 31 17 25 26 5 28USER                              x       y       z     vdW  Elec       q    TypeUSER                           _______ _______ _______ _____ _____    ______ ____ROOTATOM      1  C   UNL     1      33.875  45.869  14.665 -0.22 -0.07    +0.067 C  ATOM      2  C   UNL     1      35.360  45.750  14.876 -0.34 -0.03    +0.048 A  ATOM      3  N   UNL     1      36.133  46.461  14.010 -0.28 +0.15    -0.236 NA ATOM      4  C   UNL     1      37.470  46.392  14.133 -0.34 -0.05    +0.126 A  ATOM      5  C   UNL     1      38.081  45.632  15.119 -0.34 -0.02    +0.047 A  ATOM      6  C   UNL     1      37.288  44.904  16.002 -0.34 -0.00    +0.014 A  ATOM      7  C   UNL     1      35.893  44.955  15.901 -0.34 -0.00    +0.003 A  ENDROOTBRANCH   7   8ATOM      8  C   UNL     1      35.061  44.184  16.834 -0.31 +0.01    -0.012 A  ATOM      9  C   UNL     1      34.783  42.837  16.531 -0.43 -0.00    +0.010 A  ATOM     10  C   UNL     1      34.527  44.739  18.020 -0.33 +0.01    -0.026 A  ATOM     11  C   UNL     1      33.992  42.053  17.372 -0.41 -0.00    +0.009 A  ATOM     12  C   UNL     1      33.737  43.931  18.863 -0.38 -0.00    +0.013 A  ATOM     13  C   UNL     1      33.462  42.598  18.540 -0.36 +0.00    -0.024 A  BRANCH  10  14ATOM     14  C   UNL     1      34.787  46.168  18.444 -0.31 -0.07    +0.114 C  BRANCH  14  15ATOM     15  N   UNL     1      33.543  46.903  18.640 -0.65 +0.26    -0.326 NA ATOM     16  H   UNL     1      33.515  47.674  17.976 -0.50 -0.21    +0.119 HD ATOM     17  H   UNL     1      33.547  47.326  19.567 -0.46 -0.05    +0.119 HD ENDBRANCH  14  15ENDBRANCH  10  14BRANCH  13  18ATOM     18  C   UNL     1      32.624  41.780  19.415 -0.33 +0.00    +0.029 C  BRANCH  18  19ATOM     19  C   UNL     1      31.748  40.856  18.997 -0.35 +0.00    +0.083 C  ATOM     20  S   UNL     1      30.708  41.102  17.631 -0.44 +0.00    -0.022 SA ATOM     21  C   UNL     1      31.483  39.510  19.583 -0.27 +0.04    +0.265 C  ATOM     22  C   UNL     1      29.949  39.536  17.820 -0.23 +0.04    +0.290 C  ATOM     23  N   UNL     1      30.512  38.878  18.863 -0.21 -0.05    -0.282 N  ATOM     24  O   UNL     1      32.026  39.021  20.559 -1.19 -0.10    -0.268 OA ATOM     25  O   UNL     1      29.044  39.121  17.117 -0.18 -0.13    -0.261 OA ATOM     26  H   UNL     1      30.188  37.962  19.128 +0.11 +0.05    +0.174 HD ENDBRANCH  18  19ENDBRANCH  13  18ENDBRANCH   7   8BRANCH   4  27ATOM     27  N   UNL     1      38.191  47.165  13.227 -0.18 +0.08    -0.370 N  ATOM     28  H   UNL     1      39.013  46.592  13.032 +0.14 -0.02    +0.162 HD BRANCH  27  29ATOM     29  C   UNL     1      38.569  48.499  13.691 -0.16 -0.04    +0.118 C  BRANCH  29  30ATOM     30  C   UNL     1      39.893  48.438  14.467 -0.55 -0.00    +0.013 C  ATOM     31  C   UNL     1      39.667  48.426  15.987 -0.57 -0.01    +0.034 C  ATOM     32  C   UNL     1      40.791  49.625  14.090 -0.31 -0.01    +0.034 C  ATOM     33  C   UNL     1      40.992  48.511  16.732 -0.47 -0.02    +0.160 C  ATOM     34  C   UNL     1      42.054  49.639  14.942 -0.28 -0.00    +0.160 C  ATOM     35  O   UNL     1      41.724  49.669  16.328 -0.95 -0.05    -0.381 OA ENDBRANCH  29  30ENDBRANCH  27  29ENDBRANCH   4  27TORSDOF 8TERENDMDL