MODEL        6USER    Run = 6USERUSER    Estimated Free Energy of Binding    = -10.14 kcal/mol  [=(1)+(2)+(3)-(4)]USERUSER    (1) Final Intermolecular Energy     = -12.22 kcal/molUSER        vdW + Hbond + desolv Energy     = -12.17 kcal/molUSER        Electrostatic Energy            =  -0.05 kcal/molUSER        Moving Ligand-Fixed Receptor    = -12.22 kcal/molUSER        Moving Ligand-Moving Receptor   =  +0.00 kcal/molUSER    (2) Final Total Internal Energy     =  -0.94 kcal/molUSER    (3) Torsional Free Energy           =  +2.09 kcal/molUSER    (4) Unbound System's Energy         =  -0.94 kcal/molUSERUSERREMARK SMILES Cc1nc(NCC2CCOCC2)ccc1-c1ccc(C=C2SC(=O)NC2=O)cc1NREMARK SMILES IDX 1 1 2 2 3 3 4 4 13 5 14 6 15 7 16 8 17 9 29 10 18 11 28 12REMARK SMILES IDX 19 13 30 14 20 17 21 18 22 19 26 20 23 21 25 22 27 23 24 24REMARK SMILES IDX 5 26 6 28 7 29 8 30 12 31 9 32 11 33 10 34REMARK H PARENT 30 15 30 16 25 25 5 27USER                              x       y       z     vdW  Elec       q    TypeUSER                           _______ _______ _______ _____ _____    ______ ____ROOTATOM      1  C   UNL     1      36.531  41.457  20.613 -0.42 -0.00    +0.067 C  ATOM      2  C   UNL     1      37.034  42.181  21.831 -0.46 +0.00    +0.048 A  ATOM      3  N   UNL     1      36.833  41.542  23.016 -0.35 -0.01    -0.236 NA ATOM      4  C   UNL     1      37.248  42.127  24.155 -0.31 +0.00    +0.126 A  ATOM      5  C   UNL     1      37.891  43.359  24.142 -0.28 +0.00    +0.047 A  ATOM      6  C   UNL     1      38.098  44.012  22.929 -0.32 +0.00    +0.014 A  ATOM      7  C   UNL     1      37.668  43.426  21.734 -0.38 +0.00    +0.005 A  ENDROOTBRANCH   7   8ATOM      8  C   UNL     1      37.899  44.118  20.456 -0.36 -0.00    +0.006 A  ATOM      9  C   UNL     1      36.802  44.375  19.614 -0.37 -0.00    +0.011 A  ATOM     10  C   UNL     1      39.183  44.551  20.059 -0.33 -0.00    +0.040 A  ATOM     11  C   UNL     1      36.972  45.009  18.382 -0.33 -0.00    +0.009 A  ATOM     12  C   UNL     1      39.346  45.136  18.793 -0.40 -0.00    +0.034 A  ATOM     13  C   UNL     1      38.247  45.394  17.964 -0.37 +0.00    -0.022 A  BRANCH  10  14ATOM     14  N   UNL     1      40.336  44.218  20.795 -0.08 -0.02    -0.398 N  ATOM     15  H   UNL     1      40.187  43.493  21.490 +0.09 +0.01    +0.156 HD ATOM     16  H   UNL     1      41.153  44.032  20.218 +0.09 +0.01    +0.156 HD ENDBRANCH  10  14BRANCH  13  17ATOM     17  C   UNL     1      38.412  46.014  16.646 -0.43 -0.01    +0.029 C  BRANCH  17  18ATOM     18  C   UNL     1      39.147  47.099  16.371 -0.46 -0.03    +0.083 C  ATOM     19  S   UNL     1      40.699  47.529  16.989 -0.71 +0.00    -0.022 SA ATOM     20  C   UNL     1      38.664  48.160  15.447 -0.36 -0.13    +0.265 C  ATOM     21  C   UNL     1      40.734  49.027  16.081 -0.41 -0.06    +0.290 C  ATOM     22  N   UNL     1      39.594  49.151  15.355 -0.30 +0.14    -0.282 N  ATOM     23  O   UNL     1      37.595  48.152  14.859 -0.36 +0.18    -0.268 OA ATOM     24  O   UNL     1      41.653  49.828  16.111 -1.06 -0.01    -0.261 OA ATOM     25  H   UNL     1      39.439  49.959  14.776 -0.23 -0.16    +0.174 HD ENDBRANCH  17  18ENDBRANCH  13  17ENDBRANCH   7   8BRANCH   4  26ATOM     26  N   UNL     1      37.079  41.484  25.397 -0.00 +0.06    -0.370 N  ATOM     27  H   UNL     1      37.739  40.713  25.441 -0.25 -0.02    +0.162 HD BRANCH  26  28ATOM     28  C   UNL     1      37.190  42.377  26.549 -0.36 -0.02    +0.118 C  BRANCH  28  29ATOM     29  C   UNL     1      35.946  43.282  26.640 -0.51 -0.00    +0.013 C  ATOM     30  C   UNL     1      35.048  42.893  27.829 -0.62 -0.01    +0.034 C  ATOM     31  C   UNL     1      36.346  44.766  26.722 -0.28 -0.01    +0.034 C  ATOM     32  C   UNL     1      34.268  44.098  28.331 -0.55 -0.03    +0.160 C  ATOM     33  C   UNL     1      36.383  45.244  28.167 -0.34 -0.04    +0.160 C  ATOM     34  O   UNL     1      35.121  45.130  28.824 -0.35 +0.10    -0.381 OA ENDBRANCH  28  29ENDBRANCH  26  28ENDBRANCH   4  26TORSDOF 7TERENDMDL