REMARK SMILES Cc1nc(NCC2CCOCC2)ccc1-c1ccc(C=C2SC(=O)NC2=O)cc1CN
REMARK SMILES IDX 1 1 2 2 3 3 4 4 13 5 14 6 15 7 16 8 17 9 29 10 18 11 28 12
REMARK SMILES IDX 19 13 30 14 31 15 20 18 21 19 22 20 26 21 23 22 25 23 27 24
REMARK SMILES IDX 24 25 5 27 6 29 7 30 8 31 12 32 9 33 11 34 10 35
REMARK H PARENT 31 16 31 17 25 26 5 28
ROOT
ATOM      1  C   UNL     1       1.223  -2.385   0.808  1.00  0.00     0.067 C 
ATOM      2  C   UNL     1       0.213  -1.322   0.473  1.00  0.00     0.048 A 
ATOM      3  N   UNL     1      -1.076  -1.617   0.795  1.00  0.00    -0.236 NA
ATOM      4  C   UNL     1      -2.034  -0.717   0.513  1.00  0.00     0.126 A 
ATOM      5  C   UNL     1      -1.747   0.502  -0.082  1.00  0.00     0.047 A 
ATOM      6  C   UNL     1      -0.428   0.800  -0.413  1.00  0.00     0.014 A 
ATOM      7  C   UNL     1       0.592  -0.115  -0.132  1.00  0.00     0.003 A 
ENDROOT
BRANCH   7   8
ATOM      8  C   UNL     1       1.982   0.204  -0.484  1.00  0.00    -0.012 A 
ATOM      9  C   UNL     1       2.441  -0.127  -1.774  1.00  0.00     0.010 A 
ATOM     10  C   UNL     1       2.876   0.826   0.417  1.00  0.00    -0.026 A 
ATOM     11  C   UNL     1       3.753   0.141  -2.168  1.00  0.00     0.009 A 
ATOM     12  C   UNL     1       4.195   1.099   0.001  1.00  0.00     0.013 A 
ATOM     13  C   UNL     1       4.637   0.752  -1.280  1.00  0.00    -0.024 A 
BRANCH  10  14
ATOM     14  C   UNL     1       2.472   1.241   1.815  1.00  0.00     0.114 C 
BRANCH  14  15
ATOM     15  N   UNL     1       1.963   2.608   1.842  1.00  0.00    -0.326 NA
ATOM     16  H   UNL     1       1.106   2.644   1.294  1.00  0.00     0.119 HD
ATOM     17  H   UNL     1       2.627   3.221   1.373  1.00  0.00     0.119 HD
ENDBRANCH  14  15
ENDBRANCH  10  14
BRANCH  13  18
ATOM     18  C   UNL     1       6.014   1.023  -1.689  1.00  0.00     0.029 C 
BRANCH  18  19
ATOM     19  C   UNL     1       7.067   0.242  -1.410  1.00  0.00     0.083 C 
ATOM     20  S   UNL     1       8.676   0.616  -1.937  1.00  0.00    -0.022 SA
ATOM     21  C   UNL     1       7.083  -1.041  -0.649  1.00  0.00     0.265 C 
ATOM     22  C   UNL     1       9.340  -0.835  -1.218  1.00  0.00     0.290 C 
ATOM     23  N   UNL     1       8.357  -1.525  -0.590  1.00  0.00    -0.282 N 
ATOM     24  O   UNL     1       6.123  -1.604  -0.150  1.00  0.00    -0.268 OA
ATOM     25  O   UNL     1      10.511  -1.165  -1.291  1.00  0.00    -0.261 OA
ATOM     26  H   UNL     1       8.555  -2.398  -0.130  1.00  0.00     0.174 HD
ENDBRANCH  18  19
ENDBRANCH  13  18
ENDBRANCH   7   8
BRANCH   4  27
ATOM     27  N   UNL     1      -3.323  -1.080   0.895  1.00  0.00    -0.370 N 
ATOM     28  H   UNL     1      -3.196  -2.011   1.294  1.00  0.00     0.162 HD
BRANCH  27  29
ATOM     29  C   UNL     1      -4.323  -1.088  -0.171  1.00  0.00     0.118 C 
BRANCH  29  30
ATOM     30  C   UNL     1      -5.384  -0.007   0.087  1.00  0.00     0.013 C 
ATOM     31  C   UNL     1      -6.198  -0.293   1.358  1.00  0.00     0.034 C 
ATOM     32  C   UNL     1      -6.332   0.111  -1.115  1.00  0.00     0.034 C 
ATOM     33  C   UNL     1      -7.333   0.710   1.511  1.00  0.00     0.160 C 
ATOM     34  C   UNL     1      -7.458   1.094  -0.821  1.00  0.00     0.160 C 
ATOM     35  O   UNL     1      -8.168   0.707   0.353  1.00  0.00    -0.381 OA
ENDBRANCH  29  30
ENDBRANCH  27  29
ENDBRANCH   4  27
TORSDOF 8
