REMARK SMILES Cc1nc(NCC2CCOCC2)ccc1-c1ccc(C=C2SC(=O)NC2=O)cc1N
REMARK SMILES IDX 1 1 2 2 3 3 4 4 13 5 14 6 15 7 16 8 17 9 29 10 18 11 28 12
REMARK SMILES IDX 19 13 30 14 20 17 21 18 22 19 26 20 23 21 25 22 27 23 24 24
REMARK SMILES IDX 5 26 6 28 7 29 8 30 12 31 9 32 11 33 10 34
REMARK H PARENT 30 15 30 16 25 25 5 27
ROOT
ATOM      1  C   UNL     1      -0.229  -2.146  -0.291  1.00  0.00     0.067 C 
ATOM      2  C   UNL     1       0.189  -0.708  -0.155  1.00  0.00     0.048 A 
ATOM      3  N   UNL     1       1.524  -0.473  -0.279  1.00  0.00    -0.236 NA
ATOM      4  C   UNL     1       1.981   0.788  -0.163  1.00  0.00     0.126 A 
ATOM      5  C   UNL     1       1.117   1.852   0.064  1.00  0.00     0.047 A 
ATOM      6  C   UNL     1      -0.249   1.611   0.190  1.00  0.00     0.014 A 
ATOM      7  C   UNL     1      -0.746   0.308   0.080  1.00  0.00     0.005 A 
ENDROOT
BRANCH   7   8
ATOM      8  C   UNL     1      -2.191   0.063   0.205  1.00  0.00     0.006 A 
ATOM      9  C   UNL     1      -2.752  -0.059   1.489  1.00  0.00     0.011 A 
ATOM     10  C   UNL     1      -3.036  -0.032  -0.923  1.00  0.00     0.040 A 
ATOM     11  C   UNL     1      -4.114  -0.313   1.659  1.00  0.00     0.009 A 
ATOM     12  C   UNL     1      -4.392  -0.343  -0.737  1.00  0.00     0.034 A 
ATOM     13  C   UNL     1      -4.943  -0.456   0.546  1.00  0.00    -0.022 A 
BRANCH  10  14
ATOM     14  N   UNL     1      -2.521  -0.041  -2.233  1.00  0.00    -0.398 N 
ATOM     15  H   UNL     1      -3.191   0.237  -2.943  1.00  0.00     0.156 HD
ATOM     16  H   UNL     1      -1.636   0.452  -2.330  1.00  0.00     0.156 HD
ENDBRANCH  10  14
BRANCH  13  17
ATOM     17  C   UNL     1      -6.361  -0.772   0.744  1.00  0.00     0.029 C 
BRANCH  17  18
ATOM     18  C   UNL     1      -7.398  -0.006   0.381  1.00  0.00     0.083 C 
ATOM     19  S   UNL     1      -7.375   1.537  -0.389  1.00  0.00    -0.022 SA
ATOM     20  C   UNL     1      -8.804  -0.414   0.643  1.00  0.00     0.265 C 
ATOM     21  C   UNL     1      -9.123   1.655  -0.384  1.00  0.00     0.290 C 
ATOM     22  N   UNL     1      -9.656   0.546   0.188  1.00  0.00    -0.282 N 
ATOM     23  O   UNL     1      -9.150  -1.451   1.186  1.00  0.00    -0.268 OA
ATOM     24  O   UNL     1      -9.750   2.600  -0.831  1.00  0.00    -0.261 OA
ATOM     25  H   UNL     1     -10.653   0.445   0.282  1.00  0.00     0.174 HD
ENDBRANCH  17  18
ENDBRANCH  13  17
ENDBRANCH   7   8
BRANCH   4  26
ATOM     26  N   UNL     1       3.353   1.072  -0.311  1.00  0.00    -0.370 N 
ATOM     27  H   UNL     1       3.647   1.619   0.493  1.00  0.00     0.162 HD
BRANCH  26  28
ATOM     28  C   UNL     1       4.187  -0.112  -0.512  1.00  0.00     0.118 C 
BRANCH  28  29
ATOM     29  C   UNL     1       5.652   0.306  -0.746  1.00  0.00     0.013 C 
ATOM     30  C   UNL     1       6.250   0.995   0.495  1.00  0.00     0.034 C 
ATOM     31  C   UNL     1       6.511  -0.901  -1.166  1.00  0.00     0.034 C 
ATOM     32  C   UNL     1       7.756   0.789   0.552  1.00  0.00     0.160 C 
ATOM     33  C   UNL     1       7.228  -1.506   0.033  1.00  0.00     0.160 C 
ATOM     34  O   UNL     1       8.111  -0.587   0.676  1.00  0.00    -0.381 OA
ENDBRANCH  28  29
ENDBRANCH  26  28
ENDBRANCH   4  26
TORSDOF 7
