REMARK SMILES CC(C)Cc1nnc2ccc(-c3ccnc(NC4CC4)c3)cn12
REMARK SMILES IDX 5 1 6 2 7 3 8 4 9 5 10 6 11 7 22 8 23 9 4 10 2 11 1 12 3 13
REMARK SMILES IDX 12 14 13 15 21 16 14 17 16 18 15 19 17 20 18 22 19 23 20 24
REMARK H PARENT 17 21
ROOT
ATOM      1  C   UNL     1      -3.232  -0.347  -1.386  1.00  0.00     0.137 A 
ATOM      2  N   UNL     1      -4.060  -0.050  -2.370  1.00  0.00    -0.135 NA
ATOM      3  N   UNL     1      -3.478   0.917  -3.155  1.00  0.00    -0.130 NA
ATOM      4  C   UNL     1      -2.296   1.185  -2.649  1.00  0.00     0.160 A 
ATOM      5  C   UNL     1      -1.266   2.081  -3.037  1.00  0.00     0.050 A 
ATOM      6  C   UNL     1      -0.128   2.135  -2.319  1.00  0.00     0.014 A 
ATOM      7  C   UNL     1       0.086   1.291  -1.140  1.00  0.00    -0.001 A 
ATOM      8  C   UNL     1      -0.903   0.446  -0.777  1.00  0.00     0.103 A 
ATOM      9  N   UNL     1      -2.080   0.401  -1.525  1.00  0.00    -0.286 N 
ENDROOT
BRANCH   1  10
ATOM     10  C   UNL     1      -3.468  -1.349  -0.305  1.00  0.00     0.081 C 
BRANCH  10  11
ATOM     11  C   UNL     1      -4.940  -1.417   0.146  1.00  0.00    -0.010 C 
ATOM     12  C   UNL     1      -5.146  -2.619   1.071  1.00  0.00     0.008 C 
ATOM     13  C   UNL     1      -5.374  -0.134   0.862  1.00  0.00     0.008 C 
ENDBRANCH  10  11
ENDBRANCH   1  10
BRANCH   7  14
ATOM     14  C   UNL     1       1.317   1.332  -0.336  1.00  0.00    -0.012 A 
ATOM     15  C   UNL     1       1.601   2.441   0.454  1.00  0.00     0.029 A 
ATOM     16  C   UNL     1       2.220   0.265  -0.356  1.00  0.00     0.055 A 
ATOM     17  C   UNL     1       2.765   2.424   1.199  1.00  0.00     0.114 A 
ATOM     18  C   UNL     1       3.380   0.333   0.412  1.00  0.00     0.126 A 
ATOM     19  N   UNL     1       3.643   1.399   1.197  1.00  0.00    -0.240 NA
BRANCH  18  20
ATOM     20  N   UNL     1       4.254  -0.783   0.398  1.00  0.00    -0.367 N 
ATOM     21  H   UNL     1       4.406  -1.065  -0.566  1.00  0.00     0.162 HD
BRANCH  20  22
ATOM     22  C   UNL     1       5.471  -0.711   1.214  1.00  0.00     0.080 C 
ATOM     23  C   UNL     1       6.615  -1.653   0.959  1.00  0.00     0.027 C 
ATOM     24  C   UNL     1       6.762  -0.192   0.647  1.00  0.00     0.027 C 
ENDBRANCH  20  22
ENDBRANCH  18  20
ENDBRANCH   7  14
TORSDOF 5
