MODEL        6USER    Run = 6USERUSER    Estimated Free Energy of Binding    =  -8.31 kcal/mol  [=(1)+(2)+(3)-(4)]USERUSER    (1) Final Intermolecular Energy     = -12.48 kcal/molUSER        vdW + Hbond + desolv Energy     = -12.41 kcal/molUSER        Electrostatic Energy            =  -0.07 kcal/molUSER        Moving Ligand-Fixed Receptor    = -12.48 kcal/molUSER        Moving Ligand-Moving Receptor   =  +0.00 kcal/molUSER    (2) Final Total Internal Energy     =  -2.33 kcal/molUSER    (3) Torsional Free Energy           =  +4.18 kcal/molUSER    (4) Unbound System's Energy         =  -2.33 kcal/molUSERUSERREMARK SMILES CC=NC=Cn1nc(NCc2cccnc2)cc1CCc1cccc(OCCN)c1REMARK SMILES IDX 19 1 18 2 6 3 7 4 8 5 17 6 5 7 4 8 3 9 2 10 1 11 9 12 10 14REMARK SMILES IDX 11 15 12 16 16 17 13 18 15 19 14 20 20 21 21 22 22 23 30 24REMARK SMILES IDX 23 25 25 26 24 27 26 28 27 29 28 30 29 31REMARK H PARENT 9 13 29 32 29 33USER                              x       y       z     vdW  Elec       q    TypeUSER                           _______ _______ _______ _____ _____    ______ ____ROOTATOM      1  C   UNL     1      41.415  45.744  18.197 -0.48 +0.00    +0.061 C  ENDROOTBRANCH   1   2ATOM      2  C   UNL     1      40.110  46.094  17.545 -0.44 -0.01    +0.046 A  ATOM      3  N   UNL     1      39.818  47.334  16.950 -0.32 +0.06    -0.241 N  ATOM      4  N   UNL     1      38.509  47.348  16.555 -0.32 +0.07    -0.151 NA ATOM      5  C   UNL     1      38.016  46.150  16.815 -0.29 -0.05    +0.148 A  ATOM      6  C   UNL     1      38.969  45.323  17.415 -0.31 -0.01    +0.072 A  BRANCH   3   7ATOM      7  C   UNL     1      40.635  48.452  16.739 -0.43 -0.02    +0.133 C  BRANCH   7   8ATOM      8  C   UNL     1      40.691  49.321  15.722 -0.60 -0.03    +0.130 C  BRANCH   8   9ATOM      9  N   UNL     1      41.802  49.407  14.924 -0.60 +0.01    -0.268 NA BRANCH   9  10ATOM     10  C   UNL     1      41.790  50.376  14.064 -0.65 -0.02    +0.080 C  ATOM     11  C   UNL     1      42.700  50.347  12.875 -0.71 -0.02    +0.058 C  ENDBRANCH   9  10ENDBRANCH   8   9ENDBRANCH   7   8ENDBRANCH   3   7BRANCH   5  12ATOM     12  N   UNL     1      36.745  45.816  16.517 -0.11 +0.19    -0.364 N  ATOM     13  H   UNL     1      36.650  44.846  16.224 +0.11 -0.07    +0.162 HD BRANCH  12  14ATOM     14  C   UNL     1      35.890  46.721  15.771 -0.25 -0.15    +0.152 C  BRANCH  14  15ATOM     15  C   UNL     1      36.252  46.690  14.312 -0.44 +0.01    -0.010 A  ATOM     16  C   UNL     1      36.237  45.498  13.579 -0.44 -0.00    +0.009 A  ATOM     17  C   UNL     1      36.610  47.853  13.634 -0.46 -0.07    +0.116 A  ATOM     18  C   UNL     1      36.566  45.515  12.227 -0.58 -0.01    +0.020 A  ATOM     19  N   UNL     1      36.933  47.898  12.321 -1.01 +0.07    -0.264 NA ATOM     20  C   UNL     1      36.903  46.728  11.648 -0.56 -0.04    +0.111 A  ENDBRANCH  14  15ENDBRANCH  12  14ENDBRANCH   5  12ENDBRANCH   1   2BRANCH   1  21ATOM     21  C   UNL     1      41.560  46.285  19.626 -0.47 +0.00    +0.042 C  BRANCH  21  22ATOM     22  C   UNL     1      41.194  45.247  20.658 -0.33 -0.00    -0.044 A  ATOM     23  C   UNL     1      39.859  44.899  20.883 -0.34 +0.00    +0.004 A  ATOM     24  C   UNL     1      42.198  44.601  21.395 -0.26 +0.01    +0.050 A  ATOM     25  C   UNL     1      39.539  43.931  21.834 -0.26 +0.00    +0.004 A  ATOM     26  C   UNL     1      41.883  43.634  22.357 -0.25 +0.01    +0.119 A  ATOM     27  C   UNL     1      40.548  43.298  22.568 -0.26 +0.00    +0.046 A  BRANCH  26  28ATOM     28  O   UNL     1      42.968  43.103  22.994 -0.11 -0.01    -0.492 OA BRANCH  28  29ATOM     29  C   UNL     1      44.272  43.324  22.446 -0.22 +0.05    +0.244 C  BRANCH  29  30ATOM     30  C   UNL     1      45.149  42.070  22.588 -0.31 -0.00    +0.119 C  BRANCH  30  31ATOM     31  N   UNL     1      44.420  40.968  23.222 -0.42 +0.04    -0.327 NA ATOM     32  H   UNL     1      43.860  41.331  23.992 +0.02 -0.01    +0.119 HD ATOM     33  H   UNL     1      43.758  40.588  22.540 -0.32 -0.05    +0.119 HD ENDBRANCH  30  31ENDBRANCH  29  30ENDBRANCH  28  29ENDBRANCH  26  28ENDBRANCH  21  22ENDBRANCH   1  21TORSDOF 14TERENDMDL