REMARK SMILES CC=NC=Cn1nc(NCc2cccnc2)cc1CCc1cccc(OCCN)c1
REMARK SMILES IDX 19 1 18 2 6 3 7 4 8 5 17 6 5 7 4 8 3 9 2 10 1 11 9 12 10 14
REMARK SMILES IDX 11 15 12 16 16 17 13 18 15 19 14 20 20 21 21 22 22 23 30 24
REMARK SMILES IDX 23 25 25 26 24 27 26 28 27 29 28 30 29 31
REMARK H PARENT 9 13 29 32 29 33
ROOT
ATOM      1  C   UNL     1       0.236   0.283  -0.534  1.00  0.00     0.061 C 
ENDROOT
BRANCH   1   2
ATOM      2  C   UNL     1      -1.240   0.154  -0.300  1.00  0.00     0.046 A 
ATOM      3  N   UNL     1      -2.105   1.228  -0.023  1.00  0.00    -0.241 N 
ATOM      4  N   UNL     1      -3.355   0.743   0.245  1.00  0.00    -0.151 NA
ATOM      5  C   UNL     1      -3.305  -0.566   0.070  1.00  0.00     0.148 A 
ATOM      6  C   UNL     1      -2.021  -0.987  -0.285  1.00  0.00     0.072 A 
BRANCH   3   7
ATOM      7  C   UNL     1      -1.856   2.606   0.011  1.00  0.00     0.133 C 
BRANCH   7   8
ATOM      8  C   UNL     1      -0.773   3.312  -0.335  1.00  0.00     0.130 C 
BRANCH   8   9
ATOM      9  N   UNL     1      -0.742   4.675  -0.196  1.00  0.00    -0.268 NA
BRANCH   9  10
ATOM     10  C   UNL     1      -0.256   5.322  -1.208  1.00  0.00     0.080 C 
ATOM     11  C   UNL     1      -0.162   6.816  -1.179  1.00  0.00     0.058 C 
ENDBRANCH   9  10
ENDBRANCH   8   9
ENDBRANCH   7   8
ENDBRANCH   3   7
BRANCH   5  12
ATOM     12  N   UNL     1      -4.388  -1.353   0.226  1.00  0.00    -0.364 N 
ATOM     13  H   UNL     1      -5.189  -0.851   0.602  1.00  0.00     0.162 HD
BRANCH  12  14
ATOM     14  C   UNL     1      -4.264  -2.700   0.751  1.00  0.00     0.152 C 
BRANCH  14  15
ATOM     15  C   UNL     1      -5.616  -3.354   0.820  1.00  0.00    -0.010 A 
ATOM     16  C   UNL     1      -6.381  -3.578  -0.330  1.00  0.00     0.009 A 
ATOM     17  C   UNL     1      -6.154  -3.769   2.036  1.00  0.00     0.116 A 
ATOM     18  C   UNL     1      -7.622  -4.198  -0.224  1.00  0.00     0.020 A 
ATOM     19  N   UNL     1      -7.356  -4.376   2.168  1.00  0.00    -0.264 NA
ATOM     20  C   UNL     1      -8.062  -4.577   1.034  1.00  0.00     0.111 A 
ENDBRANCH  14  15
ENDBRANCH  12  14
ENDBRANCH   5  12
ENDBRANCH   1   2
BRANCH   1  21
ATOM     21  C   UNL     1       0.977  -1.060  -0.585  1.00  0.00     0.042 C 
BRANCH  21  22
ATOM     22  C   UNL     1       2.468  -0.873  -0.720  1.00  0.00    -0.044 A 
ATOM     23  C   UNL     1       3.068  -0.784  -1.980  1.00  0.00     0.004 A 
ATOM     24  C   UNL     1       3.272  -0.766   0.424  1.00  0.00     0.050 A 
ATOM     25  C   UNL     1       4.446  -0.601  -2.087  1.00  0.00     0.004 A 
ATOM     26  C   UNL     1       4.657  -0.591   0.324  1.00  0.00     0.119 A 
ATOM     27  C   UNL     1       5.239  -0.503  -0.939  1.00  0.00     0.046 A 
BRANCH  26  28
ATOM     28  O   UNL     1       5.301  -0.512   1.526  1.00  0.00    -0.492 OA
BRANCH  28  29
ATOM     29  C   UNL     1       6.732  -0.479   1.546  1.00  0.00     0.244 C 
BRANCH  29  30
ATOM     30  C   UNL     1       7.250   0.965   1.471  1.00  0.00     0.119 C 
BRANCH  30  31
ATOM     31  N   UNL     1       6.867   1.741   2.654  1.00  0.00    -0.327 NA
ATOM     32  H   UNL     1       7.030   2.731   2.476  1.00  0.00     0.119 HD
ATOM     33  H   UNL     1       5.859   1.637   2.793  1.00  0.00     0.119 HD
ENDBRANCH  30  31
ENDBRANCH  29  30
ENDBRANCH  28  29
ENDBRANCH  26  28
ENDBRANCH  21  22
ENDBRANCH   1  21
TORSDOF 14
