REMARK SMILES N[C@@H]1OC(c2cc(Br)c(O)c(Br)c2)=CC=C1C(=O)O
REMARK SMILES IDX 2 1 3 2 4 3 14 4 15 5 16 6 1 7 17 10 18 11 19 12 5 14 6 15
REMARK SMILES IDX 13 16 7 17 11 18 9 19 8 20 12 21 10 22
REMARK H PARENT 1 8 1 9 19 13 10 23
ROOT
ATOM      1  C   UNL     1       2.039   1.150  -0.219  1.00  0.00     0.278 C 
ATOM      2  O   UNL     1       0.626   0.968  -0.435  1.00  0.00    -0.470 OA
ATOM      3  C   UNL     1       0.032  -0.191   0.022  1.00  0.00     0.129 C 
ATOM      4  C   UNL     1       0.731  -1.267   0.418  1.00  0.00     0.048 C 
ATOM      5  C   UNL     1       2.166  -1.273   0.323  1.00  0.00     0.020 C 
ATOM      6  C   UNL     1       2.800  -0.129   0.027  1.00  0.00     0.092 C 
ENDROOT
BRANCH   1   7
ATOM      7  N   UNL     1       2.214   2.118   0.861  1.00  0.00    -0.292 NA
ATOM      8  H   UNL     1       3.210   2.295   0.983  1.00  0.00     0.122 HD
ATOM      9  H   UNL     1       1.862   1.703   1.718  1.00  0.00     0.122 HD
ENDBRANCH   1   7
BRANCH   6  10
ATOM     10  C   UNL     1       4.262  -0.064  -0.128  1.00  0.00     0.336 C 
ATOM     11  O   UNL     1       4.905   0.955  -0.310  1.00  0.00    -0.247 OA
BRANCH  10  12
ATOM     12  O   UNL     1       4.870  -1.259  -0.045  1.00  0.00    -0.478 OA
ATOM     13  H   UNL     1       5.821  -1.054  -0.171  1.00  0.00     0.297 HD
ENDBRANCH  10  12
ENDBRANCH   6  10
BRANCH   3  14
ATOM     14  C   UNL     1      -1.442  -0.140   0.057  1.00  0.00     0.019 A 
ATOM     15  C   UNL     1      -2.088   1.038   0.463  1.00  0.00     0.031 A 
ATOM     16  C   UNL     1      -2.226  -1.236  -0.336  1.00  0.00     0.031 A 
ATOM     17  C   UNL     1      -3.484   1.115   0.496  1.00  0.00     0.061 A 
ATOM     18  C   UNL     1      -3.621  -1.155  -0.303  1.00  0.00     0.061 A 
ATOM     19  C   UNL     1      -4.256   0.016   0.115  1.00  0.00     0.143 A 
ATOM     20  Br  UNL     1      -4.284   2.737   1.068  1.00  0.00    -0.047 Br
ATOM     21  Br  UNL     1      -4.633  -2.668  -0.840  1.00  0.00    -0.047 Br
BRANCH  19  22
ATOM     22  O   UNL     1      -5.622   0.102   0.153  1.00  0.00    -0.506 OA
ATOM     23  H   UNL     1      -5.986  -0.746  -0.160  1.00  0.00     0.293 HD
ENDBRANCH  19  22
ENDBRANCH   3  14
TORSDOF 5
