MODEL        4USER    Run = 4USERUSER    Estimated Free Energy of Binding    =  -7.93 kcal/mol  [=(1)+(2)+(3)-(4)]USERUSER    (1) Final Intermolecular Energy     = -10.91 kcal/molUSER        vdW + Hbond + desolv Energy     = -10.41 kcal/molUSER        Electrostatic Energy            =  -0.50 kcal/molUSER        Moving Ligand-Fixed Receptor    = -10.91 kcal/molUSER        Moving Ligand-Moving Receptor   =  +0.00 kcal/molUSER    (2) Final Total Internal Energy     =  -3.28 kcal/molUSER    (3) Torsional Free Energy           =  +2.98 kcal/molUSER    (4) Unbound System's Energy         =  -3.28 kcal/molUSERUSERREMARK SMILES O=C(O)CCCC(=O)NC=Cc1cccc(-c2ccccc2)c1OREMARK SMILES IDX 7 1 8 2 9 3 6 5 5 6 4 7 2 8 1 9 3 10 10 12 11 13 12 14 13 15REMARK SMILES IDX 23 16 14 17 16 18 15 19 24 20 17 22 18 23 22 24 19 25 21 26REMARK SMILES IDX 20 27REMARK H PARENT 9 4 3 11 24 21USER                              x       y       z     vdW  Elec       q    TypeUSER                           _______ _______ _______ _____ _____    ______ ____ROOTATOM      1  C   UNL     1      36.633  43.657  19.741 -0.29 -0.02    +0.223 C  ATOM      2  O   UNL     1      36.948  43.048  20.756 -0.26 +0.00    -0.275 OA ATOM      3  N   UNL     1      37.382  44.651  19.123 -0.15 +0.04    -0.333 N  ATOM      4  H   UNL     1      36.951  45.115  18.330 +0.11 -0.04    +0.169 HD ENDROOTBRANCH   1   5ATOM      5  C   UNL     1      35.326  43.403  19.004 -0.37 -0.02    +0.101 C  BRANCH   5   6ATOM      6  C   UNL     1      34.209  44.379  19.374 -0.45 -0.00    +0.022 C  BRANCH   6   7ATOM      7  C   UNL     1      33.731  45.210  18.182 -0.38 -0.06    +0.123 C  BRANCH   7   8ATOM      8  C   UNL     1      34.638  46.386  17.933 -0.29 -0.25    +0.303 C  ATOM      9  O   UNL     1      35.717  46.382  17.367 -0.30 +0.19    -0.252 OA BRANCH   8  10ATOM     10  O   UNL     1      34.114  47.534  18.401 -0.88 +0.50    -0.481 OA ATOM     11  H   UNL     1      33.777  47.984  17.598 -0.31 -0.81    +0.296 HD ENDBRANCH   8  10ENDBRANCH   7   8ENDBRANCH   6   7ENDBRANCH   5   6ENDBRANCH   1   5BRANCH   3  12ATOM     12  C   UNL     1      38.622  45.128  19.485 -0.38 -0.01    +0.086 C  BRANCH  12  13ATOM     13  C   UNL     1      39.693  45.254  18.690 -0.47 -0.00    +0.030 C  BRANCH  13  14ATOM     14  C   UNL     1      39.692  46.215  17.581 -0.45 -0.00    +0.018 A  ATOM     15  C   UNL     1      40.644  47.240  17.591 -0.51 -0.00    +0.012 A  ATOM     16  C   UNL     1      38.787  46.125  16.506 -0.31 -0.04    +0.130 A  ATOM     17  C   UNL     1      40.699  48.157  16.544 -0.56 -0.00    +0.002 A  ATOM     18  C   UNL     1      38.828  47.041  15.433 -0.44 -0.01    +0.024 A  ATOM     19  C   UNL     1      39.801  48.055  15.479 -0.54 -0.00    +0.012 A  BRANCH  16  20ATOM     20  O   UNL     1      37.825  45.141  16.486 -0.05 +0.15    -0.507 OA ATOM     21  H   UNL     1      36.949  45.561  16.500 +0.21 -0.13    +0.293 HD ENDBRANCH  16  20BRANCH  18  22ATOM     22  C   UNL     1      37.899  46.975  14.288 -0.45 +0.01    -0.015 A  ATOM     23  C   UNL     1      37.634  45.762  13.630 -0.43 -0.00    +0.009 A  ATOM     24  C   UNL     1      37.265  48.135  13.806 -0.56 -0.00    +0.009 A  ATOM     25  C   UNL     1      36.768  45.707  12.535 -0.58 -0.00    +0.001 A  ATOM     26  C   UNL     1      36.399  48.083  12.711 -0.62 -0.00    +0.001 A  ATOM     27  C   UNL     1      36.152  46.867  12.075 -0.69 -0.00    +0.000 A  ENDBRANCH  18  22ENDBRANCH  13  14ENDBRANCH  12  13ENDBRANCH   3  12TORSDOF 10TERENDMDL