REMARK SMILES O=C(O)CCCC(=O)NC=Cc1cccc(-c2ccccc2)c1O
REMARK SMILES IDX 7 1 8 2 9 3 6 5 5 6 4 7 2 8 1 9 3 10 10 12 11 13 12 14 13 15
REMARK SMILES IDX 23 16 14 17 16 18 15 19 24 20 17 22 18 23 22 24 19 25 21 26
REMARK SMILES IDX 20 27
REMARK H PARENT 9 4 3 11 24 21
ROOT
ATOM      1  C   UNL     1       3.064   0.098   0.846  1.00  0.00     0.223 C 
ATOM      2  O   UNL     1       2.952   0.436  -0.326  1.00  0.00    -0.275 OA
ATOM      3  N   UNL     1       2.070  -0.484   1.623  1.00  0.00    -0.333 N 
ATOM      4  H   UNL     1       2.293  -0.639   2.601  1.00  0.00     0.169 HD
ENDROOT
BRANCH   1   5
ATOM      5  C   UNL     1       4.351   0.288   1.636  1.00  0.00     0.101 C 
BRANCH   5   6
ATOM      6  C   UNL     1       5.471   0.956   0.839  1.00  0.00     0.022 C 
BRANCH   6   7
ATOM      7  C   UNL     1       6.101   0.021  -0.195  1.00  0.00     0.123 C 
BRANCH   7   8
ATOM      8  C   UNL     1       7.233   0.694  -0.925  1.00  0.00     0.303 C 
ATOM      9  O   UNL     1       7.705   1.796  -0.707  1.00  0.00    -0.252 OA
BRANCH   8  10
ATOM     10  O   UNL     1       7.738  -0.087  -1.899  1.00  0.00    -0.481 OA
ATOM     11  H   UNL     1       8.446   0.462  -2.297  1.00  0.00     0.296 HD
ENDBRANCH   8  10
ENDBRANCH   7   8
ENDBRANCH   6   7
ENDBRANCH   5   6
ENDBRANCH   1   5
BRANCH   3  12
ATOM     12  C   UNL     1       0.792  -0.830   1.246  1.00  0.00     0.086 C 
BRANCH  12  13
ATOM     13  C   UNL     1       0.277  -0.760   0.011  1.00  0.00     0.030 C 
BRANCH  13  14
ATOM     14  C   UNL     1      -1.117  -1.142  -0.242  1.00  0.00     0.018 A 
ATOM     15  C   UNL     1      -1.381  -2.451  -0.659  1.00  0.00     0.012 A 
ATOM     16  C   UNL     1      -2.189  -0.247  -0.058  1.00  0.00     0.130 A 
ATOM     17  C   UNL     1      -2.692  -2.865  -0.883  1.00  0.00     0.002 A 
ATOM     18  C   UNL     1      -3.524  -0.647  -0.275  1.00  0.00     0.024 A 
ATOM     19  C   UNL     1      -3.749  -1.972  -0.691  1.00  0.00     0.012 A 
BRANCH  16  20
ATOM     20  O   UNL     1      -1.952   1.053   0.327  1.00  0.00    -0.507 OA
ATOM     21  H   UNL     1      -1.000   1.232   0.248  1.00  0.00     0.293 HD
ENDBRANCH  16  20
BRANCH  18  22
ATOM     22  C   UNL     1      -4.673   0.261  -0.088  1.00  0.00    -0.015 A 
ATOM     23  C   UNL     1      -4.906   0.902   1.140  1.00  0.00     0.009 A 
ATOM     24  C   UNL     1      -5.584   0.496  -1.134  1.00  0.00     0.009 A 
ATOM     25  C   UNL     1      -6.005   1.746   1.319  1.00  0.00     0.001 A 
ATOM     26  C   UNL     1      -6.684   1.339  -0.958  1.00  0.00     0.001 A 
ATOM     27  C   UNL     1      -6.894   1.964   0.270  1.00  0.00     0.000 A 
ENDBRANCH  18  22
ENDBRANCH  13  14
ENDBRANCH  12  13
ENDBRANCH   3  12
TORSDOF 10
