REMARK SMILES COc1ccc(O)cc1C(CCl)=C(O)C=Cc1nc(N)[nH]c1CC#N
REMARK SMILES IDX 15 1 13 2 10 3 9 4 3 5 4 6 5 7 8 8 6 9 2 10 1 11 7 12 11 14
REMARK SMILES IDX 12 15 14 16 16 18 17 19 18 20 22 21 19 22 21 23 23 25 24 26
REMARK SMILES IDX 25 27 20 28
REMARK H PARENT 7 13 14 17 21 24 20 29 20 30
ROOT
ATOM      1  C   UNL     1       0.523  -1.010  -0.570  1.00  0.00     0.049 C 
ENDROOT
BRANCH   1   2
ATOM      2  C   UNL     1       0.161  -0.474   0.732  1.00  0.00     0.120 C 
BRANCH   2   3
ATOM      3  C   UNL     1      -1.073  -0.021   1.057  1.00  0.00     0.020 C 
BRANCH   3   4
ATOM      4  C   UNL     1      -2.173   0.050   0.059  1.00  0.00     0.028 A 
ATOM      5  C   UNL     1      -3.290  -0.811   0.134  1.00  0.00     0.126 A 
ATOM      6  C   UNL     1      -4.306  -0.703  -0.821  1.00  0.00     0.051 A 
ATOM      7  C   UNL     1      -4.214   0.244  -1.844  1.00  0.00     0.050 A 
ATOM      8  C   UNL     1      -2.094   1.002  -0.973  1.00  0.00     0.058 A 
ATOM      9  C   UNL     1      -3.113   1.086  -1.914  1.00  0.00     0.116 A 
BRANCH   5  10
ATOM     10  O   UNL     1      -3.296  -1.704   1.176  1.00  0.00    -0.496 OA
ATOM     11  C   UNL     1      -4.303  -2.710   1.166  1.00  0.00     0.278 C 
ENDBRANCH   5  10
BRANCH   9  12
ATOM     12  O   UNL     1      -3.072   1.992  -2.931  1.00  0.00    -0.508 OA
ATOM     13  H   UNL     1      -2.243   2.494  -2.876  1.00  0.00     0.293 HD
ENDBRANCH   9  12
ENDBRANCH   3   4
BRANCH   3  14
ATOM     14  C   UNL     1      -1.498   0.400   2.442  1.00  0.00     0.149 C 
ATOM     15  Cl  UNL     1      -0.454   1.710   3.061  1.00  0.00    -0.121 Cl
ENDBRANCH   3  14
ENDBRANCH   2   3
BRANCH   2  16
ATOM     16  O   UNL     1       1.184  -0.563   1.654  1.00  0.00    -0.508 OA
ATOM     17  H   UNL     1       0.914  -0.139   2.485  1.00  0.00     0.293 HD
ENDBRANCH   2  16
ENDBRANCH   1   2
BRANCH   1  18
ATOM     18  C   UNL     1       1.711  -1.030  -1.199  1.00  0.00     0.034 C 
BRANCH  18  19
ATOM     19  C   UNL     1       2.967  -0.471  -0.840  1.00  0.00     0.087 A 
ATOM     20  N   UNL     1       4.102  -1.179  -1.150  1.00  0.00    -0.214 NA
ATOM     21  C   UNL     1       3.279   0.763  -0.304  1.00  0.00     0.058 A 
ATOM     22  C   UNL     1       5.097  -0.440  -0.741  1.00  0.00     0.198 A 
ATOM     23  N   UNL     1       4.655   0.738  -0.208  1.00  0.00    -0.327 N 
ATOM     24  H   UNL     1       5.256   1.480   0.119  1.00  0.00     0.169 HD
BRANCH  21  25
ATOM     25  C   UNL     1       2.450   1.927   0.116  1.00  0.00     0.176 C 
BRANCH  25  26
ATOM     26  C   UNL     1       3.057   3.212  -0.269  1.00  0.00     0.069 C 
ATOM     27  N   UNL     1       3.561   4.220  -0.551  1.00  0.00    -0.198 NA
ENDBRANCH  25  26
ENDBRANCH  21  25
BRANCH  22  28
ATOM     28  N   UNL     1       6.405  -0.720  -0.812  1.00  0.00    -0.369 N 
ATOM     29  H   UNL     1       6.604  -1.688  -1.053  1.00  0.00     0.159 HD
ATOM     30  H   UNL     1       7.034  -0.371  -0.099  1.00  0.00     0.159 HD
ENDBRANCH  22  28
ENDBRANCH  18  19
ENDBRANCH   1  18
TORSDOF 12
