MODEL        2USER    Run = 2USERUSER    Estimated Free Energy of Binding    =  -8.93 kcal/mol  [=(1)+(2)+(3)-(4)]USERUSER    (1) Final Intermolecular Energy     = -11.92 kcal/molUSER        vdW + Hbond + desolv Energy     = -11.78 kcal/molUSER        Electrostatic Energy            =  -0.14 kcal/molUSER        Moving Ligand-Fixed Receptor    = -11.92 kcal/molUSER        Moving Ligand-Moving Receptor   =  +0.00 kcal/molUSER    (2) Final Total Internal Energy     =  -0.96 kcal/molUSER    (3) Torsional Free Energy           =  +2.98 kcal/molUSER    (4) Unbound System's Energy         =  -0.96 kcal/molUSERUSERREMARK SMILES C=CC(=O)c1ccccc1C=Cc1cc(CCCCN(C)C)no1REMARK SMILES IDX 13 1 14 2 15 3 23 4 24 5 12 6 11 7 10 8 5 9 6 10 7 11 9 12REMARK SMILES IDX 8 13 3 14 4 15 2 16 1 17 16 18 17 19 18 20 19 21 20 22 21 23REMARK SMILES IDX 22 24REMARK H PARENTUSER                              x       y       z     vdW  Elec       q    TypeUSER                           _______ _______ _______ _____ _____    ______ ____ROOTATOM      1  C   UNL     1      32.420  29.751  22.895 -0.46 +0.01    +0.159 A  ATOM      2  C   UNL     1      31.555  30.483  22.097 -0.54 -0.00    +0.077 A  ATOM      3  C   UNL     1      30.324  30.519  22.786 -0.51 -0.00    +0.084 A  ATOM      4  N   UNL     1      30.405  29.851  23.938 -1.06 -0.02    -0.084 NA ATOM      5  O   UNL     1      31.698  29.378  24.007 -0.70 -0.10    -0.357 OA ENDROOTBRANCH   1   6ATOM      6  C   UNL     1      33.782  29.379  22.725 -0.54 -0.00    +0.051 C  BRANCH   6   7ATOM      7  C   UNL     1      34.799  30.168  23.103 -0.45 -0.00    +0.013 C  BRANCH   7   8ATOM      8  C   UNL     1      36.103  30.179  22.417 -0.39 +0.00    -0.014 A  ATOM      9  C   UNL     1      37.223  30.843  22.953 -0.43 +0.00    +0.029 A  ATOM     10  C   UNL     1      38.457  30.822  22.284 -0.44 +0.00    +0.013 A  ATOM     11  C   UNL     1      38.583  30.143  21.073 -0.38 +0.00    +0.001 A  ATOM     12  C   UNL     1      36.256  29.491  21.203 -0.28 -0.00    +0.009 A  ATOM     13  C   UNL     1      37.483  29.477  20.535 -0.34 -0.00    +0.001 A  BRANCH   9  14ATOM     14  C   UNL     1      37.140  31.572  24.241 -0.46 +0.02    +0.185 C  ATOM     15  O   UNL     1      37.310  32.784  24.290 -0.89 -0.03    -0.289 OA BRANCH  14  16ATOM     16  C   UNL     1      36.847  30.744  25.443 -0.48 +0.00    +0.045 C  ATOM     17  C   UNL     1      37.234  29.463  25.489 -0.37 +0.00    +0.013 C  ENDBRANCH  14  16ENDBRANCH   9  14ENDBRANCH   7   8ENDBRANCH   6   7ENDBRANCH   1   6BRANCH   3  18ATOM     18  C   UNL     1      29.053  31.174  22.368 -0.52 -0.01    +0.060 C  BRANCH  18  19ATOM     19  C   UNL     1      28.906  32.582  22.950 -0.51 +0.00    +0.008 C  BRANCH  19  20ATOM     20  C   UNL     1      28.338  33.602  21.955 -0.47 -0.00    +0.016 C  BRANCH  20  21ATOM     21  C   UNL     1      27.122  33.129  21.143 -0.42 -0.07    +0.084 C  BRANCH  21  22ATOM     22  N   UNL     1      27.039  33.699  19.791 -0.24 +0.27    -0.309 NA ATOM     23  C   UNL     1      25.998  33.057  18.986 -0.61 -0.12    +0.104 C  ATOM     24  C   UNL     1      26.791  35.141  19.864 -0.32 -0.09    +0.104 C  ENDBRANCH  21  22ENDBRANCH  20  21ENDBRANCH  19  20ENDBRANCH  18  19ENDBRANCH   3  18TORSDOF 10TERENDMDL