MODEL        8USER    Run = 8USERUSER    Estimated Free Energy of Binding    =  -8.82 kcal/mol  [=(1)+(2)+(3)-(4)]USERUSER    (1) Final Intermolecular Energy     = -10.31 kcal/molUSER        vdW + Hbond + desolv Energy     =  -9.66 kcal/molUSER        Electrostatic Energy            =  -0.65 kcal/molUSER        Moving Ligand-Fixed Receptor    = -10.31 kcal/molUSER        Moving Ligand-Moving Receptor   =  +0.00 kcal/molUSER    (2) Final Total Internal Energy     =  -1.06 kcal/molUSER    (3) Torsional Free Energy           =  +1.49 kcal/molUSER    (4) Unbound System's Energy         =  -1.06 kcal/molUSERUSERREMARK SMILES N[C@@H]1OC(c2cc(Br)c(O)c(Br)c2)=CC=C1C(=O)OREMARK SMILES IDX 2 1 3 2 4 3 14 4 15 5 16 6 1 7 17 10 18 11 19 12 5 14 6 15REMARK SMILES IDX 13 16 7 17 11 18 9 19 8 20 12 21 10 22REMARK H PARENT 1 8 1 9 19 13 10 23USER                              x       y       z     vdW  Elec       q    TypeUSER                           _______ _______ _______ _____ _____    ______ ____ROOTATOM      1  C   UNL     1      34.856  45.889  17.836 -0.28 -0.18    +0.278 C  ATOM      2  O   UNL     1      36.286  46.021  17.950 -0.10 +0.21    -0.470 OA ATOM      3  C   UNL     1      37.017  46.290  16.810 -0.33 -0.07    +0.129 C  ATOM      4  C   UNL     1      36.513  46.176  15.571 -0.40 -0.03    +0.048 C  ATOM      5  C   UNL     1      35.170  45.699  15.377 -0.40 -0.02    +0.020 C  ATOM      6  C   UNL     1      34.370  45.564  16.445 -0.30 -0.08    +0.092 C  ENDROOTBRANCH   1   7ATOM      7  N   UNL     1      34.242  47.102  18.371 -0.82 +0.27    -0.292 NA ATOM      8  H   UNL     1      33.933  46.918  19.324 -0.40 -0.06    +0.122 HD ATOM      9  H   UNL     1      33.422  47.315  17.811 -0.47 -0.21    +0.122 HD ENDBRANCH   1   7BRANCH   6  10ATOM     10  C   UNL     1      32.998  45.044  16.333 -0.15 -0.22    +0.336 C  ATOM     11  O   UNL     1      32.691  43.971  15.844 -0.24 +0.12    -0.247 OA BRANCH  10  12ATOM     12  O   UNL     1      32.063  45.867  16.836 -0.30 +0.21    -0.478 OA ATOM     13  H   UNL     1      32.542  46.710  16.989 -0.33 -0.44    +0.297 HD ENDBRANCH  10  12ENDBRANCH   6  10BRANCH   3  14ATOM     14  C   UNL     1      38.400  46.734  17.071 -0.35 -0.01    +0.019 A  ATOM     15  C   UNL     1      38.972  47.735  16.271 -0.43 -0.01    +0.031 A  ATOM     16  C   UNL     1      39.157  46.201  18.126 -0.39 -0.01    +0.031 A  ATOM     17  C   UNL     1      40.277  48.180  16.503 -0.48 -0.01    +0.061 A  ATOM     18  C   UNL     1      40.461  46.649  18.356 -0.43 -0.00    +0.061 A  ATOM     19  C   UNL     1      41.028  47.635  17.547 -0.41 -0.02    +0.143 A  ATOM     20  Br  UNL     1      40.985  49.527  15.371 -1.22 +0.01    -0.047 Br ATOM     21  Br  UNL     1      41.443  45.891  19.792 -0.77 -0.00    -0.047 Br BRANCH  19  22ATOM     22  O   UNL     1      42.306  48.077  17.764 -0.27 -0.00    -0.506 OA ATOM     23  H   UNL     1      42.914  47.336  17.590 -0.39 -0.08    +0.293 HD ENDBRANCH  19  22ENDBRANCH   3  14TORSDOF 5TERENDMDL