MODEL        6USER    Run = 6USERUSER    Estimated Free Energy of Binding    =  -7.53 kcal/mol  [=(1)+(2)+(3)-(4)]USERUSER    (1) Final Intermolecular Energy     = -11.11 kcal/molUSER        vdW + Hbond + desolv Energy     = -10.72 kcal/molUSER        Electrostatic Energy            =  -0.40 kcal/molUSER        Moving Ligand-Fixed Receptor    = -11.11 kcal/molUSER        Moving Ligand-Moving Receptor   =  +0.00 kcal/molUSER    (2) Final Total Internal Energy     =  -1.65 kcal/molUSER    (3) Torsional Free Energy           =  +3.58 kcal/molUSER    (4) Unbound System's Energy         =  -1.65 kcal/molUSERUSERREMARK SMILES COc1ccc(O)cc1C(CCl)=C(O)C=Cc1nc(N)[nH]c1CC#NREMARK SMILES IDX 15 1 13 2 10 3 9 4 3 5 4 6 5 7 8 8 6 9 2 10 1 11 7 12 11 14REMARK SMILES IDX 12 15 14 16 16 18 17 19 18 20 22 21 19 22 21 23 23 25 24 26REMARK SMILES IDX 25 27 20 28REMARK H PARENT 7 13 14 17 21 24 20 29 20 30USER                              x       y       z     vdW  Elec       q    TypeUSER                           _______ _______ _______ _____ _____    ______ ____ROOTATOM      1  C   UNL     1      40.126  45.821  18.321 -0.49 -0.00    +0.049 C  ENDROOTBRANCH   1   2ATOM      2  C   UNL     1      40.033  45.556  19.747 -0.38 -0.00    +0.120 C  BRANCH   2   3ATOM      3  C   UNL     1      41.067  45.143  20.518 -0.40 +0.00    +0.020 C  BRANCH   3   4ATOM      4  C   UNL     1      41.855  46.091  21.350 -0.30 +0.00    +0.028 A  ATOM      5  C   UNL     1      41.289  46.723  22.479 -0.14 +0.01    +0.126 A  ATOM      6  C   UNL     1      42.069  47.600  23.239 -0.26 +0.01    +0.051 A  ATOM      7  C   UNL     1      43.395  47.854  22.881 -0.31 +0.01    +0.050 A  ATOM      8  C   UNL     1      43.192  46.351  21.003 -0.23 +0.02    +0.058 A  ATOM      9  C   UNL     1      43.946  47.231  21.770 -0.26 +0.05    +0.116 A  BRANCH   5  10ATOM     10  O   UNL     1      39.982  46.407  22.757 -0.07 -0.04    -0.496 OA ATOM     11  C   UNL     1      39.395  47.013  23.903 -0.22 +0.03    +0.278 C  ENDBRANCH   5  10BRANCH   9  12ATOM     12  O   UNL     1      45.244  47.513  21.464 -0.64 -0.51    -0.508 OA ATOM     13  H   UNL     1      45.344  48.473  21.358 -0.32 +0.09    +0.293 HD ENDBRANCH   9  12ENDBRANCH   3   4BRANCH   3  14ATOM     14  C   UNL     1      41.504  43.708  20.676 -0.18 +0.02    +0.149 C  ATOM     15  Cl  UNL     1      41.110  43.095  22.306 -0.40 -0.00    -0.121 Cl ENDBRANCH   3  14ENDBRANCH   2   3BRANCH   2  16ATOM     16  O   UNL     1      38.795  45.864  20.273 -0.08 -0.00    -0.508 OA ATOM     17  H   UNL     1      38.878  46.046  21.223 +0.15 +0.02    +0.293 HD ENDBRANCH   2  16ENDBRANCH   1   2BRANCH   1  18ATOM     18  C   UNL     1      40.922  46.670  17.648 -0.54 -0.00    +0.034 C  BRANCH  18  19ATOM     19  C   UNL     1      40.615  47.687  16.704 -0.47 -0.01    +0.087 A  ATOM     20  N   UNL     1      41.397  48.816  16.693 -0.93 +0.00    -0.214 NA ATOM     21  C   UNL     1      39.695  47.707  15.674 -0.48 -0.02    +0.058 A  ATOM     22  C   UNL     1      40.923  49.560  15.731 -0.47 -0.04    +0.198 A  ATOM     23  N   UNL     1      39.884  48.944  15.092 -0.28 +0.13    -0.327 N  ATOM     24  H   UNL     1      39.406  49.316  14.285 -0.20 -0.10    +0.169 HD BRANCH  21  25ATOM     25  C   UNL     1      38.689  46.721  15.192 -0.36 -0.06    +0.176 C  BRANCH  25  26ATOM     26  C   UNL     1      38.110  47.103  13.893 -0.50 -0.02    +0.069 C  ATOM     27  N   UNL     1      37.685  47.406  12.855 -0.88 +0.04    -0.198 NA ENDBRANCH  25  26ENDBRANCH  21  25BRANCH  22  28ATOM     28  N   UNL     1      41.351  50.770  15.348 -0.32 +0.12    -0.369 N  ATOM     29  H   UNL     1      41.996  51.203  16.005 -0.41 -0.05    +0.159 HD ATOM     30  H   UNL     1      40.693  51.439  14.967 -0.33 -0.09    +0.159 HD ENDBRANCH  22  28ENDBRANCH  18  19ENDBRANCH   1  18TORSDOF 12TERENDMDL