MODEL        8USER    Run = 8USERUSER    Estimated Free Energy of Binding    =  -9.13 kcal/mol  [=(1)+(2)+(3)-(4)]USERUSER    (1) Final Intermolecular Energy     = -10.62 kcal/molUSER        vdW + Hbond + desolv Energy     = -10.56 kcal/molUSER        Electrostatic Energy            =  -0.06 kcal/molUSER        Moving Ligand-Fixed Receptor    = -10.62 kcal/molUSER        Moving Ligand-Moving Receptor   =  +0.00 kcal/molUSER    (2) Final Total Internal Energy     =  -0.92 kcal/molUSER    (3) Torsional Free Energy           =  +1.49 kcal/molUSER    (4) Unbound System's Energy         =  -0.92 kcal/molUSERUSERREMARK SMILES CC(C)Cc1nnc2ccc(-c3ccnc(NC4CC4)c3)cn12REMARK SMILES IDX 5 1 6 2 7 3 8 4 9 5 10 6 11 7 22 8 23 9 4 10 2 11 1 12 3 13REMARK SMILES IDX 12 14 13 15 21 16 14 17 16 18 15 19 17 20 18 22 19 23 20 24REMARK H PARENT 17 21USER                              x       y       z     vdW  Elec       q    TypeUSER                           _______ _______ _______ _____ _____    ______ ____ROOTATOM      1  C   UNL     1      35.214  45.222  16.188 -0.23 -0.09    +0.137 A  ATOM      2  N   UNL     1      34.195  45.066  15.363 -0.26 +0.10    -0.135 NA ATOM      3  N   UNL     1      34.385  45.884  14.275 -0.28 +0.11    -0.130 NA ATOM      4  C   UNL     1      35.524  46.515  14.442 -0.28 -0.13    +0.160 A  ATOM      5  C   UNL     1      36.221  47.465  13.651 -0.48 -0.03    +0.050 A  ATOM      6  C   UNL     1      37.406  47.943  14.077 -0.53 -0.01    +0.014 A  ATOM      7  C   UNL     1      38.006  47.511  15.342 -0.46 +0.00    -0.001 A  ATOM      8  C   UNL     1      37.332  46.610  16.090 -0.32 -0.06    +0.103 A  ATOM      9  N   UNL     1      36.103  46.125  15.641 -0.17 +0.21    -0.286 N  ENDROOTBRANCH   1  10ATOM     10  C   UNL     1      35.410  44.522  17.492 -0.31 -0.03    +0.081 C  BRANCH  10  11ATOM     11  C   UNL     1      34.684  45.211  18.664 -0.48 +0.00    -0.010 C  ATOM     12  C   UNL     1      34.295  46.637  18.268 -0.58 -0.01    +0.008 C  ATOM     13  C   UNL     1      33.435  44.435  19.093 -0.49 -0.00    +0.008 C  ENDBRANCH  10  11ENDBRANCH   1  10BRANCH   7  14ATOM     14  C   UNL     1      39.296  48.019  15.834 -0.50 +0.00    -0.012 A  ATOM     15  C   UNL     1      39.952  47.373  16.877 -0.48 -0.01    +0.029 A  ATOM     16  C   UNL     1      39.880  49.156  15.267 -0.44 -0.02    +0.055 A  ATOM     17  C   UNL     1      41.167  47.885  17.293 -0.41 -0.01    +0.114 A  ATOM     18  C   UNL     1      41.100  49.617  15.755 -0.54 -0.02    +0.126 A  ATOM     19  N   UNL     1      41.747  48.976  16.751 -0.84 -0.04    -0.240 NA BRANCH  18  20ATOM     20  N   UNL     1      41.681  50.750  15.132 -0.35 +0.09    -0.367 N  ATOM     21  H   UNL     1      41.814  51.474  15.831 -0.37 -0.07    +0.162 HD BRANCH  20  22ATOM     22  C   UNL     1      42.834  50.531  14.251 -0.51 -0.02    +0.080 C  ATOM     23  C   UNL     1      42.720  49.619  13.061 -0.65 -0.01    +0.027 C  ATOM     24  C   UNL     1      42.873  51.099  12.860 -0.61 -0.01    +0.027 C  ENDBRANCH  20  22ENDBRANCH  18  20ENDBRANCH   7  14TORSDOF 5TERENDMDL