REMARK SMILES C=CC(=O)c1ccccc1C=Cc1cc(CCCCN(C)C)no1
REMARK SMILES IDX 13 1 14 2 15 3 23 4 24 5 12 6 11 7 10 8 5 9 6 10 7 11 9 12
REMARK SMILES IDX 8 13 3 14 4 15 2 16 1 17 16 18 17 19 18 20 19 21 20 22 21 23
REMARK SMILES IDX 22 24
REMARK H PARENT
ROOT
ATOM      1  C   UNL     1      -0.870  -0.689   1.010  1.00  0.00     0.159 A 
ATOM      2  C   UNL     1      -0.072  -0.165   0.006  1.00  0.00     0.077 A 
ATOM      3  C   UNL     1       1.188   0.076   0.594  1.00  0.00     0.084 A 
ATOM      4  N   UNL     1       1.184  -0.269   1.883  1.00  0.00    -0.084 NA
ATOM      5  O   UNL     1      -0.085  -0.742   2.141  1.00  0.00    -0.357 OA
ENDROOT
BRANCH   1   6
ATOM      6  C   UNL     1      -2.227  -1.116   1.019  1.00  0.00     0.051 C 
BRANCH   6   7
ATOM      7  C   UNL     1      -2.985  -1.138  -0.088  1.00  0.00     0.013 C 
BRANCH   7   8
ATOM      8  C   UNL     1      -4.397  -1.556  -0.085  1.00  0.00    -0.014 A 
ATOM      9  C   UNL     1      -5.408  -0.776  -0.678  1.00  0.00     0.029 A 
ATOM     10  C   UNL     1      -6.744  -1.209  -0.673  1.00  0.00     0.013 A 
ATOM     11  C   UNL     1      -7.082  -2.421  -0.073  1.00  0.00     0.001 A 
ATOM     12  C   UNL     1      -4.759  -2.779   0.503  1.00  0.00     0.009 A 
ATOM     13  C   UNL     1      -6.090  -3.205   0.513  1.00  0.00     0.001 A 
BRANCH   9  14
ATOM     14  C   UNL     1      -5.096   0.516  -1.334  1.00  0.00     0.185 C 
ATOM     15  O   UNL     1      -4.314   0.572  -2.275  1.00  0.00    -0.289 OA
BRANCH  14  16
ATOM     16  C   UNL     1      -5.781   1.714  -0.775  1.00  0.00     0.045 C 
ATOM     17  C   UNL     1      -5.623   2.911  -1.352  1.00  0.00     0.013 C 
ENDBRANCH  14  16
ENDBRANCH   9  14
ENDBRANCH   7   8
ENDBRANCH   6   7
ENDBRANCH   1   6
BRANCH   3  18
ATOM     18  C   UNL     1       2.410   0.640  -0.044  1.00  0.00     0.060 C 
BRANCH  18  19
ATOM     19  C   UNL     1       3.413  -0.447  -0.440  1.00  0.00     0.008 C 
BRANCH  19  20
ATOM     20  C   UNL     1       4.550   0.063  -1.334  1.00  0.00     0.016 C 
BRANCH  20  21
ATOM     21  C   UNL     1       5.366   1.234  -0.765  1.00  0.00     0.084 C 
BRANCH  21  22
ATOM     22  N   UNL     1       5.892   1.004   0.588  1.00  0.00    -0.309 NA
ATOM     23  C   UNL     1       6.913  -0.046   0.611  1.00  0.00     0.104 C 
ATOM     24  C   UNL     1       6.446   2.246   1.134  1.00  0.00     0.104 C 
ENDBRANCH  21  22
ENDBRANCH  20  21
ENDBRANCH  19  20
ENDBRANCH  18  19
ENDBRANCH   3  18
TORSDOF 10
