MODEL        10USER    Run = 10USERUSER    Estimated Free Energy of Binding    = -10.38 kcal/mol  [=(1)+(2)+(3)-(4)]USERUSER    (1) Final Intermolecular Energy     = -12.77 kcal/molUSER        vdW + Hbond + desolv Energy     = -12.55 kcal/molUSER        Electrostatic Energy            =  -0.22 kcal/molUSER        Moving Ligand-Fixed Receptor    = -12.77 kcal/molUSER        Moving Ligand-Moving Receptor   =  +0.00 kcal/molUSER    (2) Final Total Internal Energy     =  -0.87 kcal/molUSER    (3) Torsional Free Energy           =  +2.39 kcal/molUSER    (4) Unbound System's Energy         =  -0.87 kcal/molUSERUSERREMARK SMILES O=C(O)CCC[C@H]1Cc2cc(-c3cccc(-c4ccnc(F)c4)c3F)ccc2C[C@@H]1OREMARK SMILES IDX 5 1 4 2 2 3 1 4 3 5 6 7 7 8 8 9 30 10 9 11 29 12 10 13 28 14REMARK SMILES IDX 11 15 27 16 26 17 31 18 12 20 13 21 24 22 14 23 16 24 15 25REMARK SMILES IDX 25 26 17 27 18 28 23 29 19 30 21 31 20 32 22 33REMARK H PARENT 3 6 31 19USER                              x       y       z     vdW  Elec       q    TypeUSER                           _______ _______ _______ _____ _____    ______ ____ROOTATOM      1  C   UNL     1      36.514  46.999  14.693 -0.48 -0.01    +0.012 C  ENDROOTBRANCH   1   2ATOM      2  C   UNL     1      35.622  46.836  13.464 -0.49 -0.08    +0.122 C  BRANCH   2   3ATOM      3  C   UNL     1      36.406  46.612  12.201 -0.48 -0.13    +0.303 C  ATOM      4  O   UNL     1      36.587  45.540  11.650 -0.48 +0.09    -0.252 OA BRANCH   3   5ATOM      5  O   UNL     1      36.944  47.742  11.707 -0.83 +0.14    -0.481 OA ATOM      6  H   UNL     1      36.165  48.292  11.479 -0.15 -0.19    +0.296 HD ENDBRANCH   3   5ENDBRANCH   2   3ENDBRANCH   1   2BRANCH   1   7ATOM      7  C   UNL     1      37.987  47.214  14.317 -0.54 -0.00    +0.007 C  BRANCH   7   8ATOM      8  C   UNL     1      38.940  47.499  15.498 -0.53 -0.01    +0.022 C  ATOM      9  C   UNL     1      39.131  46.268  16.398 -0.46 -0.01    +0.042 C  ATOM     10  C   UNL     1      40.314  48.044  15.080 -0.52 -0.03    +0.122 C  ATOM     11  C   UNL     1      40.140  46.480  17.503 -0.45 +0.01    -0.044 A  ATOM     12  C   UNL     1      41.097  48.509  16.314 -0.57 -0.01    +0.067 C  ATOM     13  C   UNL     1      40.159  45.587  18.589 -0.45 -0.00    +0.012 A  ATOM     14  C   UNL     1      41.090  47.512  17.443 -0.48 +0.00    -0.042 A  ATOM     15  C   UNL     1      41.089  45.712  19.636 -0.42 -0.00    -0.015 A  ATOM     16  C   UNL     1      42.013  47.653  18.487 -0.49 -0.00    +0.005 A  ATOM     17  C   UNL     1      42.012  46.764  19.564 -0.45 +0.00    +0.009 A  BRANCH  10  18ATOM     18  O   UNL     1      40.145  49.142  14.185 -0.25 +0.15    -0.392 OA ATOM     19  H   UNL     1      39.269  49.529  14.358 -0.21 -0.16    +0.210 HD ENDBRANCH  10  18BRANCH  15  20ATOM     20  C   UNL     1      41.095  44.764  20.764 -0.33 +0.00    +0.018 A  ATOM     21  C   UNL     1      42.304  44.358  21.350 -0.25 +0.00    +0.012 A  ATOM     22  C   UNL     1      39.903  44.236  21.296 -0.20 +0.01    +0.138 A  ATOM     23  C   UNL     1      42.321  43.462  22.419 -0.31 +0.00    +0.001 A  ATOM     24  C   UNL     1      39.888  43.326  22.371 -0.25 +0.00    +0.018 A  ATOM     25  C   UNL     1      41.124  42.951  22.924 -0.28 +0.00    +0.012 A  ATOM     26  F   UNL     1      38.731  44.597  20.742 -0.08 -0.00    -0.206 F  BRANCH  24  27ATOM     27  C   UNL     1      38.628  42.783  22.908 -0.31 -0.00    -0.009 A  ATOM     28  C   UNL     1      38.294  42.925  24.261 -0.28 +0.00    +0.029 A  ATOM     29  C   UNL     1      37.716  42.111  22.088 -0.36 +0.00    +0.069 A  ATOM     30  C   UNL     1      37.092  42.405  24.720 -0.32 +0.00    +0.115 A  ATOM     31  C   UNL     1      36.542  41.627  22.641 -0.37 +0.01    +0.213 A  ATOM     32  N   UNL     1      36.205  41.762  23.938 -0.30 +0.00    -0.228 NA ATOM     33  F   UNL     1      35.676  40.991  21.840 -0.20 -0.00    -0.185 F  ENDBRANCH  24  27ENDBRANCH  15  20ENDBRANCH   7   8ENDBRANCH   1   7TORSDOF 8TERENDMDL