REMARK SMILES Cc1ccc(-c2nc(-c3ccc([C@@H]4C[C@H]4NC(=O)[C@@H](C)N4CCN(S(C)(=O)=O)CC4)cc3F)cnc2O)cc1C
REMARK SMILES IDX 13 1 14 2 15 3 12 4 9 5 10 6 32 7 11 8 31 9 33 10 8 11 6 12
REMARK SMILES IDX 7 13 36 14 35 15 34 16 5 17 2 18 3 19 39 20 4 21 38 22 1 23
REMARK SMILES IDX 40 24 37 25 16 27 17 28 18 30 19 31 20 32 21 33 22 34 30 35
REMARK SMILES IDX 23 36 29 37 24 38 25 39 26 40 27 41 28 42
REMARK H PARENT 37 26 16 29
ROOT
ATOM      1  C   UNL     1       0.864   1.727   1.782  1.00  0.00     0.044 C 
ATOM      2  C   UNL     1       1.180   2.631   0.619  1.00  0.00     0.036 C 
ATOM      3  C   UNL     1       1.650   1.210   0.592  1.00  0.00     0.090 C 
ENDROOT
BRANCH   1   4
ATOM      4  C   UNL     1      -0.545   1.237   2.006  1.00  0.00    -0.040 A 
ATOM      5  C   UNL     1      -3.212   0.302   2.369  1.00  0.00     0.038 A 
ATOM      6  C   UNL     1      -2.139  -0.598   2.297  1.00  0.00     0.014 A 
ATOM      7  C   UNL     1      -2.923   1.666   2.301  1.00  0.00     0.132 A 
ATOM      8  C   UNL     1      -0.829  -0.135   2.120  1.00  0.00     0.005 A 
ATOM      9  C   UNL     1      -1.619   2.130   2.126  1.00  0.00     0.044 A 
ATOM     10  F   UNL     1      -3.911   2.570   2.395  1.00  0.00    -0.206 F 
BRANCH   5  11
ATOM     11  C   UNL     1      -4.583  -0.172   2.505  1.00  0.00     0.092 A 
ATOM     12  C   UNL     1      -6.612  -0.615   1.465  1.00  0.00     0.133 A 
ATOM     13  N   UNL     1      -5.322  -0.180   1.369  1.00  0.00    -0.240 NA
ATOM     14  C   UNL     1      -7.107  -1.037   2.703  1.00  0.00     0.238 A 
ATOM     15  N   UNL     1      -6.389  -1.053   3.846  1.00  0.00    -0.218 NA
ATOM     16  C   UNL     1      -5.117  -0.606   3.716  1.00  0.00     0.144 A 
BRANCH  12  17
ATOM     17  C   UNL     1      -7.387  -0.563   0.210  1.00  0.00     0.006 A 
ATOM     18  C   UNL     1      -8.859  -0.400  -2.225  1.00  0.00    -0.048 A 
ATOM     19  C   UNL     1      -9.055  -1.461  -1.331  1.00  0.00     0.004 A 
ATOM     20  C   UNL     1      -7.905   0.584  -1.915  1.00  0.00    -0.048 A 
ATOM     21  C   UNL     1      -8.333  -1.539  -0.135  1.00  0.00     0.011 A 
ATOM     22  C   UNL     1      -7.183   0.487  -0.711  1.00  0.00     0.014 A 
ATOM     23  C   UNL     1      -9.664  -0.344  -3.495  1.00  0.00     0.044 C 
ATOM     24  C   UNL     1      -7.627   1.732  -2.845  1.00  0.00     0.044 C 
ENDBRANCH  12  17
BRANCH  14  25
ATOM     25  O   UNL     1      -8.385  -1.452   2.903  1.00  0.00    -0.492 OA
ATOM     26  H   UNL     1      -8.362  -1.612   3.862  1.00  0.00     0.295 HD
ENDBRANCH  14  25
ENDBRANCH   5  11
ENDBRANCH   1   4
BRANCH   3  27
ATOM     27  N   UNL     1       3.037   0.890   0.725  1.00  0.00    -0.351 N 
ATOM     28  C   UNL     1       3.513  -0.407   0.588  1.00  0.00     0.237 C 
ATOM     29  H   UNL     1       3.689   1.646   0.907  1.00  0.00     0.163 HD
ATOM     30  O   UNL     1       2.782  -1.369   0.346  1.00  0.00    -0.273 OA
BRANCH  28  31
ATOM     31  C   UNL     1       5.048  -0.525   0.781  1.00  0.00     0.143 C 
ATOM     32  C   UNL     1       5.255  -1.461   1.979  1.00  0.00     0.035 C 
BRANCH  31  33
ATOM     33  N   UNL     1       5.692  -1.005  -0.463  1.00  0.00    -0.290 NA
ATOM     34  C   UNL     1       5.528  -0.099  -1.622  1.00  0.00     0.102 C 
ATOM     35  C   UNL     1       7.096  -1.421  -0.284  1.00  0.00     0.102 C 
ATOM     36  C   UNL     1       6.801   0.676  -2.019  1.00  0.00     0.117 C 
ATOM     37  C   UNL     1       7.886  -1.544  -1.603  1.00  0.00     0.117 C 
ATOM     38  N   UNL     1       7.907  -0.253  -2.340  1.00  0.00    -0.200 NA
BRANCH  38  39
ATOM     39  S   UNL     1       9.365   0.373  -2.868  1.00  0.00     0.211 S 
ATOM     40  C   UNL     1      10.114   0.952  -1.359  1.00  0.00     0.176 C 
ATOM     41  O   UNL     1      10.176  -0.724  -3.356  1.00  0.00    -0.213 OA
ATOM     42  O   UNL     1       9.088   1.533  -3.692  1.00  0.00    -0.213 OA
ENDBRANCH  38  39
ENDBRANCH  31  33
ENDBRANCH  28  31
ENDBRANCH   3  27
TORSDOF 8
