MODEL        6USER    Run = 6USERUSER    Estimated Free Energy of Binding    = -12.76 kcal/mol  [=(1)+(2)+(3)-(4)]USERUSER    (1) Final Intermolecular Energy     = -15.15 kcal/molUSER        vdW + Hbond + desolv Energy     = -14.61 kcal/molUSER        Electrostatic Energy            =  -0.54 kcal/molUSER        Moving Ligand-Fixed Receptor    = -15.15 kcal/molUSER        Moving Ligand-Moving Receptor   =  +0.00 kcal/molUSER    (2) Final Total Internal Energy     =  -1.42 kcal/molUSER    (3) Torsional Free Energy           =  +2.39 kcal/molUSER    (4) Unbound System's Energy         =  -1.42 kcal/molUSERUSERREMARK SMILES Cc1ccc(-c2nc(-c3ccc([C@@H]4C[C@H]4NC(=O)[C@@H](C)N4CCN(S(C)(=O)=O)CC4)cc3F)cnc2O)cc1CREMARK SMILES IDX 13 1 14 2 15 3 12 4 9 5 10 6 32 7 11 8 31 9 33 10 8 11 6 12REMARK SMILES IDX 7 13 36 14 35 15 34 16 5 17 2 18 3 19 39 20 4 21 38 22 1 23REMARK SMILES IDX 40 24 37 25 16 27 17 28 18 30 19 31 20 32 21 33 22 34 30 35REMARK SMILES IDX 23 36 29 37 24 38 25 39 26 40 27 41 28 42REMARK H PARENT 37 26 16 29USER                              x       y       z     vdW  Elec       q    TypeUSER                           _______ _______ _______ _____ _____    ______ ____ROOTATOM      1  C   UNL     1      32.808  41.502  17.914 -0.43 -0.01    +0.044 C  ATOM      2  C   UNL     1      31.457  42.165  17.987 -0.33 -0.01    +0.036 C  ATOM      3  C   UNL     1      31.840  41.163  19.031 -0.33 -0.00    +0.090 C  ENDROOTBRANCH   1   4ATOM      4  C   UNL     1      34.058  42.284  18.231 -0.38 +0.01    -0.040 A  ATOM      5  C   UNL     1      36.451  43.707  18.838 -0.30 -0.01    +0.038 A  ATOM      6  C   UNL     1      36.188  43.268  17.532 -0.24 -0.00    +0.014 A  ATOM      7  C   UNL     1      35.484  43.462  19.814 -0.33 -0.01    +0.132 A  ATOM      8  C   UNL     1      35.010  42.569  17.237 -0.42 -0.00    +0.005 A  ATOM      9  C   UNL     1      34.309  42.768  19.523 -0.39 -0.00    +0.044 A  ATOM     10  F   UNL     1      35.673  43.889  21.073 -0.06 -0.01    -0.206 F  BRANCH   5  11ATOM     11  C   UNL     1      37.695  44.392  19.164 -0.30 -0.01    +0.092 A  ATOM     12  C   UNL     1      39.299  45.946  18.525 -0.32 -0.02    +0.133 A  ATOM     13  N   UNL     1      38.134  45.290  18.249 -0.24 +0.04    -0.240 NA ATOM     14  C   UNL     1      39.974  45.679  19.720 -0.23 -0.00    +0.238 A  ATOM     15  N   UNL     1      39.552  44.801  20.654 -0.22 -0.00    -0.218 NA ATOM     16  C   UNL     1      38.398  44.162  20.344 -0.23 -0.00    +0.144 A  BRANCH  12  17ATOM     17  C   UNL     1      39.756  46.880  17.478 -0.46 -0.00    +0.006 A  ATOM     18  C   UNL     1      40.591  48.660  15.415 -0.56 +0.01    -0.048 A  ATOM     19  C   UNL     1      41.344  48.508  16.587 -0.46 -0.00    +0.004 A  ATOM     20  C   UNL     1      39.397  47.933  15.273 -0.49 +0.02    -0.048 A  ATOM     21  C   UNL     1      40.934  47.632  17.598 -0.51 -0.00    +0.011 A  ATOM     22  C   UNL     1      38.996  47.062  16.303 -0.44 -0.00    +0.014 A  ATOM     23  C   UNL     1      41.071  49.602  14.344 -0.64 -0.01    +0.044 C  ATOM     24  C   UNL     1      38.529  48.074  14.053 -0.54 -0.02    +0.044 C  ENDBRANCH  12  17BRANCH  14  25ATOM     25  O   UNL     1      41.156  46.254  20.064 -0.13 -0.04    -0.492 OA ATOM     26  H   UNL     1      41.717  45.932  19.338 +0.19 +0.03    +0.295 HD ENDBRANCH  14  25ENDBRANCH   5  11ENDBRANCH   1   4BRANCH   3  27ATOM     27  N   UNL     1      31.216  39.878  19.083 -0.15 -0.02    -0.351 N  ATOM     28  C   UNL     1      31.556  38.929  20.039 -0.33 +0.05    +0.237 C  ATOM     29  H   UNL     1      30.489  39.669  18.407 +0.10 +0.01    +0.163 HD ATOM     30  O   UNL     1      32.413  39.123  20.902 -1.16 -0.16    -0.273 OA BRANCH  28  31ATOM     31  C   UNL     1      30.761  37.604  19.903 -0.42 +0.03    +0.143 C  ATOM     32  C   UNL     1      31.809  36.494  19.748 -0.44 +0.01    +0.035 C  BRANCH  31  33ATOM     33  N   UNL     1      29.866  37.414  21.067 -0.16 -0.01    -0.290 NA ATOM     34  C   UNL     1      28.504  36.951  20.718 -0.31 -0.01    +0.102 C  ATOM     35  C   UNL     1      30.461  36.608  22.150 -0.37 +0.00    +0.102 C  ATOM     36  C   UNL     1      28.217  35.476  21.066 -0.18 -0.05    +0.117 C  ATOM     37  C   UNL     1      29.435  36.076  23.171 -0.32 +0.02    +0.117 C  ATOM     38  N   UNL     1      28.410  35.225  22.511 -0.26 +0.00    -0.200 NA BRANCH  38  39ATOM     39  S   UNL     1      28.081  33.704  23.122 -0.45 +0.07    +0.211 S  ATOM     40  C   UNL     1      27.548  32.807  21.678 -0.36 -0.08    +0.176 C  ATOM     41  O   UNL     1      29.330  33.113  23.558 -0.36 -0.12    -0.213 OA ATOM     42  O   UNL     1      26.943  33.811  24.015 -0.67 -0.25    -0.213 OA ENDBRANCH  38  39ENDBRANCH  31  33ENDBRANCH  28  31ENDBRANCH   3  27TORSDOF 8TERENDMDL