REMARK SMILES O=S(=O)(O)CCC[C@@H]1Cc2cc(-c3cccc(-c4ccncc4F)c3F)ccc2C[C@@H]1O
REMARK SMILES IDX 6 1 5 2 2 3 1 4 3 5 4 6 7 8 8 9 9 10 31 11 10 12 30 13 11 14
REMARK SMILES IDX 29 15 12 16 28 17 27 18 32 19 13 21 14 22 25 23 15 24 17 25
REMARK SMILES IDX 16 26 26 27 18 28 19 29 23 30 20 31 22 32 21 33 24 34
REMARK H PARENT 4 7 32 20
ROOT
ATOM      1  C   UNL     1       4.836  -1.096  -1.048  1.00  0.00     0.019 C 
ENDROOT
BRANCH   1   2
ATOM      2  C   UNL     1       6.176  -0.840  -0.367  1.00  0.00     0.167 C 
BRANCH   2   3
ATOM      3  S   UNL     1       6.445  -1.727   1.161  1.00  0.00     0.264 S 
ATOM      4  O   UNL     1       7.865  -1.777   1.432  1.00  0.00    -0.200 OA
ATOM      5  O   UNL     1       5.494  -1.307   2.162  1.00  0.00    -0.200 OA
BRANCH   3   6
ATOM      6  O   UNL     1       6.050  -3.213   0.672  1.00  0.00    -0.286 OA
ATOM      7  H   UNL     1       6.817  -3.801   0.842  1.00  0.00     0.234 HD
ENDBRANCH   3   6
ENDBRANCH   2   3
ENDBRANCH   1   2
BRANCH   1   8
ATOM      8  C   UNL     1       3.579  -0.683  -0.276  1.00  0.00     0.008 C 
BRANCH   8   9
ATOM      9  C   UNL     1       3.502   0.778   0.236  1.00  0.00     0.022 C 
ATOM     10  C   UNL     1       2.213   0.976   1.062  1.00  0.00     0.042 C 
ATOM     11  C   UNL     1       3.532   1.873  -0.845  1.00  0.00     0.122 C 
ATOM     12  C   UNL     1       0.969   1.146   0.217  1.00  0.00    -0.044 A 
ATOM     13  C   UNL     1       2.366   1.731  -1.827  1.00  0.00     0.067 C 
ATOM     14  C   UNL     1      -0.289   0.958   0.815  1.00  0.00     0.012 A 
ATOM     15  C   UNL     1       1.042   1.532  -1.132  1.00  0.00    -0.042 A 
ATOM     16  C   UNL     1      -1.484   1.120   0.091  1.00  0.00    -0.015 A 
ATOM     17  C   UNL     1      -0.142   1.685  -1.864  1.00  0.00     0.005 A 
ATOM     18  C   UNL     1      -1.385   1.484  -1.259  1.00  0.00     0.009 A 
BRANCH  11  19
ATOM     19  O   UNL     1       4.767   1.869  -1.554  1.00  0.00    -0.392 OA
ATOM     20  H   UNL     1       5.417   2.329  -0.995  1.00  0.00     0.210 HD
ENDBRANCH  11  19
BRANCH  16  21
ATOM     21  C   UNL     1      -2.795   0.921   0.736  1.00  0.00     0.018 A 
ATOM     22  C   UNL     1      -3.111   1.587   1.930  1.00  0.00     0.012 A 
ATOM     23  C   UNL     1      -3.770   0.068   0.185  1.00  0.00     0.138 A 
ATOM     24  C   UNL     1      -4.348   1.405   2.548  1.00  0.00     0.001 A 
ATOM     25  C   UNL     1      -5.028  -0.137   0.786  1.00  0.00     0.021 A 
ATOM     26  C   UNL     1      -5.295   0.551   1.981  1.00  0.00     0.012 A 
ATOM     27  F   UNL     1      -3.484  -0.593  -0.952  1.00  0.00    -0.206 F 
BRANCH  25  28
ATOM     28  C   UNL     1      -6.034  -1.035   0.188  1.00  0.00     0.024 A 
ATOM     29  C   UNL     1      -6.375  -0.943  -1.171  1.00  0.00     0.032 A 
ATOM     30  C   UNL     1      -6.696  -2.011   0.941  1.00  0.00     0.149 A 
ATOM     31  C   UNL     1      -7.331  -1.802  -1.696  1.00  0.00     0.112 A 
ATOM     32  C   UNL     1      -7.638  -2.825   0.333  1.00  0.00     0.150 A 
ATOM     33  N   UNL     1      -7.976  -2.742  -0.974  1.00  0.00    -0.262 NA
ATOM     34  F   UNL     1      -6.432  -2.178   2.245  1.00  0.00    -0.205 F 
ENDBRANCH  25  28
ENDBRANCH  16  21
ENDBRANCH   8   9
ENDBRANCH   1   8
TORSDOF 8
