MODEL        2USER    Run = 2USERUSER    Estimated Free Energy of Binding    = -11.23 kcal/mol  [=(1)+(2)+(3)-(4)]USERUSER    (1) Final Intermolecular Energy     = -13.32 kcal/molUSER        vdW + Hbond + desolv Energy     = -13.38 kcal/molUSER        Electrostatic Energy            =  +0.06 kcal/molUSER        Moving Ligand-Fixed Receptor    = -13.32 kcal/molUSER        Moving Ligand-Moving Receptor   =  +0.00 kcal/molUSER    (2) Final Total Internal Energy     =  -2.09 kcal/molUSER    (3) Torsional Free Energy           =  +2.09 kcal/molUSER    (4) Unbound System's Energy         =  -2.09 kcal/molUSERUSERREMARK SMILES CC(=O)N1CCN([C@@H](C)C(=O)N[C@H]2C[C@@H]2c2ccc(-c3cnc(O)c(-c4ccc(C)c(C)c4)n3)c(F)c2)CC1REMARK SMILES IDX 13 1 14 2 15 3 12 4 10 5 11 6 8 8 9 9 7 10 2 11 4 12 5 13REMARK SMILES IDX 39 14 6 15 38 16 1 17 3 18 16 19 17 20 37 21 18 22 35 23REMARK SMILES IDX 19 24 36 25 20 26 21 27 34 28 22 29 25 30 23 31 26 32 27 33REMARK SMILES IDX 33 34 28 35 31 36 29 37 32 38 30 39 24 40REMARK H PARENT 12 7 24 41USER                              x       y       z     vdW  Elec       q    TypeUSER                           _______ _______ _______ _____ _____    ______ ____ROOTATOM      1  C   UNL     1      35.161  43.271  15.716 -0.29 -0.04    +0.090 C  ATOM      2  C   UNL     1      35.423  42.613  17.038 -0.46 -0.01    +0.036 C  ATOM      3  C   UNL     1      34.236  43.532  16.886 -0.37 -0.02    +0.044 C  ENDROOTBRANCH   1   4ATOM      4  N   UNL     1      36.022  44.295  15.223 -0.14 +0.14    -0.351 N  ATOM      5  C   UNL     1      35.587  45.591  14.998 -0.26 -0.16    +0.237 C  ATOM      6  O   UNL     1      34.428  45.964  15.165 -0.24 +0.29    -0.273 OA ATOM      7  H   UNL     1      37.030  44.172  15.261 +0.10 -0.05    +0.163 HD BRANCH   5   8ATOM      8  C   UNL     1      36.702  46.529  14.477 -0.38 -0.08    +0.143 C  ATOM      9  C   UNL     1      36.510  46.644  12.958 -0.65 -0.02    +0.035 C  BRANCH   8  10ATOM     10  N   UNL     1      38.034  45.986  14.890 -0.18 +0.10    -0.289 NA ATOM     11  C   UNL     1      41.205  48.206  16.963 -0.38 -0.02    +0.219 C  ATOM     12  N   UNL     1      40.233  47.445  16.337 -0.25 +0.07    -0.340 N  ATOM     13  C   UNL     1      39.605  46.247  16.903 -0.41 -0.02    +0.135 C  ATOM     14  C   UNL     1      39.784  47.837  15.002 -0.49 -0.04    +0.135 C  ATOM     15  C   UNL     1      38.166  46.056  16.376 -0.37 -0.04    +0.107 C  ATOM     16  C   UNL     1      39.184  46.649  14.229 -0.39 -0.02    +0.107 C  ATOM     17  C   UNL     1      41.686  47.734  18.310 -0.45 -0.00    +0.114 C  ATOM     18  O   UNL     1      41.667  49.229  16.457 -1.03 -0.04    -0.275 OA ENDBRANCH   8  10ENDBRANCH   5   8ENDBRANCH   1   4BRANCH   3  19ATOM     19  C   UNL     1      32.832  42.979  16.850 -0.30 +0.02    -0.040 A  ATOM     20  C   UNL     1      32.446  41.929  17.698 -0.36 -0.00    +0.005 A  ATOM     21  C   UNL     1      31.866  43.470  15.962 -0.31 -0.02    +0.044 A  ATOM     22  C   UNL     1      31.152  41.392  17.661 -0.31 -0.00    +0.014 A  ATOM     23  C   UNL     1      30.575  42.939  15.929 -0.24 -0.06    +0.132 A  ATOM     24  C   UNL     1      30.188  41.887  16.766 -0.28 -0.01    +0.038 A  ATOM     25  F   UNL     1      29.697  43.488  15.074 -0.02 +0.19    -0.206 F  BRANCH  24  26ATOM     26  C   UNL     1      28.833  41.330  16.716 -0.23 -0.02    +0.092 A  ATOM     27  C   UNL     1      28.339  40.636  15.614 -0.27 -0.02    +0.144 A  ATOM     28  N   UNL     1      28.053  41.529  17.809 -0.08 +0.02    -0.240 NA ATOM     29  N   UNL     1      27.088  40.120  15.555 -0.47 -0.04    -0.218 NA ATOM     30  C   UNL     1      26.788  41.015  17.794 -0.15 -0.01    +0.133 A  ATOM     31  C   UNL     1      26.345  40.322  16.663 -0.18 +0.02    +0.238 A  BRANCH  30  32ATOM     32  C   UNL     1      26.007  41.234  19.032 -0.26 -0.00    +0.006 A  ATOM     33  C   UNL     1      25.774  42.538  19.504 -0.40 -0.00    +0.011 A  ATOM     34  C   UNL     1      25.455  40.178  19.783 -0.28 -0.00    +0.014 A  ATOM     35  C   UNL     1      25.048  42.777  20.673 -0.46 -0.00    +0.004 A  ATOM     36  C   UNL     1      24.723  40.400  20.967 -0.38 +0.01    -0.048 A  ATOM     37  C   UNL     1      24.518  41.716  21.417 -0.53 +0.01    -0.048 A  ATOM     38  C   UNL     1      24.176  39.219  21.724 -0.42 -0.02    +0.044 C  ATOM     39  C   UNL     1      23.754  42.006  22.679 -0.71 -0.01    +0.044 C  ENDBRANCH  30  32BRANCH  31  40ATOM     40  O   UNL     1      25.123  39.744  16.557 -0.20 -0.00    -0.492 OA ATOM     41  H   UNL     1      25.061  39.666  15.588 +0.11 -0.03    +0.295 HD ENDBRANCH  31  40ENDBRANCH  24  26ENDBRANCH   3  19TORSDOF 7TERENDMDL