MODEL        5USER    Run = 5USERUSER    Estimated Free Energy of Binding    = -10.23 kcal/mol  [=(1)+(2)+(3)-(4)]USERUSER    (1) Final Intermolecular Energy     = -12.61 kcal/molUSER        vdW + Hbond + desolv Energy     = -12.61 kcal/molUSER        Electrostatic Energy            =  -0.01 kcal/molUSER        Moving Ligand-Fixed Receptor    = -12.61 kcal/molUSER        Moving Ligand-Moving Receptor   =  +0.00 kcal/molUSER    (2) Final Total Internal Energy     =  -1.87 kcal/molUSER    (3) Torsional Free Energy           =  +2.39 kcal/molUSER    (4) Unbound System's Energy         =  -1.87 kcal/molUSERUSERREMARK SMILES O=S(=O)(O)CCC[C@@H]1Cc2cc(-c3cccc(-c4ccncc4F)c3F)ccc2C[C@@H]1OREMARK SMILES IDX 6 1 5 2 2 3 1 4 3 5 4 6 7 8 8 9 9 10 31 11 10 12 30 13 11 14REMARK SMILES IDX 29 15 12 16 28 17 27 18 32 19 13 21 14 22 25 23 15 24 17 25REMARK SMILES IDX 16 26 26 27 18 28 19 29 23 30 20 31 22 32 21 33 24 34REMARK H PARENT 4 7 32 20USER                              x       y       z     vdW  Elec       q    TypeUSER                           _______ _______ _______ _____ _____    ______ ____ROOTATOM      1  C   UNL     1      35.867  42.024  20.931 -0.54 +0.00    +0.019 C  ENDROOTBRANCH   1   2ATOM      2  C   UNL     1      35.682  42.476  19.487 -0.36 -0.02    +0.167 C  BRANCH   2   3ATOM      3  S   UNL     1      34.269  43.528  19.185 -0.38 -0.04    +0.264 S  ATOM      4  O   UNL     1      33.946  43.489  17.775 -0.21 +0.06    -0.200 OA ATOM      5  O   UNL     1      33.264  43.327  20.201 -0.95 -0.03    -0.200 OA BRANCH   3   6ATOM      6  O   UNL     1      34.959  44.966  19.426 -0.29 +0.08    -0.286 OA ATOM      7  H   UNL     1      34.328  45.524  19.931 -0.14 -0.12    +0.234 HD ENDBRANCH   3   6ENDBRANCH   2   3ENDBRANCH   1   2BRANCH   1   8ATOM      8  C   UNL     1      37.261  42.210  21.539 -0.49 +0.00    +0.008 C  BRANCH   8   9ATOM      9  C   UNL     1      37.538  43.531  22.302 -0.42 +0.00    +0.022 C  ATOM     10  C   UNL     1      37.524  44.718  21.316 -0.32 +0.00    +0.042 C  ATOM     11  C   UNL     1      38.863  43.593  23.082 -0.25 +0.01    +0.122 C  ATOM     12  C   UNL     1      38.796  44.852  20.506 -0.34 -0.00    -0.044 A  ATOM     13  C   UNL     1      40.072  43.401  22.161 -0.25 +0.00    +0.067 C  ATOM     14  C   UNL     1      38.777  45.630  19.336 -0.31 -0.00    +0.012 A  ATOM     15  C   UNL     1      39.999  44.259  20.922 -0.26 -0.00    -0.042 A  ATOM     16  C   UNL     1      39.929  45.811  18.549 -0.44 +0.00    -0.015 A  ATOM     17  C   UNL     1      41.149  44.424  20.140 -0.36 +0.00    +0.005 A  ATOM     18  C   UNL     1      41.113  45.191  18.973 -0.43 +0.00    +0.009 A  BRANCH  11  19ATOM     19  O   UNL     1      38.894  42.629  24.130 -0.10 -0.03    -0.392 OA ATOM     20  H   UNL     1      39.771  42.691  24.547 +0.10 +0.01    +0.210 HD ENDBRANCH  11  19BRANCH  16  21ATOM     21  C   UNL     1      39.891  46.633  17.325 -0.47 -0.00    +0.018 A  ATOM     22  C   UNL     1      40.811  47.675  17.137 -0.52 -0.00    +0.012 A  ATOM     23  C   UNL     1      38.944  46.404  16.309 -0.32 -0.04    +0.138 A  ATOM     24  C   UNL     1      40.782  48.458  15.983 -0.59 -0.00    +0.001 A  ATOM     25  C   UNL     1      38.889  47.179  15.133 -0.45 -0.01    +0.021 A  ATOM     26  C   UNL     1      39.831  48.212  14.993 -0.55 -0.00    +0.012 A  ATOM     27  F   UNL     1      38.042  45.419  16.474 -0.07 +0.06    -0.206 F  BRANCH  25  28ATOM     28  C   UNL     1      37.888  46.919  14.081 -0.45 -0.01    +0.024 A  ATOM     29  C   UNL     1      37.676  45.623  13.583 -0.40 -0.01    +0.032 A  ATOM     30  C   UNL     1      37.111  47.943  13.529 -0.45 -0.07    +0.149 A  ATOM     31  C   UNL     1      36.729  45.419  12.589 -0.45 -0.04    +0.112 A  ATOM     32  C   UNL     1      36.189  47.647  12.538 -0.53 -0.08    +0.150 A  ATOM     33  N   UNL     1      35.980  46.404  12.049 -0.44 +0.13    -0.262 NA ATOM     34  F   UNL     1      37.239  49.211  13.946 -0.17 +0.13    -0.205 F  ENDBRANCH  25  28ENDBRANCH  16  21ENDBRANCH   8   9ENDBRANCH   1   8TORSDOF 8TERENDMDL