REMARK SMILES CC(=O)N1CCN([C@@H](C)C(=O)N[C@H]2C[C@@H]2c2ccc(-c3cnc(O)c(-c4ccc(C)c(C)c4)n3)c(F)c2)CC1
REMARK SMILES IDX 13 1 14 2 15 3 12 4 10 5 11 6 8 8 9 9 7 10 2 11 4 12 5 13
REMARK SMILES IDX 39 14 6 15 38 16 1 17 3 18 16 19 17 20 37 21 18 22 35 23
REMARK SMILES IDX 19 24 36 25 20 26 21 27 34 28 22 29 25 30 23 31 26 32 27 33
REMARK SMILES IDX 33 34 28 35 31 36 29 37 32 38 30 39 24 40
REMARK H PARENT 12 7 24 41
ROOT
ATOM      1  C   UNL     1      -2.409  -0.863  -2.652  1.00  0.00     0.090 C 
ATOM      2  C   UNL     1      -1.779   0.187  -3.517  1.00  0.00     0.036 C 
ATOM      3  C   UNL     1      -1.421   0.115  -2.053  1.00  0.00     0.044 C 
ENDROOT
BRANCH   1   4
ATOM      4  N   UNL     1      -3.794  -0.802  -2.314  1.00  0.00    -0.351 N 
ATOM      5  C   UNL     1      -4.367  -1.632  -1.365  1.00  0.00     0.237 C 
ATOM      6  O   UNL     1      -3.754  -2.510  -0.762  1.00  0.00    -0.273 OA
ATOM      7  H   UNL     1      -4.343   0.013  -2.572  1.00  0.00     0.163 HD
BRANCH   5   8
ATOM      8  C   UNL     1      -5.878  -1.372  -1.157  1.00  0.00     0.143 C 
ATOM      9  C   UNL     1      -6.593  -1.888  -2.414  1.00  0.00     0.035 C 
BRANCH   8  10
ATOM     10  N   UNL     1      -6.093   0.083  -0.880  1.00  0.00    -0.289 NA
ATOM     11  C   UNL     1      -8.150   1.776   2.610  1.00  0.00     0.219 C 
ATOM     12  N   UNL     1      -7.465   1.305   1.504  1.00  0.00    -0.340 N 
ATOM     13  C   UNL     1      -6.065   1.605   1.186  1.00  0.00     0.135 C 
ATOM     14  C   UNL     1      -8.170   0.446   0.553  1.00  0.00     0.135 C 
ATOM     15  C   UNL     1      -5.404   0.459   0.391  1.00  0.00     0.107 C 
ATOM     16  C   UNL     1      -7.520   0.482  -0.841  1.00  0.00     0.107 C 
ATOM     17  C   UNL     1      -7.408   2.709   3.531  1.00  0.00     0.114 C 
ATOM     18  O   UNL     1      -9.315   1.457   2.849  1.00  0.00    -0.275 OA
ENDBRANCH   8  10
ENDBRANCH   5   8
ENDBRANCH   1   4
BRANCH   3  19
ATOM     19  C   UNL     1      -0.066  -0.386  -1.614  1.00  0.00    -0.040 A 
ATOM     20  C   UNL     1       0.054  -1.358  -0.608  1.00  0.00     0.005 A 
ATOM     21  C   UNL     1       1.121   0.108  -2.170  1.00  0.00     0.044 A 
ATOM     22  C   UNL     1       1.306  -1.817  -0.176  1.00  0.00     0.014 A 
ATOM     23  C   UNL     1       2.368  -0.354  -1.744  1.00  0.00     0.132 A 
ATOM     24  C   UNL     1       2.494  -1.317  -0.737  1.00  0.00     0.038 A 
ATOM     25  F   UNL     1       3.457   0.143  -2.352  1.00  0.00    -0.206 F 
BRANCH  24  26
ATOM     26  C   UNL     1       3.808  -1.787  -0.290  1.00  0.00     0.092 A 
ATOM     27  C   UNL     1       4.121  -3.137  -0.144  1.00  0.00     0.144 A 
ATOM     28  N   UNL     1       4.731  -0.833  -0.007  1.00  0.00    -0.240 NA
ATOM     29  N   UNL     1       5.331  -3.583   0.272  1.00  0.00    -0.218 NA
ATOM     30  C   UNL     1       5.967  -1.242   0.405  1.00  0.00     0.133 A 
ATOM     31  C   UNL     1       6.229  -2.610   0.529  1.00  0.00     0.238 A 
BRANCH  30  32
ATOM     32  C   UNL     1       6.936  -0.152   0.658  1.00  0.00     0.006 A 
ATOM     33  C   UNL     1       6.859   1.050  -0.069  1.00  0.00     0.011 A 
ATOM     34  C   UNL     1       7.956  -0.246   1.624  1.00  0.00     0.014 A 
ATOM     35  C   UNL     1       7.764   2.094   0.141  1.00  0.00     0.004 A 
ATOM     36  C   UNL     1       8.880   0.795   1.847  1.00  0.00    -0.048 A 
ATOM     37  C   UNL     1       8.782   1.979   1.095  1.00  0.00    -0.048 A 
ATOM     38  C   UNL     1       9.952   0.615   2.889  1.00  0.00     0.044 C 
ATOM     39  C   UNL     1       9.748   3.115   1.286  1.00  0.00     0.044 C 
ENDBRANCH  30  32
BRANCH  31  40
ATOM     40  O   UNL     1       7.429  -3.123   0.897  1.00  0.00    -0.492 OA
ATOM     41  H   UNL     1       7.220  -4.073   0.862  1.00  0.00     0.295 HD
ENDBRANCH  31  40
ENDBRANCH  24  26
ENDBRANCH   3  19
TORSDOF 7
