REMARK SMILES COc1ccc(O)c(C(=O)c2ccc(C(=O)N[C@@H]3CCCNC3)cc2O)c1F
REMARK SMILES IDX 11 1 12 2 13 3 14 4 24 5 25 6 9 7 10 8 8 9 3 10 4 11 27 12
REMARK SMILES IDX 5 13 6 14 28 15 2 16 1 17 7 18 26 20 15 22 17 23 16 24 18 26
REMARK SMILES IDX 19 27 23 28 20 29 22 30 21 31
REMARK H PARENT 7 19 26 21 17 25 22 32
ROOT
ATOM      1  C   UNL     1       1.503  -0.045  -1.241  1.00  0.00     0.065 A 
ATOM      2  C   UNL     1       1.503   0.199   0.138  1.00  0.00     0.017 A 
ATOM      3  C   UNL     1       0.295   0.245   0.845  1.00  0.00     0.015 A 
ATOM      4  C   UNL     1      -0.927   0.049   0.187  1.00  0.00     0.043 A 
ATOM      5  C   UNL     1      -0.934  -0.167  -1.194  1.00  0.00     0.060 A 
ATOM      6  C   UNL     1       0.272  -0.214  -1.895  1.00  0.00     0.127 A 
ENDROOT
BRANCH   1   7
ATOM      7  C   UNL     1       2.768  -0.105  -2.026  1.00  0.00     0.203 C 
ATOM      8  O   UNL     1       2.720  -0.160  -3.255  1.00  0.00    -0.288 OA
BRANCH   7   9
ATOM      9  C   UNL     1       4.083  -0.107  -1.374  1.00  0.00     0.104 A 
ATOM     10  C   UNL     1       6.170   1.048  -0.927  1.00  0.00     0.155 A 
ATOM     11  C   UNL     1       6.619  -0.069  -0.215  1.00  0.00     0.053 A 
ATOM     12  C   UNL     1       4.896   1.015  -1.507  1.00  0.00     0.179 A 
ATOM     13  C   UNL     1       5.805  -1.202  -0.084  1.00  0.00     0.051 A 
ATOM     14  C   UNL     1       4.539  -1.220  -0.665  1.00  0.00     0.130 A 
ATOM     15  F   UNL     1       4.446   2.091  -2.172  1.00  0.00    -0.202 F 
BRANCH  10  16
ATOM     16  O   UNL     1       6.873   2.208  -1.107  1.00  0.00    -0.494 OA
ATOM     17  C   UNL     1       8.196   2.261  -0.589  1.00  0.00     0.278 C 
ENDBRANCH  10  16
BRANCH  14  18
ATOM     18  O   UNL     1       3.740  -2.319  -0.536  1.00  0.00    -0.507 OA
ATOM     19  H   UNL     1       4.246  -3.048  -0.138  1.00  0.00     0.293 HD
ENDBRANCH  14  18
ENDBRANCH   7   9
ENDBRANCH   1   7
BRANCH   6  20
ATOM     20  O   UNL     1       0.166  -0.428  -3.246  1.00  0.00    -0.507 OA
ATOM     21  H   UNL     1       1.072  -0.371  -3.629  1.00  0.00     0.293 HD
ENDBRANCH   6  20
BRANCH   4  22
ATOM     22  C   UNL     1      -2.176   0.110   0.997  1.00  0.00     0.251 C 
ATOM     23  N   UNL     1      -3.280  -0.549   0.498  1.00  0.00    -0.348 N 
ATOM     24  O   UNL     1      -2.182   0.710   2.066  1.00  0.00    -0.269 OA
ATOM     25  H   UNL     1      -3.233  -1.035  -0.386  1.00  0.00     0.164 HD
BRANCH  23  26
ATOM     26  C   UNL     1      -4.570  -0.487   1.175  1.00  0.00     0.096 C 
ATOM     27  C   UNL     1      -5.495  -1.602   0.686  1.00  0.00     0.027 C 
ATOM     28  C   UNL     1      -5.252   0.894   0.990  1.00  0.00     0.105 C 
ATOM     29  C   UNL     1      -6.855  -1.551   1.389  1.00  0.00     0.017 C 
ATOM     30  N   UNL     1      -6.717   0.888   1.129  1.00  0.00    -0.315 NA
ATOM     31  C   UNL     1      -7.173  -0.185   2.002  1.00  0.00     0.081 C 
ATOM     32  H   UNL     1      -7.021   1.793   1.490  1.00  0.00     0.122 HD
ENDBRANCH  23  26
ENDBRANCH   4  22
TORSDOF 7
