REMARK SMILES COc1ccc(O)c(C(=O)c2ccc(C(=O)N[C@@H]3CCCNC3)cc2F)c1F
REMARK SMILES IDX 11 1 12 2 13 3 14 4 24 5 25 6 26 7 9 8 10 9 8 10 3 11 4 12
REMARK SMILES IDX 27 13 5 14 6 15 28 16 2 17 1 18 7 19 15 21 17 22 16 23 18 25
REMARK SMILES IDX 19 26 23 27 20 28 22 29 21 30
REMARK H PARENT 7 20 17 24 22 31
ROOT
ATOM      1  C   UNL     1       1.457  -0.325   1.028  1.00  0.00     0.059 A 
ATOM      2  C   UNL     1       1.198  -0.852  -0.243  1.00  0.00     0.016 A 
ATOM      3  C   UNL     1      -0.009  -0.557  -0.885  1.00  0.00     0.015 A 
ATOM      4  C   UNL     1      -0.967   0.254  -0.260  1.00  0.00     0.042 A 
ATOM      5  C   UNL     1      -0.700   0.791   1.002  1.00  0.00     0.053 A 
ATOM      6  C   UNL     1       0.504   0.492   1.639  1.00  0.00     0.135 A 
ATOM      7  F   UNL     1       0.729   1.043   2.840  1.00  0.00    -0.206 F 
ENDROOT
BRANCH   1   8
ATOM      8  C   UNL     1       2.716  -0.641   1.740  1.00  0.00     0.202 C 
ATOM      9  O   UNL     1       2.732  -0.800   2.956  1.00  0.00    -0.288 OA
BRANCH   8  10
ATOM     10  C   UNL     1       3.972  -0.763   0.981  1.00  0.00     0.104 A 
ATOM     11  C   UNL     1       5.690   0.303  -0.367  1.00  0.00     0.155 A 
ATOM     12  C   UNL     1       6.393  -0.905  -0.401  1.00  0.00     0.053 A 
ATOM     13  C   UNL     1       4.478   0.361   0.330  1.00  0.00     0.179 A 
ATOM     14  C   UNL     1       5.886  -2.039   0.246  1.00  0.00     0.051 A 
ATOM     15  C   UNL     1       4.675  -1.966   0.933  1.00  0.00     0.130 A 
ATOM     16  F   UNL     1       3.796   1.518   0.370  1.00  0.00    -0.202 F 
BRANCH  11  17
ATOM     17  O   UNL     1       6.083   1.467  -0.970  1.00  0.00    -0.494 OA
ATOM     18  C   UNL     1       7.335   1.466  -1.643  1.00  0.00     0.278 C 
ENDBRANCH  11  17
BRANCH  15  19
ATOM     19  O   UNL     1       4.158  -3.087   1.514  1.00  0.00    -0.507 OA
ATOM     20  H   UNL     1       4.864  -3.741   1.649  1.00  0.00     0.293 HD
ENDBRANCH  15  19
ENDBRANCH   8  10
ENDBRANCH   1   8
BRANCH   4  21
ATOM     21  C   UNL     1      -2.238   0.534  -0.984  1.00  0.00     0.251 C 
ATOM     22  N   UNL     1      -3.334   0.842  -0.204  1.00  0.00    -0.348 N 
ATOM     23  O   UNL     1      -2.277   0.451  -2.206  1.00  0.00    -0.269 OA
ATOM     24  H   UNL     1      -3.300   0.615   0.779  1.00  0.00     0.164 HD
BRANCH  22  25
ATOM     25  C   UNL     1      -4.665   0.983  -0.803  1.00  0.00     0.096 C 
ATOM     26  C   UNL     1      -5.585   1.800   0.118  1.00  0.00     0.027 C 
ATOM     27  C   UNL     1      -5.288  -0.395  -1.104  1.00  0.00     0.105 C 
ATOM     28  C   UNL     1      -6.544   0.926   0.932  1.00  0.00     0.017 C 
ATOM     29  N   UNL     1      -5.551  -1.208   0.094  1.00  0.00    -0.315 NA
ATOM     30  C   UNL     1      -5.937  -0.431   1.272  1.00  0.00     0.081 C 
ATOM     31  H   UNL     1      -4.731  -1.774   0.310  1.00  0.00     0.122 HD
ENDBRANCH  22  25
ENDBRANCH   4  21
TORSDOF 6
