REMARK SMILES COc1ccc(O)c(C(=O)c2ccc(C(=O)N[C@@H]3CCCNC3)cc2C)c1F
REMARK SMILES IDX 11 1 12 2 13 3 14 4 24 5 25 6 26 7 9 8 10 9 8 10 3 11 4 12
REMARK SMILES IDX 27 13 5 14 6 15 28 16 2 17 1 18 7 19 15 21 17 22 16 23 18 25
REMARK SMILES IDX 19 26 23 27 20 28 22 29 21 30
REMARK H PARENT 7 20 17 24 22 31
ROOT
ATOM      1  C   UNL     1       1.554  -0.213  -1.581  1.00  0.00     0.026 A 
ATOM      2  C   UNL     1       0.829   0.731  -0.838  1.00  0.00     0.013 A 
ATOM      3  C   UNL     1      -0.405   0.387  -0.281  1.00  0.00     0.014 A 
ATOM      4  C   UNL     1      -0.929  -0.895  -0.483  1.00  0.00     0.040 A 
ATOM      5  C   UNL     1      -0.199  -1.837  -1.224  1.00  0.00     0.018 A 
ATOM      6  C   UNL     1       1.048  -1.510  -1.783  1.00  0.00    -0.039 A 
ATOM      7  C   UNL     1       1.787  -2.538  -2.592  1.00  0.00     0.045 C 
ENDROOT
BRANCH   1   8
ATOM      8  C   UNL     1       2.837   0.201  -2.189  1.00  0.00     0.200 C 
ATOM      9  O   UNL     1       2.949   0.159  -3.414  1.00  0.00    -0.288 OA
BRANCH   8  10
ATOM     10  C   UNL     1       3.970   0.721  -1.385  1.00  0.00     0.104 A 
ATOM     11  C   UNL     1       5.178   0.949   0.725  1.00  0.00     0.155 A 
ATOM     12  C   UNL     1       6.132   1.748   0.092  1.00  0.00     0.053 A 
ATOM     13  C   UNL     1       4.106   0.438  -0.023  1.00  0.00     0.179 A 
ATOM     14  C   UNL     1       6.019   2.021  -1.274  1.00  0.00     0.051 A 
ATOM     15  C   UNL     1       4.953   1.502  -2.005  1.00  0.00     0.130 A 
ATOM     16  F   UNL     1       3.216  -0.353   0.598  1.00  0.00    -0.202 F 
BRANCH  11  17
ATOM     17  O   UNL     1       5.187   0.605   2.050  1.00  0.00    -0.494 OA
ATOM     18  C   UNL     1       6.287   1.051   2.833  1.00  0.00     0.278 C 
ENDBRANCH  11  17
BRANCH  15  19
ATOM     19  O   UNL     1       4.935   1.808  -3.341  1.00  0.00    -0.507 OA
ATOM     20  H   UNL     1       4.230   1.267  -3.766  1.00  0.00     0.293 HD
ENDBRANCH  15  19
ENDBRANCH   8  10
ENDBRANCH   1   8
BRANCH   4  21
ATOM     21  C   UNL     1      -2.240  -1.313   0.087  1.00  0.00     0.251 C 
ATOM     22  N   UNL     1      -3.194  -0.326   0.226  1.00  0.00    -0.348 N 
ATOM     23  O   UNL     1      -2.436  -2.486   0.382  1.00  0.00    -0.269 OA
ATOM     24  H   UNL     1      -2.998   0.616  -0.082  1.00  0.00     0.164 HD
BRANCH  22  25
ATOM     25  C   UNL     1      -4.494  -0.606   0.823  1.00  0.00     0.096 C 
ATOM     26  C   UNL     1      -5.516   0.453   0.395  1.00  0.00     0.027 C 
ATOM     27  C   UNL     1      -4.410  -0.677   2.365  1.00  0.00     0.105 C 
ATOM     28  C   UNL     1      -6.849   0.237   1.106  1.00  0.00     0.017 C 
ATOM     29  N   UNL     1      -5.717  -0.877   3.009  1.00  0.00    -0.315 NA
ATOM     30  C   UNL     1      -6.665   0.167   2.620  1.00  0.00     0.081 C 
ATOM     31  H   UNL     1      -6.081  -1.788   2.725  1.00  0.00     0.122 HD
ENDBRANCH  22  25
ENDBRANCH   4  21
TORSDOF 6
