MODEL        5USER    Run = 5USERUSER    Estimated Free Energy of Binding    =  -9.25 kcal/mol  [=(1)+(2)+(3)-(4)]USERUSER    (1) Final Intermolecular Energy     = -11.04 kcal/molUSER        vdW + Hbond + desolv Energy     = -10.72 kcal/molUSER        Electrostatic Energy            =  -0.31 kcal/molUSER        Moving Ligand-Fixed Receptor    = -11.04 kcal/molUSER        Moving Ligand-Moving Receptor   =  +0.00 kcal/molUSER    (2) Final Total Internal Energy     =  -1.40 kcal/molUSER    (3) Torsional Free Energy           =  +1.79 kcal/molUSER    (4) Unbound System's Energy         =  -1.40 kcal/molUSERUSERREMARK SMILES COc1ccc(O)c(C(=O)c2ccc(C(=O)N[C@@H]3CCCNC3)cc2)c1BrREMARK SMILES IDX 11 1 12 2 13 3 14 4 24 5 25 6 9 7 10 8 8 9 3 10 4 11 26 12REMARK SMILES IDX 5 13 6 14 27 15 2 16 1 17 7 18 15 20 17 21 16 22 18 24 19 25REMARK SMILES IDX 23 26 20 27 22 28 21 29REMARK H PARENT 7 19 17 23 22 30USER                              x       y       z     vdW  Elec       q    TypeUSER                           _______ _______ _______ _____ _____    ______ ____ROOTATOM      1  C   UNL     1      42.016  46.890  19.382 -0.46 +0.00    +0.023 A  ATOM      2  C   UNL     1      42.241  47.876  18.412 -0.44 -0.00    +0.013 A  ATOM      3  C   UNL     1      41.447  47.920  17.260 -0.42 -0.00    +0.014 A  ATOM      4  C   UNL     1      40.438  46.967  17.063 -0.48 -0.01    +0.039 A  ATOM      5  C   UNL     1      40.217  45.982  18.034 -0.46 -0.00    +0.014 A  ATOM      6  C   UNL     1      41.010  45.936  19.184 -0.45 +0.00    +0.013 A  ENDROOTBRANCH   1   7ATOM      7  C   UNL     1      42.844  46.796  20.610 -0.32 +0.06    +0.198 C  ATOM      8  O   UNL     1      44.060  46.973  20.543 -0.47 -0.22    -0.288 OA BRANCH   7   9ATOM      9  C   UNL     1      42.250  46.627  21.954 -0.25 +0.01    +0.082 A  ATOM     10  C   UNL     1      41.062  45.383  23.682 -0.10 +0.01    +0.134 A  ATOM     11  C   UNL     1      41.062  46.527  24.488 -0.13 +0.00    +0.051 A  ATOM     12  C   UNL     1      41.669  45.431  22.408 -0.19 +0.01    +0.074 A  ATOM     13  C   UNL     1      41.685  47.699  24.055 -0.24 +0.01    +0.051 A  ATOM     14  C   UNL     1      42.290  47.738  22.806 -0.22 +0.02    +0.128 A  ATOM     15  Br  UNL     1      41.767  43.824  21.373 -0.60 -0.00    -0.046 Br BRANCH  10  16ATOM     16  O   UNL     1      40.491  44.192  24.050 +0.01 -0.01    -0.496 OA ATOM     17  C   UNL     1      39.073  44.086  23.998 -0.12 +0.01    +0.278 C  ENDBRANCH  10  16BRANCH  14  18ATOM     18  O   UNL     1      42.916  48.909  22.468 -0.64 -0.11    -0.507 OA ATOM     19  H   UNL     1      43.565  48.709  21.756 -0.43 -0.03    +0.293 HD ENDBRANCH  14  18ENDBRANCH   7   9ENDBRANCH   1   7BRANCH   4  20ATOM     20  C   UNL     1      39.564  46.977  15.859 -0.35 -0.06    +0.251 C  ATOM     21  N   UNL     1      38.212  47.130  16.079 -0.17 +0.16    -0.348 N  ATOM     22  O   UNL     1      40.056  46.876  14.741 -0.33 +0.04    -0.269 OA ATOM     23  H   UNL     1      37.861  47.283  17.014 +0.09 -0.09    +0.164 HD BRANCH  21  24ATOM     24  C   UNL     1      37.258  47.126  14.977 -0.42 -0.06    +0.096 C  ATOM     25  C   UNL     1      37.231  45.762  14.286 -0.46 -0.01    +0.027 C  ATOM     26  C   UNL     1      37.565  48.243  13.944 -0.53 -0.05    +0.105 C  ATOM     27  C   UNL     1      36.229  45.740  13.128 -0.56 -0.01    +0.017 C  ATOM     28  N   UNL     1      37.071  47.983  12.582 -0.90 +0.07    -0.315 NA ATOM     29  C   UNL     1      35.887  47.134  12.593 -0.64 -0.05    +0.081 C  ATOM     30  H   UNL     1      36.862  48.874  12.130 -0.04 -0.01    +0.122 HD ENDBRANCH  21  24ENDBRANCH   4  20TORSDOF 6TERENDMDL