REMARK SMILES COc1ccc(O)c(C(=O)c2ccc(C(=O)N[C@@H]3CCCN(C)C3)cc2)c1
REMARK SMILES IDX 11 1 12 2 13 3 14 4 25 5 26 6 9 7 10 8 8 9 3 10 4 11 27 12
REMARK SMILES IDX 5 13 6 14 2 15 1 16 7 17 15 19 17 20 16 21 18 23 19 24 24 25
REMARK SMILES IDX 20 26 22 27 21 28 23 29
REMARK H PARENT 7 18 17 22
ROOT
ATOM      1  C   UNL     1       2.074  -0.714   1.136  1.00  0.00     0.023 A 
ATOM      2  C   UNL     1       1.870  -1.275  -0.130  1.00  0.00     0.013 A 
ATOM      3  C   UNL     1       0.611  -1.194  -0.731  1.00  0.00     0.014 A 
ATOM      4  C   UNL     1      -0.452  -0.561  -0.071  1.00  0.00     0.039 A 
ATOM      5  C   UNL     1      -0.255  -0.036   1.212  1.00  0.00     0.014 A 
ATOM      6  C   UNL     1       1.005  -0.115   1.814  1.00  0.00     0.013 A 
ENDROOT
BRANCH   1   7
ATOM      7  C   UNL     1       3.385  -0.798   1.822  1.00  0.00     0.196 C 
ATOM      8  O   UNL     1       3.409  -1.027   3.032  1.00  0.00    -0.288 OA
BRANCH   7   9
ATOM      9  C   UNL     1       4.677  -0.637   1.107  1.00  0.00     0.068 A 
ATOM     10  C   UNL     1       6.001   0.268  -0.723  1.00  0.00     0.119 A 
ATOM     11  C   UNL     1       7.135  -0.366  -0.214  1.00  0.00     0.050 A 
ATOM     12  C   UNL     1       4.777   0.136  -0.058  1.00  0.00     0.062 A 
ATOM     13  C   UNL     1       7.050  -1.114   0.963  1.00  0.00     0.051 A 
ATOM     14  C   UNL     1       5.832  -1.237   1.625  1.00  0.00     0.127 A 
BRANCH  10  15
ATOM     15  O   UNL     1       5.951   1.039  -1.852  1.00  0.00    -0.497 OA
ATOM     16  C   UNL     1       7.170   1.219  -2.564  1.00  0.00     0.278 C 
ENDBRANCH  10  15
BRANCH  14  17
ATOM     17  O   UNL     1       5.838  -1.962   2.786  1.00  0.00    -0.507 OA
ATOM     18  H   UNL     1       4.977  -1.810   3.237  1.00  0.00     0.293 HD
ENDBRANCH  14  17
ENDBRANCH   7   9
ENDBRANCH   1   7
BRANCH   4  19
ATOM     19  C   UNL     1      -1.776  -0.509  -0.753  1.00  0.00     0.251 C 
ATOM     20  N   UNL     1      -2.611   0.529  -0.392  1.00  0.00    -0.348 N 
ATOM     21  O   UNL     1      -2.060  -1.343  -1.604  1.00  0.00    -0.269 OA
ATOM     22  H   UNL     1      -2.211   1.306   0.115  1.00  0.00     0.164 HD
BRANCH  20  23
ATOM     23  C   UNL     1      -3.887   0.756  -1.079  1.00  0.00     0.096 C 
ATOM     24  C   UNL     1      -4.498   2.099  -0.636  1.00  0.00     0.027 C 
ATOM     25  C   UNL     1      -4.874  -0.423  -0.847  1.00  0.00     0.109 C 
ATOM     26  C   UNL     1      -5.443   1.898   0.544  1.00  0.00     0.018 C 
ATOM     27  N   UNL     1      -6.274   0.022  -0.908  1.00  0.00    -0.304 NA
ATOM     28  C   UNL     1      -6.594   0.944   0.190  1.00  0.00     0.084 C 
ATOM     29  C   UNL     1      -7.192  -1.114  -0.923  1.00  0.00     0.105 C 
ENDBRANCH  20  23
ENDBRANCH   4  19
TORSDOF 6
