MODEL        9USER    Run = 9USERUSER    Estimated Free Energy of Binding    =  -9.01 kcal/mol  [=(1)+(2)+(3)-(4)]USERUSER    (1) Final Intermolecular Energy     = -10.80 kcal/molUSER        vdW + Hbond + desolv Energy     = -10.38 kcal/molUSER        Electrostatic Energy            =  -0.42 kcal/molUSER        Moving Ligand-Fixed Receptor    = -10.80 kcal/molUSER        Moving Ligand-Moving Receptor   =  +0.00 kcal/molUSER    (2) Final Total Internal Energy     =  -0.91 kcal/molUSER    (3) Torsional Free Energy           =  +1.79 kcal/molUSER    (4) Unbound System's Energy         =  -0.91 kcal/molUSERUSERREMARK SMILES COc1ccc(O)c(C(=O)c2ccc(C(=O)N[C@@H]3CCCN(C)C3)cc2)c1REMARK SMILES IDX 11 1 12 2 13 3 14 4 25 5 26 6 9 7 10 8 8 9 3 10 4 11 27 12REMARK SMILES IDX 5 13 6 14 2 15 1 16 7 17 15 19 17 20 16 21 18 23 19 24 24 25REMARK SMILES IDX 20 26 22 27 21 28 23 29REMARK H PARENT 7 18 17 22USER                              x       y       z     vdW  Elec       q    TypeUSER                           _______ _______ _______ _____ _____    ______ ____ROOTATOM      1  C   UNL     1      34.197  45.012  17.888 -0.35 -0.01    +0.023 A  ATOM      2  C   UNL     1      32.811  44.850  17.774 -0.31 -0.00    +0.013 A  ATOM      3  C   UNL     1      32.232  43.610  18.056 -0.31 -0.00    +0.014 A  ATOM      4  C   UNL     1      33.030  42.524  18.444 -0.34 -0.01    +0.039 A  ATOM      5  C   UNL     1      34.420  42.679  18.517 -0.38 -0.00    +0.014 A  ATOM      6  C   UNL     1      35.001  43.920  18.237 -0.31 -0.00    +0.013 A  ENDROOTBRANCH   1   7ATOM      7  C   UNL     1      34.857  46.302  17.575 -0.33 -0.17    +0.196 C  ATOM      8  O   UNL     1      34.604  47.284  18.274 -0.86 +0.28    -0.288 OA BRANCH   7   9ATOM      9  C   UNL     1      35.831  46.457  16.464 -0.31 -0.06    +0.068 A  ATOM     10  C   UNL     1      38.090  46.846  15.649 -0.33 -0.05    +0.119 A  ATOM     11  C   UNL     1      37.632  46.750  14.335 -0.41 -0.02    +0.050 A  ATOM     12  C   UNL     1      37.190  46.693  16.710 -0.26 -0.04    +0.062 A  ATOM     13  C   UNL     1      36.283  46.485  14.082 -0.42 -0.03    +0.051 A  ATOM     14  C   UNL     1      35.393  46.327  15.140 -0.23 -0.12    +0.127 A  BRANCH  10  15ATOM     15  O   UNL     1      39.382  47.084  16.034 -0.12 +0.14    -0.497 OA ATOM     16  C   UNL     1      39.754  46.660  17.340 -0.33 -0.05    +0.278 C  ENDBRANCH  10  15BRANCH  14  17ATOM     17  O   UNL     1      34.096  46.041  14.809 -0.06 +0.56    -0.507 OA ATOM     18  H   UNL     1      33.564  46.857  14.953 -0.14 -0.67    +0.293 HD ENDBRANCH  14  17ENDBRANCH   7   9ENDBRANCH   1   7BRANCH   4  19ATOM     19  C   UNL     1      32.363  41.222  18.725 -0.28 -0.02    +0.251 C  ATOM     20  N   UNL     1      31.696  40.635  17.669 -0.16 +0.08    -0.348 N  ATOM     21  O   UNL     1      32.449  40.717  19.837 -0.69 -0.07    -0.269 OA ATOM     22  H   UNL     1      31.885  40.978  16.738 -0.34 -0.10    +0.164 HD BRANCH  20  23ATOM     23  C   UNL     1      31.104  39.298  17.789 -0.27 +0.00    +0.096 C  ATOM     24  C   UNL     1      29.817  39.359  18.633 -0.36 +0.00    +0.027 C  ATOM     25  C   UNL     1      32.122  38.277  18.374 -0.46 +0.01    +0.109 C  ATOM     26  C   UNL     1      30.125  39.093  20.103 -0.34 +0.00    +0.018 C  ATOM     27  N   UNL     1      31.446  37.199  19.110 -0.76 -0.11    -0.304 NA ATOM     28  C   UNL     1      30.763  37.711  20.306 -0.46 +0.01    +0.084 C  ATOM     29  C   UNL     1      32.376  36.128  19.456 -0.45 +0.03    +0.105 C  ENDBRANCH  20  23ENDBRANCH   4  19TORSDOF 6TERENDMDL