REMARK SMILES COc1ccc(O)c(C(=O)c2ccc(C(=O)N[C@@H]3CCCNC3)cc2)c1Br
REMARK SMILES IDX 11 1 12 2 13 3 14 4 24 5 25 6 9 7 10 8 8 9 3 10 4 11 26 12
REMARK SMILES IDX 5 13 6 14 27 15 2 16 1 17 7 18 15 20 17 21 16 22 18 24 19 25
REMARK SMILES IDX 23 26 20 27 22 28 21 29
REMARK H PARENT 7 19 17 23 22 30
ROOT
ATOM      1  C   UNL     1       1.655   0.946   1.674  1.00  0.00     0.023 A 
ATOM      2  C   UNL     1       1.182  -0.061   0.822  1.00  0.00     0.013 A 
ATOM      3  C   UNL     1      -0.146  -0.038   0.379  1.00  0.00     0.014 A 
ATOM      4  C   UNL     1      -1.011   0.981   0.801  1.00  0.00     0.039 A 
ATOM      5  C   UNL     1      -0.535   1.985   1.654  1.00  0.00     0.014 A 
ATOM      6  C   UNL     1       0.790   1.962   2.098  1.00  0.00     0.013 A 
ENDROOT
BRANCH   1   7
ATOM      7  C   UNL     1       3.050   0.952   2.180  1.00  0.00     0.198 C 
ATOM      8  O   UNL     1       3.292   1.399   3.301  1.00  0.00    -0.288 OA
BRANCH   7   9
ATOM      9  C   UNL     1       4.163   0.317   1.442  1.00  0.00     0.082 A 
ATOM     10  C   UNL     1       5.522  -0.097  -0.540  1.00  0.00     0.134 A 
ATOM     11  C   UNL     1       6.230  -1.077   0.166  1.00  0.00     0.051 A 
ATOM     12  C   UNL     1       4.486   0.612   0.107  1.00  0.00     0.074 A 
ATOM     13  C   UNL     1       5.941  -1.332   1.507  1.00  0.00     0.051 A 
ATOM     14  C   UNL     1       4.928  -0.625   2.142  1.00  0.00     0.128 A 
ATOM     15  Br  UNL     1       3.614   2.031  -0.835  1.00  0.00    -0.046 Br
BRANCH  10  16
ATOM     16  O   UNL     1       5.766   0.223  -1.851  1.00  0.00    -0.496 OA
ATOM     17  C   UNL     1       6.881  -0.386  -2.491  1.00  0.00     0.278 C 
ENDBRANCH  10  16
BRANCH  14  18
ATOM     18  O   UNL     1       4.731  -0.901   3.469  1.00  0.00    -0.507 OA
ATOM     19  H   UNL     1       4.255  -0.138   3.868  1.00  0.00     0.293 HD
ENDBRANCH  14  18
ENDBRANCH   7   9
ENDBRANCH   1   7
BRANCH   4  20
ATOM     20  C   UNL     1      -2.428   1.052   0.352  1.00  0.00     0.251 C 
ATOM     21  N   UNL     1      -3.050  -0.148   0.080  1.00  0.00    -0.348 N 
ATOM     22  O   UNL     1      -2.991   2.137   0.262  1.00  0.00    -0.269 OA
ATOM     23  H   UNL     1      -2.567  -1.021   0.239  1.00  0.00     0.164 HD
BRANCH  21  24
ATOM     24  C   UNL     1      -4.427  -0.199  -0.394  1.00  0.00     0.096 C 
ATOM     25  C   UNL     1      -5.002  -1.608  -0.244  1.00  0.00     0.027 C 
ATOM     26  C   UNL     1      -4.548   0.274  -1.867  1.00  0.00     0.105 C 
ATOM     27  C   UNL     1      -6.452  -1.677  -0.734  1.00  0.00     0.017 C 
ATOM     28  N   UNL     1      -5.710  -0.259  -2.598  1.00  0.00    -0.315 NA
ATOM     29  C   UNL     1      -6.821  -0.549  -1.702  1.00  0.00     0.081 C 
ATOM     30  H   UNL     1      -5.995   0.419  -3.305  1.00  0.00     0.122 HD
ENDBRANCH  21  24
ENDBRANCH   4  20
TORSDOF 6
