
     RDKit          3D

 57 58  0  0  0  0  0  0  0  0999 V2000
   -5.7236    1.8799    0.7726 C   0  0  0  0  0  0  0  0  0  0  0  0
   -4.3330    1.4084    1.2008 C   0  0  0  0  0  0  0  0  0  0  0  0
   -3.2455    2.3525    0.6877 C   0  0  0  0  0  0  0  0  0  0  0  0
   -4.0811    0.0026    0.8616 N   0  0  0  0  0  0  0  0  0  0  0  0
   -4.0408   -0.3157   -0.5684 C   0  0  0  0  0  0  0  0  0  0  0  0
   -4.0224   -1.8323   -0.8744 C   0  0  1  0  0  0  0  0  0  0  0  0
   -3.0024   -2.6101   -0.0362 C   0  0  0  0  0  0  0  0  0  0  0  0
   -1.6377   -2.1483   -0.2462 N   0  0  0  0  0  0  0  0  0  0  0  0
   -0.6586   -2.3948    0.6868 C   0  0  0  0  0  0  0  0  0  0  0  0
   -0.8518   -2.9082    1.7802 O   0  0  0  0  0  0  0  0  0  0  0  0
    0.7086   -2.0886    0.2264 C   0  0  0  0  0  0  0  0  0  0  0  0
    1.1067   -0.9077   -0.2565 C   0  0  0  0  0  0  0  0  0  0  0  0
    0.3551    0.3053   -0.4131 C   0  0  0  0  0  0  0  0  0  0  0  0
    1.1318    1.2613   -0.9199 C   0  0  0  0  0  0  0  0  0  0  0  0
    2.4319    0.5782   -1.0695 C   0  0  0  0  0  0  0  0  0  0  0  0
    3.5278    1.2304   -1.5696 N   0  0  0  0  0  0  0  0  0  0  0  0
    4.9146    0.8013   -1.4284 C   0  0  2  0  0  0  0  0  0  0  0  0
    5.1659   -0.6456   -1.8493 C   0  0  0  0  0  0  0  0  0  0  0  0
    5.4408    1.1634   -0.0493 C   0  0  0  0  0  0  0  0  0  0  0  0
    5.1198    0.4035    1.0876 C   0  0  0  0  0  0  0  0  0  0  0  0
    5.5979    0.7643    2.3504 C   0  0  0  0  0  0  0  0  0  0  0  0
    6.3999    1.8928    2.4898 C   0  0  0  0  0  0  0  0  0  0  0  0
    6.9889    2.3394    4.0432 Cl  0  0  0  0  0  0  0  0  0  0  0  0
    6.7244    2.6659    1.3783 C   0  0  0  0  0  0  0  0  0  0  0  0
    6.2444    2.3054    0.1161 C   0  0  0  0  0  0  0  0  0  0  0  0
    2.3892   -0.6694   -0.6848 N   0  0  0  0  0  0  0  0  0  0  0  0
   -5.4201   -2.4405   -0.7765 C   0  0  0  0  0  0  0  0  0  0  0  0
   -5.5101   -3.7807   -1.0307 N   0  0  0  0  0  0  0  0  0  0  0  0
   -6.4507   -1.8090   -0.5706 O   0  0  0  0  0  0  0  0  0  0  0  0
   -6.4970    1.1832    1.1139 H   0  0  0  0  0  0  0  0  0  0  0  0
   -5.8104    1.9856   -0.3134 H   0  0  0  0  0  0  0  0  0  0  0  0
   -5.9448    2.8580    1.2143 H   0  0  0  0  0  0  0  0  0  0  0  0
   -4.3117    1.4595    2.2970 H   0  0  0  0  0  0  0  0  0  0  0  0
   -2.2553    2.0296    1.0259 H   0  0  0  0  0  0  0  0  0  0  0  0
   -3.2340    2.4101   -0.4057 H   0  0  0  0  0  0  0  0  0  0  0  0
   -3.4084    3.3662    1.0699 H   0  0  0  0  0  0  0  0  0  0  0  0
   -3.2146   -0.2992    1.3103 H   0  0  0  0  0  0  0  0  0  0  0  0
   -4.8907    0.1321   -1.0938 H   0  0  0  0  0  0  0  0  0  0  0  0
   -3.1379    0.1287   -1.0041 H   0  0  0  0  0  0  0  0  0  0  0  0
   -3.7408   -1.9305   -1.9333 H   0  0  0  0  0  0  0  0  0  0  0  0
   -3.2481   -2.5745    1.0315 H   0  0  0  0  0  0  0  0  0  0  0  0
   -2.9969   -3.6715   -0.3089 H   0  0  0  0  0  0  0  0  0  0  0  0
   -1.3292   -1.9709   -1.1946 H   0  0  0  0  0  0  0  0  0  0  0  0
    1.4246   -2.8916    0.3567 H   0  0  0  0  0  0  0  0  0  0  0  0
   -0.6798    0.4309   -0.1386 H   0  0  0  0  0  0  0  0  0  0  0  0
    0.9055    2.2832   -1.1545 H   0  0  0  0  0  0  0  0  0  0  0  0
    3.4451    2.2401   -1.5853 H   0  0  0  0  0  0  0  0  0  0  0  0
    5.4785    1.4023   -2.1549 H   0  0  0  0  0  0  0  0  0  0  0  0
    4.7511   -1.3799   -1.1534 H   0  0  0  0  0  0  0  0  0  0  0  0
    4.7374   -0.8428   -2.8380 H   0  0  0  0  0  0  0  0  0  0  0  0
    6.2430   -0.8418   -1.9045 H   0  0  0  0  0  0  0  0  0  0  0  0
    4.4819   -0.4748    1.0020 H   0  0  0  0  0  0  0  0  0  0  0  0
    5.3349    0.1621    3.2161 H   0  0  0  0  0  0  0  0  0  0  0  0
    7.3482    3.5493    1.4870 H   0  0  0  0  0  0  0  0  0  0  0  0
    6.5076    2.9244   -0.7393 H   0  0  0  0  0  0  0  0  0  0  0  0
   -6.4483   -4.1626   -1.0553 H   0  0  0  0  0  0  0  0  0  0  0  0
   -4.7798   -4.3092   -1.4853 H   0  0  0  0  0  0  0  0  0  0  0  0
  1  2  1  0
  2  3  1  0
  2  4  1  0
  4  5  1  0
  5  6  1  0
  6  7  1  0
  7  8  1  0
  8  9  1  0
  9 10  2  0
  9 11  1  0
 11 12  2  3
 12 13  1  0
 13 14  2  0
 14 15  1  0
 15 16  1  0
 16 17  1  0
 17 18  1  0
 17 19  1  0
 19 20  2  0
 20 21  1  0
 21 22  2  0
 22 23  1  0
 22 24  1  0
 24 25  2  0
 15 26  2  0
  6 27  1  0
 27 28  1  0
 27 29  2  0
 26 12  1  0
 25 19  1  0
  1 30  1  0
  1 31  1  0
  1 32  1  0
  2 33  1  0
  3 34  1  0
  3 35  1  0
  3 36  1  0
  4 37  1  0
  5 38  1  0
  5 39  1  0
  6 40  1  6
  7 41  1  0
  7 42  1  0
  8 43  1  0
 11 44  1  0
 13 45  1  0
 14 46  1  0
 16 47  1  0
 17 48  1  6
 18 49  1  0
 18 50  1  0
 18 51  1  0
 20 52  1  0
 21 53  1  0
 24 54  1  0
 25 55  1  0
 28 56  1  0
 28 57  1  0
M  END
$$$$
