
     RDKit          3D

 47 50  0  0  0  0  0  0  0  0999 V2000
   -4.9504   -1.3651    0.9899 C   0  0  0  0  0  0  0  0  0  0  0  0
   -4.8094   -0.0140    0.3408 C   0  0  0  0  0  0  0  0  0  0  0  0
   -5.9506    0.7911    0.1729 C   0  0  0  0  0  0  0  0  0  0  0  0
   -5.8592    2.0549   -0.4129 C   0  0  0  0  0  0  0  0  0  0  0  0
   -4.6244    2.5334   -0.8354 C   0  0  0  0  0  0  0  0  0  0  0  0
   -3.4916    1.7445   -0.6656 C   0  0  0  0  0  0  0  0  0  0  0  0
   -2.3090    2.2292   -1.0775 F   0  0  0  0  0  0  0  0  0  0  0  0
   -3.5511    0.4650   -0.0763 C   0  0  0  0  0  0  0  0  0  0  0  0
   -2.4111   -0.3453    0.1096 N   0  0  0  0  0  0  0  0  0  0  0  0
   -1.7615   -0.7659   -1.1581 C   0  0  0  0  0  0  0  0  0  0  0  0
   -0.3095   -0.6366   -0.8853 C   0  0  0  0  0  0  0  0  0  0  0  0
    0.7833   -0.9534   -1.6397 C   0  0  0  0  0  0  0  0  0  0  0  0
    0.6565   -1.5691   -2.9971 C   0  0  0  0  0  0  0  0  0  0  0  0
    2.0306   -0.7094   -1.1805 N   0  0  0  0  0  0  0  0  0  0  0  0
    2.1882   -0.1380    0.0343 C   0  0  0  0  0  0  0  0  0  0  0  0
    3.4593    0.1273    0.4761 N   0  0  0  0  0  0  0  0  0  0  0  0
    3.7052    0.2936    1.9018 C   0  0  0  0  0  0  0  0  0  0  0  0
    5.1293   -0.2358    2.1039 C   0  0  0  0  0  0  0  0  0  0  0  0
    5.7801   -0.1340    0.7226 C   0  0  2  0  0  0  0  0  0  0  0  0
    6.2833    1.2247    0.4643 N   0  0  0  0  0  0  0  0  0  0  0  0
    4.5926   -0.4978   -0.1974 C   0  0  0  0  0  0  0  0  0  0  0  0
    1.1539    0.2083    0.8193 N   0  0  0  0  0  0  0  0  0  0  0  0
   -0.0693   -0.0671    0.3396 C   0  0  0  0  0  0  0  0  0  0  0  0
   -1.3763    0.2560    1.0308 C   0  0  2  0  0  0  0  0  0  0  0  0
   -1.4464   -0.3418    2.3825 C   0  0  0  0  0  0  0  0  0  0  0  0
   -1.5235   -0.8014    3.4489 N   0  0  0  0  0  0  0  0  0  0  0  0
   -4.4988   -2.1417    0.3641 H   0  0  0  0  0  0  0  0  0  0  0  0
   -4.4714   -1.3635    1.9738 H   0  0  0  0  0  0  0  0  0  0  0  0
   -6.0029   -1.6339    1.1294 H   0  0  0  0  0  0  0  0  0  0  0  0
   -6.9247    0.4333    0.5025 H   0  0  0  0  0  0  0  0  0  0  0  0
   -6.7520    2.6632   -0.5356 H   0  0  0  0  0  0  0  0  0  0  0  0
   -4.5345    3.5136   -1.2921 H   0  0  0  0  0  0  0  0  0  0  0  0
   -2.0278   -1.8078   -1.3641 H   0  0  0  0  0  0  0  0  0  0  0  0
   -2.0392   -0.1443   -2.0169 H   0  0  0  0  0  0  0  0  0  0  0  0
    1.6428   -1.7515   -3.4359 H   0  0  0  0  0  0  0  0  0  0  0  0
    0.1055   -0.9018   -3.6670 H   0  0  0  0  0  0  0  0  0  0  0  0
    0.1323   -2.5277   -2.9323 H   0  0  0  0  0  0  0  0  0  0  0  0
    3.0118   -0.2682    2.5386 H   0  0  0  0  0  0  0  0  0  0  0  0
    3.6441    1.3552    2.1654 H   0  0  0  0  0  0  0  0  0  0  0  0
    5.0854   -1.2905    2.4052 H   0  0  0  0  0  0  0  0  0  0  0  0
    5.6658    0.3045    2.8904 H   0  0  0  0  0  0  0  0  0  0  0  0
    6.6073   -0.8411    0.6094 H   0  0  0  0  0  0  0  0  0  0  0  0
    5.4800    1.8501    0.3628 H   0  0  0  0  0  0  0  0  0  0  0  0
    6.8124    1.5602    1.2666 H   0  0  0  0  0  0  0  0  0  0  0  0
    4.7328   -0.1202   -1.2166 H   0  0  0  0  0  0  0  0  0  0  0  0
    4.4753   -1.5886   -0.2324 H   0  0  0  0  0  0  0  0  0  0  0  0
   -1.4632    1.3473    1.0960 H   0  0  0  0  0  0  0  0  0  0  0  0
  1  2  1  0
  2  3  2  0
  3  4  1  0
  4  5  2  0
  5  6  1  0
  6  7  1  0
  6  8  2  0
  8  9  1  0
  9 10  1  0
 10 11  1  0
 11 12  2  0
 12 13  1  0
 12 14  1  0
 14 15  2  0
 15 16  1  0
 16 17  1  0
 17 18  1  0
 18 19  1  0
 19 20  1  0
 19 21  1  0
 15 22  1  0
 22 23  2  0
 23 24  1  0
 24 25  1  0
 25 26  3  0
  8  2  1  0
 24  9  1  0
 23 11  1  0
 21 16  1  0
  1 27  1  0
  1 28  1  0
  1 29  1  0
  3 30  1  0
  4 31  1  0
  5 32  1  0
 10 33  1  0
 10 34  1  0
 13 35  1  0
 13 36  1  0
 13 37  1  0
 17 38  1  0
 17 39  1  0
 18 40  1  0
 18 41  1  0
 19 42  1  1
 20 43  1  0
 20 44  1  0
 21 45  1  0
 21 46  1  0
 24 47  1  1
M  END
$$$$
