
     RDKit          3D

 44 46  0  0  0  0  0  0  0  0999 V2000
   -2.5467    4.2075   -0.6661 C   0  0  0  0  0  0  0  0  0  0  0  0
   -1.7796    4.0053    0.5428 N   0  0  0  0  0  0  0  0  0  0  0  0
   -0.7660    3.0685    0.6876 C   0  0  0  0  0  0  0  0  0  0  0  0
   -0.5957    1.8247    0.2270 C   0  0  0  0  0  0  0  0  0  0  0  0
   -1.4013    1.0158   -0.5639 N   0  0  0  0  0  0  0  0  0  0  0  0
   -1.9428   -0.2342   -0.0204 C   0  0  0  0  0  0  0  0  0  0  0  0
   -2.9115   -0.8313   -1.0092 C   0  0  0  0  0  0  0  0  0  0  0  0
   -2.5015   -1.1610   -2.3060 C   0  0  0  0  0  0  0  0  0  0  0  0
   -3.4269   -1.7117   -3.1780 C   0  0  0  0  0  0  0  0  0  0  0  0
   -4.7122   -1.9570   -2.8490 N   0  0  0  0  0  0  0  0  0  0  0  0
   -5.0897   -1.6377   -1.5935 C   0  0  0  0  0  0  0  0  0  0  0  0
   -4.2395   -1.0809   -0.6504 C   0  0  0  0  0  0  0  0  0  0  0  0
    0.7428    1.3932    0.7440 C   0  0  0  0  0  0  0  0  0  0  0  0
    1.2816    0.1904    0.3526 N   0  0  0  0  0  0  0  0  0  0  0  0
    2.5125   -0.4007    0.6927 C   0  0  0  0  0  0  0  0  0  0  0  0
    3.3573    0.0828    1.6961 C   0  0  0  0  0  0  0  0  0  0  0  0
    4.5538   -0.5682    2.0068 C   0  0  0  0  0  0  0  0  0  0  0  0
    4.9174   -1.7239    1.3221 C   0  0  0  0  0  0  0  0  0  0  0  0
    4.0899   -2.2404    0.3273 C   0  0  0  0  0  0  0  0  0  0  0  0
    4.5549   -3.3830   -0.2639 O   0  0  0  0  0  0  0  0  0  0  0  0
    3.7599   -3.9489   -1.2973 C   0  0  0  0  0  0  0  0  0  0  0  0
    2.8938   -1.5817    0.0230 C   0  0  0  0  0  0  0  0  0  0  0  0
    1.2732    2.2819    1.5284 N   0  0  0  0  0  0  0  0  0  0  0  0
    0.4197    3.3482    1.5611 C   0  0  0  0  0  0  0  0  0  0  0  0
    0.5647    4.3972    2.1715 O   0  0  0  0  0  0  0  0  0  0  0  0
   -3.1266    5.1319   -0.5814 H   0  0  0  0  0  0  0  0  0  0  0  0
   -3.2554    3.3899   -0.8232 H   0  0  0  0  0  0  0  0  0  0  0  0
   -1.8921    4.2945   -1.5390 H   0  0  0  0  0  0  0  0  0  0  0  0
   -1.4914    4.8846    0.9859 H   0  0  0  0  0  0  0  0  0  0  0  0
   -2.1897    1.5771   -0.8865 H   0  0  0  0  0  0  0  0  0  0  0  0
   -2.4486   -0.0302    0.9314 H   0  0  0  0  0  0  0  0  0  0  0  0
   -1.1512   -0.9643    0.1774 H   0  0  0  0  0  0  0  0  0  0  0  0
   -1.4835   -0.9828   -2.6367 H   0  0  0  0  0  0  0  0  0  0  0  0
   -3.1509   -1.9763   -4.1948 H   0  0  0  0  0  0  0  0  0  0  0  0
   -6.1290   -1.8477   -1.3560 H   0  0  0  0  0  0  0  0  0  0  0  0
   -4.6149   -0.8501    0.3414 H   0  0  0  0  0  0  0  0  0  0  0  0
    0.8236   -0.2227   -0.4505 H   0  0  0  0  0  0  0  0  0  0  0  0
    3.1071    0.9743    2.2637 H   0  0  0  0  0  0  0  0  0  0  0  0
    5.1981   -0.1709    2.7868 H   0  0  0  0  0  0  0  0  0  0  0  0
    5.8492   -2.2270    1.5679 H   0  0  0  0  0  0  0  0  0  0  0  0
    2.7819   -4.2608   -0.9163 H   0  0  0  0  0  0  0  0  0  0  0  0
    3.6545   -3.2562   -2.1388 H   0  0  0  0  0  0  0  0  0  0  0  0
    4.2743   -4.8423   -1.6641 H   0  0  0  0  0  0  0  0  0  0  0  0
    2.2363   -1.9759   -0.7440 H   0  0  0  0  0  0  0  0  0  0  0  0
  1  2  1  0
  2  3  1  0
  3  4  2  0
  4  5  1  0
  5  6  1  0
  6  7  1  0
  7  8  2  0
  8  9  1  0
  9 10  2  0
 10 11  1  0
 11 12  2  0
  4 13  1  0
 13 14  1  0
 14 15  1  0
 15 16  2  0
 16 17  1  0
 17 18  2  0
 18 19  1  0
 19 20  1  0
 20 21  1  0
 19 22  2  0
 13 23  2  0
 23 24  1  0
 24 25  2  0
 24  3  1  0
 12  7  1  0
 22 15  1  0
  1 26  1  0
  1 27  1  0
  1 28  1  0
  2 29  1  0
  5 30  1  0
  6 31  1  0
  6 32  1  0
  8 33  1  0
  9 34  1  0
 11 35  1  0
 12 36  1  0
 14 37  1  0
 16 38  1  0
 17 39  1  0
 18 40  1  0
 21 41  1  0
 21 42  1  0
 21 43  1  0
 22 44  1  0
M  END
$$$$
