
     RDKit          3D

 42 44  0  0  0  0  0  0  0  0999 V2000
    1.8570   -5.0737    0.2915 C   0  0  0  0  0  0  0  0  0  0  0  0
    1.4567   -3.8059   -0.4417 C   0  0  0  0  0  0  0  0  0  0  0  0
    1.6784   -2.5637    0.4168 C   0  0  0  0  0  0  0  0  0  0  0  0
    1.2515   -1.3918   -0.2754 O   0  0  0  0  0  0  0  0  0  0  0  0
    2.1302   -0.7123   -1.0722 C   0  0  0  0  0  0  0  0  0  0  0  0
    3.4217   -1.1437   -1.3913 C   0  0  0  0  0  0  0  0  0  0  0  0
    4.2316   -0.3948   -2.2540 C   0  0  0  0  0  0  0  0  0  0  0  0
    3.7592    0.7876   -2.8185 C   0  0  0  0  0  0  0  0  0  0  0  0
    2.4750    1.2301   -2.5146 C   0  0  0  0  0  0  0  0  0  0  0  0
    1.6717    0.4923   -1.6325 C   0  0  0  0  0  0  0  0  0  0  0  0
    0.3148    1.0171   -1.3566 C   0  0  0  0  0  0  0  0  0  0  0  0
   -0.4409    1.1740   -2.3138 O   0  0  0  0  0  0  0  0  0  0  0  0
   -0.0436    1.3923    0.0125 C   0  0  0  0  0  0  0  0  0  0  0  0
    0.8202    1.5358    1.0871 C   0  0  0  0  0  0  0  0  0  0  0  0
    0.0937    1.9080    2.1856 N   0  0  0  0  0  0  0  0  0  0  0  0
   -1.2345    2.0296    1.8584 C   0  0  0  0  0  0  0  0  0  0  0  0
   -2.3287    2.3905    2.6520 C   0  0  0  0  0  0  0  0  0  0  0  0
   -3.5907    2.4361    2.0452 C   0  0  0  0  0  0  0  0  0  0  0  0
   -3.7529    2.1324    0.6945 C   0  0  0  0  0  0  0  0  0  0  0  0
   -4.9374    2.1460    0.0070 O   0  0  0  0  0  0  0  0  0  0  0  0
   -6.1022    2.5125    0.7336 C   0  0  0  0  0  0  0  0  0  0  0  0
   -2.6394    1.7735   -0.0776 C   0  0  0  0  0  0  0  0  0  0  0  0
   -1.3539    1.7182    0.5041 C   0  0  0  0  0  0  0  0  0  0  0  0
    1.6826   -5.9493   -0.3416 H   0  0  0  0  0  0  0  0  0  0  0  0
    2.9185   -5.0532    0.5582 H   0  0  0  0  0  0  0  0  0  0  0  0
    1.2737   -5.1971    1.2096 H   0  0  0  0  0  0  0  0  0  0  0  0
    0.4011   -3.8629   -0.7334 H   0  0  0  0  0  0  0  0  0  0  0  0
    2.0208   -3.7305   -1.3778 H   0  0  0  0  0  0  0  0  0  0  0  0
    1.0474   -2.6365    1.3107 H   0  0  0  0  0  0  0  0  0  0  0  0
    2.7062   -2.4775    0.7871 H   0  0  0  0  0  0  0  0  0  0  0  0
    3.8293   -2.0714   -1.0040 H   0  0  0  0  0  0  0  0  0  0  0  0
    5.2314   -0.7476   -2.4978 H   0  0  0  0  0  0  0  0  0  0  0  0
    4.3852    1.3574   -3.5005 H   0  0  0  0  0  0  0  0  0  0  0  0
    2.0939    2.1450   -2.9635 H   0  0  0  0  0  0  0  0  0  0  0  0
    1.8910    1.4033    1.1651 H   0  0  0  0  0  0  0  0  0  0  0  0
    0.4741    2.0781    3.1062 H   0  0  0  0  0  0  0  0  0  0  0  0
   -2.2123    2.6293    3.7042 H   0  0  0  0  0  0  0  0  0  0  0  0
   -4.4346    2.7167    2.6671 H   0  0  0  0  0  0  0  0  0  0  0  0
   -6.3025    1.8027    1.5430 H   0  0  0  0  0  0  0  0  0  0  0  0
   -6.0248    3.5362    1.1145 H   0  0  0  0  0  0  0  0  0  0  0  0
   -6.9512    2.4780    0.0440 H   0  0  0  0  0  0  0  0  0  0  0  0
   -2.7671    1.5370   -1.1314 H   0  0  0  0  0  0  0  0  0  0  0  0
  1  2  1  0
  2  3  1  0
  3  4  1  0
  4  5  1  0
  5  6  2  0
  6  7  1  0
  7  8  2  0
  8  9  1  0
  9 10  2  0
 10 11  1  0
 11 12  2  0
 11 13  1  0
 13 14  2  0
 14 15  1  0
 15 16  1  0
 16 17  2  0
 17 18  1  0
 18 19  2  0
 19 20  1  0
 20 21  1  0
 19 22  1  0
 22 23  2  0
 10  5  1  0
 23 13  1  0
 23 16  1  0
  1 24  1  0
  1 25  1  0
  1 26  1  0
  2 27  1  0
  2 28  1  0
  3 29  1  0
  3 30  1  0
  6 31  1  0
  7 32  1  0
  8 33  1  0
  9 34  1  0
 14 35  1  0
 15 36  1  0
 17 37  1  0
 18 38  1  0
 21 39  1  0
 21 40  1  0
 21 41  1  0
 22 42  1  0
M  END
$$$$
