
     RDKit          3D

 43 46  0  0  0  0  0  0  0  0999 V2000
   -4.5169   -0.7244    1.0913 O   0  0  0  0  0  0  0  0  0  0  0  0
   -3.2018   -0.1617    1.0864 C   0  0  0  0  0  0  0  0  0  0  0  0
   -2.2551   -0.8595    0.0681 C   0  0  0  0  0  0  0  0  0  0  0  0
   -2.2850   -2.3743    0.3542 C   0  0  0  0  0  0  0  0  0  0  0  0
   -1.3204   -3.1264   -0.5423 C   0  0  0  0  0  0  0  0  0  0  0  0
    0.0835   -2.5912   -0.3328 C   0  0  0  0  0  0  0  0  0  0  0  0
    0.1781   -1.0746   -0.6176 C   0  0  0  0  0  0  0  0  0  0  0  0
    1.6396   -0.6712   -0.3542 C   0  0  0  0  0  0  0  0  0  0  0  0
    2.6365   -1.1687   -1.2228 C   0  0  0  0  0  0  0  0  0  0  0  0
    3.9948   -0.9291   -0.9917 C   0  0  0  0  0  0  0  0  0  0  0  0
    4.3772   -0.1836    0.1154 C   0  0  0  0  0  0  0  0  0  0  0  0
    5.6897    0.0672    0.3855 O   0  0  0  0  0  0  0  0  0  0  0  0
    3.4250    0.3444    0.9743 C   0  0  0  0  0  0  0  0  0  0  0  0
    2.0658    0.1248    0.7237 C   0  0  0  0  0  0  0  0  0  0  0  0
    1.1927    0.7803    1.5663 O   0  0  0  0  0  0  0  0  0  0  0  0
    0.3459    1.6164    0.8656 C   0  0  0  0  0  0  0  0  0  0  0  0
    0.5706    2.9921    0.9435 C   0  0  0  0  0  0  0  0  0  0  0  0
   -0.2131    3.8338    0.1707 C   0  0  0  0  0  0  0  0  0  0  0  0
   -0.0377    5.1861    0.1895 O   0  0  0  0  0  0  0  0  0  0  0  0
   -1.1920    3.3201   -0.6728 C   0  0  0  0  0  0  0  0  0  0  0  0
   -1.4140    1.9382   -0.7240 C   0  0  0  0  0  0  0  0  0  0  0  0
   -2.3487    1.4625   -1.6060 O   0  0  0  0  0  0  0  0  0  0  0  0
   -0.6788    1.0504    0.0817 C   0  0  0  0  0  0  0  0  0  0  0  0
   -0.8561   -0.3539    0.1742 N   0  0  0  0  0  0  0  0  0  0  0  0
   -4.4920   -1.4961    1.6823 H   0  0  0  0  0  0  0  0  0  0  0  0
   -2.7971   -0.2253    2.1038 H   0  0  0  0  0  0  0  0  0  0  0  0
   -3.3256    0.8996    0.8603 H   0  0  0  0  0  0  0  0  0  0  0  0
   -2.6452   -0.7370   -0.9485 H   0  0  0  0  0  0  0  0  0  0  0  0
   -3.2925   -2.7747    0.1920 H   0  0  0  0  0  0  0  0  0  0  0  0
   -2.0283   -2.5643    1.4047 H   0  0  0  0  0  0  0  0  0  0  0  0
   -1.3500   -4.1959   -0.3058 H   0  0  0  0  0  0  0  0  0  0  0  0
   -1.6142   -3.0178   -1.5930 H   0  0  0  0  0  0  0  0  0  0  0  0
    0.7645   -3.1565   -0.9803 H   0  0  0  0  0  0  0  0  0  0  0  0
    0.3955   -2.7979    0.7006 H   0  0  0  0  0  0  0  0  0  0  0  0
   -0.0295   -0.8984   -1.6833 H   0  0  0  0  0  0  0  0  0  0  0  0
    2.3553   -1.7659   -2.0887 H   0  0  0  0  0  0  0  0  0  0  0  0
    4.7301   -1.3368   -1.6782 H   0  0  0  0  0  0  0  0  0  0  0  0
    6.2351   -0.3672   -0.2904 H   0  0  0  0  0  0  0  0  0  0  0  0
    3.7329    0.9489    1.8219 H   0  0  0  0  0  0  0  0  0  0  0  0
    1.3635    3.3685    1.5793 H   0  0  0  0  0  0  0  0  0  0  0  0
    0.6735    5.3980    0.8175 H   0  0  0  0  0  0  0  0  0  0  0  0
   -1.7664    4.0068   -1.2866 H   0  0  0  0  0  0  0  0  0  0  0  0
   -2.7894    2.2142   -2.0342 H   0  0  0  0  0  0  0  0  0  0  0  0
  1  2  1  0
  2  3  1  0
  3  4  1  0
  4  5  1  0
  5  6  1  0
  6  7  1  0
  7  8  1  0
  8  9  2  0
  9 10  1  0
 10 11  2  0
 11 12  1  0
 11 13  1  0
 13 14  2  0
 14 15  1  0
 15 16  1  0
 16 17  2  0
 17 18  1  0
 18 19  1  0
 18 20  2  0
 20 21  1  0
 21 22  1  0
 21 23  2  0
 23 24  1  0
 24  3  1  0
 24  7  1  0
 14  8  1  0
 23 16  1  0
  1 25  1  0
  2 26  1  0
  2 27  1  0
  3 28  1  0
  4 29  1  0
  4 30  1  0
  5 31  1  0
  5 32  1  0
  6 33  1  0
  6 34  1  0
  7 35  1  0
  9 36  1  0
 10 37  1  0
 12 38  1  0
 13 39  1  0
 17 40  1  0
 19 41  1  0
 20 42  1  0
 22 43  1  0
M  END
$$$$
