
     RDKit          3D

 48 49  0  0  0  0  0  0  0  0999 V2000
    7.1511    1.2085    3.1308 C   0  0  0  0  0  0  0  0  0  0  0  0
    6.6477    1.1359    1.7033 C   0  0  0  0  0  0  0  0  0  0  0  0
    5.2434    0.7775    1.6561 N   0  0  0  0  0  0  0  0  0  0  0  0
    4.6633    0.4786    0.4345 C   0  0  0  0  0  0  0  0  0  0  0  0
    5.3040    0.4332   -0.6050 O   0  0  0  0  0  0  0  0  0  0  0  0
    3.3161    0.2350    0.5923 N   0  0  0  0  0  0  0  0  0  0  0  0
    2.3623   -0.0022   -0.4174 C   0  0  0  0  0  0  0  0  0  0  0  0
    2.6160    0.1772   -1.7783 C   0  0  0  0  0  0  0  0  0  0  0  0
    1.6145   -0.0606   -2.7232 C   0  0  0  0  0  0  0  0  0  0  0  0
    0.3492   -0.4767   -2.3140 C   0  0  0  0  0  0  0  0  0  0  0  0
    0.0769   -0.6600   -0.9549 C   0  0  0  0  0  0  0  0  0  0  0  0
   -1.2596   -1.0979   -0.5084 C   0  0  0  0  0  0  0  0  0  0  0  0
   -2.3172   -0.2765   -0.3797 C   0  0  0  0  0  0  0  0  0  0  0  0
   -2.3617    1.1383   -0.6956 C   0  0  0  0  0  0  0  0  0  0  0  0
   -3.4269    1.9445   -0.5585 C   0  0  0  0  0  0  0  0  0  0  0  0
   -4.7482    1.5427   -0.0720 C   0  0  0  0  0  0  0  0  0  0  0  0
   -5.6788    0.9663   -0.9457 C   0  0  0  0  0  0  0  0  0  0  0  0
   -6.9370    0.5837   -0.4767 C   0  0  0  0  0  0  0  0  0  0  0  0
   -7.2708    0.7754    0.8638 C   0  0  0  0  0  0  0  0  0  0  0  0
   -6.3448    1.3443    1.7389 C   0  0  0  0  0  0  0  0  0  0  0  0
   -5.0856    1.7278    1.2727 C   0  0  0  0  0  0  0  0  0  0  0  0
   -1.3646   -2.4187   -0.0752 O   0  0  0  0  0  0  0  0  0  0  0  0
   -1.0676   -3.3058   -1.1951 N   0  0  0  0  0  0  0  0  0  0  0  0
   -0.0984   -4.2575   -0.6688 C   0  0  0  0  0  0  0  0  0  0  0  0
    1.0865   -0.4170   -0.0123 C   0  0  0  0  0  0  0  0  0  0  0  0
    8.2107    1.4803    3.1487 H   0  0  0  0  0  0  0  0  0  0  0  0
    6.5944    1.9573    3.7041 H   0  0  0  0  0  0  0  0  0  0  0  0
    7.0329    0.2444    3.6376 H   0  0  0  0  0  0  0  0  0  0  0  0
    7.2216    0.3943    1.1375 H   0  0  0  0  0  0  0  0  0  0  0  0
    6.7645    2.1047    1.2061 H   0  0  0  0  0  0  0  0  0  0  0  0
    4.6364    1.2877    2.2814 H   0  0  0  0  0  0  0  0  0  0  0  0
    3.0244    0.0526    1.5396 H   0  0  0  0  0  0  0  0  0  0  0  0
    3.5868    0.5059   -2.1367 H   0  0  0  0  0  0  0  0  0  0  0  0
    1.8272    0.0730   -3.7795 H   0  0  0  0  0  0  0  0  0  0  0  0
   -0.4209   -0.6727   -3.0558 H   0  0  0  0  0  0  0  0  0  0  0  0
   -3.2352   -0.7147    0.0086 H   0  0  0  0  0  0  0  0  0  0  0  0
   -1.4448    1.5894   -1.0715 H   0  0  0  0  0  0  0  0  0  0  0  0
   -3.3376    2.9965   -0.8204 H   0  0  0  0  0  0  0  0  0  0  0  0
   -5.4279    0.8124   -1.9929 H   0  0  0  0  0  0  0  0  0  0  0  0
   -7.6564    0.1360   -1.1588 H   0  0  0  0  0  0  0  0  0  0  0  0
   -8.2509    0.4774    1.2270 H   0  0  0  0  0  0  0  0  0  0  0  0
   -6.6005    1.4852    2.7851 H   0  0  0  0  0  0  0  0  0  0  0  0
   -4.3694    2.1656    1.9636 H   0  0  0  0  0  0  0  0  0  0  0  0
   -1.9680   -3.7684   -1.3268 H   0  0  0  0  0  0  0  0  0  0  0  0
   -0.4990   -4.7942    0.1987 H   0  0  0  0  0  0  0  0  0  0  0  0
    0.1483   -4.9934   -1.4395 H   0  0  0  0  0  0  0  0  0  0  0  0
    0.8304   -3.7550   -0.3776 H   0  0  0  0  0  0  0  0  0  0  0  0
    0.8632   -0.5601    1.0418 H   0  0  0  0  0  0  0  0  0  0  0  0
  1  2  1  0
  2  3  1  0
  3  4  1  0
  4  5  2  0
  4  6  1  0
  6  7  1  0
  7  8  2  0
  8  9  1  0
  9 10  2  0
 10 11  1  0
 11 12  1  0
 12 13  2  0
 13 14  1  0
 14 15  2  0
 15 16  1  0
 16 17  2  0
 17 18  1  0
 18 19  2  0
 19 20  1  0
 20 21  2  0
 12 22  1  0
 22 23  1  0
 23 24  1  0
 11 25  2  0
 25  7  1  0
 21 16  1  0
  1 26  1  0
  1 27  1  0
  1 28  1  0
  2 29  1  0
  2 30  1  0
  3 31  1  0
  6 32  1  0
  8 33  1  0
  9 34  1  0
 10 35  1  0
 13 36  1  0
 14 37  1  0
 15 38  1  0
 17 39  1  0
 18 40  1  0
 19 41  1  0
 20 42  1  0
 21 43  1  0
 23 44  1  0
 24 45  1  0
 24 46  1  0
 24 47  1  0
 25 48  1  0
M  END
$$$$
