MODEL        8USER    Run = 8USERUSER    Estimated Free Energy of Binding    =  -7.25 kcal/mol  [=(1)+(2)+(3)-(4)]USERUSER    (1) Final Intermolecular Energy     =  -9.04 kcal/molUSER        vdW + Hbond + desolv Energy     =  -8.98 kcal/molUSER        Electrostatic Energy            =  -0.06 kcal/molUSER        Moving Ligand-Fixed Receptor    =  -9.04 kcal/molUSER        Moving Ligand-Moving Receptor   =  +0.00 kcal/molUSER    (2) Final Total Internal Energy     =  -2.68 kcal/molUSER    (3) Torsional Free Energy           =  +1.79 kcal/molUSER    (4) Unbound System's Energy         =  -2.68 kcal/molUSERUSERREMARK SMILES COc1cccc(-c2ccnc(N)n2)c1NS(=O)(=O)c1nccs1REMARK SMILES IDX 3 1 4 2 5 3 6 4 7 5 15 6 2 7 1 8 16 9 17 11 18 12 19 13REMARK SMILES IDX 20 14 21 15 24 16 22 17 23 18 8 19 9 20 14 21 10 22 12 23REMARK SMILES IDX 11 24 13 25REMARK H PARENT 16 10 13 26 13 27USER                              x       y       z     vdW  Elec       q    TypeUSER                           _______ _______ _______ _____ _____    ______ ____ROOTATOM      1  C   UNL     1      36.789  44.991  14.614 -0.29 -0.06    +0.143 A  ATOM      2  C   UNL     1      36.157  45.542  13.501 -0.40 -0.02    +0.049 A  ATOM      3  C   UNL     1      36.559  46.787  13.031 -0.60 -0.00    +0.005 A  ATOM      4  C   UNL     1      37.609  47.466  13.656 -0.53 -0.00    +0.013 A  ATOM      5  C   UNL     1      38.294  46.927  14.766 -0.42 -0.01    +0.028 A  ATOM      6  C   UNL     1      37.855  45.675  15.243 -0.30 -0.04    +0.100 A  ENDROOTBRANCH   1   7ATOM      7  O   UNL     1      36.470  43.758  15.134 -0.14 +0.17    -0.495 OA ATOM      8  C   UNL     1      35.166  43.680  15.707 -0.17 -0.12    +0.278 C  ENDBRANCH   1   7BRANCH   6   9ATOM      9  N   UNL     1      38.385  45.077  16.452 -0.14 +0.07    -0.273 N  ATOM     10  H   UNL     1      38.125  44.086  16.492 +0.11 -0.04    +0.180 HD BRANCH   9  11ATOM     11  S   UNL     1      37.761  45.745  17.911 -0.31 -0.08    +0.289 S  ATOM     12  O   UNL     1      38.852  46.311  18.681 -0.31 +0.03    -0.199 OA ATOM     13  O   UNL     1      36.647  46.580  17.504 -0.24 +0.11    -0.199 OA BRANCH  11  14ATOM     14  C   UNL     1      37.033  44.432  18.877 -0.20 -0.04    +0.230 A  ATOM     15  N   UNL     1      36.147  43.559  18.428 -0.17 +0.05    -0.232 NA ATOM     16  S   UNL     1      37.501  44.261  20.514 -0.47 +0.00    -0.110 S  ATOM     17  C   UNL     1      35.827  42.682  19.447 -0.32 -0.01    +0.124 A  ATOM     18  C   UNL     1      36.464  42.903  20.650 -0.38 -0.00    +0.088 A  ENDBRANCH  11  14ENDBRANCH   9  11ENDBRANCH   6   9BRANCH   5  19ATOM     19  C   UNL     1      39.439  47.675  15.322 -0.46 -0.02    +0.078 A  ATOM     20  C   UNL     1      39.880  48.873  14.799 -0.48 -0.02    +0.049 A  ATOM     21  N   UNL     1      40.003  47.132  16.426 -0.32 +0.04    -0.213 NA ATOM     22  C   UNL     1      40.933  49.468  15.452 -0.55 -0.03    +0.117 A  ATOM     23  C   UNL     1      41.031  47.784  16.975 -0.33 -0.03    +0.220 A  ATOM     24  N   UNL     1      41.516  48.948  16.546 -0.93 -0.01    -0.222 NA BRANCH  23  25ATOM     25  N   UNL     1      41.611  47.230  18.098 -0.28 +0.02    -0.368 N  ATOM     26  H   UNL     1      42.548  46.926  17.878 -0.44 -0.02    +0.159 HD ATOM     27  H   UNL     1      40.981  46.546  18.495 +0.09 -0.01    +0.159 HD ENDBRANCH  23  25ENDBRANCH   5  19TORSDOF 6TERENDMDL