REMARK SMILES Nc1ncc(F)c(-c2cccc(Cl)c2NS(=O)(=O)c2nccs2)n1
REMARK SMILES IDX 8 1 9 2 10 3 11 4 12 5 13 6 14 7 7 8 2 9 3 10 24 11 4 12
REMARK SMILES IDX 5 13 6 14 1 15 15 18 16 20 17 21 18 22 19 23 20 24 23 25
REMARK SMILES IDX 21 26 22 27
REMARK H PARENT 1 16 1 17 15 19
ROOT
ATOM      1  C   UNL     1      -0.942  -0.731   0.542  1.00  0.00     0.029 A 
ATOM      2  C   UNL     1      -1.387  -0.559   1.874  1.00  0.00     0.013 A 
ATOM      3  C   UNL     1      -0.730  -1.139   2.960  1.00  0.00     0.002 A 
ATOM      4  C   UNL     1       0.393  -1.925   2.744  1.00  0.00     0.023 A 
ATOM      5  C   UNL     1       0.868  -2.100   1.445  1.00  0.00     0.065 A 
ATOM      6  Cl  UNL     1       2.255  -3.118   1.222  1.00  0.00    -0.082 Cl
ATOM      7  C   UNL     1       0.234  -1.486   0.339  1.00  0.00     0.077 A 
ENDROOT
BRANCH   1   8
ATOM      8  C   UNL     1      -1.763  -0.151  -0.539  1.00  0.00     0.114 A 
ATOM      9  C   UNL     1      -2.912   1.702  -1.281  1.00  0.00     0.220 A 
ATOM     10  N   UNL     1      -3.340   1.092  -2.390  1.00  0.00    -0.219 NA
ATOM     11  N   UNL     1      -2.172   1.128  -0.326  1.00  0.00    -0.210 NA
ATOM     12  C   UNL     1      -2.936  -0.183  -2.561  1.00  0.00     0.156 A 
ATOM     13  C   UNL     1      -2.151  -0.858  -1.661  1.00  0.00     0.167 A 
ATOM     14  F   UNL     1      -1.837  -2.144  -1.860  1.00  0.00    -0.203 F 
BRANCH   9  15
ATOM     15  N   UNL     1      -3.327   2.999  -1.073  1.00  0.00    -0.368 N 
ATOM     16  H   UNL     1      -4.162   3.191  -1.606  1.00  0.00     0.159 HD
ATOM     17  H   UNL     1      -3.327   3.221  -0.089  1.00  0.00     0.159 HD
ENDBRANCH   9  15
ENDBRANCH   1   8
BRANCH   7  18
ATOM     18  N   UNL     1       0.852  -1.653  -0.959  1.00  0.00    -0.275 N 
ATOM     19  H   UNL     1       1.510  -2.438  -0.983  1.00  0.00     0.180 HD
BRANCH  18  20
ATOM     20  S   UNL     1       1.637  -0.311  -1.661  1.00  0.00     0.289 S 
ATOM     21  O   UNL     1       0.636   0.651  -2.071  1.00  0.00    -0.199 OA
ATOM     22  O   UNL     1       2.558  -0.879  -2.627  1.00  0.00    -0.199 OA
BRANCH  20  23
ATOM     23  C   UNL     1       2.668   0.529  -0.475  1.00  0.00     0.230 A 
ATOM     24  N   UNL     1       2.904   0.154   0.770  1.00  0.00    -0.232 NA
ATOM     25  S   UNL     1       3.450   1.959  -0.997  1.00  0.00    -0.110 S 
ATOM     26  C   UNL     1       3.758   1.066   1.359  1.00  0.00     0.124 A 
ATOM     27  C   UNL     1       4.160   2.113   0.557  1.00  0.00     0.088 A 
ENDBRANCH  20  23
ENDBRANCH  18  20
ENDBRANCH   7  18
TORSDOF 5
