REMARK SMILES COc1cccc(-c2ccnc(N)n2)c1NS(=O)(=O)c1nccs1
REMARK SMILES IDX 3 1 4 2 5 3 6 4 7 5 15 6 2 7 1 8 16 9 17 11 18 12 19 13
REMARK SMILES IDX 20 14 21 15 24 16 22 17 23 18 8 19 9 20 14 21 10 22 12 23
REMARK SMILES IDX 11 24 13 25
REMARK H PARENT 16 10 13 26 13 27
ROOT
ATOM      1  C   UNL     1       0.220   2.848   0.044  1.00  0.00     0.143 A 
ATOM      2  C   UNL     1       1.028   3.251   1.105  1.00  0.00     0.049 A 
ATOM      3  C   UNL     1       1.863   2.325   1.720  1.00  0.00     0.005 A 
ATOM      4  C   UNL     1       1.909   1.007   1.257  1.00  0.00     0.013 A 
ATOM      5  C   UNL     1       1.129   0.569   0.165  1.00  0.00     0.028 A 
ATOM      6  C   UNL     1       0.271   1.516  -0.429  1.00  0.00     0.100 A 
ENDROOT
BRANCH   1   7
ATOM      7  O   UNL     1      -0.619   3.700  -0.636  1.00  0.00    -0.495 OA
ATOM      8  C   UNL     1      -1.286   4.653   0.191  1.00  0.00     0.278 C 
ENDBRANCH   1   7
BRANCH   6   9
ATOM      9  N   UNL     1      -0.675   1.161  -1.467  1.00  0.00    -0.273 N 
ATOM     10  H   UNL     1      -0.878   1.981  -2.049  1.00  0.00     0.180 HD
BRANCH   9  11
ATOM     11  S   UNL     1      -2.215   0.654  -0.887  1.00  0.00     0.289 S 
ATOM     12  O   UNL     1      -2.505   1.339   0.358  1.00  0.00    -0.199 OA
ATOM     13  O   UNL     1      -3.112   0.789  -2.019  1.00  0.00    -0.199 OA
BRANCH  11  14
ATOM     14  C   UNL     1      -2.152  -1.097  -0.547  1.00  0.00     0.230 A 
ATOM     15  N   UNL     1      -1.877  -2.036  -1.437  1.00  0.00    -0.232 NA
ATOM     16  S   UNL     1      -2.461  -1.634   1.048  1.00  0.00    -0.110 S 
ATOM     17  C   UNL     1      -1.897  -3.267  -0.810  1.00  0.00     0.124 A 
ATOM     18  C   UNL     1      -2.192  -3.248   0.537  1.00  0.00     0.088 A 
ENDBRANCH  11  14
ENDBRANCH   9  11
ENDBRANCH   6   9
BRANCH   5  19
ATOM     19  C   UNL     1       1.291  -0.820  -0.308  1.00  0.00     0.078 A 
ATOM     20  C   UNL     1       1.389  -1.153  -1.644  1.00  0.00     0.049 A 
ATOM     21  N   UNL     1       1.394  -1.754   0.666  1.00  0.00    -0.213 NA
ATOM     22  C   UNL     1       1.577  -2.485  -1.923  1.00  0.00     0.117 A 
ATOM     23  C   UNL     1       1.560  -3.023   0.285  1.00  0.00     0.220 A 
ATOM     24  N   UNL     1       1.676  -3.435  -0.977  1.00  0.00    -0.222 NA
BRANCH  23  25
ATOM     25  N   UNL     1       1.661  -3.978   1.276  1.00  0.00    -0.368 N 
ATOM     26  H   UNL     1       1.980  -3.544   2.130  1.00  0.00     0.159 HD
ATOM     27  H   UNL     1       2.193  -4.764   0.928  1.00  0.00     0.159 HD
ENDBRANCH  23  25
ENDBRANCH   5  19
TORSDOF 6
