MODEL        4USER    Run = 4USERUSER    Estimated Free Energy of Binding    =  -7.89 kcal/mol  [=(1)+(2)+(3)-(4)]USERUSER    (1) Final Intermolecular Energy     =  -9.39 kcal/molUSER        vdW + Hbond + desolv Energy     =  -9.28 kcal/molUSER        Electrostatic Energy            =  -0.10 kcal/molUSER        Moving Ligand-Fixed Receptor    =  -9.39 kcal/molUSER        Moving Ligand-Moving Receptor   =  +0.00 kcal/molUSER    (2) Final Total Internal Energy     =  -2.68 kcal/molUSER    (3) Torsional Free Energy           =  +1.49 kcal/molUSER    (4) Unbound System's Energy         =  -2.68 kcal/molUSERUSERREMARK SMILES Cc1cnc(S(=O)(=O)Nc2c(Cl)cccc2-c2ccnc(N)n2)s1REMARK SMILES IDX 10 1 11 2 12 3 13 4 14 5 15 6 16 7 9 8 6 10 7 11 8 12 5 13REMARK SMILES IDX 2 14 3 15 24 16 4 17 1 18 17 19 18 20 23 21 19 22 21 23REMARK SMILES IDX 20 24 22 25REMARK H PARENT 9 9 22 26 22 27USER                              x       y       z     vdW  Elec       q    TypeUSER                           _______ _______ _______ _____ _____    ______ ____ROOTATOM      1  C   UNL     1      35.393  44.543  15.935 -0.29 -0.04    +0.077 A  ATOM      2  C   UNL     1      34.575  43.688  16.699 -0.30 -0.03    +0.065 A  ATOM      3  Cl  UNL     1      35.240  42.460  17.721 -0.54 +0.03    -0.082 Cl ATOM      4  C   UNL     1      33.185  43.763  16.601 -0.31 -0.01    +0.023 A  ATOM      5  C   UNL     1      32.597  44.681  15.737 -0.35 -0.00    +0.002 A  ATOM      6  C   UNL     1      33.399  45.515  14.956 -0.25 -0.01    +0.012 A  ATOM      7  C   UNL     1      34.807  45.468  15.032 -0.32 -0.02    +0.026 A  ENDROOTBRANCH   1   8ATOM      8  N   UNL     1      36.831  44.524  16.122 -0.17 +0.10    -0.275 N  ATOM      9  H   UNL     1      37.294  45.100  15.403 +0.13 -0.07    +0.180 HD BRANCH   8  10ATOM     10  S   UNL     1      37.372  45.128  17.634 -0.32 -0.08    +0.289 S  ATOM     11  O   UNL     1      36.369  46.078  18.071 -0.23 +0.08    -0.199 OA ATOM     12  O   UNL     1      37.721  44.000  18.478 -0.26 +0.03    -0.199 OA BRANCH  10  13ATOM     13  C   UNL     1      38.891  46.042  17.406 -0.26 -0.05    +0.230 A  ATOM     14  C   UNL     1      40.996  47.164  17.776 -0.51 -0.00    +0.023 A  ATOM     15  C   UNL     1      40.492  47.246  16.494 -0.41 -0.02    +0.128 A  ATOM     16  S   UNL     1      39.922  46.254  18.756 -0.52 +0.01    -0.106 S  ATOM     17  N   UNL     1      39.284  46.613  16.278 -0.26 +0.06    -0.232 NA ATOM     18  C   UNL     1      42.248  47.730  18.339 -0.53 -0.00    +0.058 C  ENDBRANCH  10  13ENDBRANCH   8  10ENDBRANCH   1   8BRANCH   7  19ATOM     19  C   UNL     1      35.625  46.336  14.160 -0.38 -0.06    +0.078 A  ATOM     20  C   UNL     1      35.477  46.373  12.788 -0.46 -0.03    +0.049 A  ATOM     21  N   UNL     1      36.528  47.114  14.807 -0.26 +0.16    -0.213 NA ATOM     22  C   UNL     1      36.310  47.235  12.119 -0.56 -0.06    +0.117 A  ATOM     23  C   UNL     1      37.286  47.918  14.056 -0.36 -0.12    +0.220 A  ATOM     24  N   UNL     1      37.232  48.000  12.728 -0.97 +0.05    -0.222 NA BRANCH  23  25ATOM     25  N   UNL     1      38.222  48.694  14.704 -0.23 +0.22    -0.368 N  ATOM     26  H   UNL     1      38.326  48.377  15.659 +0.10 -0.10    +0.159 HD ATOM     27  H   UNL     1      38.035  49.675  14.560 -0.46 -0.15    +0.159 HD ENDBRANCH  23  25ENDBRANCH   7  19TORSDOF 5TERENDMDL