REMARK SMILES Cc1cnc(S(=O)(=O)Nc2c(Cl)cccc2-c2ccnc(N)n2)s1
REMARK SMILES IDX 10 1 11 2 12 3 13 4 14 5 15 6 16 7 9 8 6 10 7 11 8 12 5 13
REMARK SMILES IDX 2 14 3 15 24 16 4 17 1 18 17 19 18 20 23 21 19 22 21 23
REMARK SMILES IDX 20 24 22 25
REMARK H PARENT 9 9 22 26 22 27
ROOT
ATOM      1  C   UNL     1      -0.393   0.872   0.699  1.00  0.00     0.077 A 
ATOM      2  C   UNL     1       0.410   2.024   0.597  1.00  0.00     0.065 A 
ATOM      3  Cl  UNL     1       1.991   2.101   1.296  1.00  0.00    -0.082 Cl
ATOM      4  C   UNL     1      -0.079   3.176  -0.020  1.00  0.00     0.023 A 
ATOM      5  C   UNL     1      -1.372   3.196  -0.532  1.00  0.00     0.002 A 
ATOM      6  C   UNL     1      -2.185   2.067  -0.413  1.00  0.00     0.012 A 
ATOM      7  C   UNL     1      -1.722   0.885   0.202  1.00  0.00     0.026 A 
ENDROOT
BRANCH   1   8
ATOM      8  N   UNL     1       0.163  -0.349   1.251  1.00  0.00    -0.275 N 
ATOM      9  H   UNL     1      -0.564  -0.877   1.756  1.00  0.00     0.180 HD
BRANCH   8  10
ATOM     10  S   UNL     1       0.819  -1.433   0.094  1.00  0.00     0.289 S 
ATOM     11  O   UNL     1       1.245  -2.604   0.834  1.00  0.00    -0.199 OA
ATOM     12  O   UNL     1      -0.131  -1.567  -0.995  1.00  0.00    -0.199 OA
BRANCH  10  13
ATOM     13  C   UNL     1       2.284  -0.716  -0.636  1.00  0.00     0.230 A 
ATOM     14  C   UNL     1       4.567  -0.085  -1.103  1.00  0.00     0.023 A 
ATOM     15  C   UNL     1       3.610   0.487  -1.917  1.00  0.00     0.128 A 
ATOM     16  S   UNL     1       3.805  -1.109   0.043  1.00  0.00    -0.106 S 
ATOM     17  N   UNL     1       2.302   0.135  -1.650  1.00  0.00    -0.232 NA
ATOM     18  C   UNL     1       6.042   0.083  -1.114  1.00  0.00     0.058 C 
ENDBRANCH  10  13
ENDBRANCH   8  10
ENDBRANCH   1   8
BRANCH   7  19
ATOM     19  C   UNL     1      -2.624  -0.276   0.348  1.00  0.00     0.078 A 
ATOM     20  C   UNL     1      -3.438  -0.726  -0.672  1.00  0.00     0.049 A 
ATOM     21  N   UNL     1      -2.585  -0.886   1.558  1.00  0.00    -0.213 NA
ATOM     22  C   UNL     1      -4.215  -1.819  -0.381  1.00  0.00     0.117 A 
ATOM     23  C   UNL     1      -3.382  -1.944   1.732  1.00  0.00     0.220 A 
ATOM     24  N   UNL     1      -4.218  -2.431   0.816  1.00  0.00    -0.222 NA
BRANCH  23  25
ATOM     25  N   UNL     1      -3.365  -2.555   2.967  1.00  0.00    -0.368 N 
ATOM     26  H   UNL     1      -4.223  -3.072   3.103  1.00  0.00     0.159 HD
ATOM     27  H   UNL     1      -3.100  -1.900   3.687  1.00  0.00     0.159 HD
ENDBRANCH  23  25
ENDBRANCH   7  19
TORSDOF 5
