MODEL        10USER    Run = 10USERUSER    Estimated Free Energy of Binding    =  -8.50 kcal/mol  [=(1)+(2)+(3)-(4)]USERUSER    (1) Final Intermolecular Energy     =  -9.99 kcal/molUSER        vdW + Hbond + desolv Energy     =  -9.79 kcal/molUSER        Electrostatic Energy            =  -0.20 kcal/molUSER        Moving Ligand-Fixed Receptor    =  -9.99 kcal/molUSER        Moving Ligand-Moving Receptor   =  +0.00 kcal/molUSER    (2) Final Total Internal Energy     =  -1.48 kcal/molUSER    (3) Torsional Free Energy           =  +1.49 kcal/molUSER    (4) Unbound System's Energy         =  -1.48 kcal/molUSERUSERREMARK SMILES Nc1ncc(F)c(-c2cccc(Cl)c2NS(=O)(=O)c2nccs2)n1REMARK SMILES IDX 8 1 9 2 10 3 11 4 12 5 13 6 14 7 7 8 2 9 3 10 24 11 4 12REMARK SMILES IDX 5 13 6 14 1 15 15 18 16 20 17 21 18 22 19 23 20 24 23 25REMARK SMILES IDX 21 26 22 27REMARK H PARENT 1 16 1 17 15 19USER                              x       y       z     vdW  Elec       q    TypeUSER                           _______ _______ _______ _____ _____    ______ ____ROOTATOM      1  C   UNL     1      38.274  45.739  18.025 -0.36 -0.01    +0.029 A  ATOM      2  C   UNL     1      38.880  44.978  19.052 -0.39 -0.00    +0.013 A  ATOM      3  C   UNL     1      40.200  45.185  19.454 -0.42 +0.00    +0.002 A  ATOM      4  C   UNL     1      40.964  46.158  18.827 -0.47 -0.00    +0.023 A  ATOM      5  C   UNL     1      40.392  46.939  17.823 -0.44 -0.01    +0.065 A  ATOM      6  Cl  UNL     1      41.397  48.120  17.047 -0.61 +0.01    -0.082 Cl ATOM      7  C   UNL     1      39.043  46.765  17.433 -0.34 -0.02    +0.077 A  ENDROOTBRANCH   1   8ATOM      8  C   UNL     1      36.903  45.377  17.615 -0.27 -0.04    +0.114 A  ATOM      9  C   UNL     1      34.656  45.819  17.858 -0.27 -0.15    +0.220 A  ATOM     10  N   UNL     1      34.291  44.829  17.038 -0.16 +0.12    -0.219 NA ATOM     11  N   UNL     1      35.917  46.104  18.203 -0.06 +0.09    -0.210 NA ATOM     12  C   UNL     1      35.291  44.112  16.489 -0.23 -0.07    +0.156 A  ATOM     13  C   UNL     1      36.619  44.338  16.749 -0.23 -0.06    +0.167 A  ATOM     14  F   UNL     1      37.562  43.548  16.220 -0.06 +0.05    -0.203 F  BRANCH   9  15ATOM     15  N   UNL     1      33.652  46.555  18.447 -0.31 +0.29    -0.368 N  ATOM     16  H   UNL     1      33.815  46.640  19.440 -0.45 -0.09    +0.159 HD ATOM     17  H   UNL     1      33.466  47.394  17.920 -0.45 -0.26    +0.159 HD ENDBRANCH   9  15ENDBRANCH   1   8BRANCH   7  18ATOM     18  N   UNL     1      38.513  47.681  16.446 -0.23 +0.14    -0.275 N  ATOM     19  H   UNL     1      37.489  47.716  16.451 +0.11 -0.14    +0.180 HD BRANCH  18  20ATOM     20  S   UNL     1      39.007  47.498  14.823 -0.46 -0.09    +0.289 S  ATOM     21  O   UNL     1      39.831  46.312  14.719 -0.38 +0.03    -0.199 OA ATOM     22  O   UNL     1      39.527  48.797  14.441 -0.44 +0.08    -0.199 OA BRANCH  20  23ATOM     23  C   UNL     1      37.612  47.222  13.750 -0.33 -0.09    +0.230 A  ATOM     24  N   UNL     1      37.578  47.396  12.440 -0.97 +0.04    -0.232 NA ATOM     25  S   UNL     1      36.169  46.658  14.477 -0.54 +0.08    -0.110 S  ATOM     26  C   UNL     1      36.319  47.068  11.977 -0.57 -0.06    +0.124 A  ATOM     27  C   UNL     1      35.420  46.648  12.934 -0.46 -0.06    +0.088 A  ENDBRANCH  20  23ENDBRANCH  18  20ENDBRANCH   7  18TORSDOF 5TERENDMDL