REMARK SMILES O[C@H]1CC=C(c2cnc3[nH]occ(-c4ccc5[nH]ncc5c4)ncc3c2)CC1
REMARK SMILES IDX 6 1 7 2 8 3 9 4 10 5 11 6 12 7 13 8 23 9 24 10 25 11 26 12
REMARK SMILES IDX 5 14 2 15 3 16 28 17 4 18 27 19 1 20 14 22 15 23 22 24 16 25
REMARK SMILES IDX 21 26 17 27 20 28 18 29 19 30
REMARK H PARENT 10 13 1 21 18 31
ROOT
ATOM      1  C   UNL     1      -2.179   0.587  -1.183  1.00  0.00    -0.004 A 
ATOM      2  C   UNL     1      -1.794   1.577  -2.080  1.00  0.00     0.122 A 
ATOM      3  N   UNL     1      -0.691   1.534  -2.866  1.00  0.00    -0.235 NA
ATOM      4  C   UNL     1       0.109   0.435  -2.769  1.00  0.00     0.168 A 
ATOM      5  N   UNL     1       1.231   0.469  -3.600  1.00  0.00    -0.204 N 
ATOM      6  O   UNL     1       2.323  -0.376  -3.479  1.00  0.00    -0.386 OA
ATOM      7  C   UNL     1       2.931  -0.176  -2.259  1.00  0.00     0.255 A 
ATOM      8  C   UNL     1       2.673  -0.932  -1.169  1.00  0.00     0.108 A 
ATOM      9  N   UNL     1       1.792  -1.936  -0.921  1.00  0.00    -0.252 NA
ATOM     10  C   UNL     1       0.679  -1.937  -1.691  1.00  0.00     0.124 A 
ATOM     11  C   UNL     1      -0.202  -0.625  -1.906  1.00  0.00     0.039 A 
ATOM     12  C   UNL     1      -1.348  -0.527  -1.103  1.00  0.00     0.023 A 
ATOM     13  H   UNL     1       1.416   1.397  -3.944  1.00  0.00     0.211 HD
ENDROOT
BRANCH   1  14
ATOM     14  C   UNL     1      -3.378   0.717  -0.331  1.00  0.00    -0.043 C 
ATOM     15  C   UNL     1      -5.712   0.584   1.351  1.00  0.00     0.118 C 
ATOM     16  C   UNL     1      -5.821   1.200  -0.051  1.00  0.00     0.059 C 
ATOM     17  C   UNL     1      -4.373   0.932   1.993  1.00  0.00     0.037 C 
ATOM     18  C   UNL     1      -4.563   1.080  -0.860  1.00  0.00    -0.020 C 
ATOM     19  C   UNL     1      -3.210   0.417   1.142  1.00  0.00     0.038 C 
BRANCH  15  20
ATOM     20  O   UNL     1      -6.766   1.071   2.180  1.00  0.00    -0.393 OA
ATOM     21  H   UNL     1      -7.601   0.761   1.790  1.00  0.00     0.210 HD
ENDBRANCH  15  20
ENDBRANCH   1  14
BRANCH   8  22
ATOM     22  C   UNL     1       3.579  -0.656  -0.028  1.00  0.00     0.004 A 
ATOM     23  C   UNL     1       3.319   0.426   0.826  1.00  0.00     0.013 A 
ATOM     24  C   UNL     1       4.708  -1.465   0.185  1.00  0.00     0.022 A 
ATOM     25  C   UNL     1       4.163   0.735   1.899  1.00  0.00     0.029 A 
ATOM     26  C   UNL     1       5.566  -1.170   1.257  1.00  0.00     0.020 A 
ATOM     27  C   UNL     1       5.278  -0.089   2.082  1.00  0.00     0.065 A 
ATOM     28  C   UNL     1       6.752  -1.717   1.794  1.00  0.00     0.143 A 
ATOM     29  N   UNL     1       6.280  -0.074   3.014  1.00  0.00    -0.278 N 
ATOM     30  N   UNL     1       7.203  -1.043   2.859  1.00  0.00    -0.183 NA
ATOM     31  H   UNL     1       6.392   0.578   3.780  1.00  0.00     0.190 HD
ENDBRANCH   8  22
TORSDOF 3
