REMARK SMILES NCC[C@@H]1C(=O)Nc2ccc3ncnc(-c4ccc(F)cc4F)c3c21
REMARK SMILES IDX 3 1 2 2 1 3 4 6 5 7 25 8 7 9 24 10 8 11 15 12 11 13 9 14
REMARK SMILES IDX 14 15 10 16 12 17 13 18 6 19 16 21 17 22 22 23 18 24 21 25
REMARK SMILES IDX 19 26 23 27 20 28
REMARK H PARENT 1 4 1 5 7 20
ROOT
ATOM      1  C   UNL     1       0.735  -1.009   1.523  1.00  0.00     0.033 C 
ENDROOT
BRANCH   1   2
ATOM      2  C   UNL     1       0.959  -2.484   1.162  1.00  0.00     0.079 C 
BRANCH   2   3
ATOM      3  N   UNL     1       2.284  -2.784   0.651  1.00  0.00    -0.330 NA
ATOM      4  H   UNL     1       2.474  -3.782   0.723  1.00  0.00     0.118 HD
ATOM      5  H   UNL     1       3.011  -2.309   1.198  1.00  0.00     0.118 HD
ENDBRANCH   2   3
ENDBRANCH   1   2
BRANCH   1   6
ATOM      6  C   UNL     1       1.337  -0.009   0.523  1.00  0.00     0.113 C 
ATOM      7  C   UNL     1       2.748   0.377   1.042  1.00  0.00     0.232 C 
ATOM      8  C   UNL     1       0.627   1.337   0.517  1.00  0.00    -0.000 A 
ATOM      9  N   UNL     1       2.724   1.725   1.348  1.00  0.00    -0.325 N 
ATOM     10  C   UNL     1      -0.667   1.730   0.075  1.00  0.00     0.033 A 
ATOM     11  C   UNL     1       1.497   2.286   1.062  1.00  0.00     0.046 A 
ATOM     12  C   UNL     1      -1.660   0.979  -0.600  1.00  0.00     0.085 A 
ATOM     13  C   UNL     1      -1.046   3.070   0.316  1.00  0.00     0.075 A 
ATOM     14  C   UNL     1       1.145   3.596   1.265  1.00  0.00     0.029 A 
ATOM     15  N   UNL     1      -2.874   1.482  -0.928  1.00  0.00    -0.236 NA
ATOM     16  C   UNL     1      -0.147   3.963   0.900  1.00  0.00     0.031 A 
ATOM     17  N   UNL     1      -2.241   3.570  -0.001  1.00  0.00    -0.236 NA
ATOM     18  C   UNL     1      -3.108   2.749  -0.595  1.00  0.00     0.223 A 
ATOM     19  O   UNL     1       3.709  -0.354   1.219  1.00  0.00    -0.274 OA
ATOM     20  H   UNL     1       3.525   2.206   1.731  1.00  0.00     0.169 HD
BRANCH  12  21
ATOM     21  C   UNL     1      -1.488  -0.377  -1.133  1.00  0.00     0.037 A 
ATOM     22  C   UNL     1      -0.672  -0.615  -2.254  1.00  0.00     0.016 A 
ATOM     23  C   UNL     1      -2.229  -1.453  -0.619  1.00  0.00     0.135 A 
ATOM     24  C   UNL     1      -0.588  -1.892  -2.817  1.00  0.00     0.040 A 
ATOM     25  C   UNL     1      -2.161  -2.725  -1.181  1.00  0.00     0.079 A 
ATOM     26  C   UNL     1      -1.337  -2.932  -2.277  1.00  0.00     0.126 A 
ATOM     27  F   UNL     1      -3.015  -1.276   0.454  1.00  0.00    -0.206 F 
ATOM     28  F   UNL     1      -1.261  -4.152  -2.824  1.00  0.00    -0.207 F 
ENDBRANCH  12  21
ENDBRANCH   1   6
TORSDOF 4
