MODEL        3USER    Run = 3USERUSER    Estimated Free Energy of Binding    = -10.70 kcal/mol  [=(1)+(2)+(3)-(4)]USERUSER    (1) Final Intermolecular Energy     = -12.79 kcal/molUSER        vdW + Hbond + desolv Energy     = -12.60 kcal/molUSER        Electrostatic Energy            =  -0.18 kcal/molUSER        Moving Ligand-Fixed Receptor    = -12.79 kcal/molUSER        Moving Ligand-Moving Receptor   =  +0.00 kcal/molUSER    (2) Final Total Internal Energy     =  -1.08 kcal/molUSER    (3) Torsional Free Energy           =  +2.09 kcal/molUSER    (4) Unbound System's Energy         =  -1.08 kcal/molUSERUSERREMARK SMILES O=C(CCl)N[C@H]1C[C@@H]1S(=O)(=O)Nc1cc(-c2ccncc2)cc(-c2nccs2)c1REMARK SMILES IDX 6 1 7 2 8 3 5 4 2 5 1 6 3 8 4 9 9 10 10 11 11 12 12 13 13 15REMARK SMILES IDX 14 16 29 17 15 18 23 19 22 20 16 21 17 22 21 23 18 24 20 25REMARK SMILES IDX 19 26 24 27 25 28 28 29 26 30 27 31REMARK H PARENT 5 7 12 14USER                              x       y       z     vdW  Elec       q    TypeUSER                           _______ _______ _______ _____ _____    ______ ____ROOTATOM      1  C   UNL     1      33.800  41.821  18.010 -0.41 -0.03    +0.103 C  ATOM      2  C   UNL     1      34.654  42.358  16.887 -0.45 -0.02    +0.050 C  ATOM      3  C   UNL     1      33.852  43.295  17.742 -0.28 -0.05    +0.154 C  ENDROOTBRANCH   1   4ATOM      4  N   UNL     1      32.649  41.028  17.692 -0.18 +0.12    -0.351 N  ATOM      5  C   UNL     1      32.025  40.229  18.634 -0.31 -0.00    +0.235 C  ATOM      6  O   UNL     1      32.343  40.238  19.823 -0.86 -0.09    -0.274 OA ATOM      7  H   UNL     1      32.399  40.877  16.717 -0.36 -0.12    +0.163 HD BRANCH   5   8ATOM      8  C   UNL     1      30.856  39.400  18.132 -0.31 +0.01    +0.209 C  ATOM      9  Cl  UNL     1      30.876  37.751  18.799 -0.61 -0.04    -0.116 Cl ENDBRANCH   5   8ENDBRANCH   1   4BRANCH   3  10ATOM     10  S   UNL     1      34.798  44.284  18.933 -0.38 -0.06    +0.237 S  ATOM     11  O   UNL     1      34.567  45.664  18.564 -0.40 +0.10    -0.206 OA ATOM     12  O   UNL     1      34.357  43.783  20.218 -0.53 +0.01    -0.206 OA BRANCH  10  13ATOM     13  N   UNL     1      36.449  43.952  18.890 -0.16 +0.05    -0.283 N  ATOM     14  H   UNL     1      36.647  42.952  18.895 +0.13 -0.02    +0.180 HD BRANCH  13  15ATOM     15  C   UNL     1      37.382  44.813  18.242 -0.33 -0.01    +0.050 A  ATOM     16  C   UNL     1      37.067  45.288  16.967 -0.33 -0.01    +0.035 A  ATOM     17  C   UNL     1      38.598  45.154  18.833 -0.37 -0.00    +0.038 A  ATOM     18  C   UNL     1      37.932  46.156  16.284 -0.37 +0.01    -0.016 A  ATOM     19  C   UNL     1      39.496  46.013  18.183 -0.43 -0.00    +0.013 A  ATOM     20  C   UNL     1      39.139  46.505  16.912 -0.42 -0.01    +0.020 A  BRANCH  18  21ATOM     21  C   UNL     1      37.579  46.688  14.957 -0.40 +0.01    -0.015 A  ATOM     22  C   UNL     1      37.340  48.054  14.759 -0.49 -0.02    +0.029 A  ATOM     23  C   UNL     1      37.472  45.845  13.843 -0.42 -0.01    +0.029 A  ATOM     24  C   UNL     1      37.016  48.505  13.488 -0.44 -0.05    +0.111 A  ATOM     25  C   UNL     1      37.141  46.389  12.612 -0.48 -0.04    +0.111 A  ATOM     26  N   UNL     1      36.911  47.703  12.409 -1.00 +0.08    -0.265 NA ENDBRANCH  18  21BRANCH  19  27ATOM     27  C   UNL     1      40.795  46.419  18.760 -0.39 -0.00    +0.123 A  ATOM     28  N   UNL     1      41.633  47.248  18.161 -0.37 +0.01    -0.245 NA ATOM     29  S   UNL     1      41.330  45.865  20.305 -0.46 -0.01    -0.122 S  ATOM     30  C   UNL     1      42.754  47.449  18.941 -0.45 +0.01    +0.123 A  ATOM     31  C   UNL     1      42.767  46.778  20.142 -0.35 +0.02    +0.087 A  ENDBRANCH  19  27ENDBRANCH  13  15ENDBRANCH  10  13ENDBRANCH   3  10TORSDOF 7TERENDMDL