MODEL        2USER    Run = 2USERUSER    Estimated Free Energy of Binding    =  -9.71 kcal/mol  [=(1)+(2)+(3)-(4)]USERUSER    (1) Final Intermolecular Energy     = -11.80 kcal/molUSER        vdW + Hbond + desolv Energy     = -11.58 kcal/molUSER        Electrostatic Energy            =  -0.22 kcal/molUSER        Moving Ligand-Fixed Receptor    = -11.80 kcal/molUSER        Moving Ligand-Moving Receptor   =  +0.00 kcal/molUSER    (2) Final Total Internal Energy     =  -1.70 kcal/molUSER    (3) Torsional Free Energy           =  +2.09 kcal/molUSER    (4) Unbound System's Energy         =  -1.70 kcal/molUSERUSERREMARK SMILES N[C@]1(F)C[C@@H]1S(=O)(=O)Nc1cc(-c2ccnc(O)c2)cc(-c2nccs2)c1REMARK SMILES IDX 9 1 6 3 7 4 8 5 5 6 2 7 4 8 3 9 1 10 10 13 11 14 27 15 12 16REMARK SMILES IDX 21 17 20 18 13 19 14 20 19 21 15 22 17 23 16 24 18 25 22 27REMARK SMILES IDX 23 28 26 29 24 30 25 31REMARK H PARENT 9 2 1 11 1 12 18 26USER                              x       y       z     vdW  Elec       q    TypeUSER                           _______ _______ _______ _____ _____    ______ ____ROOTATOM      1  N   UNL     1      41.884  50.671  14.474 -0.42 +0.07    -0.283 N  ATOM      2  H   UNL     1      42.514  51.073  15.174 -0.02 -0.02    +0.180 HD ENDROOTBRANCH   1   3ATOM      3  S   UNL     1      42.750  50.490  13.021 -0.71 -0.08    +0.240 S  ATOM      4  O   UNL     1      43.529  49.273  13.078 -0.53 +0.04    -0.206 OA ATOM      5  O   UNL     1      41.789  50.702  11.956 -0.12 +0.10    -0.206 OA BRANCH   3   6ATOM      6  C   UNL     1      43.945  51.831  12.953 -0.13 -0.08    +0.186 C  ATOM      7  C   UNL     1      44.028  52.533  11.639 -0.25 -0.10    +0.179 C  ATOM      8  C   UNL     1      45.137  51.614  12.061 -0.12 -0.04    +0.085 C  ATOM      9  F   UNL     1      44.328  53.887  11.729 +0.02 +0.15    -0.225 F  BRANCH   7  10ATOM     10  N   UNL     1      43.218  52.219  10.470 -0.36 +0.16    -0.298 NA ATOM     11  H   UNL     1      42.235  52.459  10.640 -0.23 -0.11    +0.122 HD ATOM     12  H   UNL     1      43.222  51.206  10.338 -0.40 -0.07    +0.122 HD ENDBRANCH   7  10ENDBRANCH   3   6ENDBRANCH   1   3BRANCH   1  13ATOM     13  C   UNL     1      41.147  49.531  14.924 -0.62 -0.01    +0.050 A  ATOM     14  C   UNL     1      41.443  48.947  16.155 -0.33 +0.00    +0.035 A  ATOM     15  C   UNL     1      40.093  49.047  14.145 -0.07 -0.01    +0.038 A  ATOM     16  C   UNL     1      40.699  47.859  16.630 -0.54 +0.00    -0.015 A  ATOM     17  C   UNL     1      39.324  47.960  14.584 -0.51 -0.00    +0.013 A  ATOM     18  C   UNL     1      39.645  47.384  15.829 -0.49 -0.01    +0.020 A  BRANCH  16  19ATOM     19  C   UNL     1      41.008  47.235  17.928 -0.52 +0.00    -0.011 A  ATOM     20  C   UNL     1      40.153  46.280  18.499 -0.44 -0.00    +0.029 A  ATOM     21  C   UNL     1      42.165  47.569  18.639 -0.46 +0.00    +0.077 A  ATOM     22  C   UNL     1      40.484  45.718  19.724 -0.33 +0.00    +0.116 A  ATOM     23  C   UNL     1      42.394  46.943  19.847 -0.30 +0.03    +0.211 A  ATOM     24  N   UNL     1      41.598  46.028  20.418 -0.24 -0.03    -0.222 NA BRANCH  23  25ATOM     25  O   UNL     1      43.505  47.230  20.570 -0.21 -0.18    -0.493 OA ATOM     26  H   UNL     1      43.808  48.024  20.093 -0.38 -0.01    +0.295 HD ENDBRANCH  23  25ENDBRANCH  16  19BRANCH  17  27ATOM     27  C   UNL     1      38.190  47.403  13.817 -0.40 -0.04    +0.123 A  ATOM     28  N   UNL     1      37.434  48.119  13.003 -0.85 +0.06    -0.245 NA ATOM     29  S   UNL     1      37.729  45.742  13.930 -0.52 +0.04    -0.122 S  ATOM     30  C   UNL     1      36.453  47.333  12.435 -0.58 -0.06    +0.123 A  ATOM     31  C   UNL     1      36.457  46.013  12.820 -0.50 -0.04    +0.087 A  ENDBRANCH  17  27ENDBRANCH   1  13TORSDOF 7TERENDMDL