MODEL        7USER    Run = 7USERUSER    Estimated Free Energy of Binding    = -10.79 kcal/mol  [=(1)+(2)+(3)-(4)]USERUSER    (1) Final Intermolecular Energy     = -11.68 kcal/molUSER        vdW + Hbond + desolv Energy     = -11.47 kcal/molUSER        Electrostatic Energy            =  -0.21 kcal/molUSER        Moving Ligand-Fixed Receptor    = -11.68 kcal/molUSER        Moving Ligand-Moving Receptor   =  +0.00 kcal/molUSER    (2) Final Total Internal Energy     =  -0.57 kcal/molUSER    (3) Torsional Free Energy           =  +0.89 kcal/molUSER    (4) Unbound System's Energy         =  -0.57 kcal/molUSERUSERREMARK SMILES O[C@H]1CC=C(c2cnc3[nH]occ(-c4ccc5[nH]ncc5c4)ncc3c2)CC1REMARK SMILES IDX 6 1 7 2 8 3 9 4 10 5 11 6 12 7 13 8 23 9 24 10 25 11 26 12REMARK SMILES IDX 5 14 2 15 3 16 28 17 4 18 27 19 1 20 14 22 15 23 22 24 16 25REMARK SMILES IDX 21 26 17 27 20 28 18 29 19 30REMARK H PARENT 10 13 1 21 18 31USER                              x       y       z     vdW  Elec       q    TypeUSER                           _______ _______ _______ _____ _____    ______ ____ROOTATOM      1  C   UNL     1      40.094  47.402  16.495 -0.51 +0.00    -0.004 A  ATOM      2  C   UNL     1      40.889  48.475  16.884 -0.36 -0.02    +0.122 A  ATOM      3  N   UNL     1      41.806  48.447  17.882 -0.53 -0.00    -0.235 NA ATOM      4  C   UNL     1      41.961  47.276  18.562 -0.40 -0.00    +0.168 A  ATOM      5  N   UNL     1      42.914  47.328  19.581 -0.42 -0.03    -0.204 N  ATOM      6  O   UNL     1      43.048  46.377  20.580 -0.19 -0.16    -0.386 OA ATOM      7  C   UNL     1      41.898  46.336  21.338 -0.17 +0.04    +0.255 A  ATOM      8  C   UNL     1      40.898  45.454  21.121 -0.26 +0.01    +0.108 A  ATOM      9  N   UNL     1      40.680  44.510  20.168 -0.22 -0.01    -0.252 NA ATOM     10  C   UNL     1      41.297  44.727  18.983 -0.20 +0.01    +0.124 A  ATOM     11  C   UNL     1      41.219  46.133  18.234 -0.47 -0.00    +0.039 A  ATOM     12  C   UNL     1      40.272  46.217  17.202 -0.46 -0.00    +0.023 A  ATOM     13  H   UNL     1      43.149  48.276  19.828 -0.43 -0.03    +0.211 HD ENDROOTBRANCH   1  14ATOM     14  C   UNL     1      39.089  47.515  15.419 -0.53 +0.02    -0.043 C  ATOM     15  C   UNL     1      37.427  47.779  13.082 -0.48 -0.03    +0.118 C  ATOM     16  C   UNL     1      37.302  48.801  14.221 -0.56 -0.04    +0.059 C  ATOM     17  C   UNL     1      37.688  46.381  13.634 -0.50 -0.01    +0.037 C  ATOM     18  C   UNL     1      38.319  48.616  15.308 -0.57 +0.01    -0.020 C  ATOM     19  C   UNL     1      38.976  46.352  14.459 -0.45 -0.01    +0.038 C  BRANCH  15  20ATOM     20  O   UNL     1      36.227  47.759  12.312 -0.63 +0.19    -0.393 OA ATOM     21  H   UNL     1      36.343  48.395  11.586 -0.26 -0.10    +0.210 HD ENDBRANCH  15  20ENDBRANCH   1  14BRANCH   8  22ATOM     22  C   UNL     1      39.853  45.471  22.173 -0.29 +0.00    +0.004 A  ATOM     23  C   UNL     1      39.014  44.360  22.345 -0.29 +0.00    +0.013 A  ATOM     24  C   UNL     1      39.689  46.608  22.983 -0.22 +0.00    +0.022 A  ATOM     25  C   UNL     1      38.000  44.347  23.310 -0.31 +0.00    +0.029 A  ATOM     26  C   UNL     1      38.677  46.613  23.956 -0.31 +0.00    +0.020 A  ATOM     27  C   UNL     1      37.864  45.494  24.098 -0.17 +0.01    +0.065 A  ATOM     28  C   UNL     1      38.207  47.516  24.935 -0.28 +0.02    +0.143 A  ATOM     29  N   UNL     1      37.001  45.806  25.113 -0.10 -0.04    -0.278 N  ATOM     30  N   UNL     1      37.173  47.036  25.635 -0.72 -0.01    -0.183 NA ATOM     31  H   UNL     1      36.267  45.222  25.492 -0.19 -0.01    +0.190 HD ENDBRANCH   8  22TORSDOF 3TERENDMDL