MODEL        2USER    Run = 2USERUSER    Estimated Free Energy of Binding    = -10.34 kcal/mol  [=(1)+(2)+(3)-(4)]USERUSER    (1) Final Intermolecular Energy     = -12.43 kcal/molUSER        vdW + Hbond + desolv Energy     = -11.84 kcal/molUSER        Electrostatic Energy            =  -0.59 kcal/molUSER        Moving Ligand-Fixed Receptor    = -12.43 kcal/molUSER        Moving Ligand-Moving Receptor   =  +0.00 kcal/molUSER    (2) Final Total Internal Energy     =  -0.78 kcal/molUSER    (3) Torsional Free Energy           =  +2.09 kcal/molUSER    (4) Unbound System's Energy         =  -0.78 kcal/molUSERUSERREMARK SMILES N[C@H]1C[C@@H]1S(=O)(=O)Nc1cc(-c2ccnc(O)c2)cc(-c2nccs2)c1REMARK SMILES IDX 8 1 5 3 6 4 7 5 4 6 2 7 3 8 1 9 9 12 10 13 26 14 11 15 20 16REMARK SMILES IDX 19 17 12 18 13 19 18 20 14 21 16 22 15 23 17 24 21 26 22 27REMARK SMILES IDX 25 28 23 29 24 30REMARK H PARENT 8 2 1 10 1 11 17 25USER                              x       y       z     vdW  Elec       q    TypeUSER                           _______ _______ _______ _____ _____    ______ ____ROOTATOM      1  N   UNL     1      38.334  44.456  17.472 -0.16 +0.05    -0.283 N  ATOM      2  H   UNL     1      38.041  44.434  16.493 +0.11 -0.04    +0.180 HD ENDROOTBRANCH   1   3ATOM      3  S   UNL     1      36.915  44.572  18.410 -0.35 -0.05    +0.237 S  ATOM      4  O   UNL     1      37.365  44.904  19.746 -0.25 +0.01    -0.206 OA ATOM      5  O   UNL     1      36.136  43.376  18.177 -0.24 +0.05    -0.206 OA BRANCH   3   6ATOM      6  C   UNL     1      35.941  45.956  17.768 -0.26 -0.08    +0.148 C  ATOM      7  C   UNL     1      34.550  46.042  18.330 -0.48 -0.04    +0.072 C  ATOM      8  C   UNL     1      34.765  45.558  16.920 -0.37 -0.03    +0.043 C  BRANCH   7   9ATOM      9  N   UNL     1      33.924  47.356  18.516 -0.89 +0.30    -0.326 NA ATOM     10  H   UNL     1      33.913  47.872  17.635 -0.48 -0.30    +0.119 HD ATOM     11  H   UNL     1      32.945  47.261  18.787 -0.46 -0.10    +0.119 HD ENDBRANCH   7   9ENDBRANCH   3   6ENDBRANCH   1   3BRANCH   1  12ATOM     12  C   UNL     1      39.339  45.436  17.742 -0.38 -0.01    +0.050 A  ATOM     13  C   UNL     1      40.120  45.351  18.894 -0.42 -0.00    +0.035 A  ATOM     14  C   UNL     1      39.568  46.439  16.799 -0.43 -0.01    +0.038 A  ATOM     15  C   UNL     1      41.135  46.288  19.136 -0.46 -0.00    -0.015 A  ATOM     16  C   UNL     1      40.577  47.390  17.000 -0.52 -0.00    +0.013 A  ATOM     17  C   UNL     1      41.342  47.298  18.179 -0.51 -0.00    +0.020 A  BRANCH  15  18ATOM     18  C   UNL     1      41.966  46.211  20.350 -0.38 -0.00    -0.011 A  ATOM     19  C   UNL     1      41.549  45.482  21.472 -0.28 +0.00    +0.029 A  ATOM     20  C   UNL     1      43.200  46.864  20.425 -0.32 +0.03    +0.077 A  ATOM     21  C   UNL     1      42.366  45.441  22.595 -0.15 +0.02    +0.116 A  ATOM     22  C   UNL     1      43.928  46.752  21.591 -0.20 +0.12    +0.211 A  ATOM     23  N   UNL     1      43.558  46.065  22.681 -0.12 -0.07    -0.222 NA BRANCH  22  24ATOM     24  O   UNL     1      45.131  47.364  21.712 -0.71 -0.44    -0.493 OA ATOM     25  H   UNL     1      44.850  48.293  21.633 -0.39 +0.07    +0.295 HD ENDBRANCH  22  24ENDBRANCH  15  18BRANCH  16  26ATOM     26  C   UNL     1      40.870  48.479  16.045 -0.48 -0.02    +0.123 A  ATOM     27  N   UNL     1      41.583  49.549  16.351 -0.96 -0.02    -0.245 NA ATOM     28  S   UNL     1      40.321  48.441  14.406 -0.51 +0.03    -0.122 S  ATOM     29  C   UNL     1      41.702  50.382  15.256 -0.52 -0.02    +0.123 A  ATOM     30  C   UNL     1      41.080  49.945  14.110 -0.28 -0.03    +0.087 A  ENDBRANCH  16  26ENDBRANCH   1  12TORSDOF 7TERENDMDL