REMARK SMILES N[C@]1(F)C[C@@H]1S(=O)(=O)Nc1cc(-c2ccnc(O)c2)cc(-c2nccs2)c1
REMARK SMILES IDX 9 1 6 3 7 4 8 5 5 6 2 7 4 8 3 9 1 10 10 13 11 14 27 15 12 16
REMARK SMILES IDX 21 17 20 18 13 19 14 20 19 21 15 22 17 23 16 24 18 25 22 27
REMARK SMILES IDX 23 28 26 29 24 30 25 31
REMARK H PARENT 9 2 1 11 1 12 18 26
ROOT
ATOM      1  N   UNL     1       1.720  -1.084  -1.606  1.00  0.00    -0.283 N 
ATOM      2  H   UNL     1       2.257  -0.476  -2.231  1.00  0.00     0.180 HD
ENDROOT
BRANCH   1   3
ATOM      3  S   UNL     1       2.798  -1.789  -0.495  1.00  0.00     0.240 S 
ATOM      4  O   UNL     1       2.090  -2.767   0.302  1.00  0.00    -0.206 OA
ATOM      5  O   UNL     1       3.968  -2.170  -1.262  1.00  0.00    -0.206 OA
BRANCH   3   6
ATOM      6  C   UNL     1       3.293  -0.494   0.649  1.00  0.00     0.186 C 
ATOM      7  C   UNL     1       4.012   0.655   0.025  1.00  0.00     0.179 C 
ATOM      8  C   UNL     1       4.773  -0.328   0.865  1.00  0.00     0.085 C 
ATOM      9  F   UNL     1       3.774   1.881   0.635  1.00  0.00    -0.225 F 
BRANCH   7  10
ATOM     10  N   UNL     1       4.303   0.788  -1.396  1.00  0.00    -0.298 NA
ATOM     11  H   UNL     1       4.855  -0.012  -1.725  1.00  0.00     0.122 HD
ATOM     12  H   UNL     1       4.912   1.597  -1.525  1.00  0.00     0.122 HD
ENDBRANCH   7  10
ENDBRANCH   3   6
ENDBRANCH   1   3
BRANCH   1  13
ATOM     13  C   UNL     1       0.543  -0.483  -1.060  1.00  0.00     0.050 A 
ATOM     14  C   UNL     1      -0.488  -1.283  -0.569  1.00  0.00     0.035 A 
ATOM     15  C   UNL     1       0.463   0.909  -0.973  1.00  0.00     0.038 A 
ATOM     16  C   UNL     1      -1.627  -0.710   0.011  1.00  0.00    -0.015 A 
ATOM     17  C   UNL     1      -0.659   1.523  -0.399  1.00  0.00     0.013 A 
ATOM     18  C   UNL     1      -1.690   0.694   0.086  1.00  0.00     0.020 A 
BRANCH  16  19
ATOM     19  C   UNL     1      -2.722  -1.548   0.529  1.00  0.00    -0.011 A 
ATOM     20  C   UNL     1      -3.253  -1.342   1.811  1.00  0.00     0.029 A 
ATOM     21  C   UNL     1      -3.273  -2.579  -0.238  1.00  0.00     0.077 A 
ATOM     22  C   UNL     1      -4.285  -2.156   2.257  1.00  0.00     0.116 A 
ATOM     23  C   UNL     1      -4.299  -3.323   0.307  1.00  0.00     0.211 A 
ATOM     24  N   UNL     1      -4.828  -3.151   1.527  1.00  0.00    -0.222 NA
BRANCH  23  25
ATOM     25  O   UNL     1      -4.869  -4.330  -0.400  1.00  0.00    -0.493 OA
ATOM     26  H   UNL     1      -5.524  -4.636   0.253  1.00  0.00     0.295 HD
ENDBRANCH  23  25
ENDBRANCH  16  19
BRANCH  17  27
ATOM     27  C   UNL     1      -0.806   2.987  -0.265  1.00  0.00     0.123 A 
ATOM     28  N   UNL     1      -1.738   3.565   0.473  1.00  0.00    -0.245 NA
ATOM     29  S   UNL     1       0.231   4.097  -1.089  1.00  0.00    -0.122 S 
ATOM     30  C   UNL     1      -1.633   4.939   0.398  1.00  0.00     0.123 A 
ATOM     31  C   UNL     1      -0.621   5.412  -0.404  1.00  0.00     0.087 A 
ENDBRANCH  17  27
ENDBRANCH   1  13
TORSDOF 7
