MODEL        6USER    Run = 6USERUSER    Estimated Free Energy of Binding    = -10.31 kcal/mol  [=(1)+(2)+(3)-(4)]USERUSER    (1) Final Intermolecular Energy     = -12.10 kcal/molUSER        vdW + Hbond + desolv Energy     = -11.86 kcal/molUSER        Electrostatic Energy            =  -0.24 kcal/molUSER        Moving Ligand-Fixed Receptor    = -12.10 kcal/molUSER        Moving Ligand-Moving Receptor   =  +0.00 kcal/molUSER    (2) Final Total Internal Energy     =  -1.16 kcal/molUSER    (3) Torsional Free Energy           =  +1.79 kcal/molUSER    (4) Unbound System's Energy         =  -1.16 kcal/molUSERUSERREMARK SMILES CC(=O)N[C@H]1C[C@@H]1S(=O)(=O)Nc1cc(-c2ccncc2)cc(-c2nc(F)cs2)c1REMARK SMILES IDX 8 1 9 2 10 3 7 4 5 5 6 6 4 7 2 8 1 9 3 10 11 12 12 14 13 15REMARK SMILES IDX 29 16 14 17 22 18 21 19 15 20 16 21 20 22 17 23 19 24 18 25REMARK SMILES IDX 23 26 24 27 28 28 25 29 27 30 26 31REMARK H PARENT 4 11 11 13USER                              x       y       z     vdW  Elec       q    TypeUSER                           _______ _______ _______ _____ _____    ______ ____ROOTATOM      1  S   UNL     1      32.770  42.554  17.030 -0.32 -0.10    +0.237 S  ATOM      2  O   UNL     1      32.359  41.289  17.601 -0.30 +0.07    -0.206 OA ATOM      3  O   UNL     1      32.836  43.740  17.856 -0.22 +0.06    -0.206 OA ENDROOTBRANCH   1   4ATOM      4  C   UNL     1      31.637  42.859  15.649 -0.26 -0.09    +0.154 C  ATOM      5  C   UNL     1      31.121  44.269  15.541 -0.35 -0.05    +0.103 C  ATOM      6  C   UNL     1      30.232  43.177  16.083 -0.32 -0.02    +0.050 C  BRANCH   5   7ATOM      7  N   UNL     1      30.833  44.848  14.256 -0.19 +0.29    -0.352 N  ATOM      8  C   UNL     1      30.738  46.213  14.061 -0.47 -0.13    +0.217 C  ATOM      9  C   UNL     1      30.374  46.598  12.653 -0.60 -0.06    +0.114 C  ATOM     10  O   UNL     1      30.914  47.051  14.940 -0.87 +0.12    -0.275 OA ATOM     11  H   UNL     1      30.519  44.236  13.512 -0.38 -0.22    +0.163 HD ENDBRANCH   5   7ENDBRANCH   1   4BRANCH   1  12ATOM     12  N   UNL     1      34.324  42.288  16.383 -0.23 +0.14    -0.283 N  ATOM     13  H   UNL     1      34.683  41.438  16.824 -0.41 -0.12    +0.180 HD BRANCH  12  14ATOM     14  C   UNL     1      35.230  43.389  16.487 -0.37 -0.02    +0.050 A  ATOM     15  C   UNL     1      35.366  44.307  15.448 -0.27 -0.02    +0.035 A  ATOM     16  C   UNL     1      36.034  43.474  17.626 -0.28 -0.01    +0.038 A  ATOM     17  C   UNL     1      36.313  45.334  15.538 -0.35 +0.01    -0.016 A  ATOM     18  C   UNL     1      36.992  44.488  17.746 -0.33 -0.00    +0.013 A  ATOM     19  C   UNL     1      37.107  45.415  16.696 -0.34 -0.01    +0.020 A  BRANCH  17  20ATOM     20  C   UNL     1      36.503  46.280  14.432 -0.41 +0.01    -0.015 A  ATOM     21  C   UNL     1      36.265  45.906  13.106 -0.51 -0.01    +0.029 A  ATOM     22  C   UNL     1      36.937  47.587  14.678 -0.45 -0.02    +0.029 A  ATOM     23  C   UNL     1      36.462  46.842  12.102 -0.59 -0.05    +0.111 A  ATOM     24  C   UNL     1      37.108  48.449  13.606 -0.45 -0.05    +0.111 A  ATOM     25  N   UNL     1      36.878  48.106  12.322 -0.97 +0.06    -0.265 NA ENDBRANCH  17  20BRANCH  18  26ATOM     26  C   UNL     1      37.882  44.621  18.915 -0.28 -0.02    +0.126 A  ATOM     27  N   UNL     1      39.108  45.107  18.857 -0.28 +0.02    -0.208 NA ATOM     28  S   UNL     1      37.402  44.082  20.489 -0.47 +0.00    -0.119 S  ATOM     29  C   UNL     1      39.683  45.082  20.103 -0.24 +0.00    +0.224 A  ATOM     30  C   UNL     1      38.917  44.564  21.117 -0.27 +0.00    +0.127 A  ATOM     31  F   UNL     1      40.928  45.534  20.315 -0.10 -0.01    -0.184 F  ENDBRANCH  18  26ENDBRANCH  12  14ENDBRANCH   1  12TORSDOF 6TERENDMDL