MODEL        8USER    Run = 8USERUSER    Estimated Free Energy of Binding    =  -9.59 kcal/mol  [=(1)+(2)+(3)-(4)]USERUSER    (1) Final Intermolecular Energy     = -10.48 kcal/molUSER        vdW + Hbond + desolv Energy     = -10.41 kcal/molUSER        Electrostatic Energy            =  -0.07 kcal/molUSER        Moving Ligand-Fixed Receptor    = -10.48 kcal/molUSER        Moving Ligand-Moving Receptor   =  +0.00 kcal/molUSER    (2) Final Total Internal Energy     =  -0.51 kcal/molUSER    (3) Torsional Free Energy           =  +0.89 kcal/molUSER    (4) Unbound System's Energy         =  -0.51 kcal/molUSERUSERREMARK SMILES O[C@H]1CC=C(c2cnc3[nH]occ(-c4ccc5[nH]ncc5c4F)ncc3c2)CC1REMARK SMILES IDX 6 1 7 2 8 3 9 4 10 5 11 6 12 7 13 8 24 9 25 10 26 11 27 12REMARK SMILES IDX 5 14 2 15 3 16 29 17 4 18 28 19 1 20 14 22 15 23 22 24 16 25REMARK SMILES IDX 21 26 17 27 20 28 18 29 19 30 23 31REMARK H PARENT 10 13 1 21 18 32USER                              x       y       z     vdW  Elec       q    TypeUSER                           _______ _______ _______ _____ _____    ______ ____ROOTATOM      1  C   UNL     1      32.333  42.246  17.110 -0.29 +0.00    -0.004 A  ATOM      2  C   UNL     1      31.735  42.866  16.014 -0.23 -0.06    +0.122 A  ATOM      3  N   UNL     1      32.092  44.069  15.504 -0.21 +0.12    -0.235 NA ATOM      4  C   UNL     1      33.130  44.707  16.110 -0.21 -0.10    +0.168 A  ATOM      5  N   UNL     1      33.615  45.859  15.460 -0.10 +0.24    -0.204 N  ATOM      6  O   UNL     1      34.745  45.594  14.683 -0.18 +0.29    -0.386 OA ATOM      7  C   UNL     1      35.912  45.945  15.304 -0.19 -0.18    +0.255 A  ATOM      8  C   UNL     1      36.339  45.930  16.587 -0.28 -0.07    +0.111 A  ATOM      9  N   UNL     1      35.911  45.634  17.832 -0.19 +0.11    -0.252 NA ATOM     10  C   UNL     1      34.756  45.032  18.135 -0.29 -0.05    +0.124 A  ATOM     11  C   UNL     1      33.768  44.205  17.239 -0.28 -0.02    +0.039 A  ATOM     12  C   UNL     1      33.368  42.953  17.723 -0.32 -0.01    +0.023 A  ATOM     13  H   UNL     1      32.865  46.060  14.807 -0.08 -0.24    +0.211 HD ENDROOTBRANCH   1  14ATOM     14  C   UNL     1      31.893  40.917  17.592 -0.39 +0.01    -0.043 C  ATOM     15  C   UNL     1      30.983  38.491  18.862 -0.43 +0.02    +0.118 C  ATOM     16  C   UNL     1      32.404  38.561  18.292 -0.44 +0.00    +0.059 C  ATOM     17  C   UNL     1      30.006  39.255  17.973 -0.40 +0.01    +0.037 C  ATOM     18  C   UNL     1      32.782  39.924  17.792 -0.38 +0.01    -0.020 C  ATOM     19  C   UNL     1      30.414  40.724  17.850 -0.33 -0.00    +0.038 C  BRANCH  15  20ATOM     20  O   UNL     1      30.555  37.133  18.962 -0.59 -0.22    -0.393 OA ATOM     21  H   UNL     1      30.182  37.015  19.852 +0.10 +0.07    +0.210 HD ENDBRANCH  15  20ENDBRANCH   1  14BRANCH   8  22ATOM     22  C   UNL     1      37.738  46.473  16.667 -0.35 -0.02    +0.040 A  ATOM     23  C   UNL     1      38.698  45.760  17.410 -0.39 -0.00    +0.016 A  ATOM     24  C   UNL     1      38.120  47.667  16.028 -0.30 -0.08    +0.143 A  ATOM     25  C   UNL     1      40.024  46.198  17.537 -0.45 -0.00    +0.029 A  ATOM     26  C   UNL     1      39.443  48.125  16.144 -0.45 -0.02    +0.056 A  ATOM     27  C   UNL     1      40.357  47.388  16.888 -0.47 -0.01    +0.068 A  ATOM     28  C   UNL     1      40.181  49.232  15.675 -0.47 -0.05    +0.146 A  ATOM     29  N   UNL     1      41.534  48.083  16.799 -0.22 +0.02    -0.278 N  ATOM     30  N   UNL     1      41.457  49.218  16.079 -1.03 -0.00    -0.183 NA ATOM     31  F   UNL     1      37.238  48.396  15.322 -0.14 +0.19    -0.205 F  ATOM     32  H   UNL     1      42.423  47.836  17.213 -0.43 -0.02    +0.190 HD ENDBRANCH   8  22TORSDOF 3TERENDMDL