REMARK SMILES O=C(CCl)N[C@H]1C[C@@H]1S(=O)(=O)Nc1cc(-c2ccncc2)cc(-c2nccs2)c1
REMARK SMILES IDX 6 1 7 2 8 3 5 4 2 5 1 6 3 8 4 9 9 10 10 11 11 12 12 13 13 15
REMARK SMILES IDX 14 16 29 17 15 18 23 19 22 20 16 21 17 22 21 23 18 24 20 25
REMARK SMILES IDX 19 26 24 27 25 28 28 29 26 30 27 31
REMARK H PARENT 5 7 12 14
ROOT
ATOM      1  C   UNL     1       2.886  -0.468  -0.109  1.00  0.00     0.103 C 
ATOM      2  C   UNL     1       2.080  -1.180  -1.168  1.00  0.00     0.050 C 
ATOM      3  C   UNL     1       2.904  -1.965  -0.190  1.00  0.00     0.154 C 
ENDROOT
BRANCH   1   4
ATOM      4  N   UNL     1       4.008   0.331  -0.506  1.00  0.00    -0.351 N 
ATOM      5  C   UNL     1       3.950   1.713  -0.540  1.00  0.00     0.235 C 
ATOM      6  O   UNL     1       2.978   2.344  -0.123  1.00  0.00    -0.274 OA
ATOM      7  H   UNL     1       4.798  -0.112  -0.971  1.00  0.00     0.163 HD
BRANCH   5   8
ATOM      8  C   UNL     1       5.198   2.418  -1.041  1.00  0.00     0.209 C 
ATOM      9  Cl  UNL     1       6.116   1.410  -2.184  1.00  0.00    -0.116 Cl
ENDBRANCH   5   8
ENDBRANCH   1   4
BRANCH   3  10
ATOM     10  S   UNL     1       1.977  -2.840   1.101  1.00  0.00     0.237 S 
ATOM     11  O   UNL     1       1.227  -3.868   0.413  1.00  0.00    -0.206 OA
ATOM     12  O   UNL     1       2.994  -3.195   2.069  1.00  0.00    -0.206 OA
BRANCH  10  13
ATOM     13  N   UNL     1       0.921  -1.832   1.942  1.00  0.00    -0.283 N 
ATOM     14  H   UNL     1       1.393  -1.282   2.659  1.00  0.00     0.180 HD
BRANCH  13  15
ATOM     15  C   UNL     1      -0.245  -1.279   1.339  1.00  0.00     0.050 A 
ATOM     16  C   UNL     1      -0.421   0.106   1.387  1.00  0.00     0.035 A 
ATOM     17  C   UNL     1      -1.215  -2.085   0.744  1.00  0.00     0.038 A 
ATOM     18  C   UNL     1      -1.536   0.715   0.793  1.00  0.00    -0.016 A 
ATOM     19  C   UNL     1      -2.350  -1.519   0.144  1.00  0.00     0.013 A 
ATOM     20  C   UNL     1      -2.486  -0.117   0.177  1.00  0.00     0.020 A 
BRANCH  18  21
ATOM     21  C   UNL     1      -1.698   2.179   0.810  1.00  0.00    -0.015 A 
ATOM     22  C   UNL     1      -2.905   2.774   1.199  1.00  0.00     0.029 A 
ATOM     23  C   UNL     1      -0.648   3.029   0.440  1.00  0.00     0.029 A 
ATOM     24  C   UNL     1      -3.005   4.157   1.203  1.00  0.00     0.111 A 
ATOM     25  C   UNL     1      -0.844   4.401   0.475  1.00  0.00     0.111 A 
ATOM     26  N   UNL     1      -2.001   4.985   0.850  1.00  0.00    -0.265 NA
ENDBRANCH  18  21
BRANCH  19  27
ATOM     27  C   UNL     1      -3.408  -2.317  -0.510  1.00  0.00     0.123 A 
ATOM     28  N   UNL     1      -4.587  -1.827  -0.853  1.00  0.00    -0.245 NA
ATOM     29  S   UNL     1      -3.186  -3.979  -0.921  1.00  0.00    -0.122 S 
ATOM     30  C   UNL     1      -5.359  -2.800  -1.453  1.00  0.00     0.123 A 
ATOM     31  C   UNL     1      -4.765  -4.035  -1.576  1.00  0.00     0.087 A 
ENDBRANCH  19  27
ENDBRANCH  13  15
ENDBRANCH  10  13
ENDBRANCH   3  10
TORSDOF 7
