MODEL        2USER    Run = 2USERUSER    Estimated Free Energy of Binding    =  -9.74 kcal/mol  [=(1)+(2)+(3)-(4)]USERUSER    (1) Final Intermolecular Energy     = -11.53 kcal/molUSER        vdW + Hbond + desolv Energy     = -11.45 kcal/molUSER        Electrostatic Energy            =  -0.08 kcal/molUSER        Moving Ligand-Fixed Receptor    = -11.53 kcal/molUSER        Moving Ligand-Moving Receptor   =  +0.00 kcal/molUSER    (2) Final Total Internal Energy     =  -1.73 kcal/molUSER    (3) Torsional Free Energy           =  +1.79 kcal/molUSER    (4) Unbound System's Energy         =  -1.73 kcal/molUSERUSERREMARK SMILES CC(=O)N[C@H]1C[C@H]1S(=O)(=O)Nc1cc(-c2ccncc2)cc(-c2nccs2)c1REMARK SMILES IDX 8 1 9 2 10 3 7 4 5 5 6 6 4 7 2 8 1 9 3 10 11 12 12 14 13 15REMARK SMILES IDX 28 16 14 17 22 18 21 19 15 20 16 21 20 22 17 23 19 24 18 25REMARK SMILES IDX 23 26 24 27 27 28 25 29 26 30REMARK H PARENT 4 11 11 13USER                              x       y       z     vdW  Elec       q    TypeUSER                           _______ _______ _______ _____ _____    ______ ____ROOTATOM      1  S   UNL     1      32.187  43.126  16.945 -0.31 -0.09    +0.237 S  ATOM      2  O   UNL     1      31.968  44.518  16.599 -0.39 +0.08    -0.206 OA ATOM      3  O   UNL     1      31.204  42.128  16.584 -0.26 +0.09    -0.206 OA ENDROOTBRANCH   1   4ATOM      4  C   UNL     1      32.351  43.009  18.746 -0.31 -0.02    +0.154 C  ATOM      5  C   UNL     1      32.091  41.685  19.407 -0.26 +0.00    +0.103 C  ATOM      6  C   UNL     1      33.508  42.170  19.213 -0.41 -0.00    +0.050 C  BRANCH   5   7ATOM      7  N   UNL     1      31.667  40.470  18.778 -0.16 +0.00    -0.352 N  ATOM      8  C   UNL     1      31.662  39.259  19.437 -0.32 +0.04    +0.217 C  ATOM      9  C   UNL     1      31.102  38.115  18.637 -0.44 +0.03    +0.114 C  ATOM     10  O   UNL     1      32.042  39.120  20.597 -1.23 -0.11    -0.275 OA ATOM     11  H   UNL     1      31.025  40.555  17.990 +0.10 -0.02    +0.163 HD ENDBRANCH   5   7ENDBRANCH   1   4BRANCH   1  12ATOM     12  N   UNL     1      33.705  42.700  16.307 -0.19 +0.14    -0.283 N  ATOM     13  H   UNL     1      33.560  42.401  15.332 -0.42 -0.12    +0.180 HD BRANCH  12  14ATOM     14  C   UNL     1      34.789  43.631  16.448 -0.34 -0.02    +0.050 A  ATOM     15  C   UNL     1      35.060  44.491  15.382 -0.24 -0.02    +0.035 A  ATOM     16  C   UNL     1      35.613  43.649  17.572 -0.30 -0.01    +0.038 A  ATOM     17  C   UNL     1      36.112  45.418  15.440 -0.35 +0.01    -0.016 A  ATOM     18  C   UNL     1      36.677  44.562  17.675 -0.32 -0.00    +0.013 A  ATOM     19  C   UNL     1      36.902  45.445  16.603 -0.34 -0.01    +0.020 A  BRANCH  17  20ATOM     20  C   UNL     1      36.377  46.336  14.317 -0.42 +0.01    -0.015 A  ATOM     21  C   UNL     1      36.827  47.644  14.537 -0.45 -0.02    +0.029 A  ATOM     22  C   UNL     1      36.193  45.932  12.989 -0.52 -0.01    +0.029 A  ATOM     23  C   UNL     1      37.059  48.472  13.448 -0.43 -0.05    +0.111 A  ATOM     24  C   UNL     1      36.453  46.831  11.966 -0.60 -0.05    +0.111 A  ATOM     25  N   UNL     1      36.879  48.094  12.166 -0.93 +0.06    -0.265 NA ENDBRANCH  17  20BRANCH  18  26ATOM     26  C   UNL     1      37.493  44.565  18.908 -0.27 -0.02    +0.123 A  ATOM     27  N   UNL     1      38.735  45.008  18.966 -0.24 +0.02    -0.245 NA ATOM     28  S   UNL     1      36.874  43.996  20.420 -0.50 +0.00    -0.122 S  ATOM     29  C   UNL     1      39.239  44.882  20.244 -0.29 -0.00    +0.123 A  ATOM     30  C   UNL     1      38.375  44.343  21.168 -0.31 +0.00    +0.087 A  ENDBRANCH  18  26ENDBRANCH  12  14ENDBRANCH   1  12TORSDOF 6TERENDMDL