MODEL        9USER    Run = 9USERUSER    Estimated Free Energy of Binding    =  -8.78 kcal/mol  [=(1)+(2)+(3)-(4)]USERUSER    (1) Final Intermolecular Energy     =  -9.97 kcal/molUSER        vdW + Hbond + desolv Energy     =  -9.79 kcal/molUSER        Electrostatic Energy            =  -0.18 kcal/molUSER        Moving Ligand-Fixed Receptor    =  -9.97 kcal/molUSER        Moving Ligand-Moving Receptor   =  +0.00 kcal/molUSER    (2) Final Total Internal Energy     =  -1.41 kcal/molUSER    (3) Torsional Free Energy           =  +1.19 kcal/molUSER    (4) Unbound System's Energy         =  -1.41 kcal/molUSERUSERREMARK SMILES NCC[C@@H]1C(=O)Nc2ccc3ncnc(-c4ccc(F)cc4F)c3c21REMARK SMILES IDX 3 1 2 2 1 3 4 6 5 7 25 8 7 9 24 10 8 11 15 12 11 13 9 14REMARK SMILES IDX 14 15 10 16 12 17 13 18 6 19 16 21 17 22 22 23 18 24 21 25REMARK SMILES IDX 19 26 23 27 20 28REMARK H PARENT 1 4 1 5 7 20USER                              x       y       z     vdW  Elec       q    TypeUSER                           _______ _______ _______ _____ _____    ______ ____ROOTATOM      1  C   UNL     1      36.747  45.913  13.810 -0.49 -0.01    +0.033 C  ENDROOTBRANCH   1   2ATOM      2  C   UNL     1      36.326  46.272  12.378 -0.65 -0.04    +0.079 C  BRANCH   2   3ATOM      3  N   UNL     1      37.333  46.989  11.617 -0.72 +0.08    -0.330 NA ATOM      4  H   UNL     1      38.053  47.355  12.237 +0.06 -0.00    +0.118 HD ATOM      5  H   UNL     1      36.927  47.799  11.133 -0.26 -0.05    +0.118 HD ENDBRANCH   2   3ENDBRANCH   1   2BRANCH   1   6ATOM      6  C   UNL     1      36.810  47.107  14.775 -0.41 -0.08    +0.113 C  ATOM      7  C   UNL     1      37.181  48.362  13.940 -0.43 -0.13    +0.232 C  ATOM      8  C   UNL     1      37.971  47.029  15.755 -0.42 +0.00    -0.000 A  ATOM      9  N   UNL     1      38.415  48.803  14.380 -0.21 +0.18    -0.325 N  ATOM     10  C   UNL     1      38.230  46.170  16.859 -0.37 -0.01    +0.033 A  ATOM     11  C   UNL     1      38.888  48.029  15.419 -0.48 -0.02    +0.046 A  ATOM     12  C   UNL     1      37.409  45.175  17.445 -0.30 -0.02    +0.085 A  ATOM     13  C   UNL     1      39.480  46.314  17.503 -0.40 -0.01    +0.075 A  ATOM     14  C   UNL     1      40.087  48.195  16.064 -0.53 -0.01    +0.029 A  ATOM     15  N   UNL     1      37.809  44.400  18.481 -0.21 +0.04    -0.236 NA ATOM     16  C   UNL     1      40.372  47.307  17.097 -0.49 -0.01    +0.031 A  ATOM     17  N   UNL     1      39.881  45.551  18.521 -0.27 +0.02    -0.236 NA ATOM     18  C   UNL     1      39.033  44.618  18.955 -0.23 -0.02    +0.223 A  ATOM     19  O   UNL     1      36.556  48.863  13.019 -0.68 +0.11    -0.274 OA ATOM     20  H   UNL     1      38.883  49.598  13.967 -0.30 -0.14    +0.169 HD BRANCH  12  21ATOM     21  C   UNL     1      36.005  44.921  17.105 -0.30 -0.02    +0.037 A  ATOM     22  C   UNL     1      34.981  45.754  17.591 -0.38 -0.01    +0.016 A  ATOM     23  C   UNL     1      35.633  43.770  16.392 -0.28 -0.05    +0.135 A  ATOM     24  C   UNL     1      33.638  45.452  17.346 -0.33 -0.03    +0.040 A  ATOM     25  C   UNL     1      34.298  43.455  16.153 -0.30 -0.04    +0.079 A  ATOM     26  C   UNL     1      33.311  44.303  16.633 -0.23 -0.06    +0.126 A  ATOM     27  F   UNL     1      36.575  42.950  15.901 -0.15 +0.07    -0.206 F  ATOM     28  F   UNL     1      32.024  44.012  16.407 -0.04 +0.08    -0.207 F  ENDBRANCH  12  21ENDBRANCH   1   6TORSDOF 4TERENDMDL