REMARK SMILES NCC[C@@H]1C(=O)Nc2ccc3ncnc(-c4ccc(F)cc4)c3c21
REMARK SMILES IDX 3 1 2 2 1 3 4 6 5 7 24 8 7 9 23 10 8 11 15 12 11 13 9 14
REMARK SMILES IDX 14 15 10 16 12 17 13 18 6 19 16 21 17 22 22 23 18 24 21 25
REMARK SMILES IDX 19 26 20 27
REMARK H PARENT 1 4 1 5 7 20
ROOT
ATOM      1  C   UNL     1       1.459  -1.235  -0.233  1.00  0.00     0.033 C 
ENDROOT
BRANCH   1   2
ATOM      2  C   UNL     1       0.964  -2.687  -0.266  1.00  0.00     0.079 C 
BRANCH   2   3
ATOM      3  N   UNL     1       0.735  -3.211  -1.600  1.00  0.00    -0.330 NA
ATOM      4  H   UNL     1       1.486  -2.939  -2.243  1.00  0.00     0.118 HD
ATOM      5  H   UNL     1       0.718  -4.230  -1.584  1.00  0.00     0.118 HD
ENDBRANCH   2   3
ENDBRANCH   1   2
BRANCH   1   6
ATOM      6  C   UNL     1       0.728  -0.296  -1.204  1.00  0.00     0.113 C 
ATOM      7  C   UNL     1       1.557  -0.227  -2.514  1.00  0.00     0.232 C 
ATOM      8  C   UNL     1       0.727   1.160  -0.756  1.00  0.00    -0.000 A 
ATOM      9  N   UNL     1       1.970   1.081  -2.678  1.00  0.00    -0.325 N 
ATOM     10  C   UNL     1       0.110   1.819   0.345  1.00  0.00     0.033 A 
ATOM     11  C   UNL     1       1.514   1.887  -1.655  1.00  0.00     0.046 A 
ATOM     12  C   UNL     1      -0.793   1.318   1.314  1.00  0.00     0.082 A 
ATOM     13  C   UNL     1       0.423   3.186   0.527  1.00  0.00     0.075 A 
ATOM     14  C   UNL     1       1.781   3.224  -1.506  1.00  0.00     0.029 A 
ATOM     15  N   UNL     1      -1.233   2.052   2.365  1.00  0.00    -0.236 NA
ATOM     16  C   UNL     1       1.237   3.852  -0.390  1.00  0.00     0.031 A 
ATOM     17  N   UNL     1      -0.025   3.920   1.546  1.00  0.00    -0.236 NA
ATOM     18  C   UNL     1      -0.821   3.316   2.429  1.00  0.00     0.223 A 
ATOM     19  O   UNL     1       1.861  -1.144  -3.260  1.00  0.00    -0.274 OA
ATOM     20  H   UNL     1       2.552   1.371  -3.450  1.00  0.00     0.169 HD
BRANCH  12  21
ATOM     21  C   UNL     1      -1.441  -0.004   1.283  1.00  0.00     0.001 A 
ATOM     22  C   UNL     1      -1.278  -0.903   2.355  1.00  0.00     0.013 A 
ATOM     23  C   UNL     1      -2.333  -0.354   0.253  1.00  0.00     0.013 A 
ATOM     24  C   UNL     1      -1.958  -2.122   2.382  1.00  0.00     0.040 A 
ATOM     25  C   UNL     1      -3.007  -1.579   0.274  1.00  0.00     0.040 A 
ATOM     26  C   UNL     1      -2.814  -2.450   1.338  1.00  0.00     0.123 A 
ATOM     27  F   UNL     1      -3.467  -3.619   1.363  1.00  0.00    -0.207 F 
ENDBRANCH  12  21
ENDBRANCH   1   6
TORSDOF 4
