MODEL        6USER    Run = 6USERUSER    Estimated Free Energy of Binding    = -10.23 kcal/mol  [=(1)+(2)+(3)-(4)]USERUSER    (1) Final Intermolecular Energy     = -11.42 kcal/molUSER        vdW + Hbond + desolv Energy     = -11.36 kcal/molUSER        Electrostatic Energy            =  -0.06 kcal/molUSER        Moving Ligand-Fixed Receptor    = -11.42 kcal/molUSER        Moving Ligand-Moving Receptor   =  +0.00 kcal/molUSER    (2) Final Total Internal Energy     =  -0.67 kcal/molUSER    (3) Torsional Free Energy           =  +1.19 kcal/molUSER    (4) Unbound System's Energy         =  -0.67 kcal/molUSERUSERREMARK SMILES NCC[C@@H]1C(=O)Nc2ccc3ncnc(-c4ccc(F)cc4)c3c21REMARK SMILES IDX 3 1 2 2 1 3 4 6 5 7 24 8 7 9 23 10 8 11 15 12 11 13 9 14REMARK SMILES IDX 14 15 10 16 12 17 13 18 6 19 16 21 17 22 22 23 18 24 21 25REMARK SMILES IDX 19 26 20 27REMARK H PARENT 1 4 1 5 7 20USER                              x       y       z     vdW  Elec       q    TypeUSER                           _______ _______ _______ _____ _____    ______ ____ROOTATOM      1  C   UNL     1      36.195  46.606  17.046 -0.28 -0.03    +0.033 C  ENDROOTBRANCH   1   2ATOM      2  C   UNL     1      35.091  46.163  18.014 -0.40 -0.05    +0.079 C  BRANCH   2   3ATOM      3  N   UNL     1      34.294  47.251  18.551 -0.84 +0.27    -0.330 NA ATOM      4  H   UNL     1      33.532  47.507  17.915 -0.49 -0.20    +0.118 HD ATOM      5  H   UNL     1      33.861  46.974  19.431 -0.51 -0.06    +0.118 HD ENDBRANCH   2   3ENDBRANCH   1   2BRANCH   1   6ATOM      6  C   UNL     1      37.381  45.634  16.953 -0.34 -0.04    +0.113 C  ATOM      7  C   UNL     1      37.284  44.649  18.149 -0.25 -0.05    +0.232 C  ATOM      8  C   UNL     1      38.730  46.296  17.200 -0.41 +0.00    -0.000 A  ATOM      9  N   UNL     1      38.409  44.830  18.930 -0.18 +0.03    -0.325 N  ATOM     10  C   UNL     1      39.467  47.265  16.461 -0.45 -0.01    +0.033 A  ATOM     11  C   UNL     1      39.241  45.796  18.402 -0.39 -0.01    +0.046 A  ATOM     12  C   UNL     1      39.202  47.835  15.192 -0.45 -0.03    +0.082 A  ATOM     13  C   UNL     1      40.654  47.752  17.055 -0.48 -0.01    +0.075 A  ATOM     14  C   UNL     1      40.416  46.234  18.957 -0.42 -0.00    +0.029 A  ATOM     15  N   UNL     1      39.958  48.819  14.650 -0.36 +0.08    -0.236 NA ATOM     16  C   UNL     1      41.100  47.233  18.271 -0.48 -0.00    +0.031 A  ATOM     17  N   UNL     1      41.416  48.705  16.516 -0.90 +0.00    -0.236 NA ATOM     18  C   UNL     1      41.026  49.208  15.345 -0.45 -0.04    +0.223 A  ATOM     19  O   UNL     1      36.374  43.883  18.419 -0.19 +0.06    -0.274 OA ATOM     20  H   UNL     1      38.560  44.318  19.787 +0.10 -0.01    +0.169 HD BRANCH  12  21ATOM     21  C   UNL     1      38.150  47.400  14.258 -0.49 -0.00    +0.001 A  ATOM     22  C   UNL     1      37.279  48.342  13.676 -0.54 -0.01    +0.013 A  ATOM     23  C   UNL     1      38.066  46.063  13.827 -0.40 -0.00    +0.013 A  ATOM     24  C   UNL     1      36.337  47.957  12.720 -0.60 -0.02    +0.040 A  ATOM     25  C   UNL     1      37.116  45.675  12.877 -0.47 -0.01    +0.040 A  ATOM     26  C   UNL     1      36.262  46.625  12.332 -0.56 -0.06    +0.123 A  ATOM     27  F   UNL     1      35.359  46.255  11.415 -0.12 +0.13    -0.207 F  ENDBRANCH  12  21ENDBRANCH   1   6TORSDOF 4TERENDMDL