MODEL        10USER    Run = 10USERUSER    Estimated Free Energy of Binding    = -10.79 kcal/mol  [=(1)+(2)+(3)-(4)]USERUSER    (1) Final Intermolecular Energy     = -11.68 kcal/molUSER        vdW + Hbond + desolv Energy     = -11.46 kcal/molUSER        Electrostatic Energy            =  -0.22 kcal/molUSER        Moving Ligand-Fixed Receptor    = -11.68 kcal/molUSER        Moving Ligand-Moving Receptor   =  +0.00 kcal/molUSER    (2) Final Total Internal Energy     =  -0.57 kcal/molUSER    (3) Torsional Free Energy           =  +0.89 kcal/molUSER    (4) Unbound System's Energy         =  -0.57 kcal/molUSERUSERREMARK SMILES O[C@H]1CC=C(c2cnc3[nH]occ(-c4ccc5[nH]ncc5c4)ncc3c2)CC1REMARK SMILES IDX 6 1 7 2 8 3 9 4 10 5 11 6 12 7 13 8 23 9 24 10 25 11 26 12REMARK SMILES IDX 5 14 2 15 3 16 28 17 4 18 27 19 1 20 14 22 15 23 22 24 16 25REMARK SMILES IDX 21 26 17 27 20 28 18 29 19 30REMARK H PARENT 10 13 1 21 18 31USER                              x       y       z     vdW  Elec       q    TypeUSER                           _______ _______ _______ _____ _____    ______ ____ROOTATOM      1  C   UNL     1      40.071  47.418  16.416 -0.51 +0.00    -0.004 A  ATOM      2  C   UNL     1      40.863  48.498  16.789 -0.39 -0.02    +0.122 A  ATOM      3  N   UNL     1      41.801  48.479  17.767 -0.59 -0.00    -0.235 NA ATOM      4  C   UNL     1      41.981  47.310  18.444 -0.40 -0.00    +0.168 A  ATOM      5  N   UNL     1      42.955  47.371  19.443 -0.44 -0.03    -0.204 N  ATOM      6  O   UNL     1      43.118  46.421  20.439 -0.17 -0.17    -0.386 OA ATOM      7  C   UNL     1      41.985  46.369  21.221 -0.17 +0.04    +0.255 A  ATOM      8  C   UNL     1      40.989  45.477  21.024 -0.27 +0.01    +0.108 A  ATOM      9  N   UNL     1      40.761  44.532  20.076 -0.22 -0.02    -0.252 NA ATOM     10  C   UNL     1      41.351  44.755  18.878 -0.18 +0.01    +0.124 A  ATOM     11  C   UNL     1      41.243  46.160  18.131 -0.46 -0.00    +0.039 A  ATOM     12  C   UNL     1      40.275  46.234  17.119 -0.45 -0.00    +0.023 A  ATOM     13  H   UNL     1      43.185  48.321  19.685 -0.44 -0.04    +0.211 HD ENDROOTBRANCH   1  14ATOM     14  C   UNL     1      39.043  47.522  15.361 -0.53 +0.02    -0.043 C  ATOM     15  C   UNL     1      37.331  47.762  13.057 -0.51 -0.04    +0.118 C  ATOM     16  C   UNL     1      37.237  48.800  14.185 -0.55 -0.04    +0.059 C  ATOM     17  C   UNL     1      37.597  46.371  13.623 -0.50 -0.01    +0.037 C  ATOM     18  C   UNL     1      38.276  48.625  15.252 -0.57 +0.01    -0.020 C  ATOM     19  C   UNL     1      38.903  46.346  14.420 -0.45 -0.01    +0.038 C  BRANCH  15  20ATOM     20  O   UNL     1      36.114  47.737  12.315 -0.57 +0.20    -0.393 OA ATOM     21  H   UNL     1      36.215  48.367  11.581 -0.26 -0.12    +0.210 HD ENDBRANCH  15  20ENDBRANCH   1  14BRANCH   8  22ATOM     22  C   UNL     1      39.965  45.485  22.098 -0.29 +0.00    +0.004 A  ATOM     23  C   UNL     1      39.147  44.362  22.292 -0.28 +0.00    +0.013 A  ATOM     24  C   UNL     1      39.802  46.623  22.905 -0.20 +0.00    +0.022 A  ATOM     25  C   UNL     1      38.154  44.339  23.278 -0.30 +0.00    +0.029 A  ATOM     26  C   UNL     1      38.810  46.618  23.899 -0.32 +0.00    +0.020 A  ATOM     27  C   UNL     1      38.016  45.488  24.063 -0.24 +0.01    +0.065 A  ATOM     28  C   UNL     1      38.347  47.519  24.882 -0.28 +0.02    +0.143 A  ATOM     29  N   UNL     1      37.170  45.793  25.094 -0.15 -0.04    -0.278 N  ATOM     30  N   UNL     1      37.334  47.028  25.607 -0.70 -0.01    -0.183 NA ATOM     31  H   UNL     1      36.453  45.199  25.491 -0.07 -0.00    +0.190 HD ENDBRANCH   8  22TORSDOF 3TERENDMDL