REMARK SMILES O[C@H]1CC=C(c2cnc3[nH]occ(-c4ccc5[nH]ncc5c4F)ncc3c2)CC1
REMARK SMILES IDX 6 1 7 2 8 3 9 4 10 5 11 6 12 7 13 8 24 9 25 10 26 11 27 12
REMARK SMILES IDX 5 14 2 15 3 16 29 17 4 18 28 19 1 20 14 22 15 23 22 24 16 25
REMARK SMILES IDX 21 26 17 27 20 28 18 29 19 30 23 31
REMARK H PARENT 10 13 1 21 18 32
ROOT
ATOM      1  C   UNL     1      -2.595  -0.861   0.328  1.00  0.00    -0.004 A 
ATOM      2  C   UNL     1      -2.482  -1.753   1.393  1.00  0.00     0.122 A 
ATOM      3  N   UNL     1      -1.342  -2.378   1.774  1.00  0.00    -0.235 NA
ATOM      4  C   UNL     1      -0.220  -2.091   1.060  1.00  0.00     0.168 A 
ATOM      5  N   UNL     1       0.990  -2.594   1.578  1.00  0.00    -0.204 N 
ATOM      6  O   UNL     1       1.690  -1.636   2.317  1.00  0.00    -0.386 OA
ATOM      7  C   UNL     1       2.704  -1.054   1.608  1.00  0.00     0.255 A 
ATOM      8  C   UNL     1       2.870  -0.708   0.311  1.00  0.00     0.111 A 
ATOM      9  N   UNL     1       2.236  -0.760  -0.879  1.00  0.00    -0.252 NA
ATOM     10  C   UNL     1       0.964  -1.129  -1.067  1.00  0.00     0.124 A 
ATOM     11  C   UNL     1      -0.225  -1.254  -0.050  1.00  0.00     0.039 A 
ATOM     12  C   UNL     1      -1.427  -0.625  -0.399  1.00  0.00     0.023 A 
ATOM     13  H   UNL     1       0.660  -3.280   2.248  1.00  0.00     0.211 HD
ENDROOT
BRANCH   1  14
ATOM     14  C   UNL     1      -3.879  -0.205  -0.009  1.00  0.00    -0.043 C 
ATOM     15  C   UNL     1      -6.545   0.761  -0.543  1.00  0.00     0.118 C 
ATOM     16  C   UNL     1      -5.554   0.592  -1.700  1.00  0.00     0.059 C 
ATOM     17  C   UNL     1      -5.832   1.256   0.711  1.00  0.00     0.037 C 
ATOM     18  C   UNL     1      -4.261  -0.050  -1.292  1.00  0.00    -0.020 C 
ATOM     19  C   UNL     1      -4.738   0.276   1.140  1.00  0.00     0.038 C 
BRANCH  15  20
ATOM     20  O   UNL     1      -7.566   1.694  -0.896  1.00  0.00    -0.393 OA
ATOM     21  H   UNL     1      -7.973   1.376  -1.719  1.00  0.00     0.210 HD
ENDBRANCH  15  20
ENDBRANCH   1  14
BRANCH   8  22
ATOM     22  C   UNL     1       4.237  -0.116   0.111  1.00  0.00     0.040 A 
ATOM     23  C   UNL     1       5.199  -0.861  -0.598  1.00  0.00     0.016 A 
ATOM     24  C   UNL     1       4.589   1.153   0.608  1.00  0.00     0.143 A 
ATOM     25  C   UNL     1       6.497  -0.384  -0.826  1.00  0.00     0.029 A 
ATOM     26  C   UNL     1       5.885   1.649   0.392  1.00  0.00     0.056 A 
ATOM     27  C   UNL     1       6.802   0.878  -0.314  1.00  0.00     0.068 A 
ATOM     28  C   UNL     1       6.592   2.824   0.722  1.00  0.00     0.146 A 
ATOM     29  N   UNL     1       7.944   1.632  -0.359  1.00  0.00    -0.278 N 
ATOM     30  N   UNL     1       7.854   2.817   0.275  1.00  0.00    -0.183 NA
ATOM     31  F   UNL     1       3.715   1.897   1.308  1.00  0.00    -0.205 F 
ATOM     32  H   UNL     1       8.820   1.390  -0.803  1.00  0.00     0.190 HD
ENDBRANCH   8  22
TORSDOF 3
