MODEL        7USER    Run = 7USERUSER    Estimated Free Energy of Binding    = -12.03 kcal/mol  [=(1)+(2)+(3)-(4)]USERUSER    (1) Final Intermolecular Energy     = -14.11 kcal/molUSER        vdW + Hbond + desolv Energy     = -14.07 kcal/molUSER        Electrostatic Energy            =  -0.05 kcal/molUSER        Moving Ligand-Fixed Receptor    = -14.11 kcal/molUSER        Moving Ligand-Moving Receptor   =  +0.00 kcal/molUSER    (2) Final Total Internal Energy     =  -1.05 kcal/molUSER    (3) Torsional Free Energy           =  +2.09 kcal/molUSER    (4) Unbound System's Energy         =  -1.05 kcal/molUSERUSERREMARK SMILES Cc1c(C=c2cc3c(cn2)=C(NC2CCN(c4nc5ccccc5n4O)CC2)NN=C3)cccc1C(C)CREMARK SMILES IDX 5 1 6 2 7 3 8 4 9 5 10 6 11 7 29 8 30 9 31 10 4 12 3 13 2 14REMARK SMILES IDX 35 15 32 16 34 17 33 18 1 19 36 20 37 21 38 22 12 23 13 25REMARK SMILES IDX 14 26 28 27 15 28 27 29 16 30 17 31 18 32 25 33 19 34 24 35REMARK SMILES IDX 20 36 23 37 21 38 22 39 26 40REMARK H PARENT 29 11 12 24 26 41USER                              x       y       z     vdW  Elec       q    TypeUSER                           _______ _______ _______ _____ _____    ______ ____ROOTATOM      1  C   UNL     1      39.069  46.040  24.048 -0.24 +0.01    +0.064 A  ATOM      2  C   UNL     1      39.828  47.261  24.312 -0.27 +0.00    +0.039 A  ATOM      3  C   UNL     1      40.936  47.557  23.622 -0.27 +0.00    +0.009 A  ATOM      4  C   UNL     1      41.409  46.679  22.585 -0.21 +0.00    +0.044 A  ATOM      5  C   UNL     1      40.581  45.469  22.393 -0.18 +0.01    +0.124 A  ATOM      6  N   UNL     1      39.508  45.175  23.063 -0.12 -0.02    -0.256 NA ATOM      7  C   UNL     1      42.539  46.995  21.911 -0.29 +0.02    +0.129 C  ATOM      8  N   UNL     1      43.186  48.176  22.262 -0.20 -0.04    -0.263 N  ATOM      9  N   UNL     1      42.792  49.097  23.196 -0.91 -0.07    -0.182 NA ATOM     10  C   UNL     1      41.717  48.789  23.858 -0.35 +0.03    +0.142 C  ATOM     11  H   UNL     1      43.886  48.468  21.584 -0.51 -0.02    +0.192 HD ENDROOTBRANCH   1  12ATOM     12  C   UNL     1      37.949  45.717  24.722 -0.30 +0.00    +0.036 C  BRANCH  12  13ATOM     13  C   UNL     1      37.341  44.380  24.799 -0.32 -0.00    -0.020 A  ATOM     14  C   UNL     1      36.862  43.827  26.010 -0.33 +0.00    -0.040 A  ATOM     15  C   UNL     1      36.354  42.499  26.010 -0.40 +0.00    -0.042 A  ATOM     16  C   UNL     1      37.279  43.643  23.609 -0.35 +0.00    +0.008 A  ATOM     17  C   UNL     1      36.306  41.790  24.793 -0.32 -0.00    +0.004 A  ATOM     18  C   UNL     1      36.759  42.355  23.605 -0.43 +0.00    +0.001 A  ATOM     19  C   UNL     1      36.910  44.627  27.291 -0.41 -0.01    +0.045 C  BRANCH  15  20ATOM     20  C   UNL     1      35.853  41.817  27.283 -0.64 -0.00    +0.013 C  ATOM     21  C   UNL     1      34.635  40.935  26.995 -0.68 -0.01    +0.012 C  ATOM     22  C   UNL     1      36.960  41.012  27.975 -0.53 -0.00    +0.012 C  ENDBRANCH  15  20ENDBRANCH  12  13ENDBRANCH   1  12BRANCH   7  23ATOM     23  N   UNL     1      43.073  46.250  20.864 -0.12 -0.15    -0.367 N  ATOM     24  H   UNL     1      44.080  46.391  20.806 +0.06 +0.15    +0.162 HD BRANCH  23  25ATOM     25  C   UNL     1      42.498  46.299  19.502 -0.30 +0.02    +0.084 C  ATOM     26  C   UNL     1      41.227  45.439  19.482 -0.45 +0.00    +0.046 C  ATOM     27  C   UNL     1      42.168  47.727  19.063 -0.32 +0.00    +0.046 C  ATOM     28  C   UNL     1      40.541  45.500  18.122 -0.44 -0.00    +0.122 C  ATOM     29  C   UNL     1      41.463  47.734  17.711 -0.48 -0.01    +0.122 C  ATOM     30  N   UNL     1      40.247  46.902  17.778 -0.25 +0.05    -0.340 N  BRANCH  30  31ATOM     31  C   UNL     1      39.388  47.043  16.717 -0.29 -0.07    +0.240 A  ATOM     32  N   UNL     1      39.617  47.603  15.549 -0.32 +0.06    -0.210 NA ATOM     33  N   UNL     1      38.124  46.487  16.741 -0.30 +0.06    -0.150 N  ATOM     34  C   UNL     1      38.449  47.447  14.831 -0.41 -0.04    +0.094 A  ATOM     35  C   UNL     1      37.492  46.748  15.561 -0.32 -0.06    +0.109 A  ATOM     36  C   UNL     1      38.137  47.876  13.533 -0.43 -0.01    +0.031 A  ATOM     37  C   UNL     1      36.221  46.440  15.066 -0.37 -0.02    +0.032 A  ATOM     38  C   UNL     1      36.869  47.583  13.014 -0.63 -0.00    +0.002 A  ATOM     39  C   UNL     1      35.929  46.878  13.770 -0.50 -0.00    +0.002 A  BRANCH  33  40ATOM     40  O   UNL     1      37.605  45.697  17.769 -0.15 +0.12    -0.425 OA ATOM     41  H   UNL     1      37.854  46.276  18.513 +0.19 -0.07    +0.328 HD ENDBRANCH  33  40ENDBRANCH  30  31ENDBRANCH  23  25ENDBRANCH   7  23TORSDOF 7TERENDMDL