REMARK SMILES Cc1c(C=c2cc3c(cn2)=C(NC2CCN(c4nc5ccccc5n4O)CC2)NN=C3)cccc1C(C)C
REMARK SMILES IDX 5 1 6 2 7 3 8 4 9 5 10 6 11 7 29 8 30 9 31 10 4 12 3 13 2 14
REMARK SMILES IDX 35 15 32 16 34 17 33 18 1 19 36 20 37 21 38 22 12 23 13 25
REMARK SMILES IDX 14 26 28 27 15 28 27 29 16 30 17 31 18 32 25 33 19 34 24 35
REMARK SMILES IDX 20 36 23 37 21 38 22 39 26 40
REMARK H PARENT 29 11 12 24 26 41
ROOT
ATOM      1  C   UNL     1      -3.079   1.331  -0.376  1.00  0.00     0.064 A 
ATOM      2  C   UNL     1      -2.965  -0.081  -0.018  1.00  0.00     0.039 A 
ATOM      3  C   UNL     1      -1.839  -0.580   0.505  1.00  0.00     0.009 A 
ATOM      4  C   UNL     1      -0.702   0.269   0.740  1.00  0.00     0.044 A 
ATOM      5  C   UNL     1      -0.908   1.679   0.343  1.00  0.00     0.124 A 
ATOM      6  N   UNL     1      -1.997   2.167  -0.169  1.00  0.00    -0.256 NA
ATOM      7  C   UNL     1       0.429  -0.263   1.258  1.00  0.00     0.129 C 
ATOM      8  N   UNL     1       0.425  -1.625   1.544  1.00  0.00    -0.263 N 
ATOM      9  N   UNL     1      -0.616  -2.503   1.401  1.00  0.00    -0.182 NA
ATOM     10  C   UNL     1      -1.699  -2.001   0.888  1.00  0.00     0.142 C 
ATOM     11  H   UNL     1       1.206  -1.915   2.128  1.00  0.00     0.192 HD
ENDROOT
BRANCH   1  12
ATOM     12  C   UNL     1      -4.200   1.863  -0.900  1.00  0.00     0.036 C 
BRANCH  12  13
ATOM     13  C   UNL     1      -5.447   1.139  -1.189  1.00  0.00    -0.020 A 
ATOM     14  C   UNL     1      -6.493   1.011  -0.244  1.00  0.00    -0.040 A 
ATOM     15  C   UNL     1      -7.635   0.234  -0.578  1.00  0.00    -0.042 A 
ATOM     16  C   UNL     1      -5.554   0.539  -2.451  1.00  0.00     0.008 A 
ATOM     17  C   UNL     1      -7.708  -0.352  -1.858  1.00  0.00     0.004 A 
ATOM     18  C   UNL     1      -6.682  -0.199  -2.786  1.00  0.00     0.001 A 
ATOM     19  C   UNL     1      -6.388   1.673   1.110  1.00  0.00     0.045 C 
BRANCH  15  20
ATOM     20  C   UNL     1      -8.789   0.017   0.400  1.00  0.00     0.013 C 
ATOM     21  C   UNL     1     -10.069   0.698  -0.094  1.00  0.00     0.012 C 
ATOM     22  C   UNL     1      -9.034  -1.472   0.676  1.00  0.00     0.012 C 
ENDBRANCH  15  20
ENDBRANCH  12  13
ENDBRANCH   1  12
BRANCH   7  23
ATOM     23  N   UNL     1       1.577   0.461   1.567  1.00  0.00    -0.367 N 
ATOM     24  H   UNL     1       1.345   1.439   1.734  1.00  0.00     0.162 HD
BRANCH  23  25
ATOM     25  C   UNL     1       2.792   0.388   0.726  1.00  0.00     0.084 C 
ATOM     26  C   UNL     1       3.807   1.412   1.252  1.00  0.00     0.046 C 
ATOM     27  C   UNL     1       3.414  -1.010   0.725  1.00  0.00     0.046 C 
ATOM     28  C   UNL     1       5.115   1.343   0.472  1.00  0.00     0.122 C 
ATOM     29  C   UNL     1       4.729  -1.022  -0.046  1.00  0.00     0.122 C 
ATOM     30  N   UNL     1       5.654  -0.027   0.529  1.00  0.00    -0.340 N 
BRANCH  30  31
ATOM     31  C   UNL     1       6.954  -0.128   0.102  1.00  0.00     0.240 A 
ATOM     32  N   UNL     1       7.660   0.746  -0.583  1.00  0.00    -0.210 NA
ATOM     33  N   UNL     1       7.741  -1.208   0.453  1.00  0.00    -0.150 N 
ATOM     34  C   UNL     1       8.912   0.183  -0.717  1.00  0.00     0.094 A 
ATOM     35  C   UNL     1       8.989  -1.049  -0.074  1.00  0.00     0.109 A 
ATOM     36  C   UNL     1      10.047   0.679  -1.376  1.00  0.00     0.031 A 
ATOM     37  C   UNL     1      10.148  -1.830  -0.043  1.00  0.00     0.032 A 
ATOM     38  C   UNL     1      11.221  -0.085  -1.363  1.00  0.00     0.002 A 
ATOM     39  C   UNL     1      11.268  -1.318  -0.707  1.00  0.00     0.002 A 
BRANCH  33  40
ATOM     40  O   UNL     1       7.355  -2.252   1.296  1.00  0.00    -0.425 OA
ATOM     41  H   UNL     1       6.737  -1.744   1.853  1.00  0.00     0.328 HD
ENDBRANCH  33  40
ENDBRANCH  30  31
ENDBRANCH  23  25
ENDBRANCH   7  23
TORSDOF 7
