MODEL        9USER    Run = 9USERUSER    Estimated Free Energy of Binding    = -12.58 kcal/mol  [=(1)+(2)+(3)-(4)]USERUSER    (1) Final Intermolecular Energy     = -14.96 kcal/molUSER        vdW + Hbond + desolv Energy     = -14.83 kcal/molUSER        Electrostatic Energy            =  -0.13 kcal/molUSER        Moving Ligand-Fixed Receptor    = -14.96 kcal/molUSER        Moving Ligand-Moving Receptor   =  +0.00 kcal/molUSER    (2) Final Total Internal Energy     =  -2.54 kcal/molUSER    (3) Torsional Free Energy           =  +2.39 kcal/molUSER    (4) Unbound System's Energy         =  -2.54 kcal/molUSERUSERREMARK SMILES N#Cc1cnc(-c2ccc(CNCc3ccc(-c4csnn4)cc3)cc2)c(-c2ccccc2)c1REMARK SMILES IDX 11 1 10 2 7 3 8 4 26 5 9 6 25 7 6 8 3 9 4 10 34 11 5 12REMARK SMILES IDX 27 13 2 14 1 15 28 16 29 17 33 18 30 19 32 20 31 21 12 22REMARK SMILES IDX 13 24 14 25 15 26 24 27 16 28 23 29 17 30 18 31 19 32 22 33REMARK SMILES IDX 20 34 21 35REMARK H PARENT 12 23USER                              x       y       z     vdW  Elec       q    TypeUSER                           _______ _______ _______ _____ _____    ______ ____ROOTATOM      1  C   UNL     1      36.266  43.206  20.364 -0.41 -0.00    +0.117 C  ENDROOTBRANCH   1   2ATOM      2  C   UNL     1      35.397  43.743  19.251 -0.36 +0.01    -0.034 A  ATOM      3  C   UNL     1      33.788  44.735  17.132 -0.32 -0.00    +0.001 A  ATOM      4  C   UNL     1      34.385  45.603  18.063 -0.43 -0.01    +0.011 A  ATOM      5  C   UNL     1      34.002  43.357  17.297 -0.33 -0.00    +0.011 A  ATOM      6  C   UNL     1      35.183  45.118  19.104 -0.32 -0.00    +0.006 A  ATOM      7  C   UNL     1      34.802  42.868  18.335 -0.37 -0.00    +0.006 A  BRANCH   3   8ATOM      8  C   UNL     1      32.952  45.274  16.040 -0.26 -0.06    +0.078 A  ATOM      9  C   UNL     1      31.147  46.183  14.151 -0.51 -0.05    +0.071 A  ATOM     10  C   UNL     1      30.752  45.694  15.381 -0.36 -0.06    +0.131 A  ATOM     11  C   UNL     1      32.512  46.224  13.873 -0.16 -0.03    +0.032 A  ATOM     12  N   UNL     1      31.615  45.249  16.322 -0.67 +0.09    -0.254 NA ATOM     13  C   UNL     1      33.453  45.771  14.819 -0.14 -0.01    +0.009 A  BRANCH   9  14ATOM     14  C   UNL     1      30.180  46.640  13.205 -0.56 -0.05    +0.101 C  ATOM     15  N   UNL     1      29.395  47.012  12.438 -0.72 +0.09    -0.192 NA ENDBRANCH   9  14BRANCH  13  16ATOM     16  C   UNL     1      34.887  45.875  14.497 -0.35 +0.01    -0.016 A  ATOM     17  C   UNL     1      35.371  46.935  13.711 -0.41 -0.01    +0.009 A  ATOM     18  C   UNL     1      35.810  44.933  14.978 -0.34 -0.00    +0.009 A  ATOM     19  C   UNL     1      36.730  47.043  13.407 -0.56 -0.00    +0.001 A  ATOM     20  C   UNL     1      37.169  45.038  14.673 -0.38 -0.00    +0.001 A  ATOM     21  C   UNL     1      37.629  46.093  13.887 -0.45 -0.00    +0.000 A  ENDBRANCH  13  16ENDBRANCH   3   8ENDBRANCH   1   2BRANCH   1  22ATOM     22  N   UNL     1      37.674  43.225  19.969 -0.04 +0.01    -0.309 NA ATOM     23  H   UNL     1      37.718  43.253  18.952 +0.08 -0.01    +0.123 HD BRANCH  22  24ATOM     24  C   UNL     1      38.383  44.385  20.508 -0.34 -0.00    +0.117 C  BRANCH  24  25ATOM     25  C   UNL     1      38.927  45.306  19.440 -0.37 +0.00    -0.034 A  ATOM     26  C   UNL     1      38.148  45.653  18.329 -0.34 -0.00    +0.006 A  ATOM     27  C   UNL     1      40.228  45.812  19.532 -0.41 -0.00    +0.006 A  ATOM     28  C   UNL     1      38.658  46.499  17.336 -0.38 -0.00    +0.011 A  ATOM     29  C   UNL     1      40.738  46.656  18.540 -0.47 -0.00    +0.011 A  ATOM     30  C   UNL     1      39.958  47.016  17.432 -0.48 -0.00    +0.003 A  BRANCH  30  31ATOM     31  C   UNL     1      40.519  47.900  16.416 -0.46 -0.02    +0.105 A  ATOM     32  C   UNL     1      40.222  47.837  15.065 -0.43 -0.02    +0.118 A  ATOM     33  N   UNL     1      41.407  48.919  16.760 -1.02 -0.00    -0.138 NA ATOM     34  S   UNL     1      41.109  49.080  14.282 -0.76 +0.00    -0.020 S  ATOM     35  N   UNL     1      41.799  49.614  15.707 -1.02 -0.01    -0.091 NA ENDBRANCH  30  31ENDBRANCH  24  25ENDBRANCH  22  24ENDBRANCH   1  22TORSDOF 8TERENDMDL