MODEL        7USER    Run = 7USERUSER    Estimated Free Energy of Binding    =  -5.75 kcal/mol  [=(1)+(2)+(3)-(4)]USERUSER    (1) Final Intermolecular Energy     = -10.23 kcal/molUSER        vdW + Hbond + desolv Energy     = -10.95 kcal/molUSER        Electrostatic Energy            =  -0.38 kcal/molUSER        Moving Ligand-Fixed Receptor    = -11.33 kcal/molUSER        Moving Ligand-Moving Receptor   =  +1.10 kcal/molUSER    (2) Final Total Internal Energy     =  -2.25 kcal/molUSER    (3) Torsional Free Energy           =  +4.47 kcal/molUSER    (4) Unbound System's Energy         =  -2.25 kcal/molUSERUSERREMARK SMILES COc1ccc(O)c(C(=O)c2ccc(NC[C@@H]3CCCNC[C@@H]3NC(=O)c3ccncc3)cc2)c1FREMARK SMILES IDX 16 1 15 2 14 4 11 5 12 6 34 7 13 8 33 9 9 10 10 11 8 12 3 13REMARK SMILES IDX 4 14 35 15 5 16 6 17 36 18 2 19 1 20 7 21 17 23 18 24 23 26REMARK SMILES IDX 22 27 21 28 20 30 19 31 24 33 25 34 26 36 27 37 28 38 32 39REMARK SMILES IDX 29 40 31 41 30 42REMARK H PARENT 15 3 7 22 21 29 24 35REMARK Flexibility Score:   99.900USER                              x       y       z     vdW  Elec       q    TypeUSER                           _______ _______ _______ _____ _____    ______ ____ROOTATOM      1  C   UNL     1      36.833  43.593  19.714 -0.34 -0.01    +0.118 C  ENDROOTBRANCH   1   2ATOM      2  N   UNL     1      37.339  44.233  20.932 -0.15 -0.00    -0.385 N  ATOM      3  H   UNL     1      36.816  45.062  21.197 +0.08 +0.01    +0.160 HD BRANCH   2   4ATOM      4  C   UNL     1      38.696  44.309  21.231 -0.32 +0.00    +0.034 A  ATOM      5  C   UNL     1      41.459  44.622  21.760 -0.27 +0.00    +0.023 A  ATOM      6  C   UNL     1      40.606  44.102  22.736 -0.22 +0.00    +0.014 A  ATOM      7  C   UNL     1      40.928  45.039  20.539 -0.35 +0.00    +0.014 A  ATOM      8  C   UNL     1      39.238  43.957  22.473 -0.26 +0.00    +0.026 A  ATOM      9  C   UNL     1      39.559  44.886  20.288 -0.35 +0.00    +0.026 A  BRANCH   5  10ATOM     10  C   UNL     1      42.894  44.790  22.093 -0.19 +0.05    +0.199 C  ATOM     11  O   UNL     1      43.632  43.804  22.079 -0.21 -0.07    -0.288 OA BRANCH  10  12ATOM     12  C   UNL     1      43.487  46.084  22.499 -0.18 +0.03    +0.104 A  ATOM     13  C   UNL     1      43.278  48.393  23.257 -0.27 +0.04    +0.155 A  ATOM     14  C   UNL     1      44.669  48.510  23.273 -0.13 +0.02    +0.053 A  ATOM     15  C   UNL     1      42.698  47.177  22.861 -0.19 +0.03    +0.179 A  ATOM     16  C   UNL     1      45.467  47.433  22.881 -0.22 +0.03    +0.051 A  ATOM     17  C   UNL     1      44.878  46.235  22.483 -0.15 +0.09    +0.130 A  ATOM     18  F   UNL     1      41.360  47.091  22.809 -0.05 -0.02    -0.202 F  BRANCH  13  19ATOM     19  O   UNL     1      42.395  49.381  23.601 -0.79 -0.20    -0.494 OA ATOM     20  C   UNL     1      41.739  49.262  24.858 -0.24 +0.06    +0.278 C  ENDBRANCH  13  19BRANCH  17  21ATOM     21  O   UNL     1      45.731  45.242  22.083 -0.19 -0.63    -0.507 OA ATOM     22  H   UNL     1      45.330  44.379  22.338 +0.09 +0.19    +0.293 HD ENDBRANCH  17  21ENDBRANCH  10  12ENDBRANCH   5  10ENDBRANCH   2   4ENDBRANCH   1   2BRANCH   1  23ATOM     23  C   UNL     1      35.715  44.428  19.041 -0.41 -0.01    +0.032 C  BRANCH  23  24ATOM     24  C   UNL     1      34.366  43.688  19.144 -0.44 -0.00    +0.009 CG0ATOM     25  G   UNL     1      33.929  42.795  17.983 +0.00 +0.00    +0.000 G0 ENDBRANCH  23  24BRANCH  23  26ATOM     26  C   UNL     1      36.138  44.841  17.613 -0.31 -0.04    +0.101 C  BRANCH  26  27ATOM     27  C   UNL     1      36.269  43.613  16.681 -0.36 -0.03    +0.106 C  BRANCH  27  28ATOM     28  N   UNL     1      35.085  43.323  15.863 -0.19 +0.13    -0.315 NA ATOM     29  H   UNL     1      35.067  44.003  15.099 +0.08 -0.05    +0.122 HD BRANCH  28  30ATOM     30  C   UNL     1      33.831  43.450  16.607 -0.35 -0.04    +0.081 C  BRANCH  30  31ATOM     31  C   UNL     1      33.918  42.797  17.981 -0.41 -0.00    +0.016 CG0ATOM     32  G   UNL     1      34.357  43.693  19.140 +0.00 +0.00    +0.000 G0 ENDBRANCH  30  31ENDBRANCH  28  30ENDBRANCH  27  28ENDBRANCH  26  27BRANCH  26  33ATOM     33  N   UNL     1      37.378  45.612  17.581 -0.14 +0.11    -0.348 N  ATOM     34  C   UNL     1      37.727  46.439  16.541 -0.26 -0.11    +0.251 C  ATOM     35  H   UNL     1      38.027  45.404  18.331 +0.10 -0.03    +0.164 HD ATOM     36  O   UNL     1      37.026  46.594  15.547 -0.23 +0.16    -0.269 OA BRANCH  34  37ATOM     37  C   UNL     1      39.031  47.144  16.651 -0.41 -0.01    +0.042 A  ATOM     38  C   UNL     1      39.304  48.165  15.739 -0.49 -0.01    +0.034 A  ATOM     39  C   UNL     1      39.966  46.841  17.642 -0.45 -0.01    +0.034 A  ATOM     40  C   UNL     1      40.514  48.826  15.842 -0.51 -0.03    +0.112 A  ATOM     41  C   UNL     1      41.146  47.563  17.660 -0.43 -0.01    +0.112 A  ATOM     42  N   UNL     1      41.443  48.542  16.781 -0.82 +0.00    -0.265 NA ENDBRANCH  34  37ENDBRANCH  26  33ENDBRANCH  23  26ENDBRANCH   1  23TORSDOF 9TERENDMDL