MODEL        5USER    Run = 5USERUSER    Estimated Free Energy of Binding    =  -7.50 kcal/mol  [=(1)+(2)+(3)-(4)]USERUSER    (1) Final Intermolecular Energy     = -11.98 kcal/molUSER        vdW + Hbond + desolv Energy     = -13.15 kcal/molUSER        Electrostatic Energy            =  -0.21 kcal/molUSER        Moving Ligand-Fixed Receptor    = -13.36 kcal/molUSER        Moving Ligand-Moving Receptor   =  +1.38 kcal/molUSER    (2) Final Total Internal Energy     =  -3.52 kcal/molUSER    (3) Torsional Free Energy           =  +4.47 kcal/molUSER    (4) Unbound System's Energy         =  -3.52 kcal/molUSERUSERREMARK SMILES COc1ccc(O)c(C(=O)c2ccc(C(=O)O[C@@H]3CCCNC[C@H]3NC(=O)c3ccncc3)cc2)c1FREMARK SMILES IDX 17 1 15 2 16 3 14 4 11 5 12 6 35 7 13 8 34 9 9 10 10 11 8 12REMARK SMILES IDX 3 13 4 14 36 15 5 16 6 17 37 18 2 19 1 20 7 21 18 23 24 25REMARK SMILES IDX 23 26 22 27 21 29 20 30 19 31 25 33 26 34 27 36 28 37 29 38REMARK SMILES IDX 33 39 30 40 32 41 31 42REMARK H PARENT 7 22 22 28 25 35REMARK Flexibility Score:   99.900USER                              x       y       z     vdW  Elec       q    TypeUSER                           _______ _______ _______ _____ _____    ______ ____ROOTATOM      1  O   UNL     1      38.200  44.895  15.968 -0.05 +0.12    -0.457 OA ENDROOTBRANCH   1   2ATOM      2  C   UNL     1      37.789  44.544  17.213 -0.17 -0.08    +0.338 C  ATOM      3  O   UNL     1      38.474  44.502  18.226 -0.27 +0.03    -0.246 OA BRANCH   2   4ATOM      4  C   UNL     1      36.335  44.251  17.194 -0.29 -0.02    +0.060 A  ATOM      5  C   UNL     1      33.576  43.733  17.230 -0.30 -0.01    +0.023 A  ATOM      6  C   UNL     1      34.397  43.109  16.282 -0.37 -0.01    +0.013 A  ATOM      7  C   UNL     1      34.143  44.614  18.162 -0.35 -0.00    +0.013 A  ATOM      8  C   UNL     1      35.772  43.367  16.264 -0.42 -0.01    +0.016 A  ATOM      9  C   UNL     1      35.518  44.865  18.152 -0.33 -0.01    +0.016 A  BRANCH   5  10ATOM     10  C   UNL     1      32.104  43.514  17.275 -0.23 -0.06    +0.199 C  ATOM     11  O   UNL     1      31.322  44.440  17.086 -0.43 +0.05    -0.288 OA BRANCH  10  12ATOM     12  C   UNL     1      31.554  42.182  17.551 -0.24 -0.03    +0.104 A  ATOM     13  C   UNL     1      31.538  40.197  18.945 -0.28 +0.01    +0.155 A  ATOM     14  C   UNL     1      30.588  39.623  18.090 -0.34 +0.00    +0.053 A  ATOM     15  C   UNL     1      32.020  41.480  18.660 -0.24 -0.01    +0.179 A  ATOM     16  C   UNL     1      30.108  40.335  16.983 -0.33 -0.00    +0.051 A  ATOM     17  C   UNL     1      30.586  41.618  16.720 -0.24 -0.04    +0.130 A  ATOM     18  F   UNL     1      32.906  42.054  19.490 -0.10 -0.01    -0.202 F  BRANCH  13  19ATOM     19  O   UNL     1      32.038  39.617  20.080 -0.89 -0.17    -0.494 OA ATOM     20  C   UNL     1      31.721  38.250  20.310 -0.32 +0.06    +0.278 C  ENDBRANCH  13  19BRANCH  17  21ATOM     21  O   UNL     1      30.106  42.326  15.656 -0.10 +0.27    -0.507 OA ATOM     22  H   UNL     1      30.223  43.277  15.809 +0.18 -0.15    +0.293 HD ENDBRANCH  17  21ENDBRANCH  10  12ENDBRANCH   5  10ENDBRANCH   2   4ENDBRANCH   1   2BRANCH   1  23ATOM     23  C   UNL     1      37.888  46.246  15.537 -0.30 -0.08    +0.200 CG0ATOM     24  G   UNL     1      37.178  46.133  14.188 +0.00 +0.00    +0.000 G0 BRANCH  23  25ATOM     25  C   UNL     1      39.217  47.026  15.493 -0.43 -0.04    +0.137 C  BRANCH  25  26ATOM     26  C   UNL     1      39.059  48.556  15.374 -0.51 -0.05    +0.109 C  BRANCH  26  27ATOM     27  N   UNL     1      37.699  48.999  15.061 -0.28 +0.26    -0.315 NA ATOM     28  H   UNL     1      37.651  50.008  15.205 -0.46 -0.12    +0.122 HD BRANCH  27  29ATOM     29  C   UNL     1      37.221  48.698  13.708 -0.48 -0.04    +0.081 C  BRANCH  29  30ATOM     30  C   UNL     1      37.404  47.270  13.178 -0.62 -0.01    +0.019 C  BRANCH  30  31ATOM     31  C   UNL     1      37.170  46.132  14.179 -0.45 -0.02    +0.049 CG0ATOM     32  G   UNL     1      37.890  46.252  15.522 +0.00 +0.00    +0.000 G0 ENDBRANCH  30  31ENDBRANCH  29  30ENDBRANCH  27  29ENDBRANCH  26  27ENDBRANCH  25  26BRANCH  25  33ATOM     33  N   UNL     1      40.012  46.691  16.681 -0.22 +0.06    -0.344 N  ATOM     34  C   UNL     1      41.049  47.478  17.118 -0.35 -0.03    +0.251 C  ATOM     35  H   UNL     1      39.581  46.047  17.331 +0.11 -0.03    +0.164 HD ATOM     36  O   UNL     1      41.431  48.488  16.540 -0.89 +0.01    -0.269 OA BRANCH  34  37ATOM     37  C   UNL     1      41.705  47.046  18.374 -0.50 -0.00    +0.042 A  ATOM     38  C   UNL     1      41.133  46.005  19.102 -0.45 +0.00    +0.034 A  ATOM     39  C   UNL     1      42.848  47.685  18.852 -0.48 +0.00    +0.034 A  ATOM     40  C   UNL     1      41.751  45.624  20.279 -0.29 +0.02    +0.112 A  ATOM     41  C   UNL     1      43.385  47.232  20.043 -0.26 +0.04    +0.112 A  ATOM     42  N   UNL     1      42.866  46.212  20.762 -0.18 -0.09    -0.265 NA ENDBRANCH  34  37ENDBRANCH  25  33ENDBRANCH  23  25ENDBRANCH   1  23TORSDOF 9TERENDMDL