MODEL        5USER    Run = 5USERUSER    Estimated Free Energy of Binding    = -12.98 kcal/mol  [=(1)+(2)+(3)-(4)]USERUSER    (1) Final Intermolecular Energy     = -14.77 kcal/molUSER        vdW + Hbond + desolv Energy     = -14.70 kcal/molUSER        Electrostatic Energy            =  -0.08 kcal/molUSER        Moving Ligand-Fixed Receptor    = -14.77 kcal/molUSER        Moving Ligand-Moving Receptor   =  +0.00 kcal/molUSER    (2) Final Total Internal Energy     =  -1.81 kcal/molUSER    (3) Torsional Free Energy           =  +1.79 kcal/molUSER    (4) Unbound System's Energy         =  -1.81 kcal/molUSERUSERREMARK SMILES Oc1nc2ccccc2n1C1CCN(Cc2ccc(-c3nc4ccccc4nc3-c3ccccc3)cc2)CC1REMARK SMILES IDX 11 1 12 2 13 3 14 4 38 5 39 6 10 7 2 8 3 9 4 10 9 11 5 12REMARK SMILES IDX 8 13 6 14 7 15 1 16 15 18 16 19 17 20 37 21 18 22 36 23REMARK SMILES IDX 19 24 20 25 21 26 29 27 22 28 28 29 23 30 27 31 24 32 26 33REMARK SMILES IDX 25 34 30 35 31 36 35 37 32 38 34 39 33 40REMARK H PARENT 1 17USER                              x       y       z     vdW  Elec       q    TypeUSER                           _______ _______ _______ _____ _____    ______ ____ROOTATOM      1  C   UNL     1      38.976  47.434  15.459 -0.48 -0.03    +0.095 C  ATOM      2  C   UNL     1      37.833  46.904  16.340 -0.42 -0.02    +0.041 C  ATOM      3  C   UNL     1      36.462  47.308  15.799 -0.32 -0.09    +0.087 C  ATOM      4  N   UNL     1      36.330  47.153  14.347 -0.22 +0.22    -0.299 NA ATOM      5  C   UNL     1      37.355  47.896  13.597 -0.56 -0.04    +0.087 C  ATOM      6  C   UNL     1      38.484  48.481  14.452 -0.55 -0.02    +0.041 C  ENDROOTBRANCH   1   7ATOM      7  N   UNL     1      40.118  47.888  16.237 -0.30 +0.07    -0.291 N  ATOM      8  C   UNL     1      40.817  49.049  16.054 -0.34 -0.05    +0.295 A  ATOM      9  N   UNL     1      41.793  49.207  16.905 -0.87 -0.04    -0.195 NA ATOM     10  C   UNL     1      41.729  48.091  17.705 -0.35 -0.00    +0.092 A  ATOM     11  C   UNL     1      40.687  47.245  17.318 -0.47 -0.01    +0.072 A  ATOM     12  C   UNL     1      42.536  47.736  18.797 -0.50 +0.00    +0.031 A  ATOM     13  C   UNL     1      40.407  46.044  17.984 -0.46 -0.00    +0.029 A  ATOM     14  C   UNL     1      42.272  46.539  19.474 -0.45 +0.00    +0.002 A  ATOM     15  C   UNL     1      41.224  45.710  19.072 -0.46 +0.00    +0.002 A  BRANCH   8  16ATOM     16  O   UNL     1      40.553  49.947  15.127 -0.22 +0.21    -0.480 OA ATOM     17  H   UNL     1      39.788  50.407  15.519 -0.20 -0.22    +0.296 HD ENDBRANCH   8  16ENDBRANCH   1   7BRANCH   4  18ATOM     18  C   UNL     1      36.240  45.752  13.899 -0.42 -0.06    +0.120 C  BRANCH  18  19ATOM     19  C   UNL     1      35.537  44.839  14.880 -0.22 +0.02    -0.034 A  ATOM     20  C   UNL     1      34.245  45.132  15.329 -0.30 -0.00    +0.006 A  ATOM     21  C   UNL     1      36.176  43.692  15.366 -0.39 -0.00    +0.006 A  ATOM     22  C   UNL     1      33.599  44.281  16.233 -0.32 -0.01    +0.011 A  ATOM     23  C   UNL     1      35.529  42.843  16.268 -0.45 -0.00    +0.011 A  ATOM     24  C   UNL     1      34.222  43.113  16.705 -0.38 -0.00    +0.002 A  BRANCH  24  25ATOM     25  C   UNL     1      33.518  42.221  17.641 -0.32 -0.03    +0.097 A  ATOM     26  N   UNL     1      32.425  41.609  17.100 -0.04 +0.12    -0.244 NA ATOM     27  C   UNL     1      33.885  42.003  18.979 -0.31 -0.01    +0.097 A  ATOM     28  C   UNL     1      31.694  40.819  17.907 -0.32 -0.02    +0.089 A  ATOM     29  N   UNL     1      33.130  41.210  19.793 -0.07 -0.06    -0.244 NA ATOM     30  C   UNL     1      30.565  40.184  17.402 -0.34 -0.00    +0.030 A  ATOM     31  C   UNL     1      32.047  40.621  19.259 -0.30 +0.01    +0.089 A  ATOM     32  C   UNL     1      29.776  39.359  18.205 -0.34 +0.00    +0.002 A  ATOM     33  C   UNL     1      31.255  39.798  20.051 -0.29 +0.00    +0.030 A  ATOM     34  C   UNL     1      30.123  39.165  19.536 -0.32 +0.00    +0.002 A  BRANCH  27  35ATOM     35  C   UNL     1      35.083  42.560  19.634 -0.44 -0.00    +0.002 A  ATOM     36  C   UNL     1      35.501  43.873  19.352 -0.38 -0.00    +0.010 A  ATOM     37  C   UNL     1      35.827  41.826  20.575 -0.42 -0.00    +0.010 A  ATOM     38  C   UNL     1      36.631  44.423  19.964 -0.34 -0.00    +0.001 A  ATOM     39  C   UNL     1      36.960  42.372  21.186 -0.45 +0.00    +0.001 A  ATOM     40  C   UNL     1      37.363  43.669  20.878 -0.39 +0.00    +0.000 A  ENDBRANCH  27  35ENDBRANCH  24  25ENDBRANCH  18  19ENDBRANCH   4  18TORSDOF 6TERENDMDL