MODEL        4USER    Run = 4USERUSER    Estimated Free Energy of Binding    =  -6.32 kcal/mol  [=(1)+(2)+(3)-(4)]USERUSER    (1) Final Intermolecular Energy     = -10.80 kcal/molUSER        vdW + Hbond + desolv Energy     = -11.39 kcal/molUSER        Electrostatic Energy            =  -0.17 kcal/molUSER        Moving Ligand-Fixed Receptor    = -11.56 kcal/molUSER        Moving Ligand-Moving Receptor   =  +0.77 kcal/molUSER    (2) Final Total Internal Energy     =  -3.39 kcal/molUSER    (3) Torsional Free Energy           =  +4.47 kcal/molUSER    (4) Unbound System's Energy         =  -3.39 kcal/molUSERUSERREMARK SMILES COc1ccc(O)c(C(=O)c2ccc(CN[C@@H]3CCCNC[C@H]3NC(=O)c3ccncc3)cc2)c1FREMARK SMILES IDX 16 1 15 3 14 4 11 5 12 6 34 7 13 8 33 9 9 10 10 11 8 12 3 13REMARK SMILES IDX 4 14 35 15 5 16 6 17 36 18 2 19 1 20 7 21 17 23 18 24 23 26REMARK SMILES IDX 22 27 21 28 20 30 19 31 24 33 25 34 26 36 27 37 28 38 32 39REMARK SMILES IDX 29 40 31 41 30 42REMARK H PARENT 16 2 7 22 21 29 24 35REMARK Flexibility Score:   99.900USER                              x       y       z     vdW  Elec       q    TypeUSER                           _______ _______ _______ _____ _____    ______ ____ROOTATOM      1  N   UNL     1      38.852  46.734  15.932 -0.19 +0.10    -0.308 NA ATOM      2  H   UNL     1      38.431  46.789  16.861 +0.07 -0.05    +0.123 HD ENDROOTBRANCH   1   3ATOM      3  C   UNL     1      40.209  46.200  16.062 -0.37 -0.01    +0.117 C  BRANCH   3   4ATOM      4  C   UNL     1      40.738  46.230  17.476 -0.46 +0.00    -0.034 A  ATOM      5  C   UNL     1      41.721  46.262  20.111 -0.39 +0.00    +0.023 A  ATOM      6  C   UNL     1      41.026  45.144  19.637 -0.40 +0.00    +0.012 A  ATOM      7  C   UNL     1      41.900  47.371  19.277 -0.26 +0.00    +0.012 A  ATOM      8  C   UNL     1      40.546  45.128  18.324 -0.45 -0.00    +0.006 A  ATOM      9  C   UNL     1      41.418  47.352  17.966 -0.53 -0.00    +0.006 A  BRANCH   5  10ATOM     10  C   UNL     1      42.213  46.344  21.507 -0.25 +0.04    +0.199 C  ATOM     11  O   UNL     1      43.329  45.896  21.774 -0.18 -0.12    -0.288 OA BRANCH  10  12ATOM     12  C   UNL     1      41.456  46.995  22.598 -0.15 +0.01    +0.104 A  ATOM     13  C   UNL     1      39.509  47.149  24.058 -0.23 +0.02    +0.155 A  ATOM     14  C   UNL     1      40.058  48.279  24.666 -0.29 +0.01    +0.053 A  ATOM     15  C   UNL     1      40.220  46.511  23.030 -0.15 +0.02    +0.179 A  ATOM     16  C   UNL     1      41.312  48.752  24.265 -0.33 +0.01    +0.051 A  ATOM     17  C   UNL     1      42.010  48.103  23.250 -0.24 +0.02    +0.130 A  ATOM     18  F   UNL     1      39.700  45.402  22.480 -0.06 -0.01    -0.202 F  BRANCH  13  19ATOM     19  O   UNL     1      38.305  46.582  24.380 -0.33 -0.08    -0.494 OA ATOM     20  C   UNL     1      37.735  46.931  25.635 -0.23 +0.01    +0.278 C  ENDBRANCH  13  19BRANCH  17  21ATOM     21  O   UNL     1      43.246  48.608  22.943 -0.63 -0.13    -0.507 OA ATOM     22  H   UNL     1      43.679  47.980  22.319 -0.00 +0.06    +0.293 HD ENDBRANCH  17  21ENDBRANCH  10  12ENDBRANCH   5  10ENDBRANCH   3   4ENDBRANCH   1   3BRANCH   1  23ATOM     23  C   UNL     1      37.965  45.912  15.064 -0.39 -0.03    +0.077 C  BRANCH  23  24ATOM     24  C   UNL     1      38.015  46.519  13.656 -0.49 -0.01    +0.022 CG0ATOM     25  G   UNL     1      37.029  47.658  13.401 +0.00 +0.00    +0.000 G0 ENDBRANCH  23  24BRANCH  23  26ATOM     26  C   UNL     1      36.527  45.863  15.670 -0.34 -0.06    +0.113 C  BRANCH  26  27ATOM     27  C   UNL     1      35.474  45.426  14.621 -0.33 -0.07    +0.107 C  BRANCH  27  28ATOM     28  N   UNL     1      34.846  46.447  13.789 -0.23 +0.26    -0.315 NA ATOM     29  H   UNL     1      34.385  47.131  14.394 -0.06 -0.18    +0.122 HD BRANCH  28  30ATOM     30  C   UNL     1      35.693  47.165  12.848 -0.57 -0.05    +0.081 C  BRANCH  30  31ATOM     31  C   UNL     1      37.031  47.651  13.398 -0.65 -0.01    +0.017 CG0ATOM     32  G   UNL     1      38.017  46.512  13.656 +0.00 +0.00    +0.000 G0 ENDBRANCH  30  31ENDBRANCH  28  30ENDBRANCH  27  28ENDBRANCH  26  27BRANCH  26  33ATOM     33  N   UNL     1      36.504  44.928  16.812 -0.10 +0.14    -0.346 N  ATOM     34  C   UNL     1      37.057  45.263  18.029 -0.23 -0.07    +0.251 C  ATOM     35  H   UNL     1      35.990  44.066  16.698 +0.11 -0.06    +0.164 HD ATOM     36  O   UNL     1      37.680  46.300  18.221 -0.07 +0.07    -0.269 OA BRANCH  34  37ATOM     37  C   UNL     1      36.895  44.281  19.131 -0.34 -0.01    +0.042 A  ATOM     38  C   UNL     1      37.728  44.401  20.245 -0.35 -0.00    +0.034 A  ATOM     39  C   UNL     1      35.927  43.277  19.099 -0.35 -0.00    +0.034 A  ATOM     40  C   UNL     1      37.577  43.489  21.271 -0.30 +0.00    +0.112 A  ATOM     41  C   UNL     1      35.855  42.415  20.179 -0.38 -0.00    +0.112 A  ATOM     42  N   UNL     1      36.664  42.493  21.256 -0.27 -0.01    -0.265 NA ENDBRANCH  34  37ENDBRANCH  26  33ENDBRANCH  23  26ENDBRANCH   1  23TORSDOF 9TERENDMDL