MODEL        6USER    Run = 6USERUSER    Estimated Free Energy of Binding    =  -6.76 kcal/mol  [=(1)+(2)+(3)-(4)]USERUSER    (1) Final Intermolecular Energy     = -11.23 kcal/molUSER        vdW + Hbond + desolv Energy     = -11.69 kcal/molUSER        Electrostatic Energy            =  -0.20 kcal/molUSER        Moving Ligand-Fixed Receptor    = -11.89 kcal/molUSER        Moving Ligand-Moving Receptor   =  +0.66 kcal/molUSER    (2) Final Total Internal Energy     =  -3.23 kcal/molUSER    (3) Torsional Free Energy           =  +4.47 kcal/molUSER    (4) Unbound System's Energy         =  -3.23 kcal/molUSERUSERREMARK SMILES COc1ccc(O)c(C(=O)c2ccc(CO[C@@H]3CCCNC[C@@H]3NC(=O)c3ccncc3)cc2)c1FREMARK SMILES IDX 16 1 15 2 14 3 11 4 12 5 34 6 13 7 33 8 9 9 10 10 8 11 3 12REMARK SMILES IDX 4 13 35 14 5 15 6 16 36 17 2 18 1 19 7 20 17 22 18 23 23 25REMARK SMILES IDX 22 26 21 27 20 29 19 30 24 32 25 33 26 35 27 36 28 37 32 38REMARK SMILES IDX 29 39 31 40 30 41REMARK H PARENT 7 21 21 28 24 34REMARK Flexibility Score:   99.900USER                              x       y       z     vdW  Elec       q    TypeUSER                           _______ _______ _______ _____ _____    ______ ____ROOTATOM      1  O   UNL     1      38.006  46.996  16.113 -0.19 +0.18    -0.371 OA ENDROOTBRANCH   1   2ATOM      2  C   UNL     1      39.380  47.275  16.377 -0.39 -0.06    +0.196 C  BRANCH   2   3ATOM      3  C   UNL     1      39.753  46.616  17.680 -0.45 +0.00    -0.022 A  ATOM      4  C   UNL     1      40.421  45.401  20.124 -0.38 +0.00    +0.023 A  ATOM      5  C   UNL     1      39.151  45.209  19.571 -0.39 -0.00    +0.012 A  ATOM      6  C   UNL     1      41.366  46.172  19.439 -0.44 +0.00    +0.012 A  ATOM      7  C   UNL     1      38.819  45.819  18.360 -0.39 -0.00    +0.007 A  ATOM      8  C   UNL     1      41.032  46.781  18.228 -0.52 -0.00    +0.007 A  BRANCH   4   9ATOM      9  C   UNL     1      40.829  44.746  21.389 -0.24 +0.01    +0.199 C  ATOM     10  O   UNL     1      42.000  44.379  21.523 -0.19 -0.04    -0.288 OA BRANCH   9  11ATOM     11  C   UNL     1      39.888  44.447  22.489 -0.19 +0.00    +0.104 A  ATOM     12  C   UNL     1      38.243  45.143  24.148 -0.20 +0.01    +0.155 A  ATOM     13  C   UNL     1      38.102  43.816  24.562 -0.24 +0.00    +0.053 A  ATOM     14  C   UNL     1      39.143  45.446  23.117 -0.20 +0.01    +0.179 A  ATOM     15  C   UNL     1      38.867  42.812  23.964 -0.21 +0.00    +0.051 A  ATOM     16  C   UNL     1      39.763  43.129  22.945 -0.20 +0.01    +0.130 A  ATOM     17  F   UNL     1      39.296  46.729  22.752 -0.08 -0.02    -0.202 F  BRANCH  12  18ATOM     18  O   UNL     1      37.562  46.210  24.669 -0.56 -0.12    -0.494 OA ATOM     19  C   UNL     1      37.247  46.172  26.055 -0.23 -0.01    +0.278 C  ENDBRANCH  12  18BRANCH  16  20ATOM     20  O   UNL     1      40.495  42.091  22.434 -0.04 -0.04    -0.507 OA ATOM     21  H   UNL     1      41.376  42.444  22.171 +0.09 -0.00    +0.293 HD ENDBRANCH  16  20ENDBRANCH   9  11ENDBRANCH   4   9ENDBRANCH   2   3ENDBRANCH   1   2BRANCH   1  22ATOM     22  C   UNL     1      37.756  46.581  14.753 -0.37 -0.06    +0.142 C  BRANCH  22  23ATOM     23  C   UNL     1      36.794  47.640  14.195 -0.55 -0.02    +0.035 CG0ATOM     24  G   UNL     1      36.027  47.346  12.911 +0.00 +0.00    +0.000 G0 ENDBRANCH  22  23BRANCH  22  25ATOM     25  C   UNL     1      37.235  45.124  14.750 -0.36 -0.05    +0.125 C  BRANCH  25  26ATOM     26  C   UNL     1      36.556  44.780  13.401 -0.32 -0.04    +0.108 C  BRANCH  26  27ATOM     27  N   UNL     1      37.199  45.287  12.192 -0.23 +0.10    -0.315 NA ATOM     28  H   UNL     1      37.023  44.628  11.432 +0.08 -0.04    +0.122 HD BRANCH  27  29ATOM     29  C   UNL     1      36.794  46.632  11.809 -0.68 -0.03    +0.081 C  BRANCH  29  30ATOM     30  C   UNL     1      36.027  47.349  12.911 -0.68 -0.01    +0.018 CG0ATOM     31  G   UNL     1      36.804  47.640  14.190 +0.00 +0.00    +0.000 G0 ENDBRANCH  29  30ENDBRANCH  27  29ENDBRANCH  26  27ENDBRANCH  25  26BRANCH  25  32ATOM     32  N   UNL     1      36.402  44.855  15.931 -0.11 +0.15    -0.345 N  ATOM     33  C   UNL     1      36.093  43.565  16.311 -0.29 -0.09    +0.251 C  ATOM     34  H   UNL     1      36.515  45.521  16.685 +0.12 -0.08    +0.164 HD ATOM     35  O   UNL     1      36.386  42.574  15.656 -0.40 +0.09    -0.269 OA BRANCH  33  36ATOM     36  C   UNL     1      35.397  43.414  17.618 -0.31 -0.01    +0.042 A  ATOM     37  C   UNL     1      35.924  44.075  18.728 -0.33 -0.01    +0.034 A  ATOM     38  C   UNL     1      34.267  42.610  17.767 -0.37 -0.01    +0.034 A  ATOM     39  C   UNL     1      35.284  43.916  19.943 -0.32 -0.01    +0.112 A  ATOM     40  C   UNL     1      33.702  42.516  19.027 -0.32 -0.01    +0.112 A  ATOM     41  N   UNL     1      34.182  43.155  20.114 -0.60 -0.02    -0.265 NA ENDBRANCH  33  36ENDBRANCH  25  32ENDBRANCH  22  25ENDBRANCH   1  22TORSDOF 9TERENDMDL