MODEL        7USER    Run = 7USERUSER    Estimated Free Energy of Binding    =  -7.19 kcal/mol  [=(1)+(2)+(3)-(4)]USERUSER    (1) Final Intermolecular Energy     = -11.66 kcal/molUSER        vdW + Hbond + desolv Energy     = -11.67 kcal/molUSER        Electrostatic Energy            =  -0.19 kcal/molUSER        Moving Ligand-Fixed Receptor    = -11.86 kcal/molUSER        Moving Ligand-Moving Receptor   =  +0.19 kcal/molUSER    (2) Final Total Internal Energy     =  -2.76 kcal/molUSER    (3) Torsional Free Energy           =  +4.47 kcal/molUSER    (4) Unbound System's Energy         =  -2.76 kcal/molUSERUSERREMARK SMILES COc1ccc(O)c(C(=O)c2ccc(/C=C/[C@@H]3CCCNC[C@H]3NC(=O)c3ccncc3)cc2)c1FREMARK SMILES IDX 16 1 15 2 14 3 11 4 12 5 34 6 13 7 33 8 9 9 10 10 8 11 3 12REMARK SMILES IDX 4 13 35 14 5 15 6 16 36 17 2 18 1 19 7 20 17 22 18 23 23 25REMARK SMILES IDX 22 26 21 27 20 29 19 30 24 32 25 33 26 35 27 36 28 37 32 38REMARK SMILES IDX 29 39 31 40 30 41REMARK H PARENT 7 21 21 28 24 34REMARK Flexibility Score:   99.900USER                              x       y       z     vdW  Elec       q    TypeUSER                           _______ _______ _______ _____ _____    ______ ____ROOTATOM      1  C   UNL     1      39.492  45.810  18.945 -0.46 +0.00    -0.021 C  ENDROOTBRANCH   1   2ATOM      2  C   UNL     1      39.339  44.709  19.698 -0.43 -0.00    +0.004 C  BRANCH   2   3ATOM      3  C   UNL     1      38.766  44.727  21.049 -0.34 -0.00    -0.026 A  ATOM      4  C   UNL     1      37.663  44.678  23.630 -0.31 +0.00    +0.023 A  ATOM      5  C   UNL     1      37.244  43.747  22.675 -0.36 +0.00    +0.013 A  ATOM      6  C   UNL     1      38.658  45.606  23.313 -0.30 +0.00    +0.013 A  ATOM      7  C   UNL     1      37.800  43.772  21.391 -0.37 +0.00    +0.009 A  ATOM      8  C   UNL     1      39.200  45.634  22.026 -0.32 +0.00    +0.009 A  BRANCH   4   9ATOM      9  C   UNL     1      37.122  44.662  25.006 -0.25 +0.01    +0.199 C  ATOM     10  O   UNL     1      36.692  45.712  25.487 -0.72 -0.00    -0.288 OA BRANCH   9  11ATOM     11  C   UNL     1      37.121  43.450  25.856 -0.26 -0.01    +0.104 A  ATOM     12  C   UNL     1      38.225  41.471  26.757 -0.28 -0.01    +0.155 A  ATOM     13  C   UNL     1      37.072  41.161  27.480 -0.47 -0.01    +0.053 A  ATOM     14  C   UNL     1      38.237  42.616  25.946 -0.18 -0.01    +0.179 A  ATOM     15  C   UNL     1      35.940  41.974  27.374 -0.51 -0.02    +0.051 A  ATOM     16  C   UNL     1      35.962  43.100  26.558 -0.35 -0.02    +0.130 A  ATOM     17  F   UNL     1      39.338  42.882  25.225 -0.03 -0.00    -0.202 F  BRANCH  12  18ATOM     18  O   UNL     1      39.385  40.743  26.764 -0.08 +0.02    -0.494 OA ATOM     19  C   UNL     1      40.327  41.026  27.791 -0.17 -0.02    +0.278 C  ENDBRANCH  12  18BRANCH  16  20ATOM     20  O   UNL     1      34.800  43.823  26.489 -0.06 +0.07    -0.507 OA ATOM     21  H   UNL     1      35.042  44.769  26.364 -0.20 -0.14    +0.293 HD ENDBRANCH  16  20ENDBRANCH   9  11ENDBRANCH   4   9ENDBRANCH   2   3ENDBRANCH   1   2BRANCH   1  22ATOM     22  C   UNL     1      39.116  45.952  17.472 -0.46 -0.01    +0.035 C  BRANCH  22  23ATOM     23  C   UNL     1      40.310  46.627  16.770 -0.54 -0.00    +0.011 CG0ATOM     24  G   UNL     1      40.635  46.216  15.338 +0.00 +0.00    +0.000 G0 ENDBRANCH  22  23BRANCH  22  25ATOM     25  C   UNL     1      37.737  46.612  17.165 -0.26 -0.04    +0.103 C  BRANCH  25  26ATOM     26  C   UNL     1      37.434  46.600  15.639 -0.38 -0.06    +0.106 C  BRANCH  26  27ATOM     27  N   UNL     1      38.271  45.771  14.779 -0.17 +0.10    -0.315 NA ATOM     28  H   UNL     1      37.722  45.455  13.978 +0.09 -0.04    +0.122 HD BRANCH  27  29ATOM     29  C   UNL     1      39.509  46.391  14.334 -0.34 -0.01    +0.081 C  BRANCH  29  30ATOM     30  C   UNL     1      40.637  46.216  15.340 -0.37 -0.00    +0.016 CG0ATOM     31  G   UNL     1      40.310  46.626  16.771 +0.00 +0.00    +0.000 G0 ENDBRANCH  29  30ENDBRANCH  27  29ENDBRANCH  26  27ENDBRANCH  25  26BRANCH  25  32ATOM     32  N   UNL     1      36.645  45.915  17.861 -0.11 +0.14    -0.347 N  ATOM     33  C   UNL     1      36.331  44.602  17.590 -0.21 -0.08    +0.251 C  ATOM     34  H   UNL     1      36.251  46.360  18.680 +0.13 -0.05    +0.164 HD ATOM     35  O   UNL     1      36.921  43.921  16.761 -0.23 +0.08    -0.269 OA BRANCH  33  36ATOM     36  C   UNL     1      35.231  44.014  18.395 -0.30 -0.01    +0.042 A  ATOM     37  C   UNL     1      34.036  44.698  18.615 -0.37 -0.01    +0.034 A  ATOM     38  C   UNL     1      35.400  42.729  18.909 -0.38 -0.01    +0.034 A  ATOM     39  C   UNL     1      33.065  44.068  19.371 -0.37 -0.02    +0.112 A  ATOM     40  C   UNL     1      34.369  42.190  19.653 -0.26 +0.00    +0.112 A  ATOM     41  N   UNL     1      33.209  42.836  19.904 -0.67 -0.04    -0.265 NA ENDBRANCH  33  36ENDBRANCH  25  32ENDBRANCH  22  25ENDBRANCH   1  22TORSDOF 9TERENDMDL