MODEL        9USER    Run = 9USERUSER    Estimated Free Energy of Binding    = -12.33 kcal/mol  [=(1)+(2)+(3)-(4)]USERUSER    (1) Final Intermolecular Energy     = -14.12 kcal/molUSER        vdW + Hbond + desolv Energy     = -14.00 kcal/molUSER        Electrostatic Energy            =  -0.12 kcal/molUSER        Moving Ligand-Fixed Receptor    = -14.12 kcal/molUSER        Moving Ligand-Moving Receptor   =  +0.00 kcal/molUSER    (2) Final Total Internal Energy     =  -1.90 kcal/molUSER    (3) Torsional Free Energy           =  +1.79 kcal/molUSER    (4) Unbound System's Energy         =  -1.90 kcal/molUSERUSERREMARK SMILES Oc1nc2ccccc2n1C1CCN(Cc2ccc(-c3cc4ccccc4nc3-c3ccccc3)cc2)CC1REMARK SMILES IDX 11 1 12 2 13 3 14 4 38 5 39 6 10 7 2 8 3 9 4 10 9 11 5 12REMARK SMILES IDX 8 13 6 14 7 15 1 16 15 18 16 19 17 20 37 21 18 22 36 23REMARK SMILES IDX 19 24 20 25 21 26 29 27 22 28 28 29 23 30 27 31 24 32 26 33REMARK SMILES IDX 25 34 30 35 31 36 35 37 32 38 34 39 33 40REMARK H PARENT 1 17USER                              x       y       z     vdW  Elec       q    TypeUSER                           _______ _______ _______ _____ _____    ______ ____ROOTATOM      1  C   UNL     1      30.477  39.854  17.476 -0.34 +0.00    +0.095 C  ATOM      2  C   UNL     1      31.878  40.235  17.978 -0.46 -0.01    +0.041 C  ATOM      3  C   UNL     1      32.011  41.677  18.457 -0.35 -0.01    +0.087 C  ATOM      4  N   UNL     1      31.406  42.665  17.560 -0.10 +0.07    -0.299 NA ATOM      5  C   UNL     1      29.980  42.385  17.368 -0.24 -0.02    +0.087 C  ATOM      6  C   UNL     1      29.679  40.992  16.821 -0.37 -0.01    +0.041 C  ENDROOTBRANCH   1   7ATOM      7  N   UNL     1      29.707  39.038  18.413 -0.19 -0.06    -0.291 N  ATOM      8  C   UNL     1      30.144  37.827  18.895 -0.20 +0.11    +0.295 A  ATOM      9  N   UNL     1      29.297  37.246  19.696 -0.24 -0.05    -0.195 NA ATOM     10  C   UNL     1      28.242  38.116  19.758 -0.25 +0.01    +0.092 A  ATOM     11  C   UNL     1      28.465  39.257  18.974 -0.23 +0.01    +0.072 A  ATOM     12  C   UNL     1      27.045  37.983  20.482 -0.27 -0.01    +0.031 A  ATOM     13  C   UNL     1      27.515  40.283  18.907 -0.17 -0.00    +0.029 A  ATOM     14  C   UNL     1      26.093  39.001  20.412 -0.29 -0.00    +0.002 A  ATOM     15  C   UNL     1      26.328  40.133  19.637 -0.25 -0.00    +0.002 A  BRANCH   8  16ATOM     16  O   UNL     1      31.300  37.270  18.602 -0.76 -0.19    -0.480 OA ATOM     17  H   UNL     1      31.668  37.122  19.492 +0.23 +0.09    +0.296 HD ENDBRANCH   8  16ENDBRANCH   1   7BRANCH   4  18ATOM     18  C   UNL     1      32.160  42.813  16.304 -0.24 -0.06    +0.120 C  BRANCH  18  19ATOM     19  C   UNL     1      33.507  43.476  16.492 -0.32 +0.02    -0.034 A  ATOM     20  C   UNL     1      34.694  42.787  16.215 -0.39 -0.00    +0.006 A  ATOM     21  C   UNL     1      33.585  44.799  16.948 -0.32 -0.00    +0.006 A  ATOM     22  C   UNL     1      35.933  43.409  16.393 -0.41 -0.00    +0.009 A  ATOM     23  C   UNL     1      34.825  45.415  17.134 -0.34 -0.01    +0.009 A  ATOM     24  C   UNL     1      36.017  44.728  16.864 -0.31 +0.01    -0.016 A  BRANCH  24  25ATOM     25  C   UNL     1      37.321  45.381  17.052 -0.35 -0.00    +0.009 A  ATOM     26  C   UNL     1      38.003  45.210  18.265 -0.37 -0.00    +0.021 A  ATOM     27  C   UNL     1      37.959  46.151  16.066 -0.33 -0.03    +0.079 A  ATOM     28  C   UNL     1      39.268  45.777  18.466 -0.42 -0.00    +0.001 A  ATOM     29  N   UNL     1      39.197  46.697  16.243 -0.25 +0.07    -0.247 NA ATOM     30  C   UNL     1      39.970  45.615  19.673 -0.39 -0.00    +0.010 A  ATOM     31  C   UNL     1      39.831  46.517  17.412 -0.42 -0.01    +0.071 A  ATOM     32  C   UNL     1      41.230  46.187  19.839 -0.40 +0.00    +0.001 A  ATOM     33  C   UNL     1      41.088  47.077  17.601 -0.48 -0.00    +0.029 A  ATOM     34  C   UNL     1      41.792  46.920  18.799 -0.54 +0.00    +0.002 A  BRANCH  27  35ATOM     35  C   UNL     1      37.371  46.454  14.747 -0.41 -0.00    +0.001 A  ATOM     36  C   UNL     1      37.068  47.781  14.390 -0.51 -0.01    +0.010 A  ATOM     37  C   UNL     1      37.075  45.441  13.819 -0.44 -0.00    +0.010 A  ATOM     38  C   UNL     1      36.514  48.084  13.144 -0.61 -0.00    +0.001 A  ATOM     39  C   UNL     1      36.520  45.743  12.573 -0.58 -0.00    +0.001 A  ATOM     40  C   UNL     1      36.243  47.066  12.234 -0.69 -0.00    +0.000 A  ENDBRANCH  27  35ENDBRANCH  24  25ENDBRANCH  18  19ENDBRANCH   4  18TORSDOF 6TERENDMDL