MODEL        8USER    Run = 8USERUSER    Estimated Free Energy of Binding    =  -7.68 kcal/mol  [=(1)+(2)+(3)-(4)]USERUSER    (1) Final Intermolecular Energy     = -11.85 kcal/molUSER        vdW + Hbond + desolv Energy     = -12.09 kcal/molUSER        Electrostatic Energy            =  -0.44 kcal/molUSER        Moving Ligand-Fixed Receptor    = -12.53 kcal/molUSER        Moving Ligand-Moving Receptor   =  +0.68 kcal/molUSER    (2) Final Total Internal Energy     =  -3.16 kcal/molUSER    (3) Torsional Free Energy           =  +4.18 kcal/molUSER    (4) Unbound System's Energy         =  -3.16 kcal/molUSERUSERREMARK SMILES COc1ccc(O)c(C(=O)c2ccc(C(=O)N[C@@H]3CCCNC[C@H]3NC(=O)c3ccncc3)cc2)c1FREMARK SMILES IDX 15 1 16 2 17 3 14 5 11 6 12 7 35 8 13 9 34 10 9 11 10 12REMARK SMILES IDX 8 13 3 14 4 15 36 16 5 17 6 18 37 19 2 20 1 21 7 22 18 24REMARK SMILES IDX 19 25 24 27 23 28 22 29 21 31 20 32 25 34 26 35 27 37 28 38REMARK SMILES IDX 29 39 33 40 30 41 32 42 31 43REMARK H PARENT 17 4 7 23 22 30 25 36REMARK Flexibility Score:   88.900USER                              x       y       z     vdW  Elec       q    TypeUSER                           _______ _______ _______ _____ _____    ______ ____ROOTATOM      1  C   UNL     1      38.022  45.246  17.711 -0.26 -0.06    +0.251 C  ATOM      2  O   UNL     1      37.596  45.882  16.753 -0.23 +0.10    -0.269 OA ATOM      3  N   UNL     1      37.312  44.234  18.324 -0.11 +0.06    -0.347 N  ATOM      4  H   UNL     1      37.637  43.904  19.223 +0.11 -0.02    +0.164 HD ENDROOTBRANCH   1   5ATOM      5  C   UNL     1      39.335  45.596  18.321 -0.40 -0.00    +0.039 A  ATOM      6  C   UNL     1      41.767  46.388  19.469 -0.45 +0.00    +0.023 A  ATOM      7  C   UNL     1      41.158  47.188  18.496 -0.44 -0.00    +0.013 A  ATOM      8  C   UNL     1      41.161  45.191  19.867 -0.39 +0.00    +0.013 A  ATOM      9  C   UNL     1      39.952  46.786  17.916 -0.44 -0.00    +0.014 A  ATOM     10  C   UNL     1      39.951  44.789  19.286 -0.41 -0.00    +0.014 A  BRANCH   6  11ATOM     11  C   UNL     1      43.000  46.895  20.110 -0.33 +0.06    +0.199 C  ATOM     12  O   UNL     1      43.950  47.192  19.385 -0.24 -0.17    -0.288 OA BRANCH  11  13ATOM     13  C   UNL     1      43.148  47.112  21.568 -0.30 +0.03    +0.104 A  ATOM     14  C   UNL     1      42.232  47.230  23.828 -0.15 +0.02    +0.155 A  ATOM     15  C   UNL     1      43.502  47.527  24.329 -0.17 +0.01    +0.053 A  ATOM     16  C   UNL     1      42.068  47.022  22.447 -0.17 +0.03    +0.179 A  ATOM     17  C   UNL     1      44.597  47.594  23.462 -0.22 +0.01    +0.051 A  ATOM     18  C   UNL     1      44.420  47.374  22.098 -0.25 +0.06    +0.130 A  ATOM     19  F   UNL     1      40.848  46.701  21.988 -0.01 -0.02    -0.202 F  BRANCH  14  20ATOM     20  O   UNL     1      41.091  47.122  24.577 -0.01 -0.05    -0.494 OA ATOM     21  C   UNL     1      40.108  48.140  24.413 -0.23 +0.03    +0.278 C  ENDBRANCH  14  20BRANCH  18  22ATOM     22  O   UNL     1      45.554  47.428  21.331 -0.59 -0.71    -0.507 OA ATOM     23  H   UNL     1      45.415  48.127  20.648 -0.25 +0.20    +0.293 HD ENDBRANCH  18  22ENDBRANCH  11  13ENDBRANCH   6  11ENDBRANCH   1   5BRANCH   3  24ATOM     24  C   UNL     1      35.903  43.993  17.990 -0.30 -0.03    +0.106 C  BRANCH  24  25ATOM     25  C   UNL     1      35.205  43.287  19.160 -0.43 -0.00    +0.028 CG0ATOM     26  G   UNL     1      33.701  43.570  19.308 +0.00 +0.00    +0.000 G0 ENDBRANCH  24  25BRANCH  24  27ATOM     27  C   UNL     1      35.789  43.235  16.637 -0.39 -0.04    +0.118 C  BRANCH  27  28ATOM     28  C   UNL     1      34.384  42.669  16.322 -0.36 -0.05    +0.108 C  BRANCH  28  29ATOM     29  N   UNL     1      33.231  43.424  16.824 -0.11 +0.13    -0.315 NA ATOM     30  H   UNL     1      33.413  44.422  16.754 +0.09 -0.06    +0.122 HD BRANCH  29  31ATOM     31  C   UNL     1      32.787  43.098  18.175 -0.34 -0.02    +0.081 C  BRANCH  31  32ATOM     32  C   UNL     1      33.697  43.567  19.307 -0.46 -0.00    +0.017 CG0ATOM     33  G   UNL     1      35.201  43.286  19.153 +0.00 +0.00    +0.000 G0 ENDBRANCH  31  32ENDBRANCH  29  31ENDBRANCH  28  29ENDBRANCH  27  28BRANCH  27  34ATOM     34  N   UNL     1      36.274  44.082  15.540 -0.17 +0.13    -0.346 N  ATOM     35  C   UNL     1      35.464  45.019  14.941 -0.19 -0.14    +0.251 C  ATOM     36  H   UNL     1      37.273  44.158  15.426 +0.10 -0.05    +0.164 HD ATOM     37  O   UNL     1      34.276  45.157  15.203 -0.23 +0.19    -0.269 OA BRANCH  35  38ATOM     38  C   UNL     1      36.112  45.911  13.949 -0.42 -0.02    +0.042 A  ATOM     39  C   UNL     1      36.520  47.179  14.366 -0.43 -0.02    +0.034 A  ATOM     40  C   UNL     1      36.293  45.530  12.618 -0.47 -0.01    +0.034 A  ATOM     41  C   UNL     1      37.119  48.006  13.437 -0.48 -0.05    +0.112 A  ATOM     42  C   UNL     1      36.902  46.433  11.765 -0.55 -0.04    +0.112 A  ATOM     43  N   UNL     1      37.323  47.660  12.147 -0.98 +0.04    -0.265 NA ENDBRANCH  35  38ENDBRANCH  27  34ENDBRANCH  24  27ENDBRANCH   3  24TORSDOF 8TERENDMDL