MODEL        2USER    Run = 2USERUSER    Estimated Free Energy of Binding    = -14.81 kcal/mol  [=(1)+(2)+(3)-(4)]USERUSER    (1) Final Intermolecular Energy     = -16.90 kcal/molUSER        vdW + Hbond + desolv Energy     = -16.75 kcal/molUSER        Electrostatic Energy            =  -0.15 kcal/molUSER        Moving Ligand-Fixed Receptor    = -16.90 kcal/molUSER        Moving Ligand-Moving Receptor   =  +0.00 kcal/molUSER    (2) Final Total Internal Energy     =  -3.07 kcal/molUSER    (3) Torsional Free Energy           =  +2.09 kcal/molUSER    (4) Unbound System's Energy         =  -3.07 kcal/molUSERUSERREMARK SMILES CN1CCN(c2ccc3nc(-c4ccc(CN5CCC(n6c(O)nc7ccccc76)CC5)cc4)c(-c4ccc(F)cc4)nc3c2)CC1REMARK SMILES IDX 16 1 15 2 12 3 13 4 34 5 14 6 33 7 11 8 6 9 7 10 45 11 8 12REMARK SMILES IDX 44 13 9 14 43 15 10 16 35 17 5 18 2 19 3 20 47 21 4 22 46 23REMARK SMILES IDX 1 24 36 25 37 26 42 27 38 28 41 29 39 30 40 31 17 32 18 33REMARK SMILES IDX 32 34 19 35 31 36 20 37 21 38 22 39 30 40 24 41 29 42 25 43REMARK SMILES IDX 28 44 26 45 27 46 23 47REMARK H PARENT 23 48USER                              x       y       z     vdW  Elec       q    TypeUSER                           _______ _______ _______ _____ _____    ______ ____ROOTATOM      1  C   UNL     1      35.841  46.291  13.908 -0.44 -0.08    +0.120 C  ENDROOTBRANCH   1   2ATOM      2  C   UNL     1      35.922  45.659  15.282 -0.34 +0.02    -0.034 A  ATOM      3  C   UNL     1      36.071  44.463  17.852 -0.32 -0.00    +0.002 A  ATOM      4  C   UNL     1      36.763  43.919  16.757 -0.33 -0.00    +0.011 A  ATOM      5  C   UNL     1      35.320  45.632  17.633 -0.37 -0.01    +0.011 A  ATOM      6  C   UNL     1      36.680  44.500  15.487 -0.37 -0.00    +0.006 A  ATOM      7  C   UNL     1      35.242  46.221  16.368 -0.30 -0.01    +0.006 A  BRANCH   3   8ATOM      8  C   UNL     1      36.136  43.865  19.199 -0.31 -0.01    +0.097 A  ATOM      9  C   UNL     1      37.804  42.610  23.726 -0.33 +0.00    +0.039 A  ATOM     10  C   UNL     1      38.716  43.510  23.162 -0.26 +0.00    +0.028 A  ATOM     11  C   UNL     1      36.678  42.287  22.954 -0.42 +0.00    +0.056 A  ATOM     12  C   UNL     1      38.517  44.042  21.885 -0.31 +0.00    +0.033 A  ATOM     13  C   UNL     1      36.466  42.805  21.678 -0.36 +0.01    +0.092 A  ATOM     14  C   UNL     1      37.405  43.702  21.133 -0.33 +0.00    +0.090 A  ATOM     15  N   UNL     1      35.367  42.447  20.988 -0.27 -0.02    -0.244 NA ATOM     16  N   UNL     1      37.244  44.229  19.907 -0.22 +0.02    -0.244 NA ATOM     17  C   UNL     1      35.188  42.989  19.749 -0.37 -0.01    +0.097 A  BRANCH   9  18ATOM     18  N   UNL     1      38.028  42.115  25.019 -0.09 -0.01    -0.369 N  ATOM     19  N   UNL     1      38.383  41.719  27.943 -0.22 +0.03    -0.303 NA ATOM     20  C   UNL     1      37.104  41.456  27.248 -0.49 -0.02    +0.105 C  ATOM     21  C   UNL     1      39.489  41.588  26.968 -0.29 -0.01    +0.105 C  ATOM     22  C   UNL     1      36.873  42.253  25.940 -0.37 -0.02    +0.132 C  ATOM     23  C   UNL     1      39.323  42.409  25.667 -0.16 +0.00    +0.132 C  ATOM     24  C   UNL     1      38.385  43.030  28.591 -0.24 -0.01    +0.105 C  ENDBRANCH   9  18BRANCH  17  25ATOM     25  C   UNL     1      33.927  42.578  19.103 -0.40 -0.00    +0.003 A  ATOM     26  C   UNL     1      33.897  41.444  18.268 -0.28 -0.00    +0.013 A  ATOM     27  C   UNL     1      32.722  43.276  19.311 -0.41 -0.00    +0.013 A  ATOM     28  C   UNL     1      32.715  41.038  17.642 -0.33 -0.01    +0.040 A  ATOM     29  C   UNL     1      31.540  42.872  18.683 -0.23 -0.00    +0.040 A  ATOM     30  C   UNL     1      31.549  41.759  17.854 -0.24 -0.03    +0.123 A  ATOM     31  F   UNL     1      30.415  41.373  17.253 -0.05 +0.04    -0.207 F  ENDBRANCH  17  25ENDBRANCH   3   8ENDBRANCH   1   2BRANCH   1  32ATOM     32  N   UNL     1      36.762  47.429  13.725 -0.31 +0.16    -0.299 NA ATOM     33  C   UNL     1      36.915  48.193  14.976 -0.45 -0.08    +0.087 C  ATOM     34  C   UNL     1      38.036  46.987  13.141 -0.44 -0.02    +0.087 C  ATOM     35  C   UNL     1      38.179  49.049  15.006 -0.26 -0.03    +0.041 C  ATOM     36  C   UNL     1      39.163  46.850  14.157 -0.42 -0.01    +0.041 C  ATOM     37  C   UNL     1      39.450  48.208  14.810 -0.53 -0.03    +0.095 C  BRANCH  37  38ATOM     38  N   UNL     1      40.257  48.082  16.020 -0.31 +0.07    -0.291 N  ATOM     39  C   UNL     1      41.237  48.935  16.447 -0.20 -0.01    +0.295 A  ATOM     40  C   UNL     1      40.171  47.073  16.960 -0.45 -0.01    +0.072 A  ATOM     41  N   UNL     1      41.785  48.574  17.574 -0.70 -0.01    -0.195 NA ATOM     42  C   UNL     1      39.375  45.926  17.080 -0.40 -0.01    +0.029 A  ATOM     43  C   UNL     1      41.135  47.413  17.911 -0.46 -0.01    +0.092 A  ATOM     44  C   UNL     1      39.578  45.117  18.204 -0.42 -0.00    +0.002 A  ATOM     45  C   UNL     1      41.323  46.589  19.032 -0.46 +0.00    +0.031 A  ATOM     46  C   UNL     1      40.535  45.440  19.166 -0.45 +0.00    +0.002 A  BRANCH  39  47ATOM     47  O   UNL     1      41.617  50.027  15.818 -0.78 +0.03    -0.480 OA ATOM     48  H   UNL     1      41.504  50.696  16.521 -0.28 -0.07    +0.296 HD ENDBRANCH  39  47ENDBRANCH  37  38ENDBRANCH   1  32TORSDOF 7TERENDMDL