REMARK SMILES O=C(N[C@H]1CN(C2CC2)CCC[C@H]1NC(=O)c1ccc(C(=O)c2c(O)ccc(O)c2F)cc1)c1cc(F)nc(N2CCOCC2)c1
REMARK SMILES IDX 13 1 4 3 3 4 2 5 1 6 34 8 35 9 46 10 36 11 39 12 38 13 37 14
REMARK SMILES IDX 40 15 41 16 45 17 42 18 44 19 43 20 5 21 6 22 7 23 8 24 9 25
REMARK SMILES IDX 10 26 11 27 12 28 14 30 15 31 16 33 17 34 18 35 33 36 19 37
REMARK SMILES IDX 32 38 20 39 21 40 22 41 23 42 24 43 30 44 26 45 28 46 27 47
REMARK SMILES IDX 31 48 25 49 29 51
REMARK H PARENT 3 7 14 32 25 50 29 52
REMARK Flexibility Score:  128.900
ROOT
ATOM      1  C   UNL     1      -0.676  -2.168   0.790  1.00  0.00     0.106 CG0
ATOM      2  G   UNL     1      -0.667  -1.830   2.287  1.00  0.00     0.000 G0
ENDROOT
BRANCH   1   3
ATOM      3  C   UNL     1       0.681  -2.078   0.062  1.00  0.00     0.118 C 
BRANCH   3   4
ATOM      4  N   UNL     1       1.380  -0.811   0.326  1.00  0.00    -0.346 N 
ATOM      5  C   UNL     1       2.265  -0.306  -0.607  1.00  0.00     0.251 C 
ATOM      6  O   UNL     1       2.361  -0.732  -1.752  1.00  0.00    -0.269 OA
ATOM      7  H   UNL     1       1.636  -0.672   1.295  1.00  0.00     0.164 HD
BRANCH   5   8
ATOM      8  C   UNL     1       3.162   0.781  -0.141  1.00  0.00     0.048 A 
ATOM      9  C   UNL     1       2.796   1.649   0.877  1.00  0.00     0.074 A 
ATOM     10  C   UNL     1       4.397   0.941  -0.774  1.00  0.00     0.061 A 
ATOM     11  C   UNL     1       3.701   2.629   1.214  1.00  0.00     0.215 A 
ATOM     12  C   UNL     1       5.270   1.941  -0.354  1.00  0.00     0.132 A 
ATOM     13  N   UNL     1       4.906   2.789   0.632  1.00  0.00    -0.202 NA
ATOM     14  F   UNL     1       3.368   3.491   2.187  1.00  0.00    -0.185 F 
BRANCH  12  15
ATOM     15  N   UNL     1       6.503   2.116  -0.967  1.00  0.00    -0.352 N 
ATOM     16  C   UNL     1       7.285   3.289  -0.538  1.00  0.00     0.146 C 
ATOM     17  C   UNL     1       7.303   0.937  -1.348  1.00  0.00     0.146 C 
ATOM     18  C   UNL     1       8.591   3.353  -1.347  1.00  0.00     0.181 C 
ATOM     19  C   UNL     1       8.723   1.031  -0.764  1.00  0.00     0.181 C 
ATOM     20  O   UNL     1       9.439   2.205  -1.171  1.00  0.00    -0.378 OA
ENDBRANCH  12  15
ENDBRANCH   5   8
ENDBRANCH   3   4
BRANCH   3  21
ATOM     21  C   UNL     1       1.590  -3.298   0.327  1.00  0.00     0.111 C 
BRANCH  21  22
ATOM     22  N   UNL     1       2.176  -3.374   1.683  1.00  0.00    -0.298 NA
BRANCH  22  23
ATOM     23  C   UNL     1       3.356  -4.278   1.673  1.00  0.00     0.056 C 
ATOM     24  C   UNL     1       4.089  -4.666   2.927  1.00  0.00     0.021 C 
ATOM     25  C   UNL     1       3.309  -5.699   2.159  1.00  0.00     0.021 C 
ENDBRANCH  22  23
BRANCH  22  26
ATOM     26  C   UNL     1       1.150  -3.646   2.700  1.00  0.00     0.085 C 
BRANCH  26  27
ATOM     27  C   UNL     1       0.471  -2.357   3.154  1.00  0.00     0.018 C 
BRANCH  27  28
ATOM     28  C   UNL     1      -0.667  -1.830   2.287  1.00  0.00     0.028 CG0
ATOM     29  G   UNL     1      -0.676  -2.168   0.790  1.00  0.00     0.000 G0
ENDBRANCH  27  28
ENDBRANCH  26  27
ENDBRANCH  22  26
ENDBRANCH  21  22
ENDBRANCH   3  21
ENDBRANCH   1   3
BRANCH   1  30
ATOM     30  N   UNL     1      -1.641  -1.286   0.118  1.00  0.00    -0.347 N 
ATOM     31  C   UNL     1      -2.999  -1.523   0.151  1.00  0.00     0.251 C 
ATOM     32  H   UNL     1      -1.302  -0.371  -0.150  1.00  0.00     0.164 HD
ATOM     33  O   UNL     1      -3.496  -2.509   0.686  1.00  0.00    -0.269 OA
BRANCH  31  34
ATOM     34  C   UNL     1      -3.873  -0.490  -0.473  1.00  0.00     0.039 A 
ATOM     35  C   UNL     1      -3.417   0.368  -1.481  1.00  0.00     0.014 A 
ATOM     36  C   UNL     1      -5.205  -0.398  -0.044  1.00  0.00     0.014 A 
ATOM     37  C   UNL     1      -4.279   1.325  -2.027  1.00  0.00     0.013 A 
ATOM     38  C   UNL     1      -6.068   0.556  -0.595  1.00  0.00     0.013 A 
ATOM     39  C   UNL     1      -5.606   1.431  -1.585  1.00  0.00     0.023 A 
BRANCH  39  40
ATOM     40  C   UNL     1      -6.470   2.475  -2.205  1.00  0.00     0.199 C 
ATOM     41  O   UNL     1      -6.043   3.190  -3.108  1.00  0.00    -0.288 OA
BRANCH  40  42
ATOM     42  C   UNL     1      -7.845   2.694  -1.742  1.00  0.00     0.104 A 
ATOM     43  C   UNL     1      -8.937   2.236  -2.485  1.00  0.00     0.130 A 
ATOM     44  C   UNL     1      -8.054   3.417  -0.571  1.00  0.00     0.179 A 
ATOM     45  C   UNL     1     -10.238   2.512  -2.063  1.00  0.00     0.051 A 
ATOM     46  C   UNL     1      -9.353   3.685  -0.144  1.00  0.00     0.152 A 
ATOM     47  C   UNL     1     -10.448   3.244  -0.890  1.00  0.00     0.053 A 
ATOM     48  F   UNL     1      -7.008   3.835   0.161  1.00  0.00    -0.202 F 
BRANCH  43  49
ATOM     49  O   UNL     1      -8.728   1.488  -3.607  1.00  0.00    -0.507 OA
ATOM     50  H   UNL     1      -9.566   1.362  -4.081  1.00  0.00     0.293 HD
ENDBRANCH  43  49
BRANCH  46  51
ATOM     51  O   UNL     1      -9.536   4.383   1.016  1.00  0.00    -0.505 OA
ATOM     52  H   UNL     1     -10.484   4.534   1.163  1.00  0.00     0.293 HD
ENDBRANCH  46  51
ENDBRANCH  40  42
ENDBRANCH  39  40
ENDBRANCH  31  34
ENDBRANCH   1  30
TORSDOF 10
