REMARK SMILES Cn1cc(-c2ccc(CNCc3ccc(-c4ncc(C#N)cc4-c4ccc(N5CCOCC5)cc4)cc3)cc2)cn1
REMARK SMILES IDX 10 1 9 3 8 4 5 5 6 6 39 7 7 8 38 9 4 10 2 11 3 12 41 13
REMARK SMILES IDX 40 14 1 15 11 16 12 17 13 18 37 19 14 20 36 21 15 22 16 23
REMARK SMILES IDX 17 24 23 25 18 26 22 27 19 28 24 29 25 30 35 31 26 32 34 33
REMARK SMILES IDX 27 34 28 35 29 36 33 37 30 38 32 39 31 40 20 41 21 42
REMARK H PARENT 10 2
ROOT
ATOM      1  N   UNL     1       2.307  -1.032  -1.300  1.00  0.00    -0.309 NA
ATOM      2  H   UNL     1       2.755  -1.788  -1.815  1.00  0.00     0.123 HD
ENDROOT
BRANCH   1   3
ATOM      3  C   UNL     1       3.249   0.083  -1.206  1.00  0.00     0.117 C 
BRANCH   3   4
ATOM      4  C   UNL     1       4.597  -0.396  -0.718  1.00  0.00    -0.034 A 
ATOM      5  C   UNL     1       7.117  -1.294   0.204  1.00  0.00    -0.015 A 
ATOM      6  C   UNL     1       6.067  -1.060   1.102  1.00  0.00     0.009 A 
ATOM      7  C   UNL     1       6.884  -1.089  -1.163  1.00  0.00     0.009 A 
ATOM      8  C   UNL     1       4.819  -0.620   0.646  1.00  0.00     0.006 A 
ATOM      9  C   UNL     1       5.638  -0.647  -1.621  1.00  0.00     0.006 A 
BRANCH   5  10
ATOM     10  C   UNL     1       8.414  -1.739   0.694  1.00  0.00     0.020 A 
ATOM     11  N   UNL     1      10.578  -2.107   0.850  1.00  0.00    -0.275 N 
ATOM     12  C   UNL     1       9.617  -1.577   0.036  1.00  0.00     0.117 A 
ATOM     13  N   UNL     1      10.091  -2.605   2.000  1.00  0.00    -0.181 NA
ATOM     14  C   UNL     1       8.778  -2.379   1.904  1.00  0.00     0.143 A 
ATOM     15  C   UNL     1      11.997  -2.155   0.598  1.00  0.00     0.173 C 
ENDBRANCH   5  10
ENDBRANCH   3   4
ENDBRANCH   1   3
BRANCH   1  16
ATOM     16  C   UNL     1       1.075  -0.657  -1.998  1.00  0.00     0.117 C 
BRANCH  16  17
ATOM     17  C   UNL     1       0.241   0.360  -1.256  1.00  0.00    -0.034 A 
ATOM     18  C   UNL     1      -0.385   0.024  -0.049  1.00  0.00     0.006 A 
ATOM     19  C   UNL     1       0.092   1.660  -1.753  1.00  0.00     0.006 A 
ATOM     20  C   UNL     1      -1.154   0.966   0.642  1.00  0.00     0.011 A 
ATOM     21  C   UNL     1      -0.673   2.601  -1.057  1.00  0.00     0.011 A 
ATOM     22  C   UNL     1      -1.319   2.268   0.145  1.00  0.00     0.001 A 
BRANCH  22  23
ATOM     23  C   UNL     1      -2.120   3.279   0.862  1.00  0.00     0.078 A 
ATOM     24  N   UNL     1      -1.411   4.398   1.191  1.00  0.00    -0.254 NA
ATOM     25  C   UNL     1      -3.485   3.129   1.179  1.00  0.00     0.009 A 
ATOM     26  C   UNL     1      -2.046   5.382   1.866  1.00  0.00     0.131 A 
ATOM     27  C   UNL     1      -4.099   4.184   1.881  1.00  0.00     0.032 A 
ATOM     28  C   UNL     1      -3.377   5.323   2.232  1.00  0.00     0.071 A 
BRANCH  25  29
ATOM     29  C   UNL     1      -4.301   1.970   0.782  1.00  0.00    -0.016 A 
ATOM     30  C   UNL     1      -4.528   1.669  -0.567  1.00  0.00     0.011 A 
ATOM     31  C   UNL     1      -4.911   1.152   1.742  1.00  0.00     0.011 A 
ATOM     32  C   UNL     1      -5.335   0.585  -0.944  1.00  0.00     0.026 A 
ATOM     33  C   UNL     1      -5.713   0.070   1.357  1.00  0.00     0.026 A 
ATOM     34  C   UNL     1      -5.939  -0.247   0.008  1.00  0.00     0.037 A 
BRANCH  34  35
ATOM     35  N   UNL     1      -6.771  -1.329  -0.320  1.00  0.00    -0.367 N 
ATOM     36  C   UNL     1      -6.287  -2.635   0.195  1.00  0.00     0.145 C 
ATOM     37  C   UNL     1      -7.254  -1.437  -1.715  1.00  0.00     0.145 C 
ATOM     38  C   UNL     1      -7.365  -3.714  -0.006  1.00  0.00     0.181 C 
ATOM     39  C   UNL     1      -8.302  -2.556  -1.826  1.00  0.00     0.181 C 
ATOM     40  O   UNL     1      -7.769  -3.814  -1.381  1.00  0.00    -0.378 OA
ENDBRANCH  34  35
ENDBRANCH  25  29
BRANCH  28  41
ATOM     41  C   UNL     1      -3.988   6.405   2.935  1.00  0.00     0.101 C 
ATOM     42  N   UNL     1      -4.485   7.284   3.505  1.00  0.00    -0.192 NA
ENDBRANCH  28  41
ENDBRANCH  22  23
ENDBRANCH  16  17
ENDBRANCH   1  16
TORSDOF 9
