MODEL        10USER    Run = 10USERUSER    Estimated Free Energy of Binding    = -13.05 kcal/mol  [=(1)+(2)+(3)-(4)]USERUSER    (1) Final Intermolecular Energy     = -15.73 kcal/molUSER        vdW + Hbond + desolv Energy     = -15.51 kcal/molUSER        Electrostatic Energy            =  -0.22 kcal/molUSER        Moving Ligand-Fixed Receptor    = -15.73 kcal/molUSER        Moving Ligand-Moving Receptor   =  +0.00 kcal/molUSER    (2) Final Total Internal Energy     =  -2.79 kcal/molUSER    (3) Torsional Free Energy           =  +2.68 kcal/molUSER    (4) Unbound System's Energy         =  -2.79 kcal/molUSERUSERREMARK SMILES Cn1cc(-c2ccc(CNCc3ccc(-c4ncc(C#N)cc4-c4ccc(N5CCOCC5)cc4)cc3)cc2)cn1REMARK SMILES IDX 10 1 9 3 8 4 5 5 6 6 39 7 7 8 38 9 4 10 2 11 3 12 41 13REMARK SMILES IDX 40 14 1 15 11 16 12 17 13 18 37 19 14 20 36 21 15 22 16 23REMARK SMILES IDX 17 24 23 25 18 26 22 27 19 28 24 29 25 30 35 31 26 32 34 33REMARK SMILES IDX 27 34 28 35 29 36 33 37 30 38 32 39 31 40 20 41 21 42REMARK H PARENT 10 2USER                              x       y       z     vdW  Elec       q    TypeUSER                           _______ _______ _______ _____ _____    ______ ____ROOTATOM      1  N   UNL     1      39.591  44.624  20.734 -0.15 -0.01    -0.309 NA ATOM      2  H   UNL     1      40.310  43.975  21.048 +0.07 +0.01    +0.123 HD ENDROOTBRANCH   1   3ATOM      3  C   UNL     1      39.278  44.325  19.337 -0.30 -0.00    +0.117 C  BRANCH   3   4ATOM      4  C   UNL     1      39.729  45.451  18.436 -0.42 +0.00    -0.034 A  ATOM      5  C   UNL     1      40.581  47.561  16.753 -0.52 +0.00    -0.015 A  ATOM      6  C   UNL     1      41.293  47.240  17.917 -0.52 -0.00    +0.009 A  ATOM      7  C   UNL     1      39.447  46.801  16.434 -0.46 -0.00    +0.009 A  ATOM      8  C   UNL     1      40.874  46.194  18.747 -0.48 -0.00    +0.006 A  ATOM      9  C   UNL     1      39.026  45.756  17.263 -0.40 -0.00    +0.006 A  BRANCH   5  10ATOM     10  C   UNL     1      41.021  48.660  15.906 -0.58 -0.00    +0.020 A  ATOM     11  N   UNL     1      41.713  49.811  14.162 -0.45 +0.05    -0.275 N  ATOM     12  C   UNL     1      41.406  48.548  14.585 -0.28 -0.01    +0.117 A  ATOM     13  N   UNL     1      41.553  50.748  15.113 -0.57 +0.05    -0.181 NA ATOM     14  C   UNL     1      41.131  50.048  16.170 -0.26 -0.03    +0.143 A  ATOM     15  C   UNL     1      42.150  50.202  12.845 -0.47 -0.05    +0.173 C  ENDBRANCH   5  10ENDBRANCH   3   4ENDBRANCH   1   3BRANCH   1  16ATOM     16  C   UNL     1      38.421  44.481  21.605 -0.33 +0.00    +0.117 C  BRANCH  16  17ATOM     17  C   UNL     1      37.219  43.882  20.915 -0.38 -0.00    -0.034 A  ATOM     18  C   UNL     1      36.939  42.515  21.032 -0.43 +0.00    +0.006 A  ATOM     19  C   UNL     1      36.356  44.684  20.160 -0.08 -0.00    +0.006 A  ATOM     20  C   UNL     1      35.823  41.958  20.398 -0.42 -0.00    +0.011 A  ATOM     21  C   UNL     1      35.238  44.126  19.532 -0.39 -0.00    +0.011 A  ATOM     22  C   UNL     1      34.959  42.752  19.629 -0.43 -0.00    +0.001 A  BRANCH  22  23ATOM     23  C   UNL     1      33.773  42.187  18.958 -0.35 -0.01    +0.078 A  ATOM     24  N   UNL     1      33.028  41.377  19.766 -0.16 -0.05    -0.254 NA ATOM     25  C   UNL     1      33.420  42.449  17.619 -0.37 -0.00    +0.009 A  ATOM     26  C   UNL     1      31.926  40.793  19.245 -0.25 +0.01    +0.131 A  ATOM     27  C   UNL     1      32.262  41.817  17.126 -0.14 -0.01    +0.032 A  ATOM     28  C   UNL     1      31.505  40.978  17.942 -0.31 -0.01    +0.071 A  BRANCH  25  29ATOM     29  C   UNL     1      34.157  43.369  16.737 -0.35 +0.01    -0.016 A  ATOM     30  C   UNL     1      33.584  44.568  16.296 -0.31 -0.01    +0.011 A  ATOM     31  C   UNL     1      35.442  43.055  16.277 -0.43 -0.00    +0.011 A  ATOM     32  C   UNL     1      34.274  45.427  15.427 -0.30 -0.02    +0.026 A  ATOM     33  C   UNL     1      36.125  43.919  15.412 -0.37 -0.01    +0.026 A  ATOM     34  C   UNL     1      35.565  45.129  14.972 -0.32 -0.02    +0.037 A  BRANCH  34  35ATOM     35  N   UNL     1      36.285  45.946  14.086 -0.15 +0.20    -0.367 N  ATOM     36  C   UNL     1      36.545  47.312  14.606 -0.39 -0.11    +0.145 C  ATOM     37  C   UNL     1      35.865  45.972  12.667 -0.46 -0.07    +0.145 C  ATOM     38  C   UNL     1      37.528  48.051  13.683 -0.46 -0.07    +0.181 C  ATOM     39  C   UNL     1      36.889  46.754  11.828 -0.59 -0.06    +0.181 C  ATOM     40  O   UNL     1      37.057  48.091  12.326 -0.93 +0.06    -0.378 OA ENDBRANCH  34  35ENDBRANCH  25  29BRANCH  28  41ATOM     41  C   UNL     1      30.324  40.338  17.460 -0.34 -0.01    +0.101 C  ATOM     42  N   UNL     1      29.364  39.817  17.070 -0.25 -0.03    -0.192 NA ENDBRANCH  28  41ENDBRANCH  22  23ENDBRANCH  16  17ENDBRANCH   1  16TORSDOF 9TERENDMDL