MODEL        10USER    Run = 10USERUSER    Estimated Free Energy of Binding    =  -7.80 kcal/mol  [=(1)+(2)+(3)-(4)]USERUSER    (1) Final Intermolecular Energy     = -12.57 kcal/molUSER        vdW + Hbond + desolv Energy     = -13.28 kcal/molUSER        Electrostatic Energy            =  -0.08 kcal/molUSER        Moving Ligand-Fixed Receptor    = -13.36 kcal/molUSER        Moving Ligand-Moving Receptor   =  +0.78 kcal/molUSER    (2) Final Total Internal Energy     =  -4.74 kcal/molUSER    (3) Torsional Free Energy           =  +4.77 kcal/molUSER    (4) Unbound System's Energy         =  -4.74 kcal/molUSERUSERREMARK SMILES O=C(N[C@H]1CN(C2CC2)CCC[C@H]1NC(=O)c1ccc(C(=O)c2c(O)ccc(O)c2F)cc1)c1cc(F)nc(N2CCOCC2)c1REMARK SMILES IDX 13 1 4 3 3 4 2 5 1 6 34 8 35 9 46 10 36 11 39 12 38 13 37 14REMARK SMILES IDX 40 15 41 16 45 17 42 18 44 19 43 20 5 21 6 22 7 23 8 24 9 25REMARK SMILES IDX 10 26 11 27 12 28 14 30 15 31 16 33 17 34 18 35 33 36 19 37REMARK SMILES IDX 32 38 20 39 21 40 22 41 23 42 24 43 30 44 26 45 28 46 27 47REMARK SMILES IDX 31 48 25 49 29 51REMARK H PARENT 3 7 14 32 25 50 29 52REMARK Flexibility Score:  128.900USER                              x       y       z     vdW  Elec       q    TypeUSER                           _______ _______ _______ _____ _____    ______ ____ROOTATOM      1  C   UNL     1      41.807  45.990  22.197 -0.24 +0.01    +0.106 CG0ATOM      2  G   UNL     1      42.820  44.842  22.082 +0.00 +0.00    +0.000 G0 ENDROOTBRANCH   1   3ATOM      3  C   UNL     1      40.510  45.680  22.971 -0.20 +0.01    +0.118 C  BRANCH   3   4ATOM      4  N   UNL     1      39.488  45.042  22.127 -0.11 -0.02    -0.346 N  ATOM      5  C   UNL     1      38.198  44.897  22.600 -0.24 +0.02    +0.251 C  ATOM      6  O   UNL     1      37.777  45.455  23.607 -0.35 -0.05    -0.269 OA ATOM      7  H   UNL     1      39.835  44.281  21.558 +0.10 +0.01    +0.164 HD BRANCH   5   8ATOM      8  C   UNL     1      37.321  43.969  21.843 -0.36 +0.00    +0.048 A  ATOM      9  C   UNL     1      36.952  42.731  22.347 -0.39 +0.01    +0.074 A  ATOM     10  C   UNL     1      36.883  44.356  20.573 -0.32 -0.00    +0.061 A  ATOM     11  C   UNL     1      36.149  41.948  21.549 -0.36 +0.01    +0.215 A  ATOM     12  C   UNL     1      36.048  43.517  19.840 -0.32 -0.01    +0.132 A  ATOM     13  N   UNL     1      35.699  42.309  20.332 -0.32 +0.00    -0.202 NA ATOM     14  F   UNL     1      35.787  40.740  22.007 -0.17 -0.01    -0.185 F  BRANCH  12  15ATOM     15  N   UNL     1      35.600  43.882  18.578 -0.10 +0.08    -0.352 N  ATOM     16  C   UNL     1      36.276  45.032  17.952 -0.29 -0.05    +0.146 C  ATOM     17  C   UNL     1      35.135  42.844  17.639 -0.34 -0.05    +0.146 C  ATOM     18  C   UNL     1      35.627  45.324  16.589 -0.27 -0.11    +0.181 C  ATOM     19  C   UNL     1      35.872  42.957  16.294 -0.38 -0.07    +0.181 C  ATOM     20  O   UNL     1      35.719  44.233  15.657 -0.16 +0.16    -0.378 OA ENDBRANCH  12  15ENDBRANCH   5   8ENDBRANCH   3   4BRANCH   3  21ATOM     21  C   UNL     1      40.758  44.881  24.270 -0.11 +0.00    +0.111 C  BRANCH  21  22ATOM     22  N   UNL     1      40.744  43.409  24.126 -0.08 -0.00    -0.298 NA BRANCH  22  23ATOM     23  C   UNL     1      40.213  42.786  25.366 -0.18 -0.00    +0.056 C  ATOM     24  C   UNL     1      39.494  43.575  26.425 -0.20 -0.00    +0.021 C  ATOM     25  C   UNL     1      38.748  42.554  25.609 -0.28 +0.00    +0.021 C  ENDBRANCH  22  23BRANCH  22  26ATOM     26  C   UNL     1      42.034  42.902  23.637 -0.23 -0.00    +0.085 C  BRANCH  26  27ATOM     27  C   UNL     1      42.322  43.401  22.224 -0.36 +0.00    +0.018 C  BRANCH  27  28ATOM     28  C   UNL     1      42.818  44.835  22.083 -0.27 +0.01    +0.028 CG0ATOM     29  G   UNL     1      41.805  45.984  22.191 +0.00 +0.00    +0.000 G0 ENDBRANCH  27  28ENDBRANCH  26  27ENDBRANCH  22  26ENDBRANCH  21  22ENDBRANCH   3  21ENDBRANCH   1   3BRANCH   1  30ATOM     30  N   UNL     1      41.461  46.445  20.843 -0.12 -0.04    -0.347 N  ATOM     31  C   UNL     1      41.059  45.570  19.855 -0.30 +0.02    +0.251 C  ATOM     32  H   UNL     1      41.284  47.435  20.733 +0.18 +0.01    +0.164 HD ATOM     33  O   UNL     1      41.018  44.354  20.011 -0.26 -0.02    -0.269 OA BRANCH  31  34ATOM     34  C   UNL     1      40.628  46.175  18.563 -0.46 -0.00    +0.039 A  ATOM     35  C   UNL     1      41.107  47.413  18.118 -0.49 -0.00    +0.014 A  ATOM     36  C   UNL     1      39.728  45.458  17.761 -0.40 -0.00    +0.014 A  ATOM     37  C   UNL     1      40.663  47.936  16.899 -0.53 -0.00    +0.013 A  ATOM     38  C   UNL     1      39.289  45.981  16.539 -0.38 -0.00    +0.013 A  ATOM     39  C   UNL     1      39.748  47.230  16.105 -0.48 -0.01    +0.023 A  BRANCH  39  40ATOM     40  C   UNL     1      39.312  47.846  14.820 -0.43 -0.06    +0.199 C  ATOM     41  O   UNL     1      39.936  48.783  14.328 -0.38 +0.10    -0.288 OA BRANCH  40  42ATOM     42  C   UNL     1      38.115  47.369  14.118 -0.41 -0.04    +0.104 A  ATOM     43  C   UNL     1      37.014  48.207  13.921 -0.45 -0.08    +0.130 A  ATOM     44  C   UNL     1      38.068  46.044  13.693 -0.23 -0.05    +0.179 A  ATOM     45  C   UNL     1      35.859  47.715  13.310 -0.32 -0.03    +0.051 A  ATOM     46  C   UNL     1      36.919  45.555  13.075 -0.39 -0.06    +0.152 A  ATOM     47  C   UNL     1      35.809  46.382  12.889 -0.53 -0.03    +0.053 A  ATOM     48  F   UNL     1      39.134  45.244  13.855 -0.01 +0.04    -0.202 F  BRANCH  43  49ATOM     49  O   UNL     1      37.082  49.517  14.296 -0.13 +0.42    -0.507 OA ATOM     50  H   UNL     1      38.010  49.787  14.387 -0.32 -0.29    +0.293 HD ENDBRANCH  43  49BRANCH  46  51ATOM     51  O   UNL     1      36.898  44.257  12.652 -0.15 +0.16    -0.505 OA ATOM     52  H   UNL     1      37.806  43.939  12.521 +0.26 -0.08    +0.293 HD ENDBRANCH  46  51ENDBRANCH  40  42ENDBRANCH  39  40ENDBRANCH  31  34ENDBRANCH   1  30TORSDOF 10TERENDMDL