REMARK SMILES CN1CCN(c2ccc3nc(-c4ccc(CN5CCC(n6c(O)nc7ccccc76)CC5)cc4)c(-c4ccc(F)cc4)nc3c2)CC1
REMARK SMILES IDX 16 1 15 2 12 3 13 4 34 5 14 6 33 7 11 8 6 9 7 10 45 11 8 12
REMARK SMILES IDX 44 13 9 14 43 15 10 16 35 17 5 18 2 19 3 20 47 21 4 22 46 23
REMARK SMILES IDX 1 24 36 25 37 26 42 27 38 28 41 29 39 30 40 31 17 32 18 33
REMARK SMILES IDX 32 34 19 35 31 36 20 37 21 38 22 39 30 40 24 41 29 42 25 43
REMARK SMILES IDX 28 44 26 45 27 46 23 47
REMARK H PARENT 23 48
ROOT
ATOM      1  C   UNL     1       3.601   0.148   2.541  1.00  0.00     0.120 C 
ENDROOT
BRANCH   1   2
ATOM      2  C   UNL     1       2.162   0.147   2.071  1.00  0.00    -0.034 A 
ATOM      3  C   UNL     1      -0.535   0.134   1.186  1.00  0.00     0.002 A 
ATOM      4  C   UNL     1      -0.021  -0.918   1.962  1.00  0.00     0.011 A 
ATOM      5  C   UNL     1       0.328   1.202   0.881  1.00  0.00     0.011 A 
ATOM      6  C   UNL     1       1.312  -0.919   2.388  1.00  0.00     0.006 A 
ATOM      7  C   UNL     1       1.657   1.210   1.313  1.00  0.00     0.006 A 
BRANCH   3   8
ATOM      8  C   UNL     1      -1.934   0.155   0.717  1.00  0.00     0.097 A 
ATOM      9  C   UNL     1      -6.612   1.674  -0.097  1.00  0.00     0.039 A 
ATOM     10  C   UNL     1      -5.919   2.718   0.528  1.00  0.00     0.028 A 
ATOM     11  C   UNL     1      -5.884   0.504  -0.360  1.00  0.00     0.056 A 
ATOM     12  C   UNL     1      -4.574   2.587   0.885  1.00  0.00     0.033 A 
ATOM     13  C   UNL     1      -4.544   0.355  -0.007  1.00  0.00     0.092 A 
ATOM     14  C   UNL     1      -3.876   1.419   0.628  1.00  0.00     0.090 A 
ATOM     15  N   UNL     1      -3.907  -0.799  -0.282  1.00  0.00    -0.244 NA
ATOM     16  N   UNL     1      -2.584   1.324   0.986  1.00  0.00    -0.244 NA
ATOM     17  C   UNL     1      -2.592  -0.899   0.065  1.00  0.00     0.097 A 
BRANCH   9  18
ATOM     18  N   UNL     1      -7.955   1.852  -0.459  1.00  0.00    -0.369 N 
ATOM     19  N   UNL     1     -10.903   1.692  -0.804  1.00  0.00    -0.303 NA
ATOM     20  C   UNL     1     -10.258   2.604   0.166  1.00  0.00     0.105 C 
ATOM     21  C   UNL     1      -9.943   1.400  -1.892  1.00  0.00     0.105 C 
ATOM     22  C   UNL     1      -8.861   2.167   0.674  1.00  0.00     0.132 C 
ATOM     23  C   UNL     1      -8.549   0.911  -1.431  1.00  0.00     0.132 C 
ATOM     24  C   UNL     1     -11.379   0.469  -0.160  1.00  0.00     0.105 C 
ENDBRANCH   9  18
BRANCH  17  25
ATOM     25  C   UNL     1      -1.974  -2.178  -0.332  1.00  0.00     0.003 A 
ATOM     26  C   UNL     1      -2.585  -3.398   0.019  1.00  0.00     0.013 A 
ATOM     27  C   UNL     1      -0.784  -2.229  -1.083  1.00  0.00     0.013 A 
ATOM     28  C   UNL     1      -2.016  -4.622  -0.342  1.00  0.00     0.040 A 
ATOM     29  C   UNL     1      -0.212  -3.453  -1.442  1.00  0.00     0.040 A 
ATOM     30  C   UNL     1      -0.833  -4.637  -1.067  1.00  0.00     0.123 A 
ATOM     31  F   UNL     1      -0.284  -5.809  -1.412  1.00  0.00    -0.207 F 
ENDBRANCH  17  25
ENDBRANCH   3   8
ENDBRANCH   1   2
BRANCH   1  32
ATOM     32  N   UNL     1       4.456  -0.823   1.832  1.00  0.00    -0.299 NA
ATOM     33  C   UNL     1       4.547  -0.501   0.397  1.00  0.00     0.087 C 
ATOM     34  C   UNL     1       5.762  -0.956   2.493  1.00  0.00     0.087 C 
ATOM     35  C   UNL     1       5.758  -1.132  -0.286  1.00  0.00     0.041 C 
ATOM     36  C   UNL     1       6.881  -0.184   1.804  1.00  0.00     0.041 C 
ATOM     37  C   UNL     1       7.079  -0.708   0.376  1.00  0.00     0.095 C 
BRANCH  37  38
ATOM     38  N   UNL     1       7.874   0.201  -0.443  1.00  0.00    -0.291 N 
ATOM     39  C   UNL     1       7.539   1.471  -0.823  1.00  0.00     0.295 A 
ATOM     40  C   UNL     1       9.119  -0.059  -0.982  1.00  0.00     0.072 A 
ATOM     41  N   UNL     1       8.452   2.054  -1.550  1.00  0.00    -0.195 NA
ATOM     42  C   UNL     1       9.976  -1.168  -0.951  1.00  0.00     0.029 A 
ATOM     43  C   UNL     1       9.447   1.116  -1.662  1.00  0.00     0.092 A 
ATOM     44  C   UNL     1      11.193  -1.060  -1.634  1.00  0.00     0.002 A 
ATOM     45  C   UNL     1      10.673   1.204  -2.340  1.00  0.00     0.031 A 
ATOM     46  C   UNL     1      11.539   0.105  -2.318  1.00  0.00     0.002 A 
BRANCH  39  47
ATOM     47  O   UNL     1       6.420   2.087  -0.504  1.00  0.00    -0.480 OA
ATOM     48  H   UNL     1       6.554   2.953  -0.934  1.00  0.00     0.296 HD
ENDBRANCH  39  47
ENDBRANCH  37  38
ENDBRANCH   1  32
TORSDOF 7
