MODEL        8USER    Run = 8USERUSER    Estimated Free Energy of Binding    =  -8.99 kcal/mol  [=(1)+(2)+(3)-(4)]USERUSER    (1) Final Intermolecular Energy     = -10.78 kcal/molUSER        vdW + Hbond + desolv Energy     = -10.25 kcal/molUSER        Electrostatic Energy            =  -0.52 kcal/molUSER        Moving Ligand-Fixed Receptor    = -10.78 kcal/molUSER        Moving Ligand-Moving Receptor   =  +0.00 kcal/molUSER    (2) Final Total Internal Energy     =  -1.47 kcal/molUSER    (3) Torsional Free Energy           =  +1.79 kcal/molUSER    (4) Unbound System's Energy         =  -1.47 kcal/molUSERUSERREMARK SMILES COc1ccc(O)c(C(=O)c2ccc(C(=O)N[C@@H]3CCCNC3)cc2C)c1FREMARK SMILES IDX 11 1 12 2 13 3 14 4 24 5 25 6 26 7 9 8 10 9 8 10 3 11 4 12REMARK SMILES IDX 27 13 5 14 6 15 28 16 2 17 1 18 7 19 15 21 17 22 16 23 18 25REMARK SMILES IDX 19 26 23 27 20 28 22 29 21 30REMARK H PARENT 7 20 17 24 22 31USER                              x       y       z     vdW  Elec       q    TypeUSER                           _______ _______ _______ _____ _____    ______ ____ROOTATOM      1  C   UNL     1      38.334  28.738  20.403 -0.23 +0.00    +0.026 A  ATOM      2  C   UNL     1      37.755  29.959  20.782 -0.36 +0.00    +0.013 A  ATOM      3  C   UNL     1      36.511  29.976  21.417 -0.37 -0.00    +0.014 A  ATOM      4  C   UNL     1      35.831  28.776  21.656 -0.35 -0.01    +0.040 A  ATOM      5  C   UNL     1      36.416  27.558  21.278 -0.28 -0.01    +0.018 A  ATOM      6  C   UNL     1      37.671  27.522  20.647 -0.14 +0.01    -0.039 A  ATOM      7  C   UNL     1      38.253  26.199  20.234 -0.08 -0.01    +0.045 C  ENDROOTBRANCH   1   8ATOM      8  C   UNL     1      39.633  28.763  19.696 -0.19 +0.08    +0.200 C  ATOM      9  O   UNL     1      40.666  28.663  20.359 -0.14 -0.31    -0.288 OA BRANCH   8  10ATOM     10  C   UNL     1      39.737  28.841  18.219 -0.23 +0.04    +0.104 A  ATOM     11  C   UNL     1      38.772  28.630  15.985 -0.24 +0.01    +0.155 A  ATOM     12  C   UNL     1      39.997  28.992  15.422 -0.32 -0.00    +0.053 A  ATOM     13  C   UNL     1      38.652  28.563  17.382 -0.17 +0.02    +0.179 A  ATOM     14  C   UNL     1      41.083  29.293  16.248 -0.23 +0.01    +0.051 A  ATOM     15  C   UNL     1      40.948  29.228  17.633 -0.26 +0.08    +0.130 A  ATOM     16  F   UNL     1      37.457  28.243  17.904 -0.06 +0.02    -0.202 F  BRANCH  11  17ATOM     17  O   UNL     1      37.637  28.324  15.283 -0.59 +0.02    -0.494 OA ATOM     18  C   UNL     1      37.338  26.947  15.094 -0.25 -0.09    +0.278 C  ENDBRANCH  11  17BRANCH  15  19ATOM     19  O   UNL     1      42.062  29.557  18.361 -0.70 -0.75    -0.507 OA ATOM     20  H   UNL     1      41.769  30.084  19.141 -0.44 +0.44    +0.293 HD ENDBRANCH  15  19ENDBRANCH   8  10ENDBRANCH   1   8BRANCH   4  21ATOM     21  C   UNL     1      34.503  28.739  22.327 -0.29 -0.05    +0.251 C  ATOM     22  N   UNL     1      33.563  29.647  21.885 -0.26 +0.04    -0.348 N  ATOM     23  O   UNL     1      34.281  27.914  23.206 -0.27 +0.04    -0.269 OA ATOM     24  H   UNL     1      33.781  30.271  21.121 -0.49 -0.06    +0.164 HD BRANCH  22  25ATOM     25  C   UNL     1      32.247  29.740  22.505 -0.51 +0.00    +0.096 C  ATOM     26  C   UNL     1      31.291  30.536  21.610 -0.61 -0.00    +0.027 C  ATOM     27  C   UNL     1      32.323  30.380  23.910 -0.48 +0.02    +0.105 C  ATOM     28  C   UNL     1      29.946  30.740  22.301 -0.60 -0.00    +0.017 C  ATOM     29  N   UNL     1      31.005  30.566  24.535 -0.69 -0.16    -0.315 NA ATOM     30  C   UNL     1      30.122  31.363  23.684 -0.51 +0.03    +0.081 C  ATOM     31  H   UNL     1      30.587  29.647  24.689 +0.10 +0.08    +0.122 HD ENDBRANCH  22  25ENDBRANCH   4  21TORSDOF 6TERENDMDL