MODEL        3USER    Run = 3USERUSER    Estimated Free Energy of Binding    =  -7.67 kcal/mol  [=(1)+(2)+(3)-(4)]USERUSER    (1) Final Intermolecular Energy     =  -9.46 kcal/molUSER        vdW + Hbond + desolv Energy     =  -9.16 kcal/molUSER        Electrostatic Energy            =  -0.30 kcal/molUSER        Moving Ligand-Fixed Receptor    =  -9.46 kcal/molUSER        Moving Ligand-Moving Receptor   =  +0.00 kcal/molUSER    (2) Final Total Internal Energy     =  -1.53 kcal/molUSER    (3) Torsional Free Energy           =  +1.79 kcal/molUSER    (4) Unbound System's Energy         =  -1.53 kcal/molUSERUSERREMARK SMILES COc1ccc(O)c(C(=O)c2ccc(C(=O)N[C@@H]3CCCNC3)cc2F)c1FREMARK SMILES IDX 11 1 12 2 13 3 14 4 24 5 25 6 26 7 9 8 10 9 8 10 3 11 4 12REMARK SMILES IDX 27 13 5 14 6 15 28 16 2 17 1 18 7 19 15 21 17 22 16 23 18 25REMARK SMILES IDX 19 26 23 27 20 28 22 29 21 30REMARK H PARENT 7 20 17 24 22 31USER                              x       y       z     vdW  Elec       q    TypeUSER                           _______ _______ _______ _____ _____    ______ ____ROOTATOM      1  C   UNL     1      35.905  44.838  16.635 -0.29 -0.03    +0.059 A  ATOM      2  C   UNL     1      35.029  45.735  17.258 -0.36 -0.01    +0.016 A  ATOM      3  C   UNL     1      33.651  45.496  17.226 -0.34 -0.01    +0.015 A  ATOM      4  C   UNL     1      33.140  44.370  16.566 -0.29 -0.02    +0.042 A  ATOM      5  C   UNL     1      34.017  43.468  15.959 -0.24 -0.02    +0.053 A  ATOM      6  C   UNL     1      35.390  43.712  15.991 -0.29 -0.05    +0.135 A  ATOM      7  F   UNL     1      36.198  42.812  15.413 -0.17 +0.07    -0.206 F  ENDROOTBRANCH   1   8ATOM      8  C   UNL     1      37.366  45.080  16.633 -0.27 -0.07    +0.202 C  ATOM      9  O   UNL     1      38.126  44.367  17.279 -0.22 +0.06    -0.288 OA BRANCH   8  10ATOM     10  C   UNL     1      37.919  46.195  15.846 -0.31 -0.04    +0.104 A  ATOM     11  C   UNL     1      37.803  47.584  13.855 -0.40 -0.06    +0.155 A  ATOM     12  C   UNL     1      38.862  48.352  14.347 -0.46 -0.02    +0.053 A  ATOM     13  C   UNL     1      37.339  46.506  14.617 -0.28 -0.08    +0.179 A  ATOM     14  C   UNL     1      39.453  48.041  15.578 -0.49 -0.02    +0.051 A  ATOM     15  C   UNL     1      38.981  46.961  16.323 -0.35 -0.04    +0.130 A  ATOM     16  F   UNL     1      36.320  45.762  14.154 -0.08 +0.10    -0.202 F  BRANCH  11  17ATOM     17  O   UNL     1      37.160  47.788  12.664 -0.84 +0.13    -0.494 OA ATOM     18  C   UNL     1      37.101  46.697  11.756 -0.45 -0.09    +0.278 C  ENDBRANCH  11  17BRANCH  15  19ATOM     19  O   UNL     1      39.596  46.628  17.495 -0.16 +0.10    -0.507 OA ATOM     20  H   UNL     1      39.469  45.681  17.673 +0.19 -0.04    +0.293 HD ENDBRANCH  15  19ENDBRANCH   8  10ENDBRANCH   1   8BRANCH   4  21ATOM     21  C   UNL     1      31.665  44.164  16.558 -0.20 -0.09    +0.251 C  ATOM     22  N   UNL     1      31.227  42.870  16.359 -0.11 +0.15    -0.348 N  ATOM     23  O   UNL     1      30.912  45.122  16.689 -0.74 +0.02    -0.269 OA ATOM     24  H   UNL     1      31.878  42.198  15.980 -0.33 -0.11    +0.164 HD BRANCH  22  25ATOM     25  C   UNL     1      29.801  42.581  16.179 -0.29 -0.04    +0.096 C  ATOM     26  C   UNL     1      29.104  42.445  17.542 -0.23 -0.00    +0.027 C  ATOM     27  C   UNL     1      29.594  41.305  15.338 -0.21 -0.05    +0.105 C  ATOM     28  C   UNL     1      28.881  40.988  17.957 -0.21 -0.00    +0.017 C  ATOM     29  N   UNL     1      30.101  40.079  15.975 +0.02 +0.03    -0.315 NA ATOM     30  C   UNL     1      29.978  40.067  17.433 -0.35 +0.00    +0.081 C  ATOM     31  H   UNL     1      31.075  39.934  15.712 -0.45 -0.05    +0.122 HD ENDBRANCH  22  25ENDBRANCH   4  21TORSDOF 6TERENDMDL