MODEL        9USER    Run = 9USERUSER    Estimated Free Energy of Binding    =  -8.92 kcal/mol  [=(1)+(2)+(3)-(4)]USERUSER    (1) Final Intermolecular Energy     = -11.01 kcal/molUSER        vdW + Hbond + desolv Energy     = -10.63 kcal/molUSER        Electrostatic Energy            =  -0.38 kcal/molUSER        Moving Ligand-Fixed Receptor    = -11.01 kcal/molUSER        Moving Ligand-Moving Receptor   =  +0.00 kcal/molUSER    (2) Final Total Internal Energy     =  -1.75 kcal/molUSER    (3) Torsional Free Energy           =  +2.09 kcal/molUSER    (4) Unbound System's Energy         =  -1.75 kcal/molUSERUSERREMARK SMILES COc1ccc(O)c(C(=O)c2ccc(C(=O)N[C@@H]3CCCNC3)cc2O)c1FREMARK SMILES IDX 11 1 12 2 13 3 14 4 24 5 25 6 9 7 10 8 8 9 3 10 4 11 27 12REMARK SMILES IDX 5 13 6 14 28 15 2 16 1 17 7 18 26 20 15 22 17 23 16 24 18 26REMARK SMILES IDX 19 27 23 28 20 29 22 30 21 31REMARK H PARENT 7 19 26 21 17 25 22 32USER                              x       y       z     vdW  Elec       q    TypeUSER                           _______ _______ _______ _____ _____    ______ ____ROOTATOM      1  C   UNL     1      41.418  45.982  19.766 -0.38 +0.01    +0.065 A  ATOM      2  C   UNL     1      40.231  45.322  19.424 -0.42 -0.00    +0.017 A  ATOM      3  C   UNL     1      39.594  45.604  18.209 -0.43 -0.00    +0.015 A  ATOM      4  C   UNL     1      40.132  46.546  17.321 -0.45 -0.01    +0.043 A  ATOM      5  C   UNL     1      41.301  47.227  17.670 -0.42 -0.01    +0.060 A  ATOM      6  C   UNL     1      41.934  46.943  18.881 -0.44 +0.01    +0.127 A  ENDROOTBRANCH   1   7ATOM      7  C   UNL     1      42.127  45.706  21.048 -0.25 +0.04    +0.203 C  ATOM      8  O   UNL     1      42.604  44.590  21.252 -0.16 -0.08    -0.288 OA BRANCH   7   9ATOM      9  C   UNL     1      42.270  46.732  22.088 -0.23 +0.02    +0.104 A  ATOM     10  C   UNL     1      41.285  47.940  23.948 -0.23 +0.02    +0.155 A  ATOM     11  C   UNL     1      42.450  48.709  24.046 -0.36 +0.01    +0.053 A  ATOM     12  C   UNL     1      41.206  46.953  22.958 -0.13 +0.02    +0.179 A  ATOM     13  C   UNL     1      43.520  48.492  23.169 -0.30 +0.01    +0.051 A  ATOM     14  C   UNL     1      43.428  47.505  22.190 -0.27 +0.03    +0.130 A  ATOM     15  F   UNL     1      40.102  46.194  22.870 -0.06 -0.02    -0.202 F  BRANCH  10  16ATOM     16  O   UNL     1      40.188  48.058  24.757 -0.09 -0.06    -0.494 OA ATOM     17  C   UNL     1      38.975  48.497  24.159 -0.26 +0.04    +0.278 C  ENDBRANCH  10  16BRANCH  14  18ATOM     18  O   UNL     1      44.469  47.286  21.335 -0.52 -0.35    -0.507 OA ATOM     19  H   UNL     1      44.526  48.014  20.693 -0.37 +0.06    +0.293 HD ENDBRANCH  14  18ENDBRANCH   7   9ENDBRANCH   1   7BRANCH   6  20ATOM     20  O   UNL     1      43.073  47.663  19.140 -0.29 -0.05    -0.507 OA ATOM     21  H   UNL     1      42.948  48.118  20.004 -0.31 -0.02    +0.293 HD ENDBRANCH   6  20BRANCH   4  22ATOM     22  C   UNL     1      39.405  46.799  16.045 -0.34 -0.06    +0.251 C  ATOM     23  N   UNL     1      38.051  46.540  16.032 -0.15 +0.15    -0.348 N  ATOM     24  O   UNL     1      40.011  47.238  15.074 -0.33 +0.05    -0.269 OA ATOM     25  H   UNL     1      37.588  46.181  16.855 +0.11 -0.07    +0.164 HD BRANCH  23  26ATOM     26  C   UNL     1      37.263  46.682  14.813 -0.40 -0.05    +0.096 C  ATOM     27  C   UNL     1      37.600  45.573  13.816 -0.48 -0.01    +0.027 C  ATOM     28  C   UNL     1      37.464  48.072  14.156 -0.53 -0.06    +0.105 C  ATOM     29  C   UNL     1      36.780  45.707  12.529 -0.64 -0.01    +0.017 C  ATOM     30  N   UNL     1      37.192  48.123  12.710 -0.87 +0.06    -0.315 NA ATOM     31  C   UNL     1      36.220  47.115  12.308 -0.70 -0.04    +0.081 C  ATOM     32  H   UNL     1      36.857  49.056  12.467 +0.06 -0.01    +0.122 HD ENDBRANCH  23  26ENDBRANCH   4  22TORSDOF 7TERENDMDL