MODEL        10USER    Run = 10USERUSER    Estimated Free Energy of Binding    =  -8.93 kcal/mol  [=(1)+(2)+(3)-(4)]USERUSER    (1) Final Intermolecular Energy     = -10.72 kcal/molUSER        vdW + Hbond + desolv Energy     =  -9.74 kcal/molUSER        Electrostatic Energy            =  -0.99 kcal/molUSER        Moving Ligand-Fixed Receptor    = -10.72 kcal/molUSER        Moving Ligand-Moving Receptor   =  +0.00 kcal/molUSER    (2) Final Total Internal Energy     =  -0.83 kcal/molUSER    (3) Torsional Free Energy           =  +1.79 kcal/molUSER    (4) Unbound System's Energy         =  -0.83 kcal/molUSERUSERREMARK SMILES COc1ccc(O)c(C(=O)c2ccc(C(=O)N[C@@H]3CCCNC3)cc2)c1REMARK SMILES IDX 11 1 12 2 13 3 14 4 24 5 25 6 9 7 10 8 8 9 3 10 4 11 26 12REMARK SMILES IDX 5 13 6 14 2 15 1 16 7 17 15 19 17 20 16 21 18 23 19 24 23 25REMARK SMILES IDX 20 26 22 27 21 28REMARK H PARENT 7 18 17 22 22 29USER                              x       y       z     vdW  Elec       q    TypeUSER                           _______ _______ _______ _____ _____    ______ ____ROOTATOM      1  C   UNL     1      27.701  36.282  20.875 -0.32 -0.01    +0.023 A  ATOM      2  C   UNL     1      28.486  36.455  22.023 -0.34 -0.00    +0.013 A  ATOM      3  C   UNL     1      28.633  35.409  22.939 -0.30 +0.00    +0.014 A  ATOM      4  C   UNL     1      27.989  34.185  22.712 -0.38 +0.00    +0.039 A  ATOM      5  C   UNL     1      27.173  34.031  21.583 -0.34 -0.01    +0.014 A  ATOM      6  C   UNL     1      27.024  35.077  20.668 -0.19 -0.01    +0.013 A  ENDROOTBRANCH   1   7ATOM      7  C   UNL     1      27.558  37.424  19.941 -0.24 -0.03    +0.196 C  ATOM      8  O   UNL     1      28.406  37.581  19.061 -0.16 -0.10    -0.288 OA BRANCH   7   9ATOM      9  C   UNL     1      26.442  38.399  20.035 -0.24 -0.03    +0.068 A  ATOM     10  C   UNL     1      25.370  40.316  21.083 -0.32 -0.03    +0.119 A  ATOM     11  C   UNL     1      24.315  40.222  20.173 -0.33 -0.02    +0.050 A  ATOM     12  C   UNL     1      26.425  39.400  21.016 -0.27 -0.02    +0.062 A  ATOM     13  C   UNL     1      24.309  39.210  19.210 -0.33 -0.02    +0.051 A  ATOM     14  C   UNL     1      25.360  38.298  19.152 -0.21 -0.07    +0.127 A  BRANCH  10  15ATOM     15  O   UNL     1      25.490  41.245  22.080 -0.70 +0.01    -0.497 OA ATOM     16  C   UNL     1      24.509  42.274  22.125 -0.48 -0.07    +0.278 C  ENDBRANCH  10  15BRANCH  14  17ATOM     17  O   UNL     1      25.264  37.321  18.198 -0.13 +0.15    -0.507 OA ATOM     18  H   UNL     1      24.946  36.502  18.642 -0.38 -0.56    +0.293 HD ENDBRANCH  14  17ENDBRANCH   7   9ENDBRANCH   1   7BRANCH   4  19ATOM     19  C   UNL     1      28.114  33.038  23.656 -0.21 +0.17    +0.251 C  ATOM     20  N   UNL     1      29.285  32.308  23.585 -0.19 -0.17    -0.348 N  ATOM     21  O   UNL     1      27.192  32.762  24.414 -0.82 -0.35    -0.269 OA ATOM     22  H   UNL     1      29.856  32.419  22.759 +0.11 +0.03    +0.164 HD BRANCH  20  23ATOM     23  C   UNL     1      29.432  31.069  24.346 -0.41 +0.06    +0.096 C  ATOM     24  C   UNL     1      30.899  30.834  24.711 -0.51 +0.02    +0.027 C  ATOM     25  C   UNL     1      28.856  29.839  23.591 -0.55 -0.00    +0.105 C  ATOM     26  C   UNL     1      31.753  30.443  23.499 -0.68 +0.00    +0.017 C  ATOM     27  N   UNL     1      29.828  29.048  22.811 -0.14 +0.10    -0.315 NA ATOM     28  C   UNL     1      30.942  29.861  22.340 -0.41 -0.01    +0.081 C  ATOM     29  H   UNL     1      30.192  28.300  23.403 -0.27 -0.04    +0.122 HD ENDBRANCH  20  23ENDBRANCH   4  19TORSDOF 6TERENDMDL