REMARK SMILES OCCOc1cc(-c2n[nH]c3cnc(-c4ccc(F)nc4)cc23)ccc1-n1ccnn1
REMARK SMILES IDX 4 1 3 2 2 3 1 4 5 6 6 7 26 8 7 9 25 10 24 11 27 12 28 13
REMARK SMILES IDX 31 14 29 15 30 16 8 17 9 18 23 19 10 20 22 21 11 22 14 23
REMARK SMILES IDX 12 24 13 25 15 27 16 28 21 29 17 30 20 31 18 32 19 33
REMARK H PARENT 1 5 10 26
ROOT
ATOM      1  O   UNL     1      -4.049   0.878   0.399  1.00  0.00    -0.489 OA
ENDROOT
BRANCH   1   2
ATOM      2  C   UNL     1      -3.954   0.850   1.838  1.00  0.00     0.257 C 
BRANCH   2   3
ATOM      3  C   UNL     1      -5.349   1.116   2.397  1.00  0.00     0.197 C 
BRANCH   3   4
ATOM      4  O   UNL     1      -5.787   2.426   2.036  1.00  0.00    -0.393 OA
ATOM      5  H   UNL     1      -5.636   2.515   1.076  1.00  0.00     0.210 HD
ENDBRANCH   3   4
ENDBRANCH   2   3
ENDBRANCH   1   2
BRANCH   1   6
ATOM      6  C   UNL     1      -2.884   0.469  -0.193  1.00  0.00     0.145 A 
ATOM      7  C   UNL     1      -1.749   1.284  -0.054  1.00  0.00     0.059 A 
ATOM      8  C   UNL     1      -2.816  -0.703  -0.961  1.00  0.00     0.108 A 
ATOM      9  C   UNL     1      -0.518   0.918  -0.615  1.00  0.00     0.006 A 
ATOM     10  C   UNL     1      -1.577  -1.066  -1.524  1.00  0.00     0.033 A 
ATOM     11  C   UNL     1      -0.443  -0.265  -1.353  1.00  0.00     0.013 A 
BRANCH   8  12
ATOM     12  N   UNL     1      -3.934  -1.550  -1.204  1.00  0.00    -0.217 N 
ATOM     13  C   UNL     1      -5.269  -1.387  -0.906  1.00  0.00     0.137 A 
ATOM     14  N   UNL     1      -3.776  -2.750  -1.829  1.00  0.00    -0.062 NA
ATOM     15  C   UNL     1      -5.881  -2.530  -1.356  1.00  0.00     0.157 A 
ATOM     16  N   UNL     1      -4.954  -3.352  -1.910  1.00  0.00    -0.139 NA
ENDBRANCH   8  12
BRANCH   9  17
ATOM     17  C   UNL     1       0.653   1.778  -0.440  1.00  0.00     0.100 A 
ATOM     18  N   UNL     1       0.530   3.116  -0.484  1.00  0.00    -0.174 NA
ATOM     19  C   UNL     1       2.011   1.399  -0.193  1.00  0.00     0.031 A 
ATOM     20  N   UNL     1       1.780   3.573  -0.319  1.00  0.00    -0.276 N 
ATOM     21  C   UNL     1       2.723   0.203  -0.004  1.00  0.00     0.041 A 
ATOM     22  C   UNL     1       2.712   2.595  -0.135  1.00  0.00     0.084 A 
ATOM     23  C   UNL     1       4.100   0.295   0.215  1.00  0.00     0.073 A 
ATOM     24  C   UNL     1       4.077   2.648   0.074  1.00  0.00     0.140 A 
ATOM     25  N   UNL     1       4.753   1.487   0.239  1.00  0.00    -0.254 NA
ATOM     26  H   UNL     1       1.927   4.576  -0.337  1.00  0.00     0.190 HD
BRANCH  23  27
ATOM     27  C   UNL     1       4.953  -0.889   0.424  1.00  0.00     0.019 A 
ATOM     28  C   UNL     1       6.295  -0.910   0.014  1.00  0.00     0.016 A 
ATOM     29  C   UNL     1       4.495  -2.054   1.045  1.00  0.00     0.124 A 
ATOM     30  C   UNL     1       7.083  -2.043   0.215  1.00  0.00     0.061 A 
ATOM     31  N   UNL     1       5.231  -3.175   1.253  1.00  0.00    -0.228 NA
ATOM     32  C   UNL     1       6.509  -3.138   0.831  1.00  0.00     0.212 A 
ATOM     33  F   UNL     1       7.261  -4.230   1.025  1.00  0.00    -0.185 F 
ENDBRANCH  23  27
ENDBRANCH   9  17
ENDBRANCH   1   6
TORSDOF 7
