MODEL        2USER    Run = 2USERUSER    Estimated Free Energy of Binding    = -10.76 kcal/mol  [=(1)+(2)+(3)-(4)]USERUSER    (1) Final Intermolecular Energy     = -11.95 kcal/molUSER        vdW + Hbond + desolv Energy     = -11.66 kcal/molUSER        Electrostatic Energy            =  -0.29 kcal/molUSER        Moving Ligand-Fixed Receptor    = -11.95 kcal/molUSER        Moving Ligand-Moving Receptor   =  +0.00 kcal/molUSER    (2) Final Total Internal Energy     =  -1.22 kcal/molUSER    (3) Torsional Free Energy           =  +1.19 kcal/molUSER    (4) Unbound System's Energy         =  -1.22 kcal/molUSERUSERREMARK SMILES CN1CCN(c2ccc3c(c2)ON(/C=C2\C(=O)N(C)c4ccc(Cl)cc42)[CH][C@@H]3O)CC1REMARK SMILES IDX 6 1 7 2 8 3 9 4 10 5 11 6 12 7 13 8 27 9 28 10 5 11 2 12REMARK SMILES IDX 3 13 31 14 4 15 30 16 1 17 29 18 14 20 15 21 16 22 26 23REMARK SMILES IDX 18 24 25 25 20 26 23 27 21 28 22 29 17 30 19 31 24 32REMARK H PARENT 29 19USER                              x       y       z     vdW  Elec       q    TypeUSER                           _______ _______ _______ _____ _____    ______ ____ROOTATOM      1  C   UNL     1      35.517  43.427  20.077 -0.40 -0.00    +0.041 A  ATOM      2  C   UNL     1      34.265  42.908  19.705 -0.39 -0.00    +0.026 A  ATOM      3  C   UNL     1      33.596  43.326  18.545 -0.35 -0.00    +0.012 A  ATOM      4  C   UNL     1      34.174  44.280  17.709 -0.29 -0.01    +0.028 A  ATOM      5  C   UNL     1      35.413  44.810  18.059 -0.23 -0.06    +0.163 A  ATOM      6  C   UNL     1      36.066  44.398  19.224 -0.32 -0.01    +0.076 A  ATOM      7  O   UNL     1      36.003  45.818  17.328 -0.16 +0.21    -0.379 OA ATOM      8  N   UNL     1      35.736  45.738  15.949 -0.21 +0.15    -0.208 N  ATOM      9  C   UNL     1      34.452  45.431  15.544 -0.25 -0.15    +0.185 C  ATOM     10  C   UNL     1      33.491  44.774  16.470 -0.26 -0.11    +0.177 C  ENDROOTBRANCH   1  11ATOM     11  N   UNL     1      36.172  43.013  21.225 -0.20 -0.02    -0.369 N  ATOM     12  N   UNL     1      37.676  42.102  23.657 -0.19 -0.03    -0.303 NA ATOM     13  C   UNL     1      36.425  41.486  23.163 -0.42 +0.00    +0.105 C  ATOM     14  C   UNL     1      38.073  43.256  22.821 -0.33 +0.01    +0.105 C  ATOM     15  C   UNL     1      36.222  41.600  21.634 -0.52 +0.00    +0.132 C  ATOM     16  C   UNL     1      36.928  43.965  22.060 -0.34 +0.01    +0.132 C  ATOM     17  C   UNL     1      37.542  42.474  25.063 -0.34 -0.00    +0.105 C  ENDBRANCH   1  11BRANCH  10  18ATOM     18  O   UNL     1      32.480  45.720  16.794 -0.33 +0.26    -0.386 OA ATOM     19  H   UNL     1      32.846  46.596  16.582 -0.37 -0.41    +0.211 HD ENDBRANCH  10  18BRANCH   8  20ATOM     20  C   UNL     1      36.697  46.254  15.089 -0.35 -0.08    +0.139 C  BRANCH  20  21ATOM     21  C   UNL     1      37.867  46.886  15.269 -0.43 -0.03    +0.069 C  ATOM     22  C   UNL     1      38.517  47.962  14.429 -0.38 -0.11    +0.260 C  ATOM     23  C   UNL     1      38.768  46.628  16.406 -0.41 -0.00    +0.014 A  ATOM     24  N   UNL     1      39.721  48.244  15.081 -0.28 +0.10    -0.311 N  ATOM     25  C   UNL     1      38.695  45.767  17.490 -0.38 -0.01    +0.031 A  ATOM     26  C   UNL     1      39.872  47.473  16.241 -0.47 -0.01    +0.052 A  ATOM     27  C   UNL     1      39.751  45.772  18.405 -0.42 -0.00    +0.041 A  ATOM     28  C   UNL     1      40.924  47.486  17.141 -0.49 -0.00    +0.028 A  ATOM     29  C   UNL     1      40.856  46.622  18.237 -0.49 -0.00    +0.023 A  ATOM     30  O   UNL     1      38.100  48.496  13.419 -0.62 +0.07    -0.269 OA ATOM     31  C   UNL     1      40.670  49.228  14.633 -0.53 -0.04    +0.153 C  ATOM     32  Cl  UNL     1      39.696  44.718  19.765 -0.53 +0.00    -0.084 Cl ENDBRANCH  20  21ENDBRANCH   8  20TORSDOF 4TERENDMDL