MODEL        1USER    Run = 1USERUSER    Estimated Free Energy of Binding    = -10.04 kcal/mol  [=(1)+(2)+(3)-(4)]USERUSER    (1) Final Intermolecular Energy     = -12.13 kcal/molUSER        vdW + Hbond + desolv Energy     = -12.04 kcal/molUSER        Electrostatic Energy            =  -0.09 kcal/molUSER        Moving Ligand-Fixed Receptor    = -12.13 kcal/molUSER        Moving Ligand-Moving Receptor   =  +0.00 kcal/molUSER    (2) Final Total Internal Energy     =  -2.89 kcal/molUSER    (3) Torsional Free Energy           =  +2.09 kcal/molUSER    (4) Unbound System's Energy         =  -2.89 kcal/molUSERUSERREMARK SMILES OCCOc1cc(-c2n[nH]c3cnc(-c4ccc(F)nc4)cc23)ccc1-n1ccnn1REMARK SMILES IDX 4 1 3 2 2 3 1 4 5 6 6 7 26 8 7 9 25 10 24 11 27 12 28 13REMARK SMILES IDX 31 14 29 15 30 16 8 17 9 18 23 19 10 20 22 21 11 22 14 23REMARK SMILES IDX 12 24 13 25 15 27 16 28 21 29 17 30 20 31 18 32 19 33REMARK H PARENT 1 5 10 26USER                              x       y       z     vdW  Elec       q    TypeUSER                           _______ _______ _______ _____ _____    ______ ____ROOTATOM      1  O   UNL     1      40.987  46.296  17.003 -0.13 +0.04    -0.489 OA ENDROOTBRANCH   1   2ATOM      2  C   UNL     1      40.936  46.083  18.429 -0.37 -0.01    +0.257 C  BRANCH   2   3ATOM      3  C   UNL     1      42.005  46.967  19.066 -0.44 +0.01    +0.197 C  BRANCH   3   4ATOM      4  O   UNL     1      42.545  47.868  18.098 -0.36 +0.00    -0.393 OA ATOM      5  H   UNL     1      42.175  47.603  17.235 -0.41 -0.03    +0.210 HD ENDBRANCH   3   4ENDBRANCH   2   3ENDBRANCH   1   2BRANCH   1   6ATOM      6  C   UNL     1      39.739  46.493  16.476 -0.35 -0.03    +0.145 A  ATOM      7  C   UNL     1      38.778  45.486  16.657 -0.28 -0.01    +0.059 A  ATOM      8  C   UNL     1      39.422  47.640  15.732 -0.43 -0.03    +0.108 A  ATOM      9  C   UNL     1      37.474  45.628  16.163 -0.36 -0.00    +0.006 A  ATOM     10  C   UNL     1      38.111  47.778  15.237 -0.47 -0.02    +0.033 A  ATOM     11  C   UNL     1      37.150  46.784  15.450 -0.40 -0.01    +0.013 A  BRANCH   8  12ATOM     12  N   UNL     1      40.356  48.676  15.449 -0.40 +0.06    -0.217 N  ATOM     13  C   UNL     1      40.742  49.239  14.252 -0.37 -0.04    +0.137 A  ATOM     14  N   UNL     1      41.043  49.288  16.454 -0.95 +0.01    -0.062 NA ATOM     15  C   UNL     1      41.685  50.179  14.583 -0.53 -0.03    +0.157 A  ATOM     16  N   UNL     1      41.860  50.190  15.929 -0.89 -0.00    -0.139 NA ENDBRANCH   8  12BRANCH   9  17ATOM     17  C   UNL     1      36.487  44.569  16.381 -0.28 -0.04    +0.100 A  ATOM     18  N   UNL     1      35.719  44.133  15.367 -0.26 +0.07    -0.174 NA ATOM     19  C   UNL     1      36.194  43.855  17.586 -0.30 -0.01    +0.031 A  ATOM     20  N   UNL     1      34.928  43.203  15.922 -0.22 +0.11    -0.276 N  ATOM     21  C   UNL     1      36.675  43.830  18.905 -0.29 -0.01    +0.041 A  ATOM     22  C   UNL     1      35.166  42.987  17.247 -0.33 -0.03    +0.084 A  ATOM     23  C   UNL     1      36.073  42.941  19.799 -0.37 -0.01    +0.073 A  ATOM     24  C   UNL     1      34.588  42.126  18.160 -0.32 -0.04    +0.140 A  ATOM     25  N   UNL     1      35.050  42.124  19.432 -0.25 +0.02    -0.254 NA ATOM     26  H   UNL     1      34.244  42.745  15.331 -0.01 -0.09    +0.190 HD BRANCH  23  27ATOM     27  C   UNL     1      36.490  42.826  21.209 -0.44 +0.00    +0.019 A  ATOM     28  C   UNL     1      37.123  43.886  21.877 -0.38 +0.00    +0.016 A  ATOM     29  C   UNL     1      36.277  41.675  21.971 -0.45 +0.01    +0.124 A  ATOM     30  C   UNL     1      37.515  43.754  23.209 -0.31 +0.01    +0.061 A  ATOM     31  N   UNL     1      36.649  41.510  23.266 -0.35 -0.01    -0.228 NA ATOM     32  C   UNL     1      37.259  42.558  23.851 -0.26 +0.01    +0.212 A  ATOM     33  F   UNL     1      37.635  42.426  25.130 -0.08 +0.00    -0.185 F  ENDBRANCH  23  27ENDBRANCH   9  17ENDBRANCH   1   6TORSDOF 7TERENDMDL