MODEL        8USER    Run = 8USERUSER    Estimated Free Energy of Binding    =  -6.71 kcal/mol  [=(1)+(2)+(3)-(4)]USERUSER    (1) Final Intermolecular Energy     = -10.89 kcal/molUSER        vdW + Hbond + desolv Energy     = -11.10 kcal/molUSER        Electrostatic Energy            =  -0.24 kcal/molUSER        Moving Ligand-Fixed Receptor    = -11.33 kcal/molUSER        Moving Ligand-Moving Receptor   =  +0.45 kcal/molUSER    (2) Final Total Internal Energy     =  -3.13 kcal/molUSER    (3) Torsional Free Energy           =  +4.18 kcal/molUSER    (4) Unbound System's Energy         =  -3.13 kcal/molUSERUSERREMARK SMILES COc1ccc(O)c(C(=O)c2ccc(C(=O)N[C@@H]3CCCN(C)C[C@H]3NC(=O)c3ccnc(F)c3)cc2)c1FREMARK SMILES IDX 15 1 16 2 17 3 14 5 11 6 12 7 37 8 13 9 36 10 9 11 10 12REMARK SMILES IDX 8 13 3 14 4 15 38 16 5 17 6 18 39 19 2 20 1 21 7 22 18 24REMARK SMILES IDX 19 25 25 27 24 28 22 29 23 30 21 31 20 32 26 34 27 35 28 37REMARK SMILES IDX 29 38 30 39 35 40 31 41 33 42 32 43 34 44REMARK H PARENT 17 4 7 23 26 36REMARK Flexibility Score:   88.900USER                              x       y       z     vdW  Elec       q    TypeUSER                           _______ _______ _______ _____ _____    ______ ____ROOTATOM      1  C   UNL     1      36.517  42.417  20.890 -0.35 +0.00    +0.251 C  ATOM      2  O   UNL     1      36.399  41.201  20.991 -0.40 +0.01    -0.269 OA ATOM      3  N   UNL     1      37.124  43.204  21.843 -0.18 -0.02    -0.347 N  ATOM      4  H   UNL     1      37.348  44.168  21.636 +0.09 +0.01    +0.164 HD ENDROOTBRANCH   1   5ATOM      5  C   UNL     1      36.025  43.116  19.669 -0.38 -0.00    +0.039 A  ATOM      6  C   UNL     1      35.041  44.349  17.350 -0.29 -0.01    +0.023 A  ATOM      7  C   UNL     1      35.653  45.118  18.348 -0.35 -0.00    +0.013 A  ATOM      8  C   UNL     1      34.939  42.962  17.504 -0.37 -0.00    +0.013 A  ATOM      9  C   UNL     1      36.134  44.504  19.510 -0.33 -0.00    +0.014 A  ATOM     10  C   UNL     1      35.418  42.349  18.666 -0.37 -0.00    +0.014 A  BRANCH   6  11ATOM     11  C   UNL     1      34.553  44.953  16.089 -0.24 -0.13    +0.199 C  ATOM     12  O   UNL     1      33.363  44.824  15.794 -0.21 +0.19    -0.288 OA BRANCH  11  13ATOM     13  C   UNL     1      35.432  45.657  15.129 -0.29 -0.07    +0.104 A  ATOM     14  C   UNL     1      37.641  46.336  14.345 -0.31 -0.06    +0.155 A  ATOM     15  C   UNL     1      37.051  47.009  13.272 -0.52 -0.02    +0.053 A  ATOM     16  C   UNL     1      36.822  45.669  15.268 -0.24 -0.09    +0.179 A  ATOM     17  C   UNL     1      35.660  47.031  13.140 -0.52 -0.03    +0.051 A  ATOM     18  C   UNL     1      34.860  46.372  14.069 -0.26 -0.11    +0.130 A  ATOM     19  F   UNL     1      37.401  45.056  16.313 -0.06 +0.07    -0.202 F  BRANCH  14  20ATOM     20  O   UNL     1      38.986  46.260  14.588 -0.12 +0.12    -0.494 OA ATOM     21  C   UNL     1      39.506  47.073  15.634 -0.33 -0.07    +0.278 C  ENDBRANCH  14  20BRANCH  18  22ATOM     22  O   UNL     1      33.507  46.469  13.881 -0.09 +0.52    -0.507 OA ATOM     23  H   UNL     1      33.097  46.702  14.745 -0.26 -0.52    +0.293 HD ENDBRANCH  18  22ENDBRANCH  11  13ENDBRANCH   6  11ENDBRANCH   1   5BRANCH   3  24ATOM     24  C   UNL     1      37.673  42.649  23.095 -0.38 +0.01    +0.106 C  BRANCH  24  25ATOM     25  C   UNL     1      36.536  42.446  24.106 -0.42 +0.00    +0.028 CG0ATOM     26  G   UNL     1      36.773  42.976  25.515 +0.00 +0.00    +0.000 G0 ENDBRANCH  24  25BRANCH  24  27ATOM     27  C   UNL     1      38.835  43.552  23.601 -0.23 +0.01    +0.118 C  BRANCH  27  28ATOM     28  C   UNL     1      39.774  42.890  24.654 -0.19 +0.00    +0.111 C  BRANCH  28  29ATOM     29  N   UNL     1      39.277  43.039  26.028 -0.07 +0.01    -0.304 NA ATOM     30  C   UNL     1      39.198  44.446  26.424 -0.16 -0.00    +0.105 C  BRANCH  29  31ATOM     31  C   UNL     1      37.980  42.376  26.251 -0.32 -0.01    +0.084 C  BRANCH  31  32ATOM     32  C   UNL     1      36.774  42.970  25.515 -0.43 -0.00    +0.018 CG0ATOM     33  G   UNL     1      36.536  42.446  24.103 +0.00 +0.00    +0.000 G0 ENDBRANCH  31  32ENDBRANCH  29  31ENDBRANCH  28  29ENDBRANCH  27  28BRANCH  27  34ATOM     34  N   UNL     1      39.625  44.005  22.438 -0.07 -0.02    -0.346 N  ATOM     35  C   UNL     1      39.367  45.198  21.803 -0.23 +0.01    +0.251 C  ATOM     36  H   UNL     1      40.454  43.465  22.230 +0.09 +0.01    +0.164 HD ATOM     37  O   UNL     1      38.384  45.885  22.050 -0.24 -0.03    -0.269 OA BRANCH  35  38ATOM     38  C   UNL     1      40.328  45.628  20.755 -0.30 +0.00    +0.045 A  ATOM     39  C   UNL     1      41.468  46.328  21.159 -0.25 +0.00    +0.034 A  ATOM     40  C   UNL     1      40.148  45.332  19.407 -0.38 -0.00    +0.074 A  ATOM     41  C   UNL     1      42.370  46.723  20.188 -0.34 +0.02    +0.115 A  ATOM     42  C   UNL     1      41.111  45.770  18.520 -0.32 +0.00    +0.213 A  ATOM     43  N   UNL     1      42.211  46.464  18.875 -0.34 -0.02    -0.228 NA ATOM     44  F   UNL     1      40.952  45.486  17.220 -0.13 +0.00    -0.185 F  ENDBRANCH  35  38ENDBRANCH  27  34ENDBRANCH  24  27ENDBRANCH   3  24TORSDOF 8TERENDMDL