MODEL        7USER    Run = 7USERUSER    Estimated Free Energy of Binding    = -13.20 kcal/mol  [=(1)+(2)+(3)-(4)]USERUSER    (1) Final Intermolecular Energy     = -15.29 kcal/molUSER        vdW + Hbond + desolv Energy     = -15.08 kcal/molUSER        Electrostatic Energy            =  -0.21 kcal/molUSER        Moving Ligand-Fixed Receptor    = -15.29 kcal/molUSER        Moving Ligand-Moving Receptor   =  +0.00 kcal/molUSER    (2) Final Total Internal Energy     =  -2.05 kcal/molUSER    (3) Torsional Free Energy           =  +2.09 kcal/molUSER    (4) Unbound System's Energy         =  -2.05 kcal/molUSERUSERREMARK SMILES Oc1nc2ccccc2n1C1CCN(Cc2ccc(-c3nc4ccccc4nc3-c3ccc(N4CCOCC4)cc3)cc2)CC1REMARK SMILES IDX 15 1 14 2 11 3 12 4 45 5 13 6 44 7 10 8 2 9 3 10 4 11 9 12REMARK SMILES IDX 5 13 8 14 6 15 7 16 1 17 16 19 17 20 43 21 18 22 42 23 19 24REMARK SMILES IDX 20 25 21 26 29 27 22 28 28 29 23 30 27 31 24 32 26 33 25 34REMARK SMILES IDX 30 35 31 36 41 37 32 38 40 39 33 40 34 41 35 42 39 43 36 44REMARK SMILES IDX 38 45 37 46REMARK H PARENT 1 18USER                              x       y       z     vdW  Elec       q    TypeUSER                           _______ _______ _______ _____ _____    ______ ____ROOTATOM      1  C   UNL     1      41.787  46.251  19.009 -0.46 +0.01    +0.120 C  ENDROOTBRANCH   1   2ATOM      2  N   UNL     1      40.855  46.517  17.902 -0.28 +0.02    -0.299 NA ATOM      3  C   UNL     1      38.726  47.657  16.302 -0.41 -0.04    +0.095 C  ATOM      4  C   UNL     1      38.580  46.287  16.978 -0.43 -0.01    +0.041 C  ATOM      5  C   UNL     1      40.198  47.971  16.028 -0.59 -0.01    +0.041 C  ATOM      6  C   UNL     1      39.459  46.210  18.227 -0.43 -0.01    +0.087 C  ATOM      7  C   UNL     1      41.016  47.845  17.313 -0.52 -0.01    +0.087 C  BRANCH   3   8ATOM      8  N   UNL     1      37.906  47.824  15.110 -0.26 +0.17    -0.291 N  ATOM      9  C   UNL     1      37.262  48.959  14.703 -0.23 -0.25    +0.295 A  ATOM     10  N   UNL     1      36.589  48.803  13.597 -0.44 +0.11    -0.195 NA ATOM     11  C   UNL     1      36.763  47.483  13.272 -0.53 -0.04    +0.092 A  ATOM     12  C   UNL     1      37.579  46.836  14.202 -0.40 -0.03    +0.072 A  ATOM     13  C   UNL     1      36.241  46.759  12.189 -0.66 -0.01    +0.031 A  ATOM     14  C   UNL     1      37.893  45.474  14.104 -0.38 -0.01    +0.029 A  ATOM     15  C   UNL     1      36.544  45.398  12.076 -0.58 -0.00    +0.002 A  ATOM     16  C   UNL     1      37.357  44.769  13.020 -0.36 -0.00    +0.002 A  BRANCH   9  17ATOM     17  O   UNL     1      37.283  50.110  15.343 -0.32 +0.53    -0.480 OA ATOM     18  H   UNL     1      36.365  50.168  15.664 -0.16 -0.61    +0.296 HD ENDBRANCH   9  17ENDBRANCH   3   8ENDBRANCH   1   2BRANCH   1  19ATOM     19  C   UNL     1      41.234  45.501  20.204 -0.36 -0.00    -0.034 A  ATOM     20  C   UNL     1      40.472  46.178  21.166 -0.04 +0.00    +0.006 A  ATOM     21  C   UNL     1      41.478  44.134  20.382 -0.28 +0.00    +0.006 A  ATOM     22  C   UNL     1      39.974  45.504  22.284 -0.28 +0.00    +0.011 A  ATOM     23  C   UNL     1      40.995  43.465  21.510 -0.21 +0.00    +0.011 A  ATOM     24  C   UNL     1      40.227  44.136  22.475 -0.24 +0.00    +0.002 A  BRANCH  24  25ATOM     25  C   UNL     1      39.723  43.427  23.661 -0.18 +0.00    +0.097 A  ATOM     26  N   UNL     1      40.599  43.405  24.705 -0.09 -0.00    -0.244 NA ATOM     27  C   UNL     1      38.446  42.857  23.767 -0.24 +0.01    +0.097 A  ATOM     28  C   UNL     1      40.177  42.851  25.854 -0.15 -0.00    +0.089 A  ATOM     29  N   UNL     1      38.017  42.314  24.941 -0.17 -0.01    -0.244 NA ATOM     30  C   UNL     1      41.030  42.815  26.951 -0.15 -0.00    +0.030 A  ATOM     31  C   UNL     1      38.877  42.312  25.975 -0.20 -0.00    +0.089 A  ATOM     32  C   UNL     1      40.625  42.259  28.165 -0.21 -0.00    +0.002 A  ATOM     33  C   UNL     1      38.484  41.763  27.191 -0.37 -0.00    +0.030 A  ATOM     34  C   UNL     1      39.347  41.732  28.287 -0.30 -0.00    +0.002 A  BRANCH  27  35ATOM     35  C   UNL     1      37.473  42.753  22.665 -0.41 +0.00    +0.003 A  ATOM     36  C   UNL     1      36.819  41.550  22.365 -0.54 +0.00    +0.012 A  ATOM     37  C   UNL     1      37.129  43.877  21.903 -0.38 +0.00    +0.012 A  ATOM     38  C   UNL     1      35.874  41.471  21.329 -0.41 +0.00    +0.026 A  ATOM     39  C   UNL     1      36.187  43.791  20.870 -0.37 +0.00    +0.026 A  ATOM     40  C   UNL     1      35.542  42.585  20.550 -0.42 +0.00    +0.037 A  BRANCH  40  41ATOM     41  N   UNL     1      34.583  42.560  19.528 -0.17 +0.02    -0.367 N  ATOM     42  C   UNL     1      35.044  42.336  18.142 -0.37 -0.04    +0.145 C  ATOM     43  C   UNL     1      33.577  43.648  19.605 -0.38 -0.01    +0.145 C  ATOM     44  C   UNL     1      33.836  42.098  17.223 -0.33 -0.08    +0.181 C  ATOM     45  C   UNL     1      32.431  43.371  18.615 -0.29 -0.03    +0.181 C  ATOM     46  O   UNL     1      32.914  43.199  17.273 -0.10 +0.13    -0.378 OA ENDBRANCH  40  41ENDBRANCH  27  35ENDBRANCH  24  25ENDBRANCH   1  19TORSDOF 7TERENDMDL