MODEL        5USER    Run = 5USERUSER    Estimated Free Energy of Binding    = -10.73 kcal/mol  [=(1)+(2)+(3)-(4)]USERUSER    (1) Final Intermolecular Energy     = -13.12 kcal/molUSER        vdW + Hbond + desolv Energy     = -12.80 kcal/molUSER        Electrostatic Energy            =  -0.32 kcal/molUSER        Moving Ligand-Fixed Receptor    = -13.12 kcal/molUSER        Moving Ligand-Moving Receptor   =  +0.00 kcal/molUSER    (2) Final Total Internal Energy     =  -1.78 kcal/molUSER    (3) Torsional Free Energy           =  +2.39 kcal/molUSER    (4) Unbound System's Energy         =  -1.78 kcal/molUSERUSERREMARK SMILES COc1ccc(O)c(C(=O)c2ccc(CN3CCC(n4c(O)nc5ccccc54)CC3)cc2)c1FREMARK SMILES IDX 11 1 12 2 13 3 14 4 32 5 33 6 9 7 10 8 8 9 3 10 4 11 34 12REMARK SMILES IDX 5 13 6 14 35 15 2 16 1 17 7 18 15 20 16 21 17 22 31 23 18 24REMARK SMILES IDX 30 25 19 26 20 27 21 28 29 29 23 30 28 31 24 32 27 33 25 34REMARK SMILES IDX 26 35 22 36REMARK H PARENT 7 19 22 37USER                              x       y       z     vdW  Elec       q    TypeUSER                           _______ _______ _______ _____ _____    ______ ____ROOTATOM      1  C   UNL     1      36.046  44.656  15.742 -0.34 -0.01    +0.023 A  ATOM      2  C   UNL     1      36.513  44.882  14.443 -0.38 -0.00    +0.012 A  ATOM      3  C   UNL     1      37.198  46.063  14.144 -0.42 -0.00    +0.006 A  ATOM      4  C   UNL     1      37.439  47.020  15.140 -0.40 +0.02    -0.034 A  ATOM      5  C   UNL     1      36.981  46.774  16.443 -0.34 -0.00    +0.006 A  ATOM      6  C   UNL     1      36.299  45.595  16.747 -0.34 -0.01    +0.012 A  ENDROOTBRANCH   1   7ATOM      7  C   UNL     1      35.339  43.407  16.105 -0.33 -0.08    +0.199 C  ATOM      8  O   UNL     1      35.898  42.325  15.912 -0.36 +0.11    -0.288 OA BRANCH   7   9ATOM      9  C   UNL     1      33.961  43.386  16.642 -0.28 -0.04    +0.104 A  ATOM     10  C   UNL     1      31.719  44.330  16.827 -0.19 -0.05    +0.155 A  ATOM     11  C   UNL     1      31.355  43.288  17.683 -0.25 -0.01    +0.053 A  ATOM     12  C   UNL     1      33.025  44.370  16.316 -0.20 -0.09    +0.179 A  ATOM     13  C   UNL     1      32.292  42.315  18.040 -0.31 -0.01    +0.051 A  ATOM     14  C   UNL     1      33.587  42.374  17.535 -0.29 -0.05    +0.130 A  ATOM     15  F   UNL     1      33.372  45.395  15.524 -0.07 +0.18    -0.202 F  BRANCH  10  16ATOM     16  O   UNL     1      30.897  45.346  16.421 -0.62 +0.07    -0.494 OA ATOM     17  C   UNL     1      30.543  45.388  15.043 -0.30 -0.15    +0.278 C  ENDBRANCH  10  16BRANCH  14  18ATOM     18  O   UNL     1      34.453  41.401  17.960 -0.23 +0.17    -0.507 OA ATOM     19  H   UNL     1      34.897  41.025  17.166 -0.37 -0.23    +0.293 HD ENDBRANCH  14  18ENDBRANCH   7   9ENDBRANCH   1   7BRANCH   4  20ATOM     20  C   UNL     1      38.163  48.309  14.808 -0.51 -0.07    +0.120 C  BRANCH  20  21ATOM     21  N   UNL     1      39.583  48.113  14.466 -0.27 +0.09    -0.299 NA ATOM     22  C   UNL     1      40.493  48.992  15.213 -0.61 -0.02    +0.087 C  ATOM     23  C   UNL     1      39.983  46.705  14.594 -0.38 -0.01    +0.087 C  ATOM     24  C   UNL     1      40.650  48.620  16.687 -0.45 -0.01    +0.041 C  ATOM     25  C   UNL     1      40.107  46.227  16.041 -0.45 -0.01    +0.041 C  ATOM     26  C   UNL     1      41.044  47.146  16.835 -0.36 -0.01    +0.095 C  BRANCH  26  27ATOM     27  N   UNL     1      41.172  46.737  18.226 -0.31 +0.01    -0.291 N  ATOM     28  C   UNL     1      42.213  47.015  19.067 -0.32 +0.02    +0.295 A  ATOM     29  C   UNL     1      40.255  46.005  18.954 -0.40 -0.00    +0.072 A  ATOM     30  N   UNL     1      42.054  46.529  20.267 -0.29 -0.03    -0.195 NA ATOM     31  C   UNL     1      39.010  45.440  18.650 -0.40 -0.00    +0.029 A  ATOM     32  C   UNL     1      40.836  45.896  20.219 -0.31 +0.01    +0.092 A  ATOM     33  C   UNL     1      38.351  44.749  19.675 -0.37 -0.00    +0.002 A  ATOM     34  C   UNL     1      40.159  45.200  21.232 -0.30 +0.00    +0.031 A  ATOM     35  C   UNL     1      38.913  44.630  20.947 -0.35 +0.00    +0.002 A  BRANCH  28  36ATOM     36  O   UNL     1      43.288  47.703  18.739 -0.31 -0.05    -0.480 OA ATOM     37  H   UNL     1      43.358  48.312  19.496 -0.40 -0.04    +0.296 HD ENDBRANCH  28  36ENDBRANCH  26  27ENDBRANCH  20  21ENDBRANCH   4  20TORSDOF 8TERENDMDL