
     RDKit          3D

 49 51  0  0  0  0  0  0  0  0999 V2000
   -4.4386   -2.1540    0.9697 C   0  0  0  0  0  0  0  0  0  0  0  0
   -3.3247   -1.2992    0.3111 C   0  0  0  0  0  0  0  0  0  0  0  0
   -3.2274   -1.7519   -1.1839 C   0  0  0  0  0  0  0  0  0  0  0  0
   -2.9851   -3.0888   -1.3988 N   0  0  0  0  0  0  0  0  0  0  0  0
   -3.3298   -1.0214   -2.1666 O   0  0  0  0  0  0  0  0  0  0  0  0
   -1.9231   -1.5286    0.9443 C   0  0  0  0  0  0  0  0  0  0  0  0
   -1.7131   -2.3255    2.0796 C   0  0  0  0  0  0  0  0  0  0  0  0
   -0.4278   -2.5164    2.5889 C   0  0  0  0  0  0  0  0  0  0  0  0
    0.6701   -1.9093    1.9789 C   0  0  0  0  0  0  0  0  0  0  0  0
    0.5073   -1.0904    0.8535 C   0  0  0  0  0  0  0  0  0  0  0  0
    1.6617   -0.4346    0.2157 C   0  0  0  0  0  0  0  0  0  0  0  0
    2.5694    0.3287    0.9674 C   0  0  0  0  0  0  0  0  0  0  0  0
    3.6700    0.9550    0.3667 C   0  0  0  0  0  0  0  0  0  0  0  0
    3.8851    0.8286   -1.0039 C   0  0  0  0  0  0  0  0  0  0  0  0
    4.9133    1.3828   -1.7141 O   0  0  0  0  0  0  0  0  0  0  0  0
    5.8633    2.1551   -0.9841 C   0  0  0  0  0  0  0  0  0  0  0  0
    6.9155    2.6775   -1.9577 C   0  0  0  0  0  0  0  0  0  0  0  0
    7.9325    3.3995   -1.2727 O   0  0  0  0  0  0  0  0  0  0  0  0
    2.9898    0.0754   -1.7638 C   0  0  0  0  0  0  0  0  0  0  0  0
    1.8910   -0.5482   -1.1634 C   0  0  0  0  0  0  0  0  0  0  0  0
   -0.7953   -0.9111    0.3547 C   0  0  0  0  0  0  0  0  0  0  0  0
   -3.7907    0.1700    0.4749 C   0  0  0  0  0  0  0  0  0  0  0  0
   -4.7735    0.7333   -0.3451 C   0  0  0  0  0  0  0  0  0  0  0  0
   -5.2030    2.0393   -0.1127 C   0  0  0  0  0  0  0  0  0  0  0  0
   -4.6637    2.7577    0.9435 C   0  0  0  0  0  0  0  0  0  0  0  0
   -3.7213    2.1318    1.7353 C   0  0  0  0  0  0  0  0  0  0  0  0
   -3.2938    0.8660    1.5358 N   0  0  0  0  0  0  0  0  0  0  0  0
   -4.6208   -1.8537    2.0091 H   0  0  0  0  0  0  0  0  0  0  0  0
   -4.1982   -3.2236    0.9718 H   0  0  0  0  0  0  0  0  0  0  0  0
   -5.3896   -2.0495    0.4321 H   0  0  0  0  0  0  0  0  0  0  0  0
   -2.4799   -3.6153   -0.6959 H   0  0  0  0  0  0  0  0  0  0  0  0
   -2.7861   -3.3311   -2.3619 H   0  0  0  0  0  0  0  0  0  0  0  0
   -2.5384   -2.8018    2.6012 H   0  0  0  0  0  0  0  0  0  0  0  0
   -0.2811   -3.1353    3.4707 H   0  0  0  0  0  0  0  0  0  0  0  0
    1.6618   -2.0806    2.3922 H   0  0  0  0  0  0  0  0  0  0  0  0
    2.4146    0.4573    2.0373 H   0  0  0  0  0  0  0  0  0  0  0  0
    4.3298    1.5369    1.0010 H   0  0  0  0  0  0  0  0  0  0  0  0
    5.3789    3.0074   -0.4917 H   0  0  0  0  0  0  0  0  0  0  0  0
    6.3556    1.5399   -0.2206 H   0  0  0  0  0  0  0  0  0  0  0  0
    7.3758    1.8569   -2.5188 H   0  0  0  0  0  0  0  0  0  0  0  0
    6.4521    3.3444   -2.6924 H   0  0  0  0  0  0  0  0  0  0  0  0
    8.4589    2.7543   -0.7699 H   0  0  0  0  0  0  0  0  0  0  0  0
    3.1451   -0.0282   -2.8349 H   0  0  0  0  0  0  0  0  0  0  0  0
    1.2162   -1.1319   -1.7859 H   0  0  0  0  0  0  0  0  0  0  0  0
   -0.9410   -0.2508   -0.5020 H   0  0  0  0  0  0  0  0  0  0  0  0
   -5.2141    0.1763   -1.1665 H   0  0  0  0  0  0  0  0  0  0  0  0
   -5.9547    2.4882   -0.7559 H   0  0  0  0  0  0  0  0  0  0  0  0
   -4.9731    3.7760    1.1473 H   0  0  0  0  0  0  0  0  0  0  0  0
   -3.2698    2.6428    2.5805 H   0  0  0  0  0  0  0  0  0  0  0  0
  1  2  1  0
  2  3  1  0
  3  4  1  0
  3  5  2  0
  2  6  1  0
  6  7  2  0
  7  8  1  0
  8  9  2  0
  9 10  1  0
 10 11  1  0
 11 12  2  0
 12 13  1  0
 13 14  2  0
 14 15  1  0
 15 16  1  0
 16 17  1  0
 17 18  1  0
 14 19  1  0
 19 20  2  0
 10 21  2  0
  2 22  1  0
 22 23  2  0
 23 24  1  0
 24 25  2  0
 25 26  1  0
 26 27  2  0
 21  6  1  0
 27 22  1  0
 20 11  1  0
  1 28  1  0
  1 29  1  0
  1 30  1  0
  4 31  1  0
  4 32  1  0
  7 33  1  0
  8 34  1  0
  9 35  1  0
 12 36  1  0
 13 37  1  0
 16 38  1  0
 16 39  1  0
 17 40  1  0
 17 41  1  0
 18 42  1  0
 19 43  1  0
 20 44  1  0
 21 45  1  0
 23 46  1  0
 24 47  1  0
 25 48  1  0
 26 49  1  0
M  END
$$$$
