
     RDKit          3D

 47 49  0  0  0  0  0  0  0  0999 V2000
   -0.0496    0.9997    0.4436 C   0  0  0  0  0  0  0  0  0  0  0  0
    0.0086   -0.5114    0.4357 C   0  0  0  0  0  0  0  0  0  0  0  0
   -1.1839   -1.2754    0.4842 C   0  0  0  0  0  0  0  0  0  0  0  0
   -2.5299   -0.6541    0.5451 C   0  0  0  0  0  0  0  0  0  0  0  0
   -3.0647   -0.3059   -0.6437 C   0  0  0  0  0  0  0  0  0  0  0  0
   -4.3491    0.3237   -0.9600 C   0  0  0  0  0  0  0  0  0  0  0  0
   -4.7955    1.4895   -0.3477 C   0  0  0  0  0  0  0  0  0  0  0  0
   -5.9929    2.0582   -0.7759 C   0  0  0  0  0  0  0  0  0  0  0  0
   -6.6961    1.4621   -1.8142 C   0  0  0  0  0  0  0  0  0  0  0  0
   -6.1640    0.3214   -2.3897 C   0  0  0  0  0  0  0  0  0  0  0  0
   -5.0025   -0.2484   -1.9996 N   0  0  0  0  0  0  0  0  0  0  0  0
   -3.2406   -0.5025    1.8604 C   0  0  0  0  0  0  0  0  0  0  0  0
   -2.4784   -0.7038    2.9723 N   0  0  0  0  0  0  0  0  0  0  0  0
   -4.4248   -0.2208    1.9840 O   0  0  0  0  0  0  0  0  0  0  0  0
   -1.1229   -2.6782    0.4659 C   0  0  0  0  0  0  0  0  0  0  0  0
    0.1014   -3.3318    0.3918 C   0  0  0  0  0  0  0  0  0  0  0  0
    1.2767   -2.5890    0.3204 C   0  0  0  0  0  0  0  0  0  0  0  0
    1.2543   -1.1814    0.3287 C   0  0  0  0  0  0  0  0  0  0  0  0
    2.5334   -0.4632    0.2126 C   0  0  0  0  0  0  0  0  0  0  0  0
    3.4136   -0.3868    1.3055 C   0  0  0  0  0  0  0  0  0  0  0  0
    4.6282    0.2955    1.2007 C   0  0  0  0  0  0  0  0  0  0  0  0
    4.9730    0.8991   -0.0099 C   0  0  0  0  0  0  0  0  0  0  0  0
    6.5048    1.7800   -0.1567 S   0  0  0  0  0  0  0  0  0  0  0  0
    7.4911    0.6224   -0.8795 N   0  0  0  0  0  0  0  0  0  0  0  0
    6.3206    2.8609   -1.0945 O   0  0  0  0  0  0  0  0  0  0  0  0
    7.0484    1.9804    1.1670 O   0  0  0  0  0  0  0  0  0  0  0  0
    4.1115    0.8417   -1.1077 C   0  0  0  0  0  0  0  0  0  0  0  0
    2.8998    0.1565   -0.9943 C   0  0  0  0  0  0  0  0  0  0  0  0
    0.8220    1.4348    0.9423 H   0  0  0  0  0  0  0  0  0  0  0  0
   -0.9164    1.3721    0.9979 H   0  0  0  0  0  0  0  0  0  0  0  0
   -0.0995    1.3758   -0.5829 H   0  0  0  0  0  0  0  0  0  0  0  0
   -2.5073   -0.5256   -1.5542 H   0  0  0  0  0  0  0  0  0  0  0  0
   -4.2352    1.9502    0.4584 H   0  0  0  0  0  0  0  0  0  0  0  0
   -6.3718    2.9564   -0.2975 H   0  0  0  0  0  0  0  0  0  0  0  0
   -7.6336    1.8760   -2.1670 H   0  0  0  0  0  0  0  0  0  0  0  0
   -6.6717   -0.1802   -3.2083 H   0  0  0  0  0  0  0  0  0  0  0  0
   -2.9411   -0.6400    3.8686 H   0  0  0  0  0  0  0  0  0  0  0  0
   -1.5072   -0.9791    2.9458 H   0  0  0  0  0  0  0  0  0  0  0  0
   -2.0379   -3.2684    0.5001 H   0  0  0  0  0  0  0  0  0  0  0  0
    0.1395   -4.4180    0.3729 H   0  0  0  0  0  0  0  0  0  0  0  0
    2.2259   -3.1168    0.2403 H   0  0  0  0  0  0  0  0  0  0  0  0
    3.1459   -0.8525    2.2527 H   0  0  0  0  0  0  0  0  0  0  0  0
    5.2875    0.3551    2.0641 H   0  0  0  0  0  0  0  0  0  0  0  0
    8.2455    0.3823   -0.2341 H   0  0  0  0  0  0  0  0  0  0  0  0
    6.9824   -0.2017   -1.1964 H   0  0  0  0  0  0  0  0  0  0  0  0
    4.3706    1.3300   -2.0454 H   0  0  0  0  0  0  0  0  0  0  0  0
    2.2318    0.1113   -1.8534 H   0  0  0  0  0  0  0  0  0  0  0  0
  1  2  1  0
  2  3  2  0
  3  4  1  0
  4  5  2  3
  5  6  1  0
  6  7  2  0
  7  8  1  0
  8  9  2  0
  9 10  1  0
 10 11  2  0
  4 12  1  0
 12 13  1  0
 12 14  2  0
  3 15  1  0
 15 16  2  0
 16 17  1  0
 17 18  2  0
 18 19  1  0
 19 20  2  0
 20 21  1  0
 21 22  2  0
 22 23  1  0
 23 24  1  0
 23 25  2  0
 23 26  2  0
 22 27  1  0
 27 28  2  0
 18  2  1  0
 28 19  1  0
 11  6  1  0
  1 29  1  0
  1 30  1  0
  1 31  1  0
  5 32  1  0
  7 33  1  0
  8 34  1  0
  9 35  1  0
 10 36  1  0
 13 37  1  0
 13 38  1  0
 15 39  1  0
 16 40  1  0
 17 41  1  0
 20 42  1  0
 21 43  1  0
 24 44  1  0
 24 45  1  0
 27 46  1  0
 28 47  1  0
M  END
$$$$
