
     RDKit          3D

 43 45  0  0  0  0  0  0  0  0999 V2000
    0.1095    0.5749   -0.7215 C   0  0  0  0  0  0  0  0  0  0  0  0
    0.1676   -0.6054    0.2228 C   0  0  0  0  0  0  0  0  0  0  0  0
   -0.9840   -1.3978    0.4578 C   0  0  0  0  0  0  0  0  0  0  0  0
   -2.2910   -1.1132   -0.1779 C   0  0  0  0  0  0  0  0  0  0  0  0
   -2.5044   -1.6028   -1.5054 C   0  0  0  0  0  0  0  0  0  0  0  0
   -2.5995   -2.0260   -2.5834 N   0  0  0  0  0  0  0  0  0  0  0  0
   -3.1850   -0.4058    0.5437 C   0  0  0  0  0  0  0  0  0  0  0  0
   -4.5431    0.0121    0.1650 C   0  0  0  0  0  0  0  0  0  0  0  0
   -5.2928    0.8131    1.0229 C   0  0  0  0  0  0  0  0  0  0  0  0
   -6.5787    1.1925    0.6420 C   0  0  0  0  0  0  0  0  0  0  0  0
   -7.0806    0.7632   -0.5793 C   0  0  0  0  0  0  0  0  0  0  0  0
   -6.2709   -0.0316   -1.3701 C   0  0  0  0  0  0  0  0  0  0  0  0
   -5.0225   -0.4123   -1.0206 N   0  0  0  0  0  0  0  0  0  0  0  0
   -0.9136   -2.4991    1.3281 C   0  0  0  0  0  0  0  0  0  0  0  0
    0.2812   -2.8307    1.9560 C   0  0  0  0  0  0  0  0  0  0  0  0
    1.4221   -2.0718    1.7118 C   0  0  0  0  0  0  0  0  0  0  0  0
    1.3928   -0.9646    0.8428 C   0  0  0  0  0  0  0  0  0  0  0  0
    2.6475   -0.2351    0.6008 C   0  0  0  0  0  0  0  0  0  0  0  0
    3.3508   -0.4001   -0.6017 C   0  0  0  0  0  0  0  0  0  0  0  0
    4.5460    0.2901   -0.8334 C   0  0  0  0  0  0  0  0  0  0  0  0
    5.0678    1.1686    0.1268 C   0  0  0  0  0  0  0  0  0  0  0  0
    6.3721    1.8864   -0.0956 C   0  0  0  0  0  0  0  0  0  0  0  0
    6.5069    2.2660   -1.4581 O   0  0  0  0  0  0  0  0  0  0  0  0
    4.3783    1.3216    1.3358 C   0  0  0  0  0  0  0  0  0  0  0  0
    3.1871    0.6309    1.5601 C   0  0  0  0  0  0  0  0  0  0  0  0
    2.5581    0.8155    2.7315 F   0  0  0  0  0  0  0  0  0  0  0  0
   -0.8798    1.0416   -0.7340 H   0  0  0  0  0  0  0  0  0  0  0  0
    0.7993    1.3688   -0.4188 H   0  0  0  0  0  0  0  0  0  0  0  0
    0.3596    0.2516   -1.7368 H   0  0  0  0  0  0  0  0  0  0  0  0
   -2.8923   -0.0807    1.5410 H   0  0  0  0  0  0  0  0  0  0  0  0
   -4.8943    1.1464    1.9755 H   0  0  0  0  0  0  0  0  0  0  0  0
   -7.1817    1.8182    1.2939 H   0  0  0  0  0  0  0  0  0  0  0  0
   -8.0760    1.0399   -0.9077 H   0  0  0  0  0  0  0  0  0  0  0  0
   -6.6102   -0.3968   -2.3355 H   0  0  0  0  0  0  0  0  0  0  0  0
   -1.7940   -3.1119    1.5151 H   0  0  0  0  0  0  0  0  0  0  0  0
    0.3287   -3.6852    2.6258 H   0  0  0  0  0  0  0  0  0  0  0  0
    2.3542   -2.3535    2.1998 H   0  0  0  0  0  0  0  0  0  0  0  0
    2.9696   -1.0712   -1.3695 H   0  0  0  0  0  0  0  0  0  0  0  0
    5.0690    0.1448   -1.7778 H   0  0  0  0  0  0  0  0  0  0  0  0
    7.2047    1.2288    0.1749 H   0  0  0  0  0  0  0  0  0  0  0  0
    6.4207    2.7961    0.5119 H   0  0  0  0  0  0  0  0  0  0  0  0
    7.3484    2.7458   -1.5327 H   0  0  0  0  0  0  0  0  0  0  0  0
    4.7522    1.9788    2.1155 H   0  0  0  0  0  0  0  0  0  0  0  0
  1  2  1  0
  2  3  2  0
  3  4  1  0
  4  5  1  0
  5  6  3  0
  4  7  2  3
  7  8  1  0
  8  9  2  0
  9 10  1  0
 10 11  2  0
 11 12  1  0
 12 13  2  0
  3 14  1  0
 14 15  2  0
 15 16  1  0
 16 17  2  0
 17 18  1  0
 18 19  2  0
 19 20  1  0
 20 21  2  0
 21 22  1  0
 22 23  1  0
 21 24  1  0
 24 25  2  0
 25 26  1  0
 17  2  1  0
 25 18  1  0
 13  8  1  0
  1 27  1  0
  1 28  1  0
  1 29  1  0
  7 30  1  0
  9 31  1  0
 10 32  1  0
 11 33  1  0
 12 34  1  0
 14 35  1  0
 15 36  1  0
 16 37  1  0
 19 38  1  0
 20 39  1  0
 22 40  1  0
 22 41  1  0
 23 42  1  0
 24 43  1  0
M  END
$$$$
