
     RDKit          3D

 46 48  0  0  0  0  0  0  0  0999 V2000
   -0.5133    0.3270   -0.7739 C   0  0  0  0  0  0  0  0  0  0  0  0
    0.4802   -0.2179    0.2280 C   0  0  0  0  0  0  0  0  0  0  0  0
    0.0333   -0.7955    1.4421 C   0  0  0  0  0  0  0  0  0  0  0  0
   -1.4081   -0.9170    1.7763 C   0  0  0  0  0  0  0  0  0  0  0  0
   -1.8739   -0.0782    2.7244 C   0  0  0  0  0  0  0  0  0  0  0  0
   -3.2150    0.0181    3.3005 C   0  0  0  0  0  0  0  0  0  0  0  0
   -4.3278    0.3867    2.5544 C   0  0  0  0  0  0  0  0  0  0  0  0
   -5.5525    0.5274    3.2023 C   0  0  0  0  0  0  0  0  0  0  0  0
   -5.6254    0.3126    4.5728 C   0  0  0  0  0  0  0  0  0  0  0  0
   -4.4617   -0.0259    5.2421 C   0  0  0  0  0  0  0  0  0  0  0  0
   -3.2584   -0.1619    4.6421 N   0  0  0  0  0  0  0  0  0  0  0  0
   -2.2586   -1.9481    1.0902 C   0  0  0  0  0  0  0  0  0  0  0  0
   -1.5799   -2.9957    0.5414 N   0  0  0  0  0  0  0  0  0  0  0  0
   -3.4765   -1.8904    0.9862 O   0  0  0  0  0  0  0  0  0  0  0  0
    0.9655   -1.2978    2.3664 C   0  0  0  0  0  0  0  0  0  0  0  0
    2.3278   -1.2520    2.0944 C   0  0  0  0  0  0  0  0  0  0  0  0
    2.7725   -0.7131    0.8905 C   0  0  0  0  0  0  0  0  0  0  0  0
    1.8692   -0.1994   -0.0589 C   0  0  0  0  0  0  0  0  0  0  0  0
    2.4104    0.3317   -1.3192 C   0  0  0  0  0  0  0  0  0  0  0  0
    3.0162    1.5954   -1.3632 C   0  0  0  0  0  0  0  0  0  0  0  0
    3.5305    2.1019   -2.5610 C   0  0  0  0  0  0  0  0  0  0  0  0
    3.4448    1.3598   -3.7467 C   0  0  0  0  0  0  0  0  0  0  0  0
    4.0391    1.9051   -5.0188 C   0  0  0  0  0  0  0  0  0  0  0  0
    3.3246    1.4413   -6.1571 O   0  0  0  0  0  0  0  0  0  0  0  0
    2.8557    0.0896   -3.7001 C   0  0  0  0  0  0  0  0  0  0  0  0
    2.3413   -0.4164   -2.5025 C   0  0  0  0  0  0  0  0  0  0  0  0
   -0.1002    1.1681   -1.3391 H   0  0  0  0  0  0  0  0  0  0  0  0
   -0.8086   -0.4616   -1.4730 H   0  0  0  0  0  0  0  0  0  0  0  0
   -1.4094    0.7202   -0.2842 H   0  0  0  0  0  0  0  0  0  0  0  0
   -1.1863    0.6131    3.2099 H   0  0  0  0  0  0  0  0  0  0  0  0
   -4.2538    0.5505    1.4843 H   0  0  0  0  0  0  0  0  0  0  0  0
   -6.4403    0.7943    2.6366 H   0  0  0  0  0  0  0  0  0  0  0  0
   -6.5650    0.4054    5.1055 H   0  0  0  0  0  0  0  0  0  0  0  0
   -4.4658   -0.2035    6.3138 H   0  0  0  0  0  0  0  0  0  0  0  0
   -2.1227   -3.7140    0.0832 H   0  0  0  0  0  0  0  0  0  0  0  0
   -0.5782   -3.1069    0.6062 H   0  0  0  0  0  0  0  0  0  0  0  0
    0.6279   -1.7347    3.3054 H   0  0  0  0  0  0  0  0  0  0  0  0
    3.0424   -1.6421    2.8143 H   0  0  0  0  0  0  0  0  0  0  0  0
    3.8416   -0.6980    0.6828 H   0  0  0  0  0  0  0  0  0  0  0  0
    3.0843    2.1975   -0.4591 H   0  0  0  0  0  0  0  0  0  0  0  0
    3.9961    3.0847   -2.5591 H   0  0  0  0  0  0  0  0  0  0  0  0
    5.0829    1.5849   -5.1024 H   0  0  0  0  0  0  0  0  0  0  0  0
    3.9968    2.9996   -5.0213 H   0  0  0  0  0  0  0  0  0  0  0  0
    3.7262    1.8704   -6.9303 H   0  0  0  0  0  0  0  0  0  0  0  0
    2.7881   -0.5121   -4.6046 H   0  0  0  0  0  0  0  0  0  0  0  0
    1.8840   -1.4034   -2.4986 H   0  0  0  0  0  0  0  0  0  0  0  0
  1  2  1  0
  2  3  2  0
  3  4  1  0
  4  5  2  3
  5  6  1  0
  6  7  2  0
  7  8  1  0
  8  9  2  0
  9 10  1  0
 10 11  2  0
  4 12  1  0
 12 13  1  0
 12 14  2  0
  3 15  1  0
 15 16  2  0
 16 17  1  0
 17 18  2  0
 18 19  1  0
 19 20  2  0
 20 21  1  0
 21 22  2  0
 22 23  1  0
 23 24  1  0
 22 25  1  0
 25 26  2  0
 18  2  1  0
 26 19  1  0
 11  6  1  0
  1 27  1  0
  1 28  1  0
  1 29  1  0
  5 30  1  0
  7 31  1  0
  8 32  1  0
  9 33  1  0
 10 34  1  0
 13 35  1  0
 13 36  1  0
 15 37  1  0
 16 38  1  0
 17 39  1  0
 20 40  1  0
 21 41  1  0
 23 42  1  0
 23 43  1  0
 24 44  1  0
 25 45  1  0
 26 46  1  0
M  END
$$$$
