MODEL        1USER    Run = 1USERUSER    Estimated Free Energy of Binding    =  -8.84 kcal/mol  [=(1)+(2)+(3)-(4)]USERUSER    (1) Final Intermolecular Energy     = -10.34 kcal/molUSER        vdW + Hbond + desolv Energy     = -10.18 kcal/molUSER        Electrostatic Energy            =  -0.16 kcal/molUSER        Moving Ligand-Fixed Receptor    = -10.34 kcal/molUSER        Moving Ligand-Moving Receptor   =  +0.00 kcal/molUSER    (2) Final Total Internal Energy     =  -1.27 kcal/molUSER    (3) Torsional Free Energy           =  +1.49 kcal/molUSER    (4) Unbound System's Energy         =  -1.27 kcal/molUSERUSERREMARK SMILES COc1ccc(S(=O)(=O)Nc2ccc(N3CCCCC3)cc2)c(C)c1REMARK SMILES IDX 7 1 8 2 9 3 6 4 3 5 4 6 25 7 5 8 23 9 24 10 2 11 1 12 10 13REMARK SMILES IDX 11 15 12 16 22 17 13 18 21 19 14 20 15 21 16 22 20 23 17 24REMARK SMILES IDX 19 25 18 26REMARK H PARENT 10 14USER                              x       y       z     vdW  Elec       q    TypeUSER                           _______ _______ _______ _____ _____    ______ ____ROOTATOM      1  S   UNL     1      37.269  46.488  13.059 -0.54 -0.09    +0.262 S  ATOM      2  O   UNL     1      37.615  45.097  12.849 -0.34 +0.06    -0.201 OA ATOM      3  O   UNL     1      37.141  47.388  11.931 -1.15 +0.05    -0.201 OA ENDROOTBRANCH   1   4ATOM      4  C   UNL     1      38.448  47.191  14.210 -0.41 -0.03    +0.090 A  ATOM      5  C   UNL     1      40.396  48.177  15.976 -0.47 -0.03    +0.119 A  ATOM      6  C   UNL     1      40.586  46.958  15.331 -0.41 -0.00    +0.048 A  ATOM      7  C   UNL     1      39.229  48.906  15.732 -0.44 -0.03    +0.051 A  ATOM      8  C   UNL     1      39.625  46.466  14.447 -0.33 -0.00    +0.026 A  ATOM      9  C   UNL     1      38.233  48.425  14.854 -0.52 +0.02    -0.027 A  ATOM     10  C   UNL     1      37.014  49.278  14.633 -0.38 -0.04    +0.046 C  BRANCH   5  11ATOM     11  O   UNL     1      41.414  48.545  16.811 -0.71 +0.01    -0.497 OA ATOM     12  C   UNL     1      41.643  47.730  17.953 -0.35 -0.02    +0.278 C  ENDBRANCH   5  11ENDBRANCH   1   4BRANCH   1  13ATOM     13  N   UNL     1      35.807  46.567  13.905 -0.27 +0.19    -0.280 N  ATOM     14  H   UNL     1      35.386  47.492  13.863 +0.13 -0.16    +0.180 HD BRANCH  13  15ATOM     15  C   UNL     1      35.670  45.825  15.110 -0.34 -0.03    +0.049 A  ATOM     16  C   UNL     1      35.429  46.458  16.322 -0.26 -0.03    +0.029 A  ATOM     17  C   UNL     1      35.740  44.438  15.064 -0.25 -0.01    +0.029 A  ATOM     18  C   UNL     1      35.235  45.701  17.484 -0.35 -0.02    +0.028 A  ATOM     19  C   UNL     1      35.540  43.692  16.233 -0.37 -0.01    +0.028 A  ATOM     20  C   UNL     1      35.259  44.297  17.471 -0.28 -0.01    +0.037 A  BRANCH  20  21ATOM     21  N   UNL     1      35.062  43.517  18.611 -0.09 +0.08    -0.372 N  ATOM     22  C   UNL     1      34.884  42.064  18.426 -0.37 -0.02    +0.116 C  ATOM     23  C   UNL     1      34.338  44.046  19.776 -0.36 -0.02    +0.116 C  ATOM     24  C   UNL     1      33.399  41.733  18.263 -0.46 -0.00    +0.021 C  ATOM     25  C   UNL     1      32.840  43.747  19.674 -0.50 -0.00    +0.021 C  ATOM     26  C   UNL     1      32.587  42.257  19.445 -0.38 +0.00    +0.004 C  ENDBRANCH  20  21ENDBRANCH  13  15ENDBRANCH   1  13TORSDOF 5TERENDMDL