REMARK SMILES Cc1cc(CN2CCNCC2)ccc1S(=O)(=O)Nc1ccc(N2CCCCC2)cc1
REMARK SMILES IDX 1 1 2 2 3 3 4 4 12 5 13 6 14 7 15 8 16 9 17 10 18 11 19 13
REMARK SMILES IDX 20 14 30 15 21 16 29 17 22 18 23 19 24 20 28 21 25 22 27 23
REMARK SMILES IDX 26 24 5 25 6 26 7 27 11 28 8 29 10 30 9 31
REMARK H PARENT 18 12 9 32
ROOT
ATOM      1  C   UNL     1      -0.571  -1.501   2.269  1.00  0.00     0.046 C 
ATOM      2  C   UNL     1      -1.117  -1.530   0.870  1.00  0.00    -0.030 A 
ATOM      3  C   UNL     1      -1.970  -0.480   0.478  1.00  0.00     0.010 A 
ATOM      4  C   UNL     1      -2.559  -0.434  -0.797  1.00  0.00    -0.034 A 
ATOM      5  C   UNL     1      -2.285  -1.460  -1.704  1.00  0.00     0.006 A 
ATOM      6  C   UNL     1      -1.443  -2.510  -1.340  1.00  0.00     0.023 A 
ATOM      7  C   UNL     1      -0.849  -2.545  -0.064  1.00  0.00     0.090 A 
ENDROOT
BRANCH   7   8
ATOM      8  S   UNL     1       0.204  -3.956   0.268  1.00  0.00     0.262 S 
ATOM      9  O   UNL     1      -0.393  -5.094  -0.405  1.00  0.00    -0.201 OA
ATOM     10  O   UNL     1       0.527  -4.027   1.675  1.00  0.00    -0.201 OA
BRANCH   8  11
ATOM     11  N   UNL     1       1.607  -3.597  -0.608  1.00  0.00    -0.280 N 
ATOM     12  H   UNL     1       1.537  -3.904  -1.576  1.00  0.00     0.180 HD
BRANCH  11  13
ATOM     13  C   UNL     1       2.297  -2.384  -0.346  1.00  0.00     0.049 A 
ATOM     14  C   UNL     1       2.966  -2.191   0.853  1.00  0.00     0.029 A 
ATOM     15  C   UNL     1       2.269  -1.362  -1.287  1.00  0.00     0.029 A 
ATOM     16  C   UNL     1       3.616  -0.976   1.102  1.00  0.00     0.028 A 
ATOM     17  C   UNL     1       2.921  -0.148  -1.024  1.00  0.00     0.028 A 
ATOM     18  C   UNL     1       3.630   0.075   0.167  1.00  0.00     0.037 A 
BRANCH  18  19
ATOM     19  N   UNL     1       4.277   1.275   0.458  1.00  0.00    -0.372 N 
ATOM     20  C   UNL     1       4.041   2.484  -0.344  1.00  0.00     0.116 C 
ATOM     21  C   UNL     1       5.632   1.211   1.034  1.00  0.00     0.116 C 
ATOM     22  C   UNL     1       5.054   2.584  -1.486  1.00  0.00     0.021 C 
ATOM     23  C   UNL     1       6.676   1.258  -0.084  1.00  0.00     0.021 C 
ATOM     24  C   UNL     1       6.487   2.493  -0.964  1.00  0.00     0.004 C 
ENDBRANCH  18  19
ENDBRANCH  11  13
ENDBRANCH   8  11
ENDBRANCH   7   8
BRANCH   4  25
ATOM     25  C   UNL     1      -3.467   0.717  -1.181  1.00  0.00     0.120 C 
BRANCH  25  26
ATOM     26  N   UNL     1      -4.590   0.908  -0.258  1.00  0.00    -0.297 NA
ATOM     27  C   UNL     1      -5.563  -0.191  -0.286  1.00  0.00     0.100 C 
ATOM     28  C   UNL     1      -5.263   2.201  -0.496  1.00  0.00     0.100 C 
ATOM     29  C   UNL     1      -6.682  -0.003   0.773  1.00  0.00     0.096 C 
ATOM     30  C   UNL     1      -6.753   2.260  -0.068  1.00  0.00     0.096 C 
ATOM     31  N   UNL     1      -7.070   1.387   1.059  1.00  0.00    -0.314 NA
ATOM     32  H   UNL     1      -8.060   1.433   1.289  1.00  0.00     0.122 HD
ENDBRANCH  25  26
ENDBRANCH   4  25
TORSDOF 6
