REMARK SMILES COc1ccc(S(=O)(=O)Nc2ccc(N3CCCCC3)cc2)c(C)c1
REMARK SMILES IDX 7 1 8 2 9 3 6 4 3 5 4 6 25 7 5 8 23 9 24 10 2 11 1 12 10 13
REMARK SMILES IDX 11 15 12 16 22 17 13 18 21 19 14 20 15 21 16 22 20 23 17 24
REMARK SMILES IDX 19 25 18 26
REMARK H PARENT 10 14
ROOT
ATOM      1  S   UNL     1       2.117   1.924  -2.679  1.00  0.00     0.262 S 
ATOM      2  O   UNL     1       1.464   1.242  -3.778  1.00  0.00    -0.201 OA
ATOM      3  O   UNL     1       3.285   2.746  -2.919  1.00  0.00    -0.201 OA
ENDROOT
BRANCH   1   4
ATOM      4  C   UNL     1       2.530   0.708  -1.430  1.00  0.00     0.090 A 
ATOM      5  C   UNL     1       3.100  -1.307   0.441  1.00  0.00     0.119 A 
ATOM      6  C   UNL     1       2.240  -1.561  -0.624  1.00  0.00     0.048 A 
ATOM      7  C   UNL     1       3.679  -0.041   0.566  1.00  0.00     0.051 A 
ATOM      8  C   UNL     1       1.959  -0.567  -1.561  1.00  0.00     0.026 A 
ATOM      9  C   UNL     1       3.400   0.989  -0.359  1.00  0.00    -0.027 A 
ATOM     10  C   UNL     1       4.077   2.317  -0.163  1.00  0.00     0.046 C 
BRANCH   5  11
ATOM     11  O   UNL     1       3.294  -2.367   1.283  1.00  0.00    -0.497 OA
ATOM     12  C   UNL     1       4.199  -2.180   2.363  1.00  0.00     0.278 C 
ENDBRANCH   5  11
ENDBRANCH   1   4
BRANCH   1  13
ATOM     13  N   UNL     1       0.987   2.911  -1.899  1.00  0.00    -0.280 N 
ATOM     14  H   UNL     1       1.422   3.708  -1.440  1.00  0.00     0.180 HD
BRANCH  13  15
ATOM     15  C   UNL     1      -0.133   2.306  -1.266  1.00  0.00     0.049 A 
ATOM     16  C   UNL     1      -1.091   1.620  -2.000  1.00  0.00     0.029 A 
ATOM     17  C   UNL     1      -0.247   2.371   0.117  1.00  0.00     0.029 A 
ATOM     18  C   UNL     1      -2.152   0.980  -1.346  1.00  0.00     0.028 A 
ATOM     19  C   UNL     1      -1.310   1.723   0.759  1.00  0.00     0.028 A 
ATOM     20  C   UNL     1      -2.279   0.989   0.052  1.00  0.00     0.037 A 
BRANCH  20  21
ATOM     21  N   UNL     1      -3.320   0.354   0.731  1.00  0.00    -0.372 N 
ATOM     22  C   UNL     1      -2.975  -0.453   1.917  1.00  0.00     0.116 C 
ATOM     23  C   UNL     1      -4.500  -0.148   0.011  1.00  0.00     0.116 C 
ATOM     24  C   UNL     1      -2.709  -1.902   1.506  1.00  0.00     0.021 C 
ATOM     25  C   UNL     1      -4.297  -1.600  -0.429  1.00  0.00     0.021 C 
ATOM     26  C   UNL     1      -3.901  -2.487   0.751  1.00  0.00     0.004 C 
ENDBRANCH  20  21
ENDBRANCH  13  15
ENDBRANCH   1  13
TORSDOF 5
