MODEL        9USER    Run = 9USERUSER    Estimated Free Energy of Binding    = -10.51 kcal/mol  [=(1)+(2)+(3)-(4)]USERUSER    (1) Final Intermolecular Energy     = -12.30 kcal/molUSER        vdW + Hbond + desolv Energy     = -12.27 kcal/molUSER        Electrostatic Energy            =  -0.03 kcal/molUSER        Moving Ligand-Fixed Receptor    = -12.30 kcal/molUSER        Moving Ligand-Moving Receptor   =  +0.00 kcal/molUSER    (2) Final Total Internal Energy     =  -1.27 kcal/molUSER    (3) Torsional Free Energy           =  +1.79 kcal/molUSER    (4) Unbound System's Energy         =  -1.27 kcal/molUSERUSERREMARK SMILES Cc1cc(CN2CCNCC2)ccc1S(=O)(=O)Nc1ccc(N2CCCCC2)cc1REMARK SMILES IDX 1 1 2 2 3 3 4 4 12 5 13 6 14 7 15 8 16 9 17 10 18 11 19 13REMARK SMILES IDX 20 14 30 15 21 16 29 17 22 18 23 19 24 20 28 21 25 22 27 23REMARK SMILES IDX 26 24 5 25 6 26 7 27 11 28 8 29 10 30 9 31REMARK H PARENT 18 12 9 32USER                              x       y       z     vdW  Elec       q    TypeUSER                           _______ _______ _______ _____ _____    ______ ____ROOTATOM      1  C   UNL     1      33.827  46.115  18.716 -0.52 -0.03    +0.046 C  ATOM      2  C   UNL     1      35.004  45.531  17.988 -0.38 +0.02    -0.030 A  ATOM      3  C   UNL     1      35.735  46.382  17.136 -0.33 -0.01    +0.010 A  ATOM      4  C   UNL     1      36.831  45.923  16.386 -0.34 +0.02    -0.034 A  ATOM      5  C   UNL     1      37.208  44.583  16.492 -0.34 -0.00    +0.006 A  ATOM      6  C   UNL     1      36.500  43.721  17.329 -0.28 -0.01    +0.023 A  ATOM      7  C   UNL     1      35.409  44.189  18.086 -0.26 -0.03    +0.090 A  ENDROOTBRANCH   7   8ATOM      8  S   UNL     1      34.590  42.970  19.112 -0.39 -0.03    +0.262 S  ATOM      9  O   UNL     1      33.915  42.051  18.215 -0.31 +0.05    -0.201 OA ATOM     10  O   UNL     1      33.862  43.615  20.181 -0.81 -0.01    -0.201 OA BRANCH   8  11ATOM     11  N   UNL     1      35.883  42.096  19.767 -0.25 +0.02    -0.280 N  ATOM     12  H   UNL     1      36.607  41.917  19.075 +0.16 -0.02    +0.180 HD BRANCH  11  13ATOM     13  C   UNL     1      36.292  42.357  21.101 -0.46 +0.00    +0.049 A  ATOM     14  C   UNL     1      36.212  41.373  22.075 -0.54 +0.00    +0.029 A  ATOM     15  C   UNL     1      36.740  43.626  21.445 -0.38 +0.00    +0.029 A  ATOM     16  C   UNL     1      36.594  41.661  23.391 -0.43 +0.00    +0.028 A  ATOM     17  C   UNL     1      37.116  43.903  22.768 -0.32 +0.00    +0.028 A  ATOM     18  C   UNL     1      37.074  42.927  23.775 -0.37 +0.00    +0.037 A  BRANCH  18  19ATOM     19  N   UNL     1      37.432  43.178  25.099 -0.10 -0.00    -0.372 N  ATOM     20  C   UNL     1      37.951  42.111  25.966 -0.30 -0.01    +0.116 C  ATOM     21  C   UNL     1      36.688  44.217  25.833 -0.34 -0.01    +0.116 C  ATOM     22  C   UNL     1      36.815  41.435  26.736 -0.51 -0.01    +0.021 C  ATOM     23  C   UNL     1      35.509  43.586  26.578 -0.50 -0.00    +0.021 C  ATOM     24  C   UNL     1      35.978  42.460  27.499 -0.55 -0.00    +0.004 C  ENDBRANCH  18  19ENDBRANCH  11  13ENDBRANCH   8  11ENDBRANCH   7   8BRANCH   4  25ATOM     25  C   UNL     1      37.595  46.873  15.485 -0.38 -0.06    +0.120 C  BRANCH  25  26ATOM     26  N   UNL     1      38.804  47.422  16.106 -0.22 +0.12    -0.297 NA ATOM     27  C   UNL     1      39.791  47.909  15.135 -0.53 -0.03    +0.100 C  ATOM     28  C   UNL     1      39.422  46.445  17.026 -0.44 -0.02    +0.100 C  ATOM     29  C   UNL     1      41.011  48.572  15.829 -0.57 -0.01    +0.096 C  ATOM     30  C   UNL     1      40.947  46.620  17.250 -0.43 -0.01    +0.096 C  ATOM     31  N   UNL     1      41.398  48.004  17.129 -0.46 +0.02    -0.314 NA ATOM     32  H   UNL     1      42.406  48.071  17.254 -0.38 +0.00    +0.122 HD ENDBRANCH  25  26ENDBRANCH   4  25TORSDOF 6TERENDMDL