
     RDKit          3D

 41 43  0  0  0  0  0  0  0  0999 V2000
   -4.2323    2.7826   -0.6018 N   0  0  0  0  0  0  0  0  0  0  0  0
   -3.4989    1.8414   -1.4234 C   0  0  0  0  0  0  0  0  0  0  0  0
   -2.6772    0.8558   -0.7574 N   0  0  0  0  0  0  0  0  0  0  0  0
   -3.2480   -0.3118   -0.2136 C   0  0  0  0  0  0  0  0  0  0  0  0
   -4.5973   -0.3677    0.1746 C   0  0  0  0  0  0  0  0  0  0  0  0
   -5.1477   -1.5103    0.7618 C   0  0  0  0  0  0  0  0  0  0  0  0
   -4.3515   -2.6208    1.0024 C   0  0  0  0  0  0  0  0  0  0  0  0
   -3.0000   -2.5807    0.6694 C   0  0  0  0  0  0  0  0  0  0  0  0
   -2.4247   -1.4360    0.0780 C   0  0  0  0  0  0  0  0  0  0  0  0
   -0.9788   -1.4551   -0.2156 C   0  0  0  0  0  0  0  0  0  0  0  0
   -0.4478   -2.3271   -1.1649 C   0  0  0  0  0  0  0  0  0  0  0  0
    0.9129   -2.2907   -1.4027 C   0  0  0  0  0  0  0  0  0  0  0  0
    1.7669   -1.4600   -0.7683 N   0  0  0  0  0  0  0  0  0  0  0  0
    1.2707   -0.6223    0.1646 C   0  0  0  0  0  0  0  0  0  0  0  0
    2.0997    0.2865    0.8645 N   0  0  0  0  0  0  0  0  0  0  0  0
    3.4620    0.5977    0.6606 C   0  0  0  0  0  0  0  0  0  0  0  0
    4.1038    0.4560   -0.5756 C   0  0  0  0  0  0  0  0  0  0  0  0
    5.4397    0.8372   -0.7477 C   0  0  0  0  0  0  0  0  0  0  0  0
    6.1521    1.3921    0.3121 C   0  0  0  0  0  0  0  0  0  0  0  0
    5.5136    1.5704    1.5325 C   0  0  0  0  0  0  0  0  0  0  0  0
    6.1612    2.1256    2.5977 O   0  0  0  0  0  0  0  0  0  0  0  0
    4.1842    1.1918    1.7075 C   0  0  0  0  0  0  0  0  0  0  0  0
   -0.0947   -0.5974    0.4531 C   0  0  0  0  0  0  0  0  0  0  0  0
   -3.5998    3.0640    0.1444 H   0  0  0  0  0  0  0  0  0  0  0  0
   -4.4342    3.6153   -1.1476 H   0  0  0  0  0  0  0  0  0  0  0  0
   -2.8205    2.4349   -2.0489 H   0  0  0  0  0  0  0  0  0  0  0  0
   -4.1863    1.3562   -2.1273 H   0  0  0  0  0  0  0  0  0  0  0  0
   -1.8548    0.6234   -1.3100 H   0  0  0  0  0  0  0  0  0  0  0  0
   -5.2525    0.4872    0.0305 H   0  0  0  0  0  0  0  0  0  0  0  0
   -6.1984   -1.5201    1.0397 H   0  0  0  0  0  0  0  0  0  0  0  0
   -4.7748   -3.5080    1.4650 H   0  0  0  0  0  0  0  0  0  0  0  0
   -2.3804   -3.4475    0.8921 H   0  0  0  0  0  0  0  0  0  0  0  0
   -1.0800   -3.0146   -1.7169 H   0  0  0  0  0  0  0  0  0  0  0  0
    1.3703   -2.9482   -2.1363 H   0  0  0  0  0  0  0  0  0  0  0  0
    1.8646    0.2676    1.8508 H   0  0  0  0  0  0  0  0  0  0  0  0
    3.5691    0.0491   -1.4294 H   0  0  0  0  0  0  0  0  0  0  0  0
    5.9149    0.7029   -1.7157 H   0  0  0  0  0  0  0  0  0  0  0  0
    7.1864    1.6840    0.1647 H   0  0  0  0  0  0  0  0  0  0  0  0
    7.0716    2.3321    2.3299 H   0  0  0  0  0  0  0  0  0  0  0  0
    3.7183    1.3624    2.6737 H   0  0  0  0  0  0  0  0  0  0  0  0
   -0.4815    0.1017    1.1903 H   0  0  0  0  0  0  0  0  0  0  0  0
  1  2  1  0
  2  3  1  0
  3  4  1  0
  4  5  2  0
  5  6  1  0
  6  7  2  0
  7  8  1  0
  8  9  2  0
  9 10  1  0
 10 11  2  0
 11 12  1  0
 12 13  2  0
 13 14  1  0
 14 15  1  0
 15 16  1  0
 16 17  2  0
 17 18  1  0
 18 19  2  0
 19 20  1  0
 20 21  1  0
 20 22  2  0
 14 23  2  0
  9  4  1  0
 23 10  1  0
 22 16  1  0
  1 24  1  0
  1 25  1  0
  2 26  1  0
  2 27  1  0
  3 28  1  0
  5 29  1  0
  6 30  1  0
  7 31  1  0
  8 32  1  0
 11 33  1  0
 12 34  1  0
 15 35  1  0
 17 36  1  0
 18 37  1  0
 19 38  1  0
 21 39  1  0
 22 40  1  0
 23 41  1  0
M  END
$$$$
