
     RDKit          3D

 38 39  0  0  0  0  0  0  0  0999 V2000
    6.8304    1.8217    1.2831 C   0  0  0  0  0  0  0  0  0  0  0  0
    5.8002    0.8224    0.8564 C   0  0  0  0  0  0  0  0  0  0  0  0
    4.5265    0.6994    1.2778 C   0  0  0  0  0  0  0  0  0  0  0  0
    3.7802    1.8618    2.5529 Br  0  0  0  0  0  0  0  0  0  0  0  0
    3.6861   -0.3508    0.7114 C   0  0  0  0  0  0  0  0  0  0  0  0
    2.4325   -0.6713    1.0713 C   0  0  0  0  0  0  0  0  0  0  0  0
    1.6051   -1.9457    0.2444 S   0  0  0  0  0  0  0  0  0  0  0  0
    2.5531   -2.9653   -0.1592 O   0  0  0  0  0  0  0  0  0  0  0  0
    0.4468   -2.3286    1.0257 O   0  0  0  0  0  0  0  0  0  0  0  0
    1.0212   -1.2919   -1.2175 N   0  0  0  0  0  0  0  0  0  0  0  0
    0.0507   -0.2343   -1.1080 C   0  0  0  0  0  0  0  0  0  0  0  0
   -1.2743   -0.5475   -0.7766 C   0  0  0  0  0  0  0  0  0  0  0  0
   -2.2417    0.4603   -0.6349 C   0  0  0  0  0  0  0  0  0  0  0  0
   -3.6195    0.1464   -0.2826 C   0  0  0  0  0  0  0  0  0  0  0  0
   -4.6526    0.9655    0.2367 C   0  0  0  0  0  0  0  0  0  0  0  0
   -5.8001    0.3070    0.4169 N   0  0  0  0  0  0  0  0  0  0  0  0
   -5.5080   -0.9438    0.0234 N   0  0  0  0  0  0  0  0  0  0  0  0
   -6.5276   -1.9629    0.0762 C   0  0  0  0  0  0  0  0  0  0  0  0
   -4.2208   -1.0904   -0.4096 C   0  0  0  0  0  0  0  0  0  0  0  0
   -1.8535    1.7933   -0.8324 C   0  0  0  0  0  0  0  0  0  0  0  0
   -0.5341    2.1136   -1.1667 C   0  0  0  0  0  0  0  0  0  0  0  0
    0.4170    1.1037   -1.3059 C   0  0  0  0  0  0  0  0  0  0  0  0
    2.0182    1.5551   -1.7684 Cl  0  0  0  0  0  0  0  0  0  0  0  0
    7.1569    2.4037    0.4153 H   0  0  0  0  0  0  0  0  0  0  0  0
    6.4835    2.5235    2.0439 H   0  0  0  0  0  0  0  0  0  0  0  0
    7.7025    1.2975    1.6871 H   0  0  0  0  0  0  0  0  0  0  0  0
    6.1729    0.1236    0.1080 H   0  0  0  0  0  0  0  0  0  0  0  0
    4.1465   -0.9219   -0.0970 H   0  0  0  0  0  0  0  0  0  0  0  0
    1.8803   -0.1842    1.8601 H   0  0  0  0  0  0  0  0  0  0  0  0
    0.7067   -2.0723   -1.7965 H   0  0  0  0  0  0  0  0  0  0  0  0
   -1.5430   -1.5870   -0.6040 H   0  0  0  0  0  0  0  0  0  0  0  0
   -4.6179    2.0157    0.4948 H   0  0  0  0  0  0  0  0  0  0  0  0
   -6.9743   -1.9592    1.0739 H   0  0  0  0  0  0  0  0  0  0  0  0
   -6.0772   -2.9381   -0.1247 H   0  0  0  0  0  0  0  0  0  0  0  0
   -7.2797   -1.7328   -0.6827 H   0  0  0  0  0  0  0  0  0  0  0  0
   -3.8604   -2.0446   -0.7667 H   0  0  0  0  0  0  0  0  0  0  0  0
   -2.5728    2.6045   -0.7414 H   0  0  0  0  0  0  0  0  0  0  0  0
   -0.2599    3.1541   -1.3249 H   0  0  0  0  0  0  0  0  0  0  0  0
  1  2  1  0
  2  3  2  3
  3  4  1  0
  3  5  1  0
  5  6  2  3
  6  7  1  0
  7  8  2  0
  7  9  2  0
  7 10  1  0
 10 11  1  0
 11 12  2  0
 12 13  1  0
 13 14  1  0
 14 15  1  0
 15 16  2  0
 16 17  1  0
 17 18  1  0
 17 19  1  0
 13 20  2  0
 20 21  1  0
 21 22  2  0
 22 23  1  0
 22 11  1  0
 19 14  2  0
  1 24  1  0
  1 25  1  0
  1 26  1  0
  2 27  1  0
  5 28  1  0
  6 29  1  0
 10 30  1  0
 12 31  1  0
 15 32  1  0
 18 33  1  0
 18 34  1  0
 18 35  1  0
 19 36  1  0
 20 37  1  0
 21 38  1  0
M  END
$$$$
