
     RDKit          3D

 51 53  0  0  0  0  0  0  0  0999 V2000
    3.6125    4.2203    2.6412 N   0  0  0  0  0  0  0  0  0  0  0  0
    2.7844    3.4533    1.7166 C   0  0  0  0  0  0  0  0  0  0  0  0
    2.7176    1.9840    2.1329 C   0  0  0  0  0  0  0  0  0  0  0  0
    1.7929    1.1501    1.2430 C   0  0  0  0  0  0  0  0  0  0  0  0
    2.2898    1.0219   -0.1948 C   0  0  0  0  0  0  0  0  0  0  0  0
    1.4498    0.1411   -0.9794 N   0  0  0  0  0  0  0  0  0  0  0  0
    1.5989   -1.2322   -0.9423 C   0  0  0  0  0  0  0  0  0  0  0  0
    2.4687   -1.7928   -0.2806 O   0  0  0  0  0  0  0  0  0  0  0  0
    0.6273   -1.9783   -1.8434 C   0  0  0  0  0  0  0  0  0  0  0  0
    0.0222   -3.2222   -1.2213 C   0  0  0  0  0  0  0  0  0  0  0  0
    0.3042   -4.4629   -1.8294 C   0  0  0  0  0  0  0  0  0  0  0  0
   -0.2276   -5.6495   -1.3294 C   0  0  0  0  0  0  0  0  0  0  0  0
   -1.0555   -5.6185   -0.2163 C   0  0  0  0  0  0  0  0  0  0  0  0
   -1.3443   -4.3995    0.3993 C   0  0  0  0  0  0  0  0  0  0  0  0
   -0.8142   -3.1799   -0.0776 C   0  0  0  0  0  0  0  0  0  0  0  0
   -1.1503   -1.9295    0.6323 C   0  0  0  0  0  0  0  0  0  0  0  0
   -1.0057   -1.8063    2.0012 C   0  0  0  0  0  0  0  0  0  0  0  0
   -1.3668   -0.5990    2.5466 C   0  0  0  0  0  0  0  0  0  0  0  0
   -1.8322    0.4321    1.8221 N   0  0  0  0  0  0  0  0  0  0  0  0
   -1.9405    0.2324    0.4952 C   0  0  0  0  0  0  0  0  0  0  0  0
   -2.3798    1.3647   -0.3444 C   0  0  0  0  0  0  0  0  0  0  0  0
   -2.5282    2.6604    0.1868 C   0  0  0  0  0  0  0  0  0  0  0  0
   -2.9246    3.7378   -0.6121 C   0  0  0  0  0  0  0  0  0  0  0  0
   -3.1848    3.5431   -1.9651 C   0  0  0  0  0  0  0  0  0  0  0  0
   -3.0513    2.2736   -2.5186 C   0  0  0  0  0  0  0  0  0  0  0  0
   -2.6538    1.1989   -1.7167 C   0  0  0  0  0  0  0  0  0  0  0  0
   -1.6132   -0.9153   -0.1302 N   0  0  0  0  0  0  0  0  0  0  0  0
    3.2345    4.1410    3.5849 H   0  0  0  0  0  0  0  0  0  0  0  0
    4.5469    3.8139    2.6816 H   0  0  0  0  0  0  0  0  0  0  0  0
    1.7794    3.8881    1.6951 H   0  0  0  0  0  0  0  0  0  0  0  0
    3.2071    3.5539    0.7124 H   0  0  0  0  0  0  0  0  0  0  0  0
    2.3487    1.9159    3.1645 H   0  0  0  0  0  0  0  0  0  0  0  0
    3.7233    1.5453    2.1279 H   0  0  0  0  0  0  0  0  0  0  0  0
    0.7880    1.5878    1.2466 H   0  0  0  0  0  0  0  0  0  0  0  0
    1.6987    0.1516    1.6869 H   0  0  0  0  0  0  0  0  0  0  0  0
    3.3159    0.6382   -0.2116 H   0  0  0  0  0  0  0  0  0  0  0  0
    2.2782    1.9919   -0.7006 H   0  0  0  0  0  0  0  0  0  0  0  0
    0.5770    0.5130   -1.3363 H   0  0  0  0  0  0  0  0  0  0  0  0
    1.1981   -2.2423   -2.7434 H   0  0  0  0  0  0  0  0  0  0  0  0
   -0.1772   -1.3246   -2.1972 H   0  0  0  0  0  0  0  0  0  0  0  0
    0.9516   -4.5113   -2.7032 H   0  0  0  0  0  0  0  0  0  0  0  0
    0.0044   -6.5953   -1.8119 H   0  0  0  0  0  0  0  0  0  0  0  0
   -1.4793   -6.5400    0.1740 H   0  0  0  0  0  0  0  0  0  0  0  0
   -2.0090   -4.4061    1.2617 H   0  0  0  0  0  0  0  0  0  0  0  0
   -0.6161   -2.6067    2.6163 H   0  0  0  0  0  0  0  0  0  0  0  0
   -1.2815   -0.4178    3.6140 H   0  0  0  0  0  0  0  0  0  0  0  0
   -2.3308    2.8411    1.2428 H   0  0  0  0  0  0  0  0  0  0  0  0
   -3.0309    4.7267   -0.1733 H   0  0  0  0  0  0  0  0  0  0  0  0
   -3.4958    4.3792   -2.5861 H   0  0  0  0  0  0  0  0  0  0  0  0
   -3.2604    2.1146   -3.5735 H   0  0  0  0  0  0  0  0  0  0  0  0
   -2.5665    0.2141   -2.1742 H   0  0  0  0  0  0  0  0  0  0  0  0
  1  2  1  0
  2  3  1  0
  3  4  1  0
  4  5  1  0
  5  6  1  0
  6  7  1  0
  7  8  2  0
  7  9  1  0
  9 10  1  0
 10 11  2  0
 11 12  1  0
 12 13  2  0
 13 14  1  0
 14 15  2  0
 15 16  1  0
 16 17  2  0
 17 18  1  0
 18 19  2  0
 19 20  1  0
 20 21  1  0
 21 22  2  0
 22 23  1  0
 23 24  2  0
 24 25  1  0
 25 26  2  0
 20 27  2  0
 15 10  1  0
 27 16  1  0
 26 21  1  0
  1 28  1  0
  1 29  1  0
  2 30  1  0
  2 31  1  0
  3 32  1  0
  3 33  1  0
  4 34  1  0
  4 35  1  0
  5 36  1  0
  5 37  1  0
  6 38  1  0
  9 39  1  0
  9 40  1  0
 11 41  1  0
 12 42  1  0
 13 43  1  0
 14 44  1  0
 17 45  1  0
 18 46  1  0
 22 47  1  0
 23 48  1  0
 24 49  1  0
 25 50  1  0
 26 51  1  0
M  END
$$$$
