
     RDKit          3D

 34 37  0  0  0  0  0  0  0  0999 V2000
   -2.4647    2.4437   -0.7353 O   0  0  0  0  0  0  0  0  0  0  0  0
   -2.6787    1.0813   -0.5977 C   0  0  0  0  0  0  0  0  0  0  0  0
   -2.1332    0.3937    0.4212 C   0  0  0  0  0  0  0  0  0  0  0  0
   -2.2422   -1.0470    0.6710 C   0  0  0  0  0  0  0  0  0  0  0  0
   -1.1903   -1.8150    1.2792 C   0  0  0  0  0  0  0  0  0  0  0  0
   -1.2314   -2.9548    1.9724 N   0  0  0  0  0  0  0  0  0  0  0  0
    0.0605   -3.3211    2.3312 N   0  0  0  0  0  0  0  0  0  0  0  0
    0.8295   -2.3994    1.8337 C   0  0  0  0  0  0  0  0  0  0  0  0
    2.5004   -2.0667    1.7762 S   0  0  0  0  0  0  0  0  0  0  0  0
    2.0756   -0.6165    0.8223 C   0  0  0  0  0  0  0  0  0  0  0  0
    3.1408    0.2940    0.3281 C   0  0  0  0  0  0  0  0  0  0  0  0
    2.7708    1.3262   -0.5487 C   0  0  0  0  0  0  0  0  0  0  0  0
    3.7273    2.2146   -1.0452 C   0  0  0  0  0  0  0  0  0  0  0  0
    5.0616    2.0820   -0.6695 C   0  0  0  0  0  0  0  0  0  0  0  0
    5.4407    1.0628    0.2018 C   0  0  0  0  0  0  0  0  0  0  0  0
    4.4863    0.1708    0.7006 C   0  0  0  0  0  0  0  0  0  0  0  0
    0.8041   -0.4131    0.5861 N   0  0  0  0  0  0  0  0  0  0  0  0
    0.1334   -1.4453    1.1755 N   0  0  0  0  0  0  0  0  0  0  0  0
   -3.3778   -1.7384    0.4188 C   0  0  0  0  0  0  0  0  0  0  0  0
   -4.6170   -1.2536   -0.1516 C   0  0  0  0  0  0  0  0  0  0  0  0
   -4.7180   -0.3027   -1.0912 C   0  0  0  0  0  0  0  0  0  0  0  0
   -3.5754    0.4906   -1.6570 C   0  0  0  0  0  0  0  0  0  0  0  0
   -1.9230    2.7550    0.0094 H   0  0  0  0  0  0  0  0  0  0  0  0
   -1.5156    0.9255    1.1417 H   0  0  0  0  0  0  0  0  0  0  0  0
    1.7344    1.4463   -0.8598 H   0  0  0  0  0  0  0  0  0  0  0  0
    3.4299    3.0083   -1.7266 H   0  0  0  0  0  0  0  0  0  0  0  0
    5.8070    2.7730   -1.0562 H   0  0  0  0  0  0  0  0  0  0  0  0
    6.4835    0.9615    0.4948 H   0  0  0  0  0  0  0  0  0  0  0  0
    4.8260   -0.6051    1.3809 H   0  0  0  0  0  0  0  0  0  0  0  0
   -3.4257   -2.7994    0.6741 H   0  0  0  0  0  0  0  0  0  0  0  0
   -5.5178   -1.7697    0.1762 H   0  0  0  0  0  0  0  0  0  0  0  0
   -5.7033   -0.0673   -1.4869 H   0  0  0  0  0  0  0  0  0  0  0  0
   -2.9935   -0.1208   -2.3566 H   0  0  0  0  0  0  0  0  0  0  0  0
   -4.0041    1.3070   -2.2529 H   0  0  0  0  0  0  0  0  0  0  0  0
  1  2  1  0
  2  3  2  0
  3  4  1  0
  4  5  1  0
  5  6  2  0
  6  7  1  0
  7  8  2  0
  8  9  1  0
  9 10  1  0
 10 11  1  0
 11 12  2  0
 12 13  1  0
 13 14  2  0
 14 15  1  0
 15 16  2  0
 10 17  2  0
 17 18  1  0
  4 19  2  0
 19 20  1  0
 20 21  2  0
 21 22  1  0
 22  2  1  0
 18  5  1  0
 18  8  1  0
 16 11  1  0
  1 23  1  0
  3 24  1  0
 12 25  1  0
 13 26  1  0
 14 27  1  0
 15 28  1  0
 16 29  1  0
 19 30  1  0
 20 31  1  0
 21 32  1  0
 22 33  1  0
 22 34  1  0
M  END
$$$$
