MODEL        5USER    Run = 5USERUSER    Estimated Free Energy of Binding    = -11.32 kcal/mol  [=(1)+(2)+(3)-(4)]USERUSER    (1) Final Intermolecular Energy     = -13.11 kcal/molUSER        vdW + Hbond + desolv Energy     = -13.01 kcal/molUSER        Electrostatic Energy            =  -0.11 kcal/molUSER        Moving Ligand-Fixed Receptor    = -13.11 kcal/molUSER        Moving Ligand-Moving Receptor   =  +0.00 kcal/molUSER    (2) Final Total Internal Energy     =  -2.22 kcal/molUSER    (3) Torsional Free Energy           =  +1.79 kcal/molUSER    (4) Unbound System's Energy         =  -2.22 kcal/molUSERUSERREMARK SMILES COc1ccc(S(=O)(=O)Nc2cc(Cl)ccc2-c2ccc(-c3ccncc3)cc2)cc1REMARK SMILES IDX 7 1 8 2 9 3 6 4 3 5 4 6 31 7 5 8 30 9 2 10 1 11 10 12 11 14REMARK SMILES IDX 12 15 17 16 13 17 16 18 15 19 14 20 18 21 19 22 29 23 20 24REMARK SMILES IDX 28 25 21 26 22 27 23 28 27 29 24 30 26 31 25 32REMARK H PARENT 10 13USER                              x       y       z     vdW  Elec       q    TypeUSER                           _______ _______ _______ _____ _____    ______ ____ROOTATOM      1  S   UNL     1      40.176  44.648  19.257 -0.40 +0.00    +0.261 S  ATOM      2  O   UNL     1      39.774  43.590  18.353 -0.16 +0.01    -0.201 OA ATOM      3  O   UNL     1      41.268  44.459  20.188 -0.30 -0.02    -0.201 OA ENDROOTBRANCH   1   4ATOM      4  C   UNL     1      40.539  46.083  18.273 -0.42 -0.00    +0.088 A  ATOM      5  C   UNL     1      41.080  48.364  16.750 -0.43 -0.01    +0.118 A  ATOM      6  C   UNL     1      40.070  47.482  16.356 -0.48 -0.01    +0.048 A  ATOM      7  C   UNL     1      41.805  48.102  17.917 -0.40 -0.00    +0.048 A  ATOM      8  C   UNL     1      39.791  46.345  17.121 -0.45 -0.00    +0.026 A  ATOM      9  C   UNL     1      41.536  46.968  18.686 -0.50 -0.00    +0.026 A  BRANCH   5  10ATOM     10  O   UNL     1      41.457  49.500  16.089 -0.86 +0.01    -0.497 OA ATOM     11  C   UNL     1      41.120  49.585  14.710 -0.47 -0.07    +0.278 C  ENDBRANCH   5  10ENDBRANCH   1   4BRANCH   1  12ATOM     12  N   UNL     1      38.783  45.096  20.103 -0.21 +0.00    -0.279 N  ATOM     13  H   UNL     1      39.017  45.747  20.853 +0.08 +0.01    +0.180 HD BRANCH  12  14ATOM     14  C   UNL     1      37.772  44.118  20.377 -0.33 -0.00    +0.058 A  ATOM     15  C   UNL     1      37.763  43.479  21.621 -0.34 +0.00    +0.048 A  ATOM     16  C   UNL     1      36.789  43.809  19.409 -0.36 -0.00    +0.006 A  ATOM     17  C   UNL     1      36.771  42.551  21.922 -0.44 +0.00    +0.043 A  ATOM     18  C   UNL     1      35.797  42.869  19.741 -0.43 -0.00    +0.012 A  ATOM     19  C   UNL     1      35.785  42.244  20.990 -0.46 +0.00    +0.021 A  ATOM     20  Cl  UNL     1      36.759  41.775  23.457 -0.63 -0.00    -0.084 Cl BRANCH  16  21ATOM     21  C   UNL     1      36.762  44.431  18.076 -0.33 +0.00    -0.016 A  ATOM     22  C   UNL     1      36.917  43.659  16.917 -0.24 -0.00    +0.009 A  ATOM     23  C   UNL     1      36.572  45.810  17.933 -0.26 -0.00    +0.009 A  ATOM     24  C   UNL     1      36.910  44.258  15.651 -0.35 -0.00    +0.009 A  ATOM     25  C   UNL     1      36.566  46.408  16.668 -0.35 -0.01    +0.009 A  ATOM     26  C   UNL     1      36.738  45.642  15.505 -0.35 +0.01    -0.018 A  BRANCH  26  27ATOM     27  C   UNL     1      36.736  46.272  14.175 -0.42 +0.01    -0.015 A  ATOM     28  C   UNL     1      36.918  45.511  13.013 -0.50 -0.01    +0.029 A  ATOM     29  C   UNL     1      36.553  47.651  14.026 -0.49 -0.02    +0.029 A  ATOM     30  C   UNL     1      36.911  46.149  11.783 -0.52 -0.04    +0.111 A  ATOM     31  C   UNL     1      36.558  48.197  12.752 -0.47 -0.04    +0.111 A  ATOM     32  N   UNL     1      36.733  47.477  11.626 -0.74 +0.10    -0.265 NA ENDBRANCH  26  27ENDBRANCH  16  21ENDBRANCH  12  14ENDBRANCH   1  12TORSDOF 6TERENDMDL