MODEL        5USER    Run = 5USERUSER    Estimated Free Energy of Binding    = -10.03 kcal/mol  [=(1)+(2)+(3)-(4)]USERUSER    (1) Final Intermolecular Energy     = -11.53 kcal/molUSER        vdW + Hbond + desolv Energy     = -11.49 kcal/molUSER        Electrostatic Energy            =  -0.04 kcal/molUSER        Moving Ligand-Fixed Receptor    = -11.53 kcal/molUSER        Moving Ligand-Moving Receptor   =  +0.00 kcal/molUSER    (2) Final Total Internal Energy     =  -1.65 kcal/molUSER    (3) Torsional Free Energy           =  +1.49 kcal/molUSER    (4) Unbound System's Energy         =  -1.65 kcal/molUSERUSERREMARK SMILES Cc1cc(-c2ccc(-c3ccc(F)cc3NS(=O)(=O)c3ccncc3)cc2)ccn1REMARK SMILES IDX 9 1 10 2 11 3 12 4 13 5 14 6 15 7 8 8 5 9 6 10 27 11 7 12REMARK SMILES IDX 26 13 4 14 2 15 3 16 30 17 29 18 28 19 1 20 16 21 17 23REMARK SMILES IDX 18 24 19 25 20 26 21 27 25 28 22 29 24 30 23 31REMARK H PARENT 16 22USER                              x       y       z     vdW  Elec       q    TypeUSER                           _______ _______ _______ _____ _____    ______ ____ROOTATOM      1  C   UNL     1      36.978  43.639  20.208 -0.39 -0.00    +0.006 A  ATOM      2  C   UNL     1      36.185  42.479  20.317 -0.45 -0.00    +0.014 A  ATOM      3  C   UNL     1      36.168  41.731  21.494 -0.52 +0.00    +0.040 A  ATOM      4  C   UNL     1      36.939  42.137  22.573 -0.41 +0.01    +0.125 A  ATOM      5  F   UNL     1      36.917  41.421  23.704 -0.15 -0.00    -0.207 F  ATOM      6  C   UNL     1      37.735  43.273  22.498 -0.33 +0.00    +0.066 A  ATOM      7  C   UNL     1      37.764  44.023  21.319 -0.34 +0.00    +0.060 A  ENDROOTBRANCH   1   8ATOM      8  C   UNL     1      36.956  44.398  18.949 -0.35 +0.00    -0.016 A  ATOM      9  C   UNL     1      36.933  45.889  16.527 -0.35 +0.01    -0.018 A  ATOM     10  C   UNL     1      35.819  45.876  17.381 -0.36 -0.01    +0.009 A  ATOM     11  C   UNL     1      38.052  45.131  16.901 -0.35 -0.00    +0.009 A  ATOM     12  C   UNL     1      35.827  45.139  18.571 -0.31 -0.00    +0.009 A  ATOM     13  C   UNL     1      38.062  44.393  18.090 -0.33 -0.00    +0.009 A  BRANCH   9  14ATOM     14  C   UNL     1      36.926  46.670  15.279 -0.39 +0.01    -0.015 A  ATOM     15  C   UNL     1      36.552  46.858  12.900 -0.60 -0.02    +0.038 A  ATOM     16  C   UNL     1      36.545  46.091  14.062 -0.42 -0.02    +0.032 A  ATOM     17  N   UNL     1      36.918  48.159  12.889 -0.89 +0.09    -0.262 NA ATOM     18  C   UNL     1      37.283  48.708  14.066 -0.43 -0.07    +0.112 A  ATOM     19  C   UNL     1      37.302  48.018  15.266 -0.46 -0.02    +0.029 A  ATOM     20  C   UNL     1      36.144  46.248  11.592 -0.54 -0.03    +0.067 C  ENDBRANCH   9  14ENDBRANCH   1   8BRANCH   7  21ATOM     21  N   UNL     1      38.620  45.171  21.248 -0.20 -0.01    -0.279 N  ATOM     22  H   UNL     1      38.448  45.836  20.495 +0.08 +0.01    +0.180 HD BRANCH  21  23ATOM     23  S   UNL     1      40.276  45.002  21.534 -0.28 +0.01    +0.262 S  ATOM     24  O   UNL     1      40.534  45.658  22.798 -0.16 -0.01    -0.201 OA ATOM     25  O   UNL     1      40.671  43.629  21.309 -0.24 -0.01    -0.201 OA BRANCH  23  26ATOM     26  C   UNL     1      41.014  45.993  20.264 -0.30 +0.01    +0.090 A  ATOM     27  C   UNL     1      42.251  46.593  20.486 -0.37 +0.01    +0.042 A  ATOM     28  C   UNL     1      40.323  46.208  19.074 -0.40 -0.00    +0.042 A  ATOM     29  C   UNL     1      42.774  47.364  19.466 -0.43 +0.02    +0.112 A  ATOM     30  C   UNL     1      40.933  46.999  18.120 -0.43 -0.01    +0.112 A  ATOM     31  N   UNL     1      42.149  47.567  18.285 -0.39 +0.01    -0.265 NA ENDBRANCH  23  26ENDBRANCH  21  23ENDBRANCH   7  21TORSDOF 5TERENDMDL