REMARK SMILES O=S(=O)(Nc1cc(F)ccc1-c1ccc(-c2ccncc2)cc1)c1ncccn1
REMARK SMILES IDX 5 1 6 2 7 3 8 4 9 5 10 6 11 7 4 8 2 10 1 11 3 12 24 13 25 14
REMARK SMILES IDX 29 15 26 16 28 17 27 18 12 19 13 20 23 21 14 22 22 23 15 24
REMARK SMILES IDX 16 25 17 26 21 27 18 28 20 29 19 30
REMARK H PARENT 4 9
ROOT
ATOM      1  C   UNL     1       1.699  -1.238  -0.478  1.00  0.00     0.060 A 
ATOM      2  C   UNL     1       2.889  -1.967  -0.422  1.00  0.00     0.066 A 
ATOM      3  C   UNL     1       2.841  -3.355  -0.424  1.00  0.00     0.125 A 
ATOM      4  F   UNL     1       3.984  -4.052  -0.381  1.00  0.00    -0.207 F 
ATOM      5  C   UNL     1       1.631  -4.033  -0.474  1.00  0.00     0.040 A 
ATOM      6  C   UNL     1       0.439  -3.309  -0.523  1.00  0.00     0.014 A 
ATOM      7  C   UNL     1       0.452  -1.902  -0.522  1.00  0.00     0.006 A 
ENDROOT
BRANCH   1   8
ATOM      8  N   UNL     1       1.758   0.192  -0.438  1.00  0.00    -0.276 N 
ATOM      9  H   UNL     1       1.002   0.699  -0.900  1.00  0.00     0.180 HD
BRANCH   8  10
ATOM     10  S   UNL     1       2.064   0.921   1.080  1.00  0.00     0.297 S 
ATOM     11  O   UNL     1       1.437   2.228   0.997  1.00  0.00    -0.198 OA
ATOM     12  O   UNL     1       1.686  -0.022   2.117  1.00  0.00    -0.198 OA
BRANCH  10  13
ATOM     13  C   UNL     1       3.850   1.175   1.126  1.00  0.00     0.268 A 
ATOM     14  N   UNL     1       4.500   1.135  -0.059  1.00  0.00    -0.225 NA
ATOM     15  N   UNL     1       4.386   1.369   2.350  1.00  0.00    -0.225 NA
ATOM     16  C   UNL     1       5.828   1.324   0.026  1.00  0.00     0.116 A 
ATOM     17  C   UNL     1       5.718   1.546   2.357  1.00  0.00     0.116 A 
ATOM     18  C   UNL     1       6.494   1.534   1.216  1.00  0.00     0.040 A 
ENDBRANCH  10  13
ENDBRANCH   8  10
ENDBRANCH   1   8
BRANCH   7  19
ATOM     19  C   UNL     1      -0.821  -1.172  -0.571  1.00  0.00    -0.016 A 
ATOM     20  C   UNL     1      -1.400  -0.661   0.597  1.00  0.00     0.009 A 
ATOM     21  C   UNL     1      -1.477  -0.957  -1.790  1.00  0.00     0.009 A 
ATOM     22  C   UNL     1      -2.598   0.060   0.546  1.00  0.00     0.009 A 
ATOM     23  C   UNL     1      -2.678  -0.239  -1.839  1.00  0.00     0.009 A 
ATOM     24  C   UNL     1      -3.257   0.285  -0.673  1.00  0.00    -0.018 A 
BRANCH  24  25
ATOM     25  C   UNL     1      -4.512   1.051  -0.726  1.00  0.00    -0.015 A 
ATOM     26  C   UNL     1      -5.655   0.530  -1.344  1.00  0.00     0.029 A 
ATOM     27  C   UNL     1      -4.605   2.328  -0.160  1.00  0.00     0.029 A 
ATOM     28  C   UNL     1      -6.814   1.290  -1.369  1.00  0.00     0.111 A 
ATOM     29  C   UNL     1      -5.808   3.014  -0.237  1.00  0.00     0.111 A 
ATOM     30  N   UNL     1      -6.915   2.522  -0.830  1.00  0.00    -0.265 NA
ENDBRANCH  24  25
ENDBRANCH   7  19
TORSDOF 5
