MODEL        10USER    Run = 10USERUSER    Estimated Free Energy of Binding    = -10.86 kcal/mol  [=(1)+(2)+(3)-(4)]USERUSER    (1) Final Intermolecular Energy     = -12.65 kcal/molUSER        vdW + Hbond + desolv Energy     = -12.48 kcal/molUSER        Electrostatic Energy            =  -0.17 kcal/molUSER        Moving Ligand-Fixed Receptor    = -12.65 kcal/molUSER        Moving Ligand-Moving Receptor   =  +0.00 kcal/molUSER    (2) Final Total Internal Energy     =  -1.51 kcal/molUSER    (3) Torsional Free Energy           =  +1.79 kcal/molUSER    (4) Unbound System's Energy         =  -1.51 kcal/molUSERUSERREMARK SMILES Cc1cc(-c2ccc(-c3ccc(F)cc3NS(=O)(=O)c3ccc(N)cc3)cc2)ccn1REMARK SMILES IDX 16 1 15 3 9 4 10 5 11 6 14 7 12 8 13 9 8 10 5 11 6 12 28 13REMARK SMILES IDX 7 14 27 15 4 16 2 17 3 18 31 19 30 20 29 21 1 22 17 23 18 24REMARK SMILES IDX 19 25 20 26 21 27 26 28 22 29 25 30 23 31 24 32REMARK H PARENT 16 2 24 33 24 34USER                              x       y       z     vdW  Elec       q    TypeUSER                           _______ _______ _______ _____ _____    ______ ____ROOTATOM      1  N   UNL     1      38.290  45.046  21.505 -0.21 -0.01    -0.279 N  ATOM      2  H   UNL     1      38.458  45.532  20.621 +0.09 +0.00    +0.180 HD ENDROOTBRANCH   1   3ATOM      3  C   UNL     1      37.427  43.905  21.446 -0.35 +0.00    +0.060 A  ATOM      4  C   UNL     1      36.789  43.551  20.234 -0.40 -0.00    +0.006 A  ATOM      5  C   UNL     1      35.988  42.395  20.209 -0.45 -0.00    +0.014 A  ATOM      6  C   UNL     1      35.829  41.612  21.354 -0.42 +0.00    +0.040 A  ATOM      7  C   UNL     1      37.267  43.119  22.588 -0.36 +0.01    +0.066 A  ATOM      8  C   UNL     1      36.469  41.983  22.530 -0.41 +0.01    +0.125 A  ATOM      9  F   UNL     1      36.312  41.232  23.628 -0.15 +0.01    -0.207 F  BRANCH   4  10ATOM     10  C   UNL     1      36.928  44.353  19.014 -0.35 +0.00    -0.016 A  ATOM     11  C   UNL     1      37.191  45.864  16.622 -0.35 +0.01    -0.018 A  ATOM     12  C   UNL     1      38.299  45.219  17.196 -0.36 -0.00    +0.009 A  ATOM     13  C   UNL     1      35.953  45.745  17.272 -0.35 -0.01    +0.009 A  ATOM     14  C   UNL     1      38.169  44.474  18.375 -0.34 -0.00    +0.009 A  ATOM     15  C   UNL     1      35.824  45.005  18.451 -0.33 -0.00    +0.009 A  BRANCH  11  16ATOM     16  C   UNL     1      37.324  46.637  15.378 -0.39 +0.01    -0.015 A  ATOM     17  C   UNL     1      36.825  46.993  13.041 -0.58 -0.02    +0.038 A  ATOM     18  C   UNL     1      36.678  46.235  14.202 -0.41 -0.02    +0.032 A  ATOM     19  N   UNL     1      37.573  48.119  12.996 -0.80 +0.05    -0.262 NA ATOM     20  C   UNL     1      38.191  48.495  14.135 -0.41 -0.05    +0.112 A  ATOM     21  C   UNL     1      38.099  47.799  15.329 -0.47 -0.02    +0.029 A  ATOM     22  C   UNL     1      36.143  46.569  11.775 -0.64 -0.03    +0.067 C  ENDBRANCH  11  16ENDBRANCH   4  10ENDBRANCH   1   3BRANCH   1  23ATOM     23  S   UNL     1      39.763  44.869  22.325 -0.25 +0.01    +0.261 S  ATOM     24  O   UNL     1      40.084  43.457  22.278 -0.21 -0.01    -0.201 OA ATOM     25  O   UNL     1      39.711  45.583  23.583 -0.15 -0.01    -0.201 OA BRANCH  23  26ATOM     26  C   UNL     1      40.904  45.695  21.247 -0.26 +0.01    +0.087 A  ATOM     27  C   UNL     1      40.675  45.717  19.870 -0.39 +0.00    +0.024 A  ATOM     28  C   UNL     1      42.025  46.325  21.792 -0.27 +0.00    +0.024 A  ATOM     29  C   UNL     1      41.586  46.370  19.036 -0.47 +0.00    +0.027 A  ATOM     30  C   UNL     1      42.926  46.974  20.945 -0.38 +0.01    +0.027 A  ATOM     31  C   UNL     1      42.691  47.043  19.568 -0.48 +0.01    +0.031 A  BRANCH  31  32ATOM     32  N   UNL     1      43.659  47.587  18.716 -0.18 -0.08    -0.399 N  ATOM     33  H   UNL     1      43.840  48.573  18.873 -0.48 -0.02    +0.156 HD ATOM     34  H   UNL     1      43.510  47.376  17.734 -0.49 -0.03    +0.156 HD ENDBRANCH  31  32ENDBRANCH  23  26ENDBRANCH   1  23TORSDOF 6TERENDMDL