REMARK SMILES O=S(=O)(Nc1cc(Cl)ccc1-c1ccc(-c2ccncc2)c(O)c1)c1ccccc1
REMARK SMILES IDX 5 1 6 2 7 3 8 4 9 5 10 6 11 7 4 8 2 10 1 11 3 12 25 13 26 14
REMARK SMILES IDX 30 15 27 16 29 17 28 18 12 19 13 20 24 21 14 22 22 23 15 24
REMARK SMILES IDX 23 25 16 27 17 28 21 29 18 30 20 31 19 32
REMARK H PARENT 4 9 23 26
ROOT
ATOM      1  C   UNL     1       1.590  -2.026  -1.476  1.00  0.00     0.058 A 
ATOM      2  C   UNL     1       2.670  -2.870  -1.757  1.00  0.00     0.048 A 
ATOM      3  C   UNL     1       3.006  -3.891  -0.872  1.00  0.00     0.043 A 
ATOM      4  Cl  UNL     1       4.339  -4.921  -1.218  1.00  0.00    -0.084 Cl
ATOM      5  C   UNL     1       2.271  -4.086   0.293  1.00  0.00     0.021 A 
ATOM      6  C   UNL     1       1.185  -3.255   0.573  1.00  0.00     0.012 A 
ATOM      7  C   UNL     1       0.823  -2.216  -0.304  1.00  0.00     0.006 A 
ENDROOT
BRANCH   1   8
ATOM      8  N   UNL     1       1.276  -0.968  -2.388  1.00  0.00    -0.279 N 
ATOM      9  H   UNL     1       0.320  -0.614  -2.388  1.00  0.00     0.180 HD
BRANCH   8  10
ATOM     10  S   UNL     1       2.380   0.288  -2.637  1.00  0.00     0.261 S 
ATOM     11  O   UNL     1       3.652  -0.259  -3.057  1.00  0.00    -0.201 OA
ATOM     12  O   UNL     1       1.688   1.273  -3.442  1.00  0.00    -0.201 OA
BRANCH  10  13
ATOM     13  C   UNL     1       2.593   0.980  -1.012  1.00  0.00     0.087 A 
ATOM     14  C   UNL     1       1.779   2.042  -0.603  1.00  0.00     0.022 A 
ATOM     15  C   UNL     1       3.616   0.508  -0.184  1.00  0.00     0.022 A 
ATOM     16  C   UNL     1       1.974   2.614   0.655  1.00  0.00     0.001 A 
ATOM     17  C   UNL     1       3.802   1.082   1.073  1.00  0.00     0.001 A 
ATOM     18  C   UNL     1       2.982   2.131   1.492  1.00  0.00     0.000 A 
ENDBRANCH  10  13
ENDBRANCH   8  10
ENDBRANCH   1   8
BRANCH   7  19
ATOM     19  C   UNL     1      -0.326  -1.366   0.036  1.00  0.00    -0.013 A 
ATOM     20  C   UNL     1      -1.550  -1.506  -0.630  1.00  0.00     0.010 A 
ATOM     21  C   UNL     1      -0.218  -0.392   1.037  1.00  0.00     0.055 A 
ATOM     22  C   UNL     1      -2.632  -0.676  -0.317  1.00  0.00     0.013 A 
ATOM     23  C   UNL     1      -1.300   0.442   1.339  1.00  0.00     0.124 A 
ATOM     24  C   UNL     1      -2.530   0.319   0.671  1.00  0.00     0.024 A 
BRANCH  23  25
ATOM     25  O   UNL     1      -1.151   1.395   2.312  1.00  0.00    -0.507 OA
ATOM     26  H   UNL     1      -0.261   1.325   2.694  1.00  0.00     0.293 HD
ENDBRANCH  23  25
BRANCH  24  27
ATOM     27  C   UNL     1      -3.689   1.180   0.968  1.00  0.00    -0.012 A 
ATOM     28  C   UNL     1      -4.921   0.631   1.344  1.00  0.00     0.029 A 
ATOM     29  C   UNL     1      -3.603   2.574   0.871  1.00  0.00     0.029 A 
ATOM     30  C   UNL     1      -5.988   1.479   1.599  1.00  0.00     0.111 A 
ATOM     31  C   UNL     1      -4.726   3.339   1.145  1.00  0.00     0.111 A 
ATOM     32  N   UNL     1      -5.919   2.823   1.504  1.00  0.00    -0.265 NA
ENDBRANCH  24  27
ENDBRANCH   7  19
TORSDOF 6
