MODEL        10USER    Run = 10USERUSER    Estimated Free Energy of Binding    = -10.26 kcal/mol  [=(1)+(2)+(3)-(4)]USERUSER    (1) Final Intermolecular Energy     = -11.76 kcal/molUSER        vdW + Hbond + desolv Energy     = -11.72 kcal/molUSER        Electrostatic Energy            =  -0.04 kcal/molUSER        Moving Ligand-Fixed Receptor    = -11.76 kcal/molUSER        Moving Ligand-Moving Receptor   =  +0.00 kcal/molUSER    (2) Final Total Internal Energy     =  -1.68 kcal/molUSER    (3) Torsional Free Energy           =  +1.49 kcal/molUSER    (4) Unbound System's Energy         =  -1.68 kcal/molUSERUSERREMARK SMILES O=S(=O)(Nc1cc(F)ccc1-c1ccc(-c2ccncc2)cc1)c1ncccn1REMARK SMILES IDX 5 1 6 2 7 3 8 4 9 5 10 6 11 7 4 8 2 10 1 11 3 12 24 13 25 14REMARK SMILES IDX 29 15 26 16 28 17 27 18 12 19 13 20 23 21 14 22 22 23 15 24REMARK SMILES IDX 16 25 17 26 21 27 18 28 20 29 19 30REMARK H PARENT 4 9USER                              x       y       z     vdW  Elec       q    TypeUSER                           _______ _______ _______ _____ _____    ______ ____ROOTATOM      1  C   UNL     1      35.756  42.482  19.833 -0.41 -0.00    +0.060 A  ATOM      2  C   UNL     1      35.761  41.746  21.019 -0.40 +0.00    +0.066 A  ATOM      3  C   UNL     1      36.598  42.130  22.059 -0.43 +0.01    +0.125 A  ATOM      4  F   UNL     1      36.593  41.429  23.200 -0.18 -0.01    -0.207 F  ATOM      5  C   UNL     1      37.436  43.230  21.939 -0.37 +0.00    +0.040 A  ATOM      6  C   UNL     1      37.440  43.965  20.752 -0.38 -0.00    +0.014 A  ATOM      7  C   UNL     1      36.604  43.602  19.680 -0.38 -0.00    +0.006 A  ENDROOTBRANCH   1   8ATOM      8  N   UNL     1      34.916  42.056  18.754 -0.23 +0.04    -0.276 N  ATOM      9  H   UNL     1      34.916  41.059  18.535 -0.09 -0.02    +0.180 HD BRANCH   8  10ATOM     10  S   UNL     1      33.301  42.623  18.747 -0.35 -0.04    +0.297 S  ATOM     11  O   UNL     1      33.120  43.243  20.047 -0.94 -0.02    -0.198 OA ATOM     12  O   UNL     1      33.095  43.380  17.526 -0.21 +0.06    -0.198 OA BRANCH  10  13ATOM     13  C   UNL     1      32.282  41.134  18.707 -0.21 -0.02    +0.268 A  ATOM     14  N   UNL     1      32.382  40.301  19.767 -0.64 -0.07    -0.225 NA ATOM     15  N   UNL     1      31.516  40.975  17.607 -0.22 +0.05    -0.225 NA ATOM     16  C   UNL     1      31.609  39.204  19.690 -0.33 +0.02    +0.116 A  ATOM     17  C   UNL     1      30.775  39.854  17.598 -0.29 -0.00    +0.116 A  ATOM     18  C   UNL     1      30.782  38.928  18.621 -0.39 +0.01    +0.040 A  ENDBRANCH  10  13ENDBRANCH   8  10ENDBRANCH   1   8BRANCH   7  19ATOM     19  C   UNL     1      36.636  44.396  18.445 -0.33 +0.00    -0.016 A  ATOM     20  C   UNL     1      37.776  44.412  17.632 -0.33 -0.00    +0.009 A  ATOM     21  C   UNL     1      35.520  45.142  18.044 -0.35 -0.00    +0.009 A  ATOM     22  C   UNL     1      37.795  45.145  16.440 -0.34 -0.00    +0.009 A  ATOM     23  C   UNL     1      35.543  45.879  16.853 -0.35 -0.01    +0.009 A  ATOM     24  C   UNL     1      36.678  45.890  16.029 -0.35 +0.01    -0.018 A  BRANCH  24  25ATOM     25  C   UNL     1      36.697  46.653  14.771 -0.40 +0.01    -0.015 A  ATOM     26  C   UNL     1      37.273  47.927  14.704 -0.49 -0.02    +0.029 A  ATOM     27  C   UNL     1      36.139  46.129  13.599 -0.47 -0.02    +0.029 A  ATOM     28  C   UNL     1      37.266  48.607  13.496 -0.33 -0.05    +0.111 A  ATOM     29  C   UNL     1      36.177  46.886  12.438 -0.58 -0.06    +0.111 A  ATOM     30  N   UNL     1      36.729  48.115  12.361 -0.96 +0.08    -0.265 NA ENDBRANCH  24  25ENDBRANCH   7  19TORSDOF 5TERENDMDL