REMARK SMILES COc1ccc(S(=O)(=O)Nc2cc(Cl)ccc2-c2ccc(-c3ccncc3)cc2)cc1
REMARK SMILES IDX 7 1 8 2 9 3 6 4 3 5 4 6 31 7 5 8 30 9 2 10 1 11 10 12 11 14
REMARK SMILES IDX 12 15 17 16 13 17 16 18 15 19 14 20 18 21 19 22 29 23 20 24
REMARK SMILES IDX 28 25 21 26 22 27 23 28 27 29 24 30 26 31 25 32
REMARK H PARENT 10 13
ROOT
ATOM      1  S   UNL     1       1.475  -1.617  -2.716  1.00  0.00     0.261 S 
ATOM      2  O   UNL     1       0.677  -1.073  -3.795  1.00  0.00    -0.201 OA
ATOM      3  O   UNL     1       2.618  -2.463  -2.986  1.00  0.00    -0.201 OA
ENDROOT
BRANCH   1   4
ATOM      4  C   UNL     1       2.028  -0.253  -1.719  1.00  0.00     0.088 A 
ATOM      5  C   UNL     1       2.921   1.907  -0.186  1.00  0.00     0.118 A 
ATOM      6  C   UNL     1       3.634   0.705  -0.185  1.00  0.00     0.048 A 
ATOM      7  C   UNL     1       1.769   2.023  -0.971  1.00  0.00     0.048 A 
ATOM      8  C   UNL     1       3.194  -0.374  -0.958  1.00  0.00     0.026 A 
ATOM      9  C   UNL     1       1.320   0.950  -1.744  1.00  0.00     0.026 A 
BRANCH   5  10
ATOM     10  O   UNL     1       3.237   3.029   0.529  1.00  0.00    -0.497 OA
ATOM     11  C   UNL     1       4.447   2.997   1.276  1.00  0.00     0.278 C 
ENDBRANCH   5  10
ENDBRANCH   1   4
BRANCH   1  12
ATOM     12  N   UNL     1       0.396  -2.431  -1.700  1.00  0.00    -0.279 N 
ATOM     13  H   UNL     1      -0.529  -2.003  -1.749  1.00  0.00     0.180 HD
BRANCH  12  14
ATOM     14  C   UNL     1       0.838  -2.890  -0.416  1.00  0.00     0.058 A 
ATOM     15  C   UNL     1       1.838  -3.866  -0.350  1.00  0.00     0.048 A 
ATOM     16  C   UNL     1       0.281  -2.357   0.769  1.00  0.00     0.006 A 
ATOM     17  C   UNL     1       2.307  -4.301   0.886  1.00  0.00     0.043 A 
ATOM     18  C   UNL     1       0.776  -2.814   2.004  1.00  0.00     0.012 A 
ATOM     19  C   UNL     1       1.784  -3.778   2.064  1.00  0.00     0.021 A 
ATOM     20  Cl  UNL     1       3.544  -5.494   0.962  1.00  0.00    -0.084 Cl
BRANCH  16  21
ATOM     21  C   UNL     1      -0.788  -1.347   0.761  1.00  0.00    -0.016 A 
ATOM     22  C   UNL     1      -2.094  -1.682   0.377  1.00  0.00     0.009 A 
ATOM     23  C   UNL     1      -0.529  -0.026   1.145  1.00  0.00     0.009 A 
ATOM     24  C   UNL     1      -3.104  -0.713   0.352  1.00  0.00     0.009 A 
ATOM     25  C   UNL     1      -1.539   0.942   1.119  1.00  0.00     0.009 A 
ATOM     26  C   UNL     1      -2.844   0.616   0.719  1.00  0.00    -0.018 A 
BRANCH  26  27
ATOM     27  C   UNL     1      -3.905   1.635   0.688  1.00  0.00    -0.015 A 
ATOM     28  C   UNL     1      -4.668   1.851  -0.466  1.00  0.00     0.029 A 
ATOM     29  C   UNL     1      -4.186   2.423   1.810  1.00  0.00     0.029 A 
ATOM     30  C   UNL     1      -5.655   2.824  -0.448  1.00  0.00     0.111 A 
ATOM     31  C   UNL     1      -5.196   3.369   1.732  1.00  0.00     0.111 A 
ATOM     32  N   UNL     1      -5.937   3.588   0.627  1.00  0.00    -0.265 NA
ENDBRANCH  26  27
ENDBRANCH  16  21
ENDBRANCH  12  14
ENDBRANCH   1  12
TORSDOF 6
