REMARK SMILES Cc1cc(-c2ccc(-c3ccc(F)cc3NS(=O)(=O)c3ccc(N)cc3)cc2)ccn1
REMARK SMILES IDX 16 1 15 3 9 4 10 5 11 6 14 7 12 8 13 9 8 10 5 11 6 12 28 13
REMARK SMILES IDX 7 14 27 15 4 16 2 17 3 18 31 19 30 20 29 21 1 22 17 23 18 24
REMARK SMILES IDX 19 25 20 26 21 27 26 28 22 29 25 30 23 31 24 32
REMARK H PARENT 16 2 24 33 24 34
ROOT
ATOM      1  N   UNL     1      -1.646   0.428  -0.545  1.00  0.00    -0.279 N 
ATOM      2  H   UNL     1      -0.821   1.031  -0.517  1.00  0.00     0.180 HD
ENDROOT
BRANCH   1   3
ATOM      3  C   UNL     1      -1.538  -0.755  -1.345  1.00  0.00     0.060 A 
ATOM      4  C   UNL     1      -0.296  -1.418  -1.480  1.00  0.00     0.006 A 
ATOM      5  C   UNL     1      -0.246  -2.603  -2.236  1.00  0.00     0.014 A 
ATOM      6  C   UNL     1      -1.397  -3.116  -2.836  1.00  0.00     0.040 A 
ATOM      7  C   UNL     1      -2.687  -1.272  -1.945  1.00  0.00     0.066 A 
ATOM      8  C   UNL     1      -2.604  -2.445  -2.685  1.00  0.00     0.125 A 
ATOM      9  F   UNL     1      -3.706  -2.937  -3.265  1.00  0.00    -0.207 F 
BRANCH   4  10
ATOM     10  C   UNL     1       0.935  -0.904  -0.869  1.00  0.00    -0.016 A 
ATOM     11  C   UNL     1       3.293   0.136   0.326  1.00  0.00    -0.018 A 
ATOM     12  C   UNL     1       2.974   0.419  -1.012  1.00  0.00     0.009 A 
ATOM     13  C   UNL     1       2.414  -0.684   1.051  1.00  0.00     0.009 A 
ATOM     14  C   UNL     1       1.812  -0.093  -1.601  1.00  0.00     0.009 A 
ATOM     15  C   UNL     1       1.255  -1.199   0.462  1.00  0.00     0.009 A 
BRANCH  11  16
ATOM     16  C   UNL     1       4.508   0.683   0.949  1.00  0.00    -0.015 A 
ATOM     17  C   UNL     1       6.898   1.034   0.982  1.00  0.00     0.038 A 
ATOM     18  C   UNL     1       5.768   0.500   0.365  1.00  0.00     0.032 A 
ATOM     19  N   UNL     1       6.835   1.734   2.137  1.00  0.00    -0.262 NA
ATOM     20  C   UNL     1       5.616   1.903   2.690  1.00  0.00     0.112 A 
ATOM     21  C   UNL     1       4.445   1.405   2.144  1.00  0.00     0.029 A 
ATOM     22  C   UNL     1       8.252   0.838   0.369  1.00  0.00     0.067 C 
ENDBRANCH  11  16
ENDBRANCH   4  10
ENDBRANCH   1   3
BRANCH   1  23
ATOM     23  S   UNL     1      -2.255   0.254   1.028  1.00  0.00     0.261 S 
ATOM     24  O   UNL     1      -1.781   1.403   1.773  1.00  0.00    -0.201 OA
ATOM     25  O   UNL     1      -2.016  -1.094   1.498  1.00  0.00    -0.201 OA
BRANCH  23  26
ATOM     26  C   UNL     1      -3.999   0.475   0.790  1.00  0.00     0.087 A 
ATOM     27  C   UNL     1      -4.870  -0.604   0.949  1.00  0.00     0.024 A 
ATOM     28  C   UNL     1      -4.487   1.738   0.448  1.00  0.00     0.024 A 
ATOM     29  C   UNL     1      -6.240  -0.412   0.754  1.00  0.00     0.027 A 
ATOM     30  C   UNL     1      -5.859   1.915   0.258  1.00  0.00     0.027 A 
ATOM     31  C   UNL     1      -6.751   0.855   0.455  1.00  0.00     0.031 A 
BRANCH  31  32
ATOM     32  N   UNL     1      -8.106   1.010   0.142  1.00  0.00    -0.399 N 
ATOM     33  H   UNL     1      -8.448   1.960   0.248  1.00  0.00     0.156 HD
ATOM     34  H   UNL     1      -8.714   0.332   0.591  1.00  0.00     0.156 HD
ENDBRANCH  31  32
ENDBRANCH  23  26
ENDBRANCH   1  23
TORSDOF 6
