REMARK SMILES Cc1cc(-c2ccc(-c3ccc(F)cc3NS(=O)(=O)c3ccncc3)cc2)ccn1
REMARK SMILES IDX 9 1 10 2 11 3 12 4 13 5 14 6 15 7 8 8 5 9 6 10 27 11 7 12
REMARK SMILES IDX 26 13 4 14 2 15 3 16 30 17 29 18 28 19 1 20 16 21 17 23
REMARK SMILES IDX 18 24 19 25 20 26 21 27 25 28 22 29 24 30 23 31
REMARK H PARENT 16 22
ROOT
ATOM      1  C   UNL     1       1.575  -2.082   0.619  1.00  0.00     0.006 A 
ATOM      2  C   UNL     1       1.745  -3.219  -0.196  1.00  0.00     0.014 A 
ATOM      3  C   UNL     1       2.929  -3.955  -0.162  1.00  0.00     0.040 A 
ATOM      4  C   UNL     1       3.952  -3.564   0.690  1.00  0.00     0.125 A 
ATOM      5  F   UNL     1       5.086  -4.275   0.725  1.00  0.00    -0.207 F 
ATOM      6  C   UNL     1       3.819  -2.446   1.503  1.00  0.00     0.066 A 
ATOM      7  C   UNL     1       2.639  -1.698   1.468  1.00  0.00     0.060 A 
ENDROOT
BRANCH   1   8
ATOM      8  C   UNL     1       0.305  -1.344   0.552  1.00  0.00    -0.016 A 
ATOM      9  C   UNL     1      -2.135   0.112   0.428  1.00  0.00    -0.018 A 
ATOM     10  C   UNL     1      -1.804  -0.654   1.557  1.00  0.00     0.009 A 
ATOM     11  C   UNL     1      -1.228   0.124  -0.642  1.00  0.00     0.009 A 
ATOM     12  C   UNL     1      -0.606  -1.375   1.617  1.00  0.00     0.009 A 
ATOM     13  C   UNL     1      -0.030  -0.596  -0.584  1.00  0.00     0.009 A 
BRANCH   9  14
ATOM     14  C   UNL     1      -3.392   0.875   0.368  1.00  0.00    -0.015 A 
ATOM     15  C   UNL     1      -5.448   1.487  -0.744  1.00  0.00     0.038 A 
ATOM     16  C   UNL     1      -4.268   0.748  -0.718  1.00  0.00     0.032 A 
ATOM     17  N   UNL     1      -5.795   2.339   0.247  1.00  0.00    -0.262 NA
ATOM     18  C   UNL     1      -4.946   2.454   1.288  1.00  0.00     0.112 A 
ATOM     19  C   UNL     1      -3.755   1.756   1.393  1.00  0.00     0.029 A 
ATOM     20  C   UNL     1      -6.393   1.357  -1.901  1.00  0.00     0.067 C 
ENDBRANCH   9  14
ENDBRANCH   1   8
BRANCH   7  21
ATOM     21  N   UNL     1       2.535  -0.527   2.288  1.00  0.00    -0.279 N 
ATOM     22  H   UNL     1       1.598  -0.218   2.544  1.00  0.00     0.180 HD
BRANCH  21  23
ATOM     23  S   UNL     1       3.544   0.796   1.993  1.00  0.00     0.262 S 
ATOM     24  O   UNL     1       3.038   1.876   2.813  1.00  0.00    -0.201 OA
ATOM     25  O   UNL     1       4.927   0.380   2.072  1.00  0.00    -0.201 OA
BRANCH  23  26
ATOM     26  C   UNL     1       3.198   1.207   0.305  1.00  0.00     0.090 A 
ATOM     27  C   UNL     1       3.970   0.655  -0.714  1.00  0.00     0.042 A 
ATOM     28  C   UNL     1       2.191   2.125   0.015  1.00  0.00     0.042 A 
ATOM     29  C   UNL     1       3.664   1.019  -2.010  1.00  0.00     0.112 A 
ATOM     30  C   UNL     1       1.968   2.424  -1.315  1.00  0.00     0.112 A 
ATOM     31  N   UNL     1       2.672   1.879  -2.332  1.00  0.00    -0.265 NA
ENDBRANCH  23  26
ENDBRANCH  21  23
ENDBRANCH   7  21
TORSDOF 5
