MODEL        10USER    Run = 10USERUSER    Estimated Free Energy of Binding    = -10.21 kcal/mol  [=(1)+(2)+(3)-(4)]USERUSER    (1) Final Intermolecular Energy     = -12.00 kcal/molUSER        vdW + Hbond + desolv Energy     = -11.66 kcal/molUSER        Electrostatic Energy            =  -0.34 kcal/molUSER        Moving Ligand-Fixed Receptor    = -12.00 kcal/molUSER        Moving Ligand-Moving Receptor   =  +0.00 kcal/molUSER    (2) Final Total Internal Energy     =  -1.87 kcal/molUSER    (3) Torsional Free Energy           =  +1.79 kcal/molUSER    (4) Unbound System's Energy         =  -1.87 kcal/molUSERUSERREMARK SMILES O=S(=O)(Nc1cc(F)ccc1-c1ccc(-c2ccncc2)c(O)c1)c1ccccc1REMARK SMILES IDX 5 1 6 2 7 3 8 4 9 5 10 6 11 7 4 8 2 10 1 11 3 12 25 13 26 14REMARK SMILES IDX 30 15 27 16 29 17 28 18 12 19 13 20 24 21 14 22 22 23 15 24REMARK SMILES IDX 23 25 16 27 17 28 21 29 18 30 20 31 19 32REMARK H PARENT 4 9 23 26USER                              x       y       z     vdW  Elec       q    TypeUSER                           _______ _______ _______ _____ _____    ______ ____ROOTATOM      1  C   UNL     1      35.752  42.496  19.848 -0.41 -0.00    +0.060 A  ATOM      2  C   UNL     1      35.789  41.860  21.093 -0.42 +0.00    +0.066 A  ATOM      3  C   UNL     1      36.745  42.230  22.029 -0.42 +0.01    +0.125 A  ATOM      4  F   UNL     1      36.776  41.616  23.218 -0.17 -0.01    -0.207 F  ATOM      5  C   UNL     1      37.669  43.228  21.754 -0.36 +0.00    +0.040 A  ATOM      6  C   UNL     1      37.633  43.876  20.520 -0.36 -0.00    +0.014 A  ATOM      7  C   UNL     1      36.674  43.526  19.549 -0.35 -0.00    +0.006 A  ENDROOTBRANCH   1   8ATOM      8  N   UNL     1      34.772  42.092  18.885 -0.23 +0.04    -0.279 N  ATOM      9  H   UNL     1      34.942  41.225  18.376 -0.10 -0.04    +0.180 HD BRANCH   8  10ATOM     10  S   UNL     1      33.127  42.280  19.223 -0.36 -0.00    +0.261 S  ATOM     11  O   UNL     1      32.516  40.981  19.403 -0.64 -0.03    -0.201 OA ATOM     12  O   UNL     1      33.046  43.295  20.253 -0.93 -0.04    -0.201 OA BRANCH  10  13ATOM     13  C   UNL     1      32.477  42.988  17.726 -0.26 -0.02    +0.087 A  ATOM     14  C   UNL     1      31.238  43.638  17.753 -0.25 -0.00    +0.022 A  ATOM     15  C   UNL     1      33.171  42.829  16.523 -0.30 -0.01    +0.022 A  ATOM     16  C   UNL     1      30.707  44.155  16.569 -0.29 -0.00    +0.001 A  ATOM     17  C   UNL     1      32.636  43.353  15.346 -0.15 -0.00    +0.001 A  ATOM     18  C   UNL     1      31.407  44.016  15.370 -0.37 -0.00    +0.000 A  ENDBRANCH  10  13ENDBRANCH   8  10ENDBRANCH   1   8BRANCH   7  19ATOM     19  C   UNL     1      36.677  44.234  18.261 -0.32 +0.00    -0.013 A  ATOM     20  C   UNL     1      37.868  44.453  17.559 -0.33 -0.00    +0.010 A  ATOM     21  C   UNL     1      35.480  44.709  17.708 -0.28 -0.02    +0.055 A  ATOM     22  C   UNL     1      37.865  45.149  16.346 -0.33 -0.00    +0.013 A  ATOM     23  C   UNL     1      35.483  45.413  16.501 -0.25 -0.08    +0.124 A  ATOM     24  C   UNL     1      36.673  45.649  15.792 -0.34 -0.01    +0.024 A  BRANCH  23  25ATOM     25  O   UNL     1      34.295  45.878  16.001 -0.03 +0.57    -0.507 OA ATOM     26  H   UNL     1      34.064  46.708  16.450 -0.11 -0.66    +0.293 HD ENDBRANCH  23  25BRANCH  24  27ATOM     27  C   UNL     1      36.710  46.385  14.515 -0.41 +0.01    -0.012 A  ATOM     28  C   UNL     1      36.583  45.717  13.291 -0.48 -0.01    +0.029 A  ATOM     29  C   UNL     1      36.888  47.773  14.481 -0.47 -0.02    +0.029 A  ATOM     30  C   UNL     1      36.639  46.450  12.114 -0.57 -0.04    +0.111 A  ATOM     31  C   UNL     1      36.931  48.418  13.255 -0.40 -0.05    +0.111 A  ATOM     32  N   UNL     1      36.814  47.786  12.069 -0.98 +0.08    -0.265 NA ENDBRANCH  24  27ENDBRANCH   7  19TORSDOF 6TERENDMDL