MODEL        10USER    Run = 10USERUSER    Estimated Free Energy of Binding    = -10.38 kcal/mol  [=(1)+(2)+(3)-(4)]USERUSER    (1) Final Intermolecular Energy     = -12.17 kcal/molUSER        vdW + Hbond + desolv Energy     = -11.93 kcal/molUSER        Electrostatic Energy            =  -0.23 kcal/molUSER        Moving Ligand-Fixed Receptor    = -12.17 kcal/molUSER        Moving Ligand-Moving Receptor   =  +0.00 kcal/molUSER    (2) Final Total Internal Energy     =  -1.39 kcal/molUSER    (3) Torsional Free Energy           =  +1.79 kcal/molUSER    (4) Unbound System's Energy         =  -1.39 kcal/molUSERUSERREMARK SMILES O=S(=O)(Nc1cc(Cl)ccc1-c1ccc(-c2ccncc2)c(O)c1)c1ccccc1REMARK SMILES IDX 5 1 6 2 7 3 8 4 9 5 10 6 11 7 4 8 2 10 1 11 3 12 25 13 26 14REMARK SMILES IDX 30 15 27 16 29 17 28 18 12 19 13 20 24 21 14 22 22 23 15 24REMARK SMILES IDX 23 25 16 27 17 28 21 29 18 30 20 31 19 32REMARK H PARENT 4 9 23 26USER                              x       y       z     vdW  Elec       q    TypeUSER                           _______ _______ _______ _____ _____    ______ ____ROOTATOM      1  C   UNL     1      35.572  42.636  19.666 -0.40 -0.00    +0.058 A  ATOM      2  C   UNL     1      35.585  42.072  20.946 -0.38 +0.00    +0.048 A  ATOM      3  C   UNL     1      36.549  42.465  21.872 -0.45 +0.00    +0.043 A  ATOM      4  Cl  UNL     1      36.565  41.765  23.442 -0.64 -0.00    -0.084 Cl ATOM      5  C   UNL     1      37.501  43.422  21.536 -0.37 +0.00    +0.021 A  ATOM      6  C   UNL     1      37.486  43.997  20.264 -0.37 -0.00    +0.012 A  ATOM      7  C   UNL     1      36.524  43.619  19.310 -0.36 -0.00    +0.006 A  ENDROOTBRANCH   1   8ATOM      8  N   UNL     1      34.587  42.201  18.722 -0.23 +0.05    -0.279 N  ATOM      9  H   UNL     1      34.600  41.219  18.446 -0.03 -0.03    +0.180 HD BRANCH   8  10ATOM     10  S   UNL     1      33.000  42.771  18.835 -0.37 -0.03    +0.261 S  ATOM     11  O   UNL     1      32.739  43.220  20.186 -0.92 -0.03    -0.201 OA ATOM     12  O   UNL     1      32.813  43.656  17.705 -0.21 +0.06    -0.201 OA BRANCH  10  13ATOM     13  C   UNL     1      32.016  41.317  18.544 -0.31 -0.01    +0.087 A  ATOM     14  C   UNL     1      31.187  41.260  17.418 -0.31 -0.01    +0.022 A  ATOM     15  C   UNL     1      32.023  40.275  19.475 -0.26 +0.00    +0.022 A  ATOM     16  C   UNL     1      30.383  40.139  17.211 -0.35 -0.00    +0.001 A  ATOM     17  C   UNL     1      31.220  39.156  19.260 -0.42 +0.00    +0.001 A  ATOM     18  C   UNL     1      30.403  39.087  18.130 -0.38 +0.00    +0.000 A  ENDBRANCH  10  13ENDBRANCH   8  10ENDBRANCH   1   8BRANCH   7  19ATOM     19  C   UNL     1      36.551  44.250  17.983 -0.32 +0.00    -0.013 A  ATOM     20  C   UNL     1      37.755  44.419  17.289 -0.32 -0.00    +0.010 A  ATOM     21  C   UNL     1      35.366  44.699  17.385 -0.28 -0.02    +0.055 A  ATOM     22  C   UNL     1      37.775  45.043  16.037 -0.32 -0.00    +0.013 A  ATOM     23  C   UNL     1      35.393  45.331  16.137 -0.24 -0.08    +0.124 A  ATOM     24  C   UNL     1      36.596  45.517  15.435 -0.35 -0.01    +0.024 A  BRANCH  23  25ATOM     25  O   UNL     1      34.217  45.773  15.592 -0.05 +0.54    -0.507 OA ATOM     26  H   UNL     1      33.910  46.552  16.083 -0.08 -0.64    +0.293 HD ENDBRANCH  23  25BRANCH  24  27ATOM     27  C   UNL     1      36.658  46.176  14.118 -0.43 +0.01    -0.012 A  ATOM     28  C   UNL     1      36.859  45.436  12.947 -0.50 -0.01    +0.029 A  ATOM     29  C   UNL     1      36.531  47.565  13.994 -0.49 -0.02    +0.029 A  ATOM     30  C   UNL     1      36.926  46.100  11.732 -0.50 -0.04    +0.111 A  ATOM     31  C   UNL     1      36.612  48.138  12.735 -0.48 -0.04    +0.111 A  ATOM     32  N   UNL     1      36.810  47.438  11.599 -0.79 +0.10    -0.265 NA ENDBRANCH  24  27ENDBRANCH   7  19TORSDOF 6TERENDMDL