REMARK SMILES COc1cccc(Nc2nc(NCc3ccccc3)c3ncn(C(C)C)c3n2)c1
REMARK SMILES IDX 9 1 10 2 11 3 20 4 21 5 22 6 23 7 27 8 28 9 8 10 7 12 3 13
REMARK SMILES IDX 4 14 29 15 5 16 6 17 2 18 1 19 12 20 13 22 14 23 15 24 19 25
REMARK SMILES IDX 16 26 18 27 17 28 24 29 25 30 26 31
REMARK H PARENT 8 11 12 21
ROOT
ATOM      1  C   UNL     1       0.427  -0.474  -0.550  1.00  0.00     0.231 A 
ATOM      2  N   UNL     1      -0.891  -0.781  -0.605  1.00  0.00    -0.193 NA
ATOM      3  C   UNL     1      -1.818   0.042  -0.043  1.00  0.00     0.160 A 
ATOM      4  C   UNL     1      -1.353   1.201   0.598  1.00  0.00     0.150 A 
ATOM      5  N   UNL     1      -2.000   2.216   1.274  1.00  0.00    -0.231 NA
ATOM      6  C   UNL     1      -1.036   3.028   1.657  1.00  0.00     0.202 A 
ATOM      7  N   UNL     1       0.200   2.581   1.263  1.00  0.00    -0.313 N 
ATOM      8  C   UNL     1       0.013   1.404   0.590  1.00  0.00     0.167 A 
ATOM      9  N   UNL     1       0.944   0.615   0.041  1.00  0.00    -0.193 NA
ENDROOT
BRANCH   1  10
ATOM     10  N   UNL     1       1.246  -1.404  -1.188  1.00  0.00    -0.324 N 
ATOM     11  H   UNL     1       0.661  -2.119  -1.597  1.00  0.00     0.170 HD
BRANCH  10  12
ATOM     12  C   UNL     1       2.630  -1.563  -1.312  1.00  0.00     0.045 A 
ATOM     13  C   UNL     1       4.952  -0.941  -0.852  1.00  0.00     0.120 A 
ATOM     14  C   UNL     1       5.403  -1.968  -1.677  1.00  0.00     0.046 A 
ATOM     15  C   UNL     1       3.574  -0.747  -0.680  1.00  0.00     0.072 A 
ATOM     16  C   UNL     1       4.481  -2.789  -2.326  1.00  0.00     0.006 A 
ATOM     17  C   UNL     1       3.112  -2.584  -2.146  1.00  0.00     0.026 A 
BRANCH  13  18
ATOM     18  O   UNL     1       5.744  -0.063  -0.159  1.00  0.00    -0.497 OA
ATOM     19  C   UNL     1       7.149  -0.201  -0.321  1.00  0.00     0.278 C 
ENDBRANCH  13  18
ENDBRANCH  10  12
ENDBRANCH   1  10
BRANCH   3  20
ATOM     20  N   UNL     1      -3.182  -0.261  -0.112  1.00  0.00    -0.364 N 
ATOM     21  H   UNL     1      -3.698   0.312   0.553  1.00  0.00     0.162 HD
BRANCH  20  22
ATOM     22  C   UNL     1      -3.487  -1.677  -0.056  1.00  0.00     0.150 C 
BRANCH  22  23
ATOM     23  C   UNL     1      -4.985  -1.861   0.021  1.00  0.00    -0.029 A 
ATOM     24  C   UNL     1      -5.600  -2.255   1.218  1.00  0.00     0.005 A 
ATOM     25  C   UNL     1      -5.785  -1.618  -1.105  1.00  0.00     0.005 A 
ATOM     26  C   UNL     1      -6.985  -2.417   1.281  1.00  0.00     0.000 A 
ATOM     27  C   UNL     1      -7.170  -1.780  -1.040  1.00  0.00     0.000 A 
ATOM     28  C   UNL     1      -7.769  -2.182   0.153  1.00  0.00     0.000 A 
ENDBRANCH  22  23
ENDBRANCH  20  22
ENDBRANCH   3  20
BRANCH   7  29
ATOM     29  C   UNL     1       1.480   3.230   1.507  1.00  0.00     0.084 C 
ATOM     30  C   UNL     1       1.537   4.620   0.872  1.00  0.00     0.031 C 
ATOM     31  C   UNL     1       1.804   3.289   2.999  1.00  0.00     0.031 C 
ENDBRANCH   7  29
TORSDOF 7
