MODEL        9USER    Run = 9USERUSER    Estimated Free Energy of Binding    =  -9.16 kcal/mol  [=(1)+(2)+(3)-(4)]USERUSER    (1) Final Intermolecular Energy     = -12.14 kcal/molUSER        vdW + Hbond + desolv Energy     = -11.48 kcal/molUSER        Electrostatic Energy            =  -0.66 kcal/molUSER        Moving Ligand-Fixed Receptor    = -12.14 kcal/molUSER        Moving Ligand-Moving Receptor   =  +0.00 kcal/molUSER    (2) Final Total Internal Energy     =  -3.09 kcal/molUSER    (3) Torsional Free Energy           =  +2.98 kcal/molUSER    (4) Unbound System's Energy         =  -3.09 kcal/molUSERUSERREMARK SMILES CN[C@H]1CN(Cc2ccc(C(=O)Nc3cc(Cl)ccc3CN3CCC(C(=O)O)CC3)cc2)C[C@@H]1OREMARK SMILES IDX 14 1 15 2 16 3 17 4 18 5 19 6 20 7 13 8 11 9 12 10 10 12REMARK SMILES IDX 7 13 8 14 32 15 9 16 31 17 6 18 5 19 3 20 4 21 34 22 33 23REMARK SMILES IDX 2 24 1 25 35 27 21 29 22 30 23 31 30 32 24 33 29 34 25 35REMARK SMILES IDX 26 36 27 37 28 38REMARK H PARENT 13 11 2 26 35 28 28 39USER                              x       y       z     vdW  Elec       q    TypeUSER                           _______ _______ _______ _____ _____    ______ ____ROOTATOM      1  C   UNL     1      40.873  29.094  15.796 -0.25 +0.00    +0.047 A  ATOM      2  C   UNL     1      42.228  29.445  15.915 -0.30 +0.01    +0.047 A  ATOM      3  C   UNL     1      43.039  29.583  14.786 -0.42 -0.01    +0.043 A  ATOM      4  Cl  UNL     1      44.694  30.027  14.966 -0.52 +0.02    -0.084 Cl ATOM      5  C   UNL     1      42.522  29.373  13.516 -0.23 -0.02    +0.021 A  ATOM      6  C   UNL     1      41.181  29.024  13.377 -0.58 -0.01    +0.009 A  ATOM      7  C   UNL     1      40.336  28.887  14.502 -0.44 +0.00    -0.010 A  ENDROOTBRANCH   1   8ATOM      8  N   UNL     1      40.043  28.974  16.935 -0.14 -0.08    -0.322 N  ATOM      9  C   UNL     1      40.420  28.964  18.266 -0.21 +0.14    +0.255 C  ATOM     10  O   UNL     1      41.553  28.946  18.722 -0.63 -0.39    -0.269 OA ATOM     11  H   UNL     1      39.054  28.845  16.773 +0.08 +0.03    +0.170 HD BRANCH   9  12ATOM     12  C   UNL     1      39.276  28.927  19.216 -0.26 +0.01    +0.040 A  ATOM     13  C   UNL     1      37.111  28.907  20.999 -0.27 +0.00    -0.034 A  ATOM     14  C   UNL     1      37.966  27.796  20.908 -0.15 -0.00    +0.006 A  ATOM     15  C   UNL     1      37.351  30.024  20.182 -0.31 -0.00    +0.006 A  ATOM     16  C   UNL     1      39.044  27.804  20.019 -0.14 +0.00    +0.014 A  ATOM     17  C   UNL     1      38.420  30.030  19.285 -0.30 +0.00    +0.014 A  BRANCH  13  18ATOM     18  C   UNL     1      35.953  28.912  21.975 -0.34 -0.02    +0.120 C  BRANCH  18  19ATOM     19  N   UNL     1      36.341  29.377  23.308 -0.12 +0.00    -0.295 NA ATOM     20  C   UNL     1      38.432  30.040  24.333 -0.37 +0.02    +0.097 C  ATOM     21  C   UNL     1      37.656  28.850  23.727 -0.23 +0.01    +0.106 C  ATOM     22  C   UNL     1      37.332  31.072  24.612 -0.46 +0.02    +0.146 C  ATOM     23  C   UNL     1      36.409  30.843  23.418 -0.33 +0.01    +0.118 C  BRANCH  20  24ATOM     24  N   UNL     1      39.383  29.736  25.414 -0.32 -0.13    -0.313 NA ATOM     25  C   UNL     1      39.243  28.410  25.994 -0.29 +0.06    +0.101 C  ATOM     26  H   UNL     1      39.294  30.441  26.147 +0.11 +0.09    +0.122 HD ENDBRANCH  20  24BRANCH  22  27ATOM     27  O   UNL     1      37.846  32.396  24.647 -0.93 -0.06    -0.390 OA ATOM     28  H   UNL     1      38.050  32.587  25.580 -0.33 -0.07    +0.211 HD ENDBRANCH  22  27ENDBRANCH  18  19ENDBRANCH  13  18ENDBRANCH   9  12ENDBRANCH   1   8BRANCH   7  29ATOM     29  C   UNL     1      38.894  28.495  14.214 -0.23 -0.02    +0.122 C  BRANCH  29  30ATOM     30  N   UNL     1      38.195  27.971  15.399 -0.32 +0.04    -0.299 NA ATOM     31  C   UNL     1      36.734  28.116  15.300 -0.38 -0.01    +0.086 C  ATOM     32  C   UNL     1      38.584  26.594  15.697 -0.22 -0.03    +0.086 C  ATOM     33  C   UNL     1      35.957  27.133  16.186 -0.41 -0.01    +0.031 C  ATOM     34  C   UNL     1      38.116  26.219  17.107 -0.14 -0.01    +0.031 C  ATOM     35  C   UNL     1      36.732  26.790  17.459 -0.24 -0.04    +0.101 C  BRANCH  35  36ATOM     36  C   UNL     1      35.955  25.821  18.318 -0.14 -0.26    +0.306 C  ATOM     37  O   UNL     1      35.416  24.786  17.960 -0.14 +0.28    -0.252 OA BRANCH  36  38ATOM     38  O   UNL     1      35.864  26.224  19.601 -0.10 +0.51    -0.481 OA ATOM     39  H   UNL     1      35.085  25.738  19.945 -0.46 -0.74    +0.296 HD ENDBRANCH  36  38ENDBRANCH  35  36ENDBRANCH  29  30ENDBRANCH   7  29TORSDOF 10TERENDMDL