REMARK SMILES Cc1cccc(-c2n[nH]c3cc(NCC[C@@H](N)C=O)ccc23)c1C
REMARK SMILES IDX 14 1 13 2 12 4 7 5 8 6 22 7 9 8 21 9 10 10 20 11 11 12 6 14
REMARK SMILES IDX 2 15 3 16 23 17 4 18 5 19 1 20 24 21 15 22 16 23 17 24 18 27
REMARK SMILES IDX 19 28
REMARK H PARENT 13 3 9 13 17 25 17 26
ROOT
ATOM      1  C   UNL     1       4.086   0.752   0.765  1.00  0.00     0.115 C 
ENDROOT
BRANCH   1   2
ATOM      2  N   UNL     1       3.146  -0.367   0.734  1.00  0.00    -0.385 N 
ATOM      3  H   UNL     1       3.412  -1.089   0.068  1.00  0.00     0.160 HD
BRANCH   2   4
ATOM      4  C   UNL     1       1.767  -0.121   0.620  1.00  0.00     0.036 A 
ATOM      5  C   UNL     1      -2.376   0.686   0.545  1.00  0.00     0.100 A 
ATOM      6  N   UNL     1      -2.362   2.009   0.777  1.00  0.00    -0.174 NA
ATOM      7  C   UNL     1      -1.051   0.152   0.523  1.00  0.00     0.028 A 
ATOM      8  N   UNL     1      -1.061   2.302   0.917  1.00  0.00    -0.277 N 
ATOM      9  C   UNL     1      -0.468  -1.112   0.330  1.00  0.00     0.015 A 
ATOM     10  C   UNL     1      -0.220   1.234   0.773  1.00  0.00     0.068 A 
ATOM     11  C   UNL     1       0.929  -1.227   0.393  1.00  0.00     0.026 A 
ATOM     12  C   UNL     1       1.177   1.132   0.847  1.00  0.00     0.054 A 
ATOM     13  H   UNL     1      -0.807   3.263   1.111  1.00  0.00     0.190 HD
BRANCH   5  14
ATOM     14  C   UNL     1      -3.631  -0.045   0.370  1.00  0.00     0.006 A 
ATOM     15  C   UNL     1      -5.742  -0.492  -0.770  1.00  0.00    -0.048 A 
ATOM     16  C   UNL     1      -6.022  -1.487   0.181  1.00  0.00     0.004 A 
ATOM     17  C   UNL     1      -4.521   0.224  -0.698  1.00  0.00    -0.039 A 
ATOM     18  C   UNL     1      -5.130  -1.761   1.214  1.00  0.00     0.001 A 
ATOM     19  C   UNL     1      -3.944  -1.040   1.312  1.00  0.00     0.011 A 
ATOM     20  C   UNL     1      -6.754  -0.231  -1.854  1.00  0.00     0.044 C 
ATOM     21  C   UNL     1      -4.200   1.297  -1.710  1.00  0.00     0.045 C 
ENDBRANCH   5  14
ENDBRANCH   2   4
ENDBRANCH   1   2
BRANCH   1  22
ATOM     22  C   UNL     1       5.498   0.250   1.079  1.00  0.00     0.047 C 
BRANCH  22  23
ATOM     23  C   UNL     1       6.181  -0.473  -0.083  1.00  0.00     0.116 C 
BRANCH  23  24
ATOM     24  N   UNL     1       6.437   0.442  -1.210  1.00  0.00    -0.322 NA
ATOM     25  H   UNL     1       6.928  -0.085  -1.938  1.00  0.00     0.119 HD
ATOM     26  H   UNL     1       7.141   1.124  -0.913  1.00  0.00     0.119 HD
ENDBRANCH  23  24
BRANCH  23  27
ATOM     27  C   UNL     1       7.499  -1.072   0.405  1.00  0.00     0.242 C 
ATOM     28  O   UNL     1       8.594  -0.829  -0.097  1.00  0.00    -0.302 OA
ENDBRANCH  23  27
ENDBRANCH  22  23
ENDBRANCH   1  22
TORSDOF 7
