MODEL        9USER    Run = 9USERUSER    Estimated Free Energy of Binding    =  -8.69 kcal/mol  [=(1)+(2)+(3)-(4)]USERUSER    (1) Final Intermolecular Energy     = -10.77 kcal/molUSER        vdW + Hbond + desolv Energy     = -10.60 kcal/molUSER        Electrostatic Energy            =  -0.18 kcal/molUSER        Moving Ligand-Fixed Receptor    = -10.77 kcal/molUSER        Moving Ligand-Moving Receptor   =  +0.00 kcal/molUSER    (2) Final Total Internal Energy     =  -2.17 kcal/molUSER    (3) Torsional Free Energy           =  +2.09 kcal/molUSER    (4) Unbound System's Energy         =  -2.17 kcal/molUSERUSERREMARK SMILES Cc1cccc(-c2n[nH]c3cc(NCC[C@@H](N)C=O)ccc23)c1CREMARK SMILES IDX 14 1 13 2 12 4 7 5 8 6 22 7 9 8 21 9 10 10 20 11 11 12 6 14REMARK SMILES IDX 2 15 3 16 23 17 4 18 5 19 1 20 24 21 15 22 16 23 17 24 18 27REMARK SMILES IDX 19 28REMARK H PARENT 13 3 9 13 17 25 17 26USER                              x       y       z     vdW  Elec       q    TypeUSER                           _______ _______ _______ _____ _____    ______ ____ROOTATOM      1  C   UNL     1      42.898  45.801  21.544 -0.25 +0.04    +0.115 C  ENDROOTBRANCH   1   2ATOM      2  N   UNL     1      43.198  46.743  20.467 -0.17 -0.15    -0.385 N  ATOM      3  H   UNL     1      43.413  47.678  20.807 -0.28 +0.02    +0.160 HD BRANCH   2   4ATOM      4  C   UNL     1      42.335  46.842  19.363 -0.47 +0.01    +0.036 A  ATOM      5  C   UNL     1      39.632  47.363  16.162 -0.42 -0.03    +0.100 A  ATOM      6  N   UNL     1      40.079  48.528  15.664 -0.42 +0.05    -0.174 NA ATOM      7  C   UNL     1      40.404  46.955  17.293 -0.49 -0.00    +0.028 A  ATOM      8  N   UNL     1      41.098  48.859  16.471 -0.37 +0.03    -0.277 N  ATOM      9  C   UNL     1      40.406  45.868  18.183 -0.46 -0.00    +0.015 A  ATOM     10  C   UNL     1      41.348  47.956  17.467 -0.44 -0.01    +0.068 A  ATOM     11  C   UNL     1      41.364  45.837  19.208 -0.44 +0.00    +0.026 A  ATOM     12  C   UNL     1      42.306  47.942  18.492 -0.36 +0.00    +0.054 A  ATOM     13  H   UNL     1      41.591  49.724  16.287 +0.11 +0.01    +0.190 HD BRANCH   5  14ATOM     14  C   UNL     1      38.482  46.675  15.577 -0.41 -0.00    +0.006 A  ATOM     15  C   UNL     1      36.631  46.499  13.996 -0.43 +0.03    -0.048 A  ATOM     16  C   UNL     1      36.270  45.276  14.586 -0.39 -0.00    +0.004 A  ATOM     17  C   UNL     1      37.766  47.200  14.474 -0.44 +0.02    -0.039 A  ATOM     18  C   UNL     1      36.994  44.755  15.655 -0.36 -0.00    +0.001 A  ATOM     19  C   UNL     1      38.090  45.453  16.152 -0.34 -0.00    +0.011 A  ATOM     20  C   UNL     1      35.798  47.017  12.854 -0.66 -0.03    +0.044 C  ATOM     21  C   UNL     1      38.172  48.515  13.854 -0.48 -0.02    +0.045 C  ENDBRANCH   5  14ENDBRANCH   2   4ENDBRANCH   1   2BRANCH   1  22ATOM     22  C   UNL     1      44.055  45.756  22.547 -0.22 +0.02    +0.047 C  BRANCH  22  23ATOM     23  C   UNL     1      44.653  47.123  22.878 -0.24 +0.05    +0.116 C  BRANCH  23  24ATOM     24  N   UNL     1      45.379  47.687  21.725 -0.64 -0.26    -0.322 NA ATOM     25  H   UNL     1      46.196  48.189  22.082 -0.01 +0.08    +0.119 HD ATOM     26  H   UNL     1      44.809  48.439  21.327 -0.50 +0.00    +0.119 HD ENDBRANCH  23  24BRANCH  23  27ATOM     27  C   UNL     1      43.532  48.073  23.297 -0.25 +0.06    +0.242 C  ATOM     28  O   UNL     1      43.020  48.905  22.552 -0.77 -0.07    -0.302 OA ENDBRANCH  23  27ENDBRANCH  22  23ENDBRANCH   1  22TORSDOF 7TERENDMDL