MODEL        2USER    Run = 2USERUSER    Estimated Free Energy of Binding    = -10.81 kcal/mol  [=(1)+(2)+(3)-(4)]USERUSER    (1) Final Intermolecular Energy     = -12.90 kcal/molUSER        vdW + Hbond + desolv Energy     = -12.43 kcal/molUSER        Electrostatic Energy            =  -0.47 kcal/molUSER        Moving Ligand-Fixed Receptor    = -12.90 kcal/molUSER        Moving Ligand-Moving Receptor   =  +0.00 kcal/molUSER    (2) Final Total Internal Energy     =  -1.78 kcal/molUSER    (3) Torsional Free Energy           =  +2.09 kcal/molUSER    (4) Unbound System's Energy         =  -1.78 kcal/molUSERUSERREMARK SMILES OCCNC1=C(c2cccc(-c3ccc(O)cc3)c2)N=C2C=CN=C[C@@H]21REMARK SMILES IDX 5 1 6 2 20 3 21 4 22 5 23 6 24 7 25 8 26 9 4 10 3 12 2 13REMARK SMILES IDX 1 14 7 16 8 17 19 18 9 19 11 20 10 21 12 22 13 23 18 24REMARK SMILES IDX 14 25 17 26 15 27 16 28REMARK H PARENT 4 11 1 15 16 29USER                              x       y       z     vdW  Elec       q    TypeUSER                           _______ _______ _______ _____ _____    ______ ____ROOTATOM      1  C   UNL     1      38.373  47.528  15.653 -0.49 -0.03    +0.052 C  ATOM      2  C   UNL     1      37.739  46.577  16.378 -0.38 -0.04    +0.091 C  ATOM      3  N   UNL     1      36.516  46.198  15.862 -0.19 +0.16    -0.250 NA ATOM      4  C   UNL     1      36.425  46.867  14.759 -0.43 -0.04    +0.057 C  ATOM      5  C   UNL     1      35.436  46.662  13.700 -0.52 -0.03    +0.045 C  ATOM      6  C   UNL     1      35.898  46.929  12.469 -0.62 -0.06    +0.112 C  ATOM      7  N   UNL     1      37.177  47.327  12.133 -0.95 +0.07    -0.268 NA ATOM      8  C   UNL     1      37.955  47.738  13.094 -0.34 -0.02    +0.100 C  ATOM      9  C   UNL     1      37.479  47.902  14.510 -0.49 -0.08    +0.128 C  ENDROOTBRANCH   1  10ATOM     10  N   UNL     1      39.578  48.172  15.894 -0.21 +0.14    -0.383 N  ATOM     11  H   UNL     1      39.434  49.095  16.318 +0.10 -0.08    +0.160 HD BRANCH  10  12ATOM     12  C   UNL     1      40.690  48.233  14.944 -0.50 -0.02    +0.141 C  BRANCH  12  13ATOM     13  C   UNL     1      41.388  49.594  15.058 -0.59 -0.03    +0.177 C  BRANCH  13  14ATOM     14  O   UNL     1      41.435  50.001  16.425 -0.93 +0.02    -0.395 OA ATOM     15  H   UNL     1      41.441  50.974  16.431 -0.42 -0.08    +0.210 HD ENDBRANCH  13  14ENDBRANCH  12  13ENDBRANCH  10  12ENDBRANCH   1  10BRANCH   2  16ATOM     16  C   UNL     1      38.237  45.949  17.614 -0.38 -0.00    +0.003 A  ATOM     17  C   UNL     1      37.482  45.000  18.313 -0.36 -0.00    +0.010 A  ATOM     18  C   UNL     1      39.483  46.335  18.134 -0.41 -0.00    +0.019 A  ATOM     19  C   UNL     1      37.972  44.429  19.486 -0.36 -0.00    +0.001 A  ATOM     20  C   UNL     1      39.997  45.774  19.317 -0.41 +0.00    -0.018 A  ATOM     21  C   UNL     1      39.221  44.811  19.980 -0.37 -0.00    +0.009 A  BRANCH  20  22ATOM     22  C   UNL     1      41.306  46.191  19.847 -0.40 -0.00    -0.018 A  ATOM     23  C   UNL     1      42.184  46.972  19.075 -0.53 +0.00    +0.012 A  ATOM     24  C   UNL     1      41.718  45.820  21.139 -0.32 +0.00    +0.012 A  ATOM     25  C   UNL     1      43.427  47.374  19.574 -0.36 +0.01    +0.047 A  ATOM     26  C   UNL     1      42.959  46.217  21.641 -0.28 +0.01    +0.047 A  ATOM     27  C   UNL     1      43.803  46.991  20.856 -0.26 +0.06    +0.115 A  BRANCH  27  28ATOM     28  O   UNL     1      45.005  47.358  21.383 -0.66 -0.51    -0.508 OA ATOM     29  H   UNL     1      45.034  48.327  21.440 -0.37 +0.08    +0.293 HD ENDBRANCH  27  28ENDBRANCH  20  22ENDBRANCH   2  16TORSDOF 7TERENDMDL