MODEL        8USER    Run = 8USERUSER    Estimated Free Energy of Binding    =  -9.24 kcal/mol  [=(1)+(2)+(3)-(4)]USERUSER    (1) Final Intermolecular Energy     = -11.33 kcal/molUSER        vdW + Hbond + desolv Energy     = -11.20 kcal/molUSER        Electrostatic Energy            =  -0.13 kcal/molUSER        Moving Ligand-Fixed Receptor    = -11.33 kcal/molUSER        Moving Ligand-Moving Receptor   =  +0.00 kcal/molUSER    (2) Final Total Internal Energy     =  -1.38 kcal/molUSER    (3) Torsional Free Energy           =  +2.09 kcal/molUSER    (4) Unbound System's Energy         =  -1.38 kcal/molUSERUSERREMARK SMILES COc1cccc(Nc2nc(NCc3ccccc3)c3ncn(C(C)C)c3n2)c1REMARK SMILES IDX 9 1 10 2 11 3 20 4 21 5 22 6 23 7 27 8 28 9 8 10 7 12 3 13REMARK SMILES IDX 4 14 29 15 5 16 6 17 2 18 1 19 12 20 13 22 14 23 15 24 19 25REMARK SMILES IDX 16 26 18 27 17 28 24 29 25 30 26 31REMARK H PARENT 8 11 12 21USER                              x       y       z     vdW  Elec       q    TypeUSER                           _______ _______ _______ _____ _____    ______ ____ROOTATOM      1  C   UNL     1      38.773  45.567  18.128 -0.25 -0.04    +0.231 A  ATOM      2  N   UNL     1      38.693  46.312  16.999 -0.28 +0.06    -0.193 NA ATOM      3  C   UNL     1      39.674  47.203  16.687 -0.36 -0.04    +0.160 A  ATOM      4  C   UNL     1      40.750  47.323  17.580 -0.40 -0.02    +0.150 A  ATOM      5  N   UNL     1      41.874  48.124  17.584 -0.58 +0.00    -0.231 NA ATOM      6  C   UNL     1      42.518  47.790  18.683 -0.35 +0.00    +0.202 A  ATOM      7  N   UNL     1      41.860  46.814  19.388 -0.28 -0.03    -0.313 N  ATOM      8  C   UNL     1      40.718  46.511  18.697 -0.35 -0.01    +0.167 A  ATOM      9  N   UNL     1      39.771  45.624  19.024 -0.30 +0.01    -0.193 NA ENDROOTBRANCH   1  10ATOM     10  N   UNL     1      37.704  44.688  18.295 -0.16 +0.06    -0.324 N  ATOM     11  H   UNL     1      38.055  43.742  18.236 +0.11 -0.02    +0.170 HD BRANCH  10  12ATOM     12  C   UNL     1      36.325  44.849  18.458 -0.31 -0.01    +0.045 A  ATOM     13  C   UNL     1      34.130  44.175  19.305 -0.32 -0.02    +0.120 A  ATOM     14  C   UNL     1      33.538  45.268  18.677 -0.42 -0.02    +0.046 A  ATOM     15  C   UNL     1      35.513  43.974  19.187 -0.33 -0.01    +0.072 A  ATOM     16  C   UNL     1      34.326  46.148  17.936 -0.47 -0.00    +0.006 A  ATOM     17  C   UNL     1      35.701  45.937  17.827 -0.32 -0.01    +0.026 A  BRANCH  13  18ATOM     18  O   UNL     1      33.478  43.234  20.059 -0.68 -0.06    -0.497 OA ATOM     19  C   UNL     1      32.476  42.468  19.404 -0.22 +0.01    +0.278 C  ENDBRANCH  13  18ENDBRANCH  10  12ENDBRANCH   1  10BRANCH   3  20ATOM     20  N   UNL     1      39.605  47.963  15.515 -0.22 +0.12    -0.364 N  ATOM     21  H   UNL     1      40.352  48.655  15.507 +0.12 -0.04    +0.162 HD BRANCH  20  22ATOM     22  C   UNL     1      38.288  48.489  15.215 -0.48 -0.09    +0.150 C  BRANCH  22  23ATOM     23  C   UNL     1      37.629  47.616  14.173 -0.50 +0.01    -0.029 A  ATOM     24  C   UNL     1      36.767  48.167  13.214 -0.58 -0.00    +0.005 A  ATOM     25  C   UNL     1      37.889  46.238  14.139 -0.43 -0.00    +0.005 A  ATOM     26  C   UNL     1      36.166  47.354  12.252 -0.68 -0.00    +0.000 A  ATOM     27  C   UNL     1      37.288  45.426  13.175 -0.48 -0.00    +0.000 A  ATOM     28  C   UNL     1      36.425  45.984  12.234 -0.63 -0.00    +0.000 A  ENDBRANCH  22  23ENDBRANCH  20  22ENDBRANCH   3  20BRANCH   7  29ATOM     29  C   UNL     1      42.287  46.204  20.639 -0.36 +0.02    +0.084 C  ATOM     30  C   UNL     1      43.496  46.928  21.234 -0.40 +0.01    +0.031 C  ATOM     31  C   UNL     1      41.139  46.124  21.645 -0.29 +0.00    +0.031 C  ENDBRANCH   7  29TORSDOF 7TERENDMDL