MODEL        8USER    Run = 8USERUSER    Estimated Free Energy of Binding    =  -4.12 kcal/mol  [=(1)+(2)+(3)-(4)]USERUSER    (1) Final Intermolecular Energy     =  -8.59 kcal/molUSER        vdW + Hbond + desolv Energy     =  -8.87 kcal/molUSER        Electrostatic Energy            =  -0.10 kcal/molUSER        Moving Ligand-Fixed Receptor    =  -8.97 kcal/molUSER        Moving Ligand-Moving Receptor   =  +0.38 kcal/molUSER    (2) Final Total Internal Energy     =  -3.10 kcal/molUSER    (3) Torsional Free Energy           =  +4.47 kcal/molUSER    (4) Unbound System's Energy         =  -3.10 kcal/molUSERUSERREMARK SMILES COc1ccc(I)cc1C1=CC=CC(=CC(=O)CCC(=O)O)[C@H](N)O1REMARK SMILES IDX 14 1 23 2 25 3 10 4 9 5 3 6 4 7 5 8 8 9 6 10 7 11 2 12 1 13REMARK SMILES IDX 11 14 24 16 13 19 12 20 15 22 16 23 17 24 18 25 19 26 20 27REMARK SMILES IDX 21 28 22 29REMARK H PARENT 24 17 24 18 22 30REMARK Flexibility Score:   79.900USER                              x       y       z     vdW  Elec       q    TypeUSER                           _______ _______ _______ _____ _____    ______ ____ROOTATOM      1  C   UNL     1      37.112  45.429  16.882 -0.40 -0.00    +0.011 C  ENDROOTBRANCH   1   2ATOM      2  C   UNL     1      35.775  45.247  16.164 -0.21 -0.15    +0.271 C  BRANCH   2   3ATOM      3  O   UNL     1      35.324  43.902  16.299 -0.08 +0.20    -0.471 OA BRANCH   3   4ATOM      4  C   UNL     1      34.613  43.665  17.450 -0.28 -0.05    +0.133 C  BRANCH   4   5ATOM      5  C   UNL     1      33.290  43.062  17.210 -0.30 -0.02    +0.060 A  ATOM      6  C   UNL     1      32.359  43.657  16.332 -0.24 -0.06    +0.129 A  ATOM      7  C   UNL     1      31.116  43.046  16.140 -0.30 -0.02    +0.048 A  ATOM      8  C   UNL     1      30.796  41.858  16.808 -0.31 -0.01    +0.018 A  ATOM      9  C   UNL     1      32.961  41.873  17.879 -0.37 -0.01    +0.030 A  ATOM     10  C   UNL     1      31.718  41.277  17.675 -0.34 -0.00    +0.014 A  ATOM     11  I   UNL     1      31.238  39.518  18.669 -1.14 -0.00    -0.044 I  BRANCH   6  12ATOM     12  O   UNL     1      32.757  44.818  15.716 -0.07 +0.31    -0.496 OA ATOM     13  C   UNL     1      31.807  45.487  14.897 -0.30 -0.19    +0.278 C  ENDBRANCH   6  12ENDBRANCH   4   5BRANCH   4  14ATOM     14  C   UNL     1      35.019  43.941  18.702 -0.38 -0.01    +0.047 CG0ATOM     15  G   UNL     1      36.150  44.748  19.103 +0.00 +0.00    +0.000 G0 ENDBRANCH   4  14ENDBRANCH   3   4ENDBRANCH   2   3BRANCH   2  16ATOM     16  N   UNL     1      34.698  46.091  16.682 -0.13 +0.32    -0.292 NA ATOM     17  H   UNL     1      33.906  45.919  16.064 -0.08 -0.15    +0.122 HD ATOM     18  H   UNL     1      34.972  47.047  16.457 -0.13 -0.23    +0.122 HD ENDBRANCH   2  16ENDBRANCH   1   2BRANCH   1  19ATOM     19  C   UNL     1      37.047  45.389  18.341 -0.33 -0.00    +0.009 C  BRANCH  19  20ATOM     20  C   UNL     1      36.151  44.749  19.107 -0.39 -0.00    +0.004 CG0ATOM     21  G   UNL     1      35.019  43.945  18.702 +0.00 +0.00    +0.000 G0 ENDBRANCH  19  20ENDBRANCH   1  19BRANCH   1  22ATOM     22  C   UNL     1      38.282  45.512  16.213 -0.37 -0.02    +0.056 C  BRANCH  22  23ATOM     23  C   UNL     1      38.575  46.265  14.965 -0.36 -0.05    +0.156 C  ATOM     24  O   UNL     1      38.560  45.661  13.894 -0.25 +0.07    -0.295 OA BRANCH  23  25ATOM     25  C   UNL     1      38.809  47.760  15.041 -0.50 -0.04    +0.092 C  BRANCH  25  26ATOM     26  C   UNL     1      37.491  48.514  14.918 -0.50 -0.10    +0.130 C  BRANCH  26  27ATOM     27  C   UNL     1      36.542  47.789  14.009 -0.32 -0.20    +0.303 C  ATOM     28  O   UNL     1      35.494  47.248  14.315 -0.23 +0.25    -0.252 OA BRANCH  27  29ATOM     29  O   UNL     1      36.965  47.790  12.730 -0.82 +0.15    -0.481 OA ATOM     30  H   UNL     1      37.451  46.945  12.634 +0.24 -0.08    +0.296 HD ENDBRANCH  27  29ENDBRANCH  26  27ENDBRANCH  25  26ENDBRANCH  23  25ENDBRANCH  22  23ENDBRANCH   1  22TORSDOF 9TERENDMDL