REMARK SMILES CN[C@H]1CN(Cc2ccc(C(=O)Nc3cc(Cl)ccc3CN3CCC(C(=O)O)CC3)cc2)C[C@@H]1O
REMARK SMILES IDX 14 1 15 2 16 3 17 4 18 5 19 6 20 7 13 8 11 9 12 10 10 12
REMARK SMILES IDX 7 13 8 14 32 15 9 16 31 17 6 18 5 19 3 20 4 21 34 22 33 23
REMARK SMILES IDX 2 24 1 25 35 27 21 29 22 30 23 31 30 32 24 33 29 34 25 35
REMARK SMILES IDX 26 36 27 37 28 38
REMARK H PARENT 13 11 2 26 35 28 28 39
ROOT
ATOM      1  C   UNL     1       3.109   0.550   3.132  1.00  0.00     0.047 A 
ATOM      2  C   UNL     1       3.708   0.097   4.319  1.00  0.00     0.047 A 
ATOM      3  C   UNL     1       5.064   0.320   4.573  1.00  0.00     0.043 A 
ATOM      4  Cl  UNL     1       5.766  -0.237   6.045  1.00  0.00    -0.084 Cl
ATOM      5  C   UNL     1       5.852   0.994   3.652  1.00  0.00     0.021 A 
ATOM      6  C   UNL     1       5.277   1.450   2.469  1.00  0.00     0.009 A 
ATOM      7  C   UNL     1       3.906   1.246   2.191  1.00  0.00    -0.010 A 
ENDROOT
BRANCH   1   8
ATOM      8  N   UNL     1       1.732   0.345   2.881  1.00  0.00    -0.322 N 
ATOM      9  C   UNL     1       0.829  -0.388   3.630  1.00  0.00     0.255 C 
ATOM     10  O   UNL     1       1.062  -1.097   4.598  1.00  0.00    -0.269 OA
ATOM     11  H   UNL     1       1.353   0.749   2.036  1.00  0.00     0.170 HD
BRANCH   9  12
ATOM     12  C   UNL     1      -0.571  -0.308   3.134  1.00  0.00     0.040 A 
ATOM     13  C   UNL     1      -3.212  -0.207   2.195  1.00  0.00    -0.034 A 
ATOM     14  C   UNL     1      -2.455   0.970   2.313  1.00  0.00     0.006 A 
ATOM     15  C   UNL     1      -2.631  -1.433   2.559  1.00  0.00     0.006 A 
ATOM     16  C   UNL     1      -1.140   0.922   2.782  1.00  0.00     0.014 A 
ATOM     17  C   UNL     1      -1.321  -1.483   3.039  1.00  0.00     0.014 A 
BRANCH  13  18
ATOM     18  C   UNL     1      -4.631  -0.163   1.668  1.00  0.00     0.120 C 
BRANCH  18  19
ATOM     19  N   UNL     1      -4.737  -0.651   0.292  1.00  0.00    -0.295 NA
ATOM     20  C   UNL     1      -6.216  -0.181  -1.567  1.00  0.00     0.097 C 
ATOM     21  C   UNL     1      -6.141  -0.789  -0.149  1.00  0.00     0.106 C 
ATOM     22  C   UNL     1      -4.747  -0.132  -2.007  1.00  0.00     0.146 C 
ATOM     23  C   UNL     1      -4.060   0.213  -0.688  1.00  0.00     0.118 C 
BRANCH  20  24
ATOM     24  N   UNL     1      -7.194  -0.770  -2.495  1.00  0.00    -0.313 NA
ATOM     25  C   UNL     1      -6.864  -2.108  -2.960  1.00  0.00     0.101 C 
ATOM     26  H   UNL     1      -7.313  -0.149  -3.296  1.00  0.00     0.122 HD
ENDBRANCH  20  24
BRANCH  22  27
ATOM     27  O   UNL     1      -4.527   0.858  -3.002  1.00  0.00    -0.390 OA
ATOM     28  H   UNL     1      -5.001   0.558  -3.798  1.00  0.00     0.211 HD
ENDBRANCH  22  27
ENDBRANCH  18  19
ENDBRANCH  13  18
ENDBRANCH   9  12
ENDBRANCH   1   8
BRANCH   7  29
ATOM     29  C   UNL     1       3.403   1.787   0.861  1.00  0.00     0.122 C 
BRANCH  29  30
ATOM     30  N   UNL     1       3.957   1.067  -0.297  1.00  0.00    -0.299 NA
ATOM     31  C   UNL     1       3.512  -0.335  -0.353  1.00  0.00     0.086 C 
ATOM     32  C   UNL     1       3.695   1.769  -1.552  1.00  0.00     0.086 C 
ATOM     33  C   UNL     1       3.583  -0.947  -1.758  1.00  0.00     0.031 C 
ATOM     34  C   UNL     1       4.573   1.185  -2.663  1.00  0.00     0.031 C 
ATOM     35  C   UNL     1       4.724  -0.343  -2.578  1.00  0.00     0.101 C 
BRANCH  35  36
ATOM     36  C   UNL     1       4.779  -0.954  -3.958  1.00  0.00     0.306 C 
ATOM     37  O   UNL     1       4.052  -1.825  -4.408  1.00  0.00    -0.252 OA
BRANCH  36  38
ATOM     38  O   UNL     1       5.784  -0.456  -4.706  1.00  0.00    -0.481 OA
ATOM     39  H   UNL     1       5.711  -0.945  -5.553  1.00  0.00     0.296 HD
ENDBRANCH  36  38
ENDBRANCH  35  36
ENDBRANCH  29  30
ENDBRANCH   7  29
TORSDOF 10
