REMARK SMILES O=C(O)CSc1nc2cc(F)ccc2n1Cc1cccc(Cl)c1Cl
REMARK SMILES IDX 5 1 4 2 2 3 1 4 3 5 6 7 7 8 15 9 8 10 14 11 9 12 13 13 10 14
REMARK SMILES IDX 12 15 11 16 16 17 17 18 18 19 23 20 19 21 21 22 20 23 24 24
REMARK SMILES IDX 22 25
REMARK H PARENT 3 6
ROOT
ATOM      1  S   UNL     1       0.688   2.207   0.153  1.00  0.00    -0.076 SA
ENDROOT
BRANCH   1   2
ATOM      2  C   UNL     1       2.414   2.772   0.087  1.00  0.00     0.200 C 
BRANCH   2   3
ATOM      3  C   UNL     1       3.072   2.410  -1.224  1.00  0.00     0.313 C 
ATOM      4  O   UNL     1       2.542   2.073  -2.271  1.00  0.00    -0.251 OA
BRANCH   3   5
ATOM      5  O   UNL     1       4.415   2.559  -1.171  1.00  0.00    -0.481 OA
ATOM      6  H   UNL     1       4.716   2.278  -2.061  1.00  0.00     0.296 HD
ENDBRANCH   3   5
ENDBRANCH   2   3
ENDBRANCH   1   2
BRANCH   1   7
ATOM      7  C   UNL     1       0.929   0.491   0.128  1.00  0.00     0.169 A 
ATOM      8  N   UNL     1       2.029  -0.089   0.547  1.00  0.00    -0.222 NA
ATOM      9  N   UNL     1       0.018  -0.411  -0.367  1.00  0.00    -0.314 N 
ATOM     10  C   UNL     1       1.862  -1.419   0.273  1.00  0.00     0.093 A 
ATOM     11  C   UNL     1       0.625  -1.657  -0.327  1.00  0.00     0.069 A 
ATOM     12  C   UNL     1       2.748  -2.481   0.496  1.00  0.00     0.069 A 
ATOM     13  C   UNL     1       0.232  -2.938  -0.744  1.00  0.00     0.031 A 
ATOM     14  C   UNL     1       2.357  -3.755   0.094  1.00  0.00     0.125 A 
ATOM     15  C   UNL     1       1.128  -3.987  -0.515  1.00  0.00     0.041 A 
ATOM     16  F   UNL     1       3.189  -4.786   0.295  1.00  0.00    -0.207 F 
BRANCH   9  17
ATOM     17  C   UNL     1      -1.274  -0.129  -0.984  1.00  0.00     0.162 C 
BRANCH  17  18
ATOM     18  C   UNL     1      -2.316   0.438  -0.040  1.00  0.00    -0.008 A 
ATOM     19  C   UNL     1      -2.747   1.765  -0.249  1.00  0.00     0.007 A 
ATOM     20  C   UNL     1      -2.903  -0.296   1.012  1.00  0.00     0.064 A 
ATOM     21  C   UNL     1      -3.698   2.360   0.579  1.00  0.00     0.002 A 
ATOM     22  C   UNL     1      -3.862   0.311   1.845  1.00  0.00     0.060 A 
ATOM     23  C   UNL     1      -4.251   1.635   1.629  1.00  0.00     0.022 A 
ATOM     24  Cl  UNL     1      -2.485  -1.960   1.256  1.00  0.00    -0.082 Cl
ATOM     25  Cl  UNL     1      -4.620  -0.524   3.159  1.00  0.00    -0.083 Cl
ENDBRANCH  17  18
ENDBRANCH   9  17
ENDBRANCH   1   7
TORSDOF 6
