REMARK SMILES COc1ccc(I)cc1C1=CC=CC(=CC(=O)CCC(=O)O)[C@H](N)O1
REMARK SMILES IDX 14 1 23 2 25 3 10 4 9 5 3 6 4 7 5 8 8 9 6 10 7 11 2 12 1 13
REMARK SMILES IDX 11 14 24 16 13 19 12 20 15 22 16 23 17 24 18 25 19 26 20 27
REMARK SMILES IDX 21 28 22 29
REMARK H PARENT 24 17 24 18 22 30
REMARK Flexibility Score:   79.900
ROOT
ATOM      1  C   UNL     1       1.218   0.977  -0.910  1.00  0.00     0.011 C 
ENDROOT
BRANCH   1   2
ATOM      2  C   UNL     1      -0.264   1.349  -0.889  1.00  0.00     0.271 C 
BRANCH   2   3
ATOM      3  O   UNL     1      -0.917   0.701   0.199  1.00  0.00    -0.471 OA
BRANCH   3   4
ATOM      4  C   UNL     1      -1.375  -0.560  -0.096  1.00  0.00     0.133 C 
BRANCH   4   5
ATOM      5  C   UNL     1      -2.741  -0.818   0.393  1.00  0.00     0.060 A 
ATOM      6  C   UNL     1      -3.869  -0.259  -0.244  1.00  0.00     0.129 A 
ATOM      7  C   UNL     1      -5.144  -0.533   0.261  1.00  0.00     0.048 A 
ATOM      8  C   UNL     1      -5.303  -1.352   1.385  1.00  0.00     0.018 A 
ATOM      9  C   UNL     1      -2.908  -1.636   1.522  1.00  0.00     0.030 A 
ATOM     10  C   UNL     1      -4.186  -1.899   2.011  1.00  0.00     0.014 A 
ATOM     11  I   UNL     1      -4.426  -3.110   3.681  1.00  0.00    -0.044 I 
BRANCH   6  12
ATOM     12  O   UNL     1      -3.621   0.529  -1.341  1.00  0.00    -0.496 OA
ATOM     13  C   UNL     1      -4.741   1.080  -2.022  1.00  0.00     0.278 C 
ENDBRANCH   6  12
ENDBRANCH   4   5
BRANCH   4  14
ATOM     14  C   UNL     1      -0.694  -1.516  -0.752  1.00  0.00     0.047 CG0
ATOM     15  G   UNL     1       0.677  -1.463  -1.210  1.00  0.00     0.000 G0
ENDBRANCH   4  14
ENDBRANCH   3   4
ENDBRANCH   2   3
BRANCH   2  16
ATOM     16  N   UNL     1      -0.520   2.780  -0.723  1.00  0.00    -0.292 NA
ATOM     17  H   UNL     1      -0.405   2.956   0.275  1.00  0.00     0.122 HD
ATOM     18  H   UNL     1      -1.522   2.894  -0.871  1.00  0.00     0.122 HD
ENDBRANCH   2  16
ENDBRANCH   1   2
BRANCH   1  19
ATOM     19  C   UNL     1       1.508  -0.411  -1.262  1.00  0.00     0.009 C 
BRANCH  19  20
ATOM     20  C   UNL     1       0.677  -1.463  -1.210  1.00  0.00     0.004 CG0
ATOM     21  G   UNL     1      -0.694  -1.516  -0.752  1.00  0.00     0.000 G0
ENDBRANCH  19  20
ENDBRANCH   1  19
BRANCH   1  22
ATOM     22  C   UNL     1       2.192   1.893  -0.721  1.00  0.00     0.056 C 
BRANCH  22  23
ATOM     23  C   UNL     1       3.661   1.673  -0.664  1.00  0.00     0.156 C 
ATOM     24  O   UNL     1       4.398   2.449  -1.270  1.00  0.00    -0.295 OA
BRANCH  23  25
ATOM     25  C   UNL     1       4.208   0.550   0.193  1.00  0.00     0.092 C 
BRANCH  25  26
ATOM     26  C   UNL     1       5.455   1.007   0.941  1.00  0.00     0.130 C 
BRANCH  26  27
ATOM     27  C   UNL     1       5.967  -0.079   1.841  1.00  0.00     0.303 C 
ATOM     28  O   UNL     1       5.560  -1.225   1.920  1.00  0.00    -0.252 OA
BRANCH  27  29
ATOM     29  O   UNL     1       6.994   0.339   2.606  1.00  0.00    -0.481 OA
ATOM     30  H   UNL     1       7.242  -0.450   3.132  1.00  0.00     0.296 HD
ENDBRANCH  27  29
ENDBRANCH  26  27
ENDBRANCH  25  26
ENDBRANCH  23  25
ENDBRANCH  22  23
ENDBRANCH   1  22
TORSDOF 9
