MODEL        7USER    Run = 7USERUSER    Estimated Free Energy of Binding    = -10.66 kcal/mol  [=(1)+(2)+(3)-(4)]USERUSER    (1) Final Intermolecular Energy     = -13.35 kcal/molUSER        vdW + Hbond + desolv Energy     = -13.24 kcal/molUSER        Electrostatic Energy            =  -0.11 kcal/molUSER        Moving Ligand-Fixed Receptor    = -13.35 kcal/molUSER        Moving Ligand-Moving Receptor   =  +0.00 kcal/molUSER    (2) Final Total Internal Energy     =  -2.27 kcal/molUSER    (3) Torsional Free Energy           =  +2.68 kcal/molUSER    (4) Unbound System's Energy         =  -2.27 kcal/molUSERUSERREMARK SMILES CCCN(C)CCC[n+]1ccc2c(c1)=C/C(=C1\C(=O)Nc3cc(-c4cc(F)ccc4C)ccc31)C=2PREMARK SMILES IDX 7 1 6 2 4 3 5 4 3 5 2 6 1 7 8 8 9 9 10 10 14 11 11 12 13 13REMARK SMILES IDX 12 14 15 15 35 16 16 17 36 18 17 21 18 22 34 23 20 24 33 25REMARK SMILES IDX 21 26 32 27 22 28 23 29 19 30 24 32 25 33 30 34 26 35 29 36REMARK SMILES IDX 28 37 31 38 27 39REMARK H PARENT 36 19 36 20 20 31USER                              x       y       z     vdW  Elec       q    TypeUSER                           _______ _______ _______ _____ _____    ______ ____ROOTATOM      1  C   UNL     1      37.485  44.049  27.335 -0.34 -0.01    +0.088 C  ENDROOTBRANCH   1   2ATOM      2  C   UNL     1      38.514  42.946  27.622 -0.31 -0.01    +0.090 C  BRANCH   2   3ATOM      3  N   UNL     1      38.137  41.560  27.361 -0.22 +0.04    -0.306 NA ATOM      4  C   UNL     1      39.253  40.621  27.356 -0.33 -0.00    +0.105 C  BRANCH   3   5ATOM      5  C   UNL     1      36.942  41.073  28.048 -0.44 -0.03    +0.084 C  BRANCH   5   6ATOM      6  C   UNL     1      35.735  40.981  27.107 -0.67 -0.00    +0.012 C  ATOM      7  C   UNL     1      34.684  42.026  27.450 -0.65 -0.00    +0.005 C  ENDBRANCH   5   6ENDBRANCH   3   5ENDBRANCH   2   3ENDBRANCH   1   2BRANCH   1   8ATOM      8  C   UNL     1      36.806  43.917  25.979 -0.17 -0.02    +0.358 C  BRANCH   8   9ATOM      9  N   UNL     1      37.690  44.477  24.924 -0.19 -0.01    -0.204 N  ATOM     10  C   UNL     1      38.851  45.340  25.388 -0.06 +0.01    +0.308 A  ATOM     11  C   UNL     1      37.543  44.295  23.651 -0.14 +0.04    +0.316 A  ATOM     12  C   UNL     1      39.728  45.925  24.550 -0.15 +0.00    +0.080 A  ATOM     13  C   UNL     1      38.457  44.889  22.667 -0.31 +0.00    +0.047 A  ATOM     14  C   UNL     1      39.545  45.732  23.128 -0.28 +0.00    +0.001 A  ATOM     15  C   UNL     1      38.494  44.749  21.341 -0.40 +0.00    +0.024 C  ATOM     16  C   UNL     1      40.265  46.133  22.057 -0.23 -0.00    -0.014 C  ATOM     17  C   UNL     1      39.607  45.577  20.846 -0.37 -0.00    -0.004 C  BRANCH  16  18ATOM     18  P   UNL     1      41.910  46.890  22.197 -0.25 -0.01    -0.104 P  ATOM     19  H   UNL     1      42.701  45.805  21.753 +0.03 +0.02    +0.059 HD ATOM     20  H   UNL     1      41.963  47.548  20.945 +0.01 +0.01    +0.059 HD ENDBRANCH  16  18BRANCH  17  21ATOM     21  C   UNL     1      39.865  45.751  19.530 -0.41 -0.00    +0.057 C  ATOM     22  C   UNL     1      41.283  46.020  19.030 -0.35 +0.01    +0.256 C  ATOM     23  C   UNL     1      39.007  45.853  18.329 -0.41 -0.00    +0.011 A  ATOM     24  N   UNL     1      41.146  46.398  17.710 -0.26 +0.02    -0.321 N  ATOM     25  C   UNL     1      37.714  45.471  18.026 -0.36 -0.00    +0.012 A  ATOM     26  C   UNL     1      39.830  46.288  17.284 -0.43 -0.01    +0.050 A  ATOM     27  C   UNL     1      37.230  45.666  16.722 -0.36 -0.00    +0.009 A  ATOM     28  C   UNL     1      39.386  46.487  15.988 -0.42 -0.01    +0.035 A  ATOM     29  C   UNL     1      38.049  46.192  15.698 -0.37 +0.01    -0.016 A  ATOM     30  O   UNL     1      42.330  45.963  19.645 -0.25 -0.07    -0.269 OA ATOM     31  H   UNL     1      41.935  46.632  17.123 -0.35 -0.04    +0.170 HD BRANCH  29  32ATOM     32  C   UNL     1      37.518  46.373  14.340 -0.42 +0.00    -0.012 A  ATOM     33  C   UNL     1      37.357  45.245  13.517 -0.41 -0.02    +0.048 A  ATOM     34  C   UNL     1      37.159  47.643  13.832 -0.51 +0.02    -0.043 A  ATOM     35  C   UNL     1      36.846  45.376  12.232 -0.46 -0.04    +0.123 A  ATOM     36  C   UNL     1      36.639  47.749  12.529 -0.65 -0.00    +0.007 A  ATOM     37  C   UNL     1      36.485  46.617  11.729 -0.62 -0.02    +0.039 A  ATOM     38  C   UNL     1      37.303  48.894  14.660 -0.56 -0.04    +0.045 C  ATOM     39  F   UNL     1      36.699  44.287  11.468 -0.19 +0.06    -0.207 F  ENDBRANCH  29  32ENDBRANCH  17  21ENDBRANCH   8   9ENDBRANCH   1   8TORSDOF 9TERENDMDL