REMARK SMILES OCCNC1=C(c2cccc(-c3ccc(O)cc3)c2)N=C2C=CN=C[C@@H]21
REMARK SMILES IDX 5 1 6 2 20 3 21 4 22 5 23 6 24 7 25 8 26 9 4 10 3 12 2 13
REMARK SMILES IDX 1 14 7 16 8 17 19 18 9 19 11 20 10 21 12 22 13 23 18 24
REMARK SMILES IDX 14 25 17 26 15 27 16 28
REMARK H PARENT 4 11 1 15 16 29
ROOT
ATOM      1  C   UNL     1      -2.329   0.420  -0.012  1.00  0.00     0.052 C 
ATOM      2  C   UNL     1      -1.069   0.915  -0.004  1.00  0.00     0.091 C 
ATOM      3  N   UNL     1      -0.899   2.034  -0.794  1.00  0.00    -0.250 NA
ATOM      4  C   UNL     1      -2.088   2.283  -1.238  1.00  0.00     0.057 C 
ATOM      5  C   UNL     1      -2.518   3.499  -1.929  1.00  0.00     0.045 C 
ATOM      6  C   UNL     1      -3.794   3.836  -1.688  1.00  0.00     0.112 C 
ATOM      7  N   UNL     1      -4.680   3.181  -0.855  1.00  0.00    -0.268 NA
ATOM      8  C   UNL     1      -4.361   1.983  -0.454  1.00  0.00     0.100 C 
ATOM      9  C   UNL     1      -3.142   1.258  -0.951  1.00  0.00     0.128 C 
ENDROOT
BRANCH   1  10
ATOM     10  N   UNL     1      -2.845  -0.704   0.616  1.00  0.00    -0.383 N 
ATOM     11  H   UNL     1      -2.100  -1.300   0.995  1.00  0.00     0.160 HD
BRANCH  10  12
ATOM     12  C   UNL     1      -3.916  -1.540   0.071  1.00  0.00     0.141 C 
BRANCH  12  13
ATOM     13  C   UNL     1      -4.226  -2.679   1.050  1.00  0.00     0.177 C 
BRANCH  13  14
ATOM     14  O   UNL     1      -3.073  -3.504   1.214  1.00  0.00    -0.395 OA
ATOM     15  H   UNL     1      -3.298  -4.178   1.879  1.00  0.00     0.210 HD
ENDBRANCH  13  14
ENDBRANCH  12  13
ENDBRANCH  10  12
ENDBRANCH   1  10
BRANCH   2  16
ATOM     16  C   UNL     1       0.073   0.373   0.751  1.00  0.00     0.003 A 
ATOM     17  C   UNL     1      -0.037   0.026   2.103  1.00  0.00     0.010 A 
ATOM     18  C   UNL     1       1.319   0.234   0.119  1.00  0.00     0.019 A 
ATOM     19  C   UNL     1       1.063  -0.475   2.798  1.00  0.00     0.001 A 
ATOM     20  C   UNL     1       2.443  -0.267   0.800  1.00  0.00    -0.018 A 
ATOM     21  C   UNL     1       2.290  -0.623   2.149  1.00  0.00     0.009 A 
BRANCH  20  22
ATOM     22  C   UNL     1       3.742  -0.406   0.120  1.00  0.00    -0.018 A 
ATOM     23  C   UNL     1       4.316   0.675  -0.572  1.00  0.00     0.012 A 
ATOM     24  C   UNL     1       4.446  -1.623   0.142  1.00  0.00     0.012 A 
ATOM     25  C   UNL     1       5.550   0.550  -1.217  1.00  0.00     0.047 A 
ATOM     26  C   UNL     1       5.679  -1.753  -0.502  1.00  0.00     0.047 A 
ATOM     27  C   UNL     1       6.221  -0.666  -1.175  1.00  0.00     0.115 A 
BRANCH  27  28
ATOM     28  O   UNL     1       7.426  -0.835  -1.790  1.00  0.00    -0.508 OA
ATOM     29  H   UNL     1       7.674   0.002  -2.216  1.00  0.00     0.293 HD
ENDBRANCH  27  28
ENDBRANCH  20  22
ENDBRANCH   2  16
TORSDOF 7
