REMARK SMILES CCCN(C)CCC[n+]1ccc2c(c1)=C/C(=C1\C(=O)Nc3cc(-c4cc(F)ccc4C)ccc31)C=2P
REMARK SMILES IDX 7 1 6 2 4 3 5 4 3 5 2 6 1 7 8 8 9 9 10 10 14 11 11 12 13 13
REMARK SMILES IDX 12 14 15 15 35 16 16 17 36 18 17 21 18 22 34 23 20 24 33 25
REMARK SMILES IDX 21 26 32 27 22 28 23 29 19 30 24 32 25 33 30 34 26 35 29 36
REMARK SMILES IDX 28 37 31 38 27 39
REMARK H PARENT 36 19 36 20 20 31
ROOT
ATOM      1  C   UNL     1      -5.287  -1.646   0.256  1.00  0.00     0.088 C 
ENDROOT
BRANCH   1   2
ATOM      2  C   UNL     1      -6.763  -1.903  -0.079  1.00  0.00     0.090 C 
BRANCH   2   3
ATOM      3  N   UNL     1      -7.780  -1.116   0.613  1.00  0.00    -0.306 NA
ATOM      4  C   UNL     1      -7.704  -1.175   2.068  1.00  0.00     0.105 C 
BRANCH   3   5
ATOM      5  C   UNL     1      -8.043   0.218   0.076  1.00  0.00     0.084 C 
BRANCH   5   6
ATOM      6  C   UNL     1      -9.497   0.652   0.301  1.00  0.00     0.012 C 
ATOM      7  C   UNL     1      -9.781   1.996  -0.352  1.00  0.00     0.005 C 
ENDBRANCH   5   6
ENDBRANCH   3   5
ENDBRANCH   2   3
ENDBRANCH   1   2
BRANCH   1   8
ATOM      8  C   UNL     1      -4.783  -0.283  -0.199  1.00  0.00     0.358 C 
BRANCH   8   9
ATOM      9  N   UNL     1      -3.309  -0.216  -0.026  1.00  0.00    -0.204 N 
ATOM     10  C   UNL     1      -2.795   0.145   1.357  1.00  0.00     0.308 A 
ATOM     11  C   UNL     1      -2.436  -0.430  -0.958  1.00  0.00     0.316 A 
ATOM     12  C   UNL     1      -1.488   0.255   1.663  1.00  0.00     0.080 A 
ATOM     13  C   UNL     1      -0.991  -0.338  -0.711  1.00  0.00     0.047 A 
ATOM     14  C   UNL     1      -0.520   0.033   0.611  1.00  0.00     0.001 A 
ATOM     15  C   UNL     1       0.033  -0.593  -1.526  1.00  0.00     0.024 C 
ATOM     16  C   UNL     1       0.831   0.020   0.607  1.00  0.00    -0.014 C 
ATOM     17  C   UNL     1       1.268  -0.325  -0.770  1.00  0.00    -0.004 C 
BRANCH  16  18
ATOM     18  P   UNL     1       1.825   0.062   2.127  1.00  0.00    -0.104 P 
ATOM     19  H   UNL     1       1.205   1.154   2.777  1.00  0.00     0.059 HD
ATOM     20  H   UNL     1       1.116  -0.899   2.887  1.00  0.00     0.059 HD
ENDBRANCH  16  18
BRANCH  17  21
ATOM     21  C   UNL     1       2.499  -0.381  -1.329  1.00  0.00     0.057 C 
ATOM     22  C   UNL     1       2.739  -1.123  -2.642  1.00  0.00     0.256 C 
ATOM     23  C   UNL     1       3.838   0.065  -0.888  1.00  0.00     0.011 A 
ATOM     24  N   UNL     1       4.110  -1.201  -2.780  1.00  0.00    -0.321 N 
ATOM     25  C   UNL     1       4.299   0.983   0.037  1.00  0.00     0.012 A 
ATOM     26  C   UNL     1       4.761  -0.499  -1.776  1.00  0.00     0.050 A 
ATOM     27  C   UNL     1       5.681   1.209   0.148  1.00  0.00     0.009 A 
ATOM     28  C   UNL     1       6.128  -0.294  -1.696  1.00  0.00     0.035 A 
ATOM     29  C   UNL     1       6.608   0.562  -0.698  1.00  0.00    -0.016 A 
ATOM     30  O   UNL     1       1.922  -1.595  -3.410  1.00  0.00    -0.269 OA
ATOM     31  H   UNL     1       4.556  -1.642  -3.572  1.00  0.00     0.170 HD
BRANCH  29  32
ATOM     32  C   UNL     1       8.047   0.828  -0.566  1.00  0.00    -0.012 A 
ATOM     33  C   UNL     1       8.655   1.735  -1.450  1.00  0.00     0.048 A 
ATOM     34  C   UNL     1       8.843   0.204   0.423  1.00  0.00    -0.043 A 
ATOM     35  C   UNL     1      10.011   2.021  -1.347  1.00  0.00     0.123 A 
ATOM     36  C   UNL     1      10.213   0.514   0.510  1.00  0.00     0.007 A 
ATOM     37  C   UNL     1      10.796   1.420  -0.375  1.00  0.00     0.039 A 
ATOM     38  C   UNL     1       8.257  -0.777   1.405  1.00  0.00     0.045 C 
ATOM     39  F   UNL     1      10.566   2.892  -2.199  1.00  0.00    -0.207 F 
ENDBRANCH  29  32
ENDBRANCH  17  21
ENDBRANCH   8   9
ENDBRANCH   1   8
TORSDOF 9
