MODEL        8USER    Run = 8USERUSER    Estimated Free Energy of Binding    =  -8.25 kcal/mol  [=(1)+(2)+(3)-(4)]USERUSER    (1) Final Intermolecular Energy     = -10.04 kcal/molUSER        vdW + Hbond + desolv Energy     =  -9.89 kcal/molUSER        Electrostatic Energy            =  -0.15 kcal/molUSER        Moving Ligand-Fixed Receptor    = -10.04 kcal/molUSER        Moving Ligand-Moving Receptor   =  +0.00 kcal/molUSER    (2) Final Total Internal Energy     =  -1.74 kcal/molUSER    (3) Torsional Free Energy           =  +1.79 kcal/molUSER    (4) Unbound System's Energy         =  -1.74 kcal/molUSERUSERREMARK SMILES O=C(O)CSc1nc2cc(F)ccc2n1Cc1cccc(Cl)c1ClREMARK SMILES IDX 5 1 4 2 2 3 1 4 3 5 6 7 7 8 15 9 8 10 14 11 9 12 13 13 10 14REMARK SMILES IDX 12 15 11 16 16 17 17 18 18 19 23 20 19 21 21 22 20 23 24 24REMARK SMILES IDX 22 25REMARK H PARENT 3 6USER                              x       y       z     vdW  Elec       q    TypeUSER                           _______ _______ _______ _____ _____    ______ ____ROOTATOM      1  S   UNL     1      39.634  47.101  14.973 -0.60 +0.02    -0.076 SA ENDROOTBRANCH   1   2ATOM      2  C   UNL     1      39.708  48.871  15.379 -0.45 -0.08    +0.200 C  BRANCH   2   3ATOM      3  C   UNL     1      41.096  49.290  15.805 -0.42 -0.04    +0.313 C  ATOM      4  O   UNL     1      41.805  50.161  15.326 -0.90 +0.02    -0.251 OA BRANCH   3   5ATOM      5  O   UNL     1      41.515  48.610  16.896 -0.72 -0.01    -0.481 OA ATOM      6  H   UNL     1      41.813  47.749  16.534 -0.29 -0.03    +0.296 HD ENDBRANCH   3   5ENDBRANCH   2   3ENDBRANCH   1   2BRANCH   1   7ATOM      7  C   UNL     1      39.577  46.425  16.568 -0.33 -0.03    +0.169 A  ATOM      8  N   UNL     1      40.648  46.089  17.248 -0.29 +0.02    -0.222 NA ATOM      9  N   UNL     1      38.416  46.142  17.246 -0.20 +0.09    -0.314 N  ATOM     10  C   UNL     1      40.179  45.515  18.397 -0.39 -0.00    +0.093 A  ATOM     11  C   UNL     1      38.784  45.503  18.421 -0.36 -0.01    +0.069 A  ATOM     12  C   UNL     1      40.902  44.960  19.461 -0.37 +0.00    +0.069 A  ATOM     13  C   UNL     1      38.060  44.928  19.476 -0.31 -0.00    +0.031 A  ATOM     14  C   UNL     1      40.187  44.399  20.516 -0.25 +0.00    +0.125 A  ATOM     15  C   UNL     1      38.797  44.377  20.530 -0.32 -0.00    +0.041 A  ATOM     16  F   UNL     1      40.858  43.860  21.544 -0.06 -0.01    -0.207 F  BRANCH   9  17ATOM     17  C   UNL     1      37.044  46.306  16.777 -0.31 -0.09    +0.162 C  BRANCH  17  18ATOM     18  C   UNL     1      36.218  45.035  16.781 -0.33 +0.00    -0.008 A  ATOM     19  C   UNL     1      36.740  43.902  16.122 -0.37 -0.00    +0.007 A  ATOM     20  C   UNL     1      34.974  44.910  17.435 -0.28 -0.03    +0.064 A  ATOM     21  C   UNL     1      36.039  42.698  16.076 -0.43 -0.00    +0.002 A  ATOM     22  C   UNL     1      34.270  43.692  17.385 -0.27 -0.02    +0.060 A  ATOM     23  C   UNL     1      34.802  42.595  16.703 -0.42 -0.01    +0.022 A  ATOM     24  Cl  UNL     1      34.328  46.237  18.344 -0.72 +0.06    -0.082 Cl ATOM     25  Cl  UNL     1      32.737  43.467  18.157 -0.48 +0.02    -0.083 Cl ENDBRANCH  17  18ENDBRANCH   9  17ENDBRANCH   1   7TORSDOF 6TERENDMDL