REMARK SMILES CN1CCN(c2ccc(-c3nc4ccc(F)cc4nc3-c3ccc(CN4CCC(n5c(O)nc6ccccc65)CC4)cc3O)cc2)CC1
REMARK SMILES IDX 21 1 22 2 23 3 24 4 42 5 43 6 20 7 10 8 11 9 12 10 19 11
REMARK SMILES IDX 13 12 18 13 14 14 17 15 15 16 16 17 9 18 6 19 7 20 46 21
REMARK SMILES IDX 8 22 45 23 5 24 2 25 3 26 48 27 4 28 47 29 1 30 44 31 25 33
REMARK SMILES IDX 26 34 27 35 41 36 28 37 40 38 29 39 30 40 31 41 39 42 33 43
REMARK SMILES IDX 38 44 34 45 37 46 35 47 36 48 32 49
REMARK H PARENT 44 32 32 50
ROOT
ATOM      1  C   UNL     1      -0.369   1.594  -0.514  1.00  0.00     0.044 A 
ATOM      2  C   UNL     1      -0.423   0.222  -0.817  1.00  0.00     0.014 A 
ATOM      3  C   UNL     1       0.428  -0.698  -0.189  1.00  0.00     0.006 A 
ATOM      4  C   UNL     1       1.367  -0.271   0.757  1.00  0.00    -0.030 A 
ATOM      5  C   UNL     1       1.446   1.093   1.055  1.00  0.00     0.052 A 
ATOM      6  C   UNL     1       0.606   2.003   0.415  1.00  0.00     0.125 A 
ENDROOT
BRANCH   1   7
ATOM      7  C   UNL     1      -1.280   2.567  -1.152  1.00  0.00     0.101 A 
ATOM      8  C   UNL     1      -2.667   2.422  -1.304  1.00  0.00     0.097 A 
ATOM      9  N   UNL     1      -3.401   3.363  -1.964  1.00  0.00    -0.244 NA
ATOM     10  C   UNL     1      -2.766   4.452  -2.419  1.00  0.00     0.090 A 
ATOM     11  N   UNL     1      -0.642   3.698  -1.588  1.00  0.00    -0.244 NA
ATOM     12  C   UNL     1      -3.490   5.435  -3.081  1.00  0.00     0.033 A 
ATOM     13  C   UNL     1      -1.378   4.629  -2.222  1.00  0.00     0.092 A 
ATOM     14  C   UNL     1      -2.874   6.596  -3.543  1.00  0.00     0.041 A 
ATOM     15  C   UNL     1      -0.770   5.784  -2.689  1.00  0.00     0.069 A 
ATOM     16  C   UNL     1      -1.514   6.759  -3.342  1.00  0.00     0.125 A 
ATOM     17  F   UNL     1      -0.908   7.865  -3.789  1.00  0.00    -0.207 F 
BRANCH   8  18
ATOM     18  C   UNL     1      -3.491   1.344  -0.731  1.00  0.00     0.003 A 
ATOM     19  C   UNL     1      -5.214  -0.660   0.382  1.00  0.00     0.037 A 
ATOM     20  C   UNL     1      -5.297  -0.294  -0.965  1.00  0.00     0.026 A 
ATOM     21  C   UNL     1      -4.236  -0.013   1.154  1.00  0.00     0.026 A 
ATOM     22  C   UNL     1      -4.457   0.690  -1.511  1.00  0.00     0.012 A 
ATOM     23  C   UNL     1      -3.399   0.975   0.617  1.00  0.00     0.012 A 
BRANCH  19  24
ATOM     24  N   UNL     1      -6.052  -1.608   0.988  1.00  0.00    -0.369 N 
ATOM     25  N   UNL     1      -8.989  -2.217   1.347  1.00  0.00    -0.303 NA
ATOM     26  C   UNL     1      -8.275  -2.250   0.049  1.00  0.00     0.105 C 
ATOM     27  C   UNL     1      -8.054  -1.939   2.464  1.00  0.00     0.105 C 
ATOM     28  C   UNL     1      -6.773  -2.596   0.158  1.00  0.00     0.132 C 
ATOM     29  C   UNL     1      -6.878  -1.015   2.079  1.00  0.00     0.132 C 
ATOM     30  C   UNL     1      -9.717  -3.458   1.594  1.00  0.00     0.105 C 
ENDBRANCH  19  24
ENDBRANCH   8  18
ENDBRANCH   1   7
BRANCH   6  31
ATOM     31  O   UNL     1       0.787   3.324   0.735  1.00  0.00    -0.507 OA
ATOM     32  H   UNL     1       0.416   3.844  -0.010  1.00  0.00     0.293 HD
ENDBRANCH   6  31
BRANCH   4  33
ATOM     33  C   UNL     1       2.304  -1.256   1.425  1.00  0.00     0.120 C 
BRANCH  33  34
ATOM     34  N   UNL     1       3.240  -1.928   0.501  1.00  0.00    -0.299 NA
ATOM     35  C   UNL     1       4.037  -2.942   1.213  1.00  0.00     0.087 C 
ATOM     36  C   UNL     1       4.051  -0.966  -0.256  1.00  0.00     0.087 C 
ATOM     37  C   UNL     1       5.527  -2.618   1.302  1.00  0.00     0.041 C 
ATOM     38  C   UNL     1       5.191  -1.638  -1.028  1.00  0.00     0.041 C 
ATOM     39  C   UNL     1       6.109  -2.455  -0.106  1.00  0.00     0.095 C 
BRANCH  39  40
ATOM     40  N   UNL     1       7.502  -2.019  -0.060  1.00  0.00    -0.291 N 
ATOM     41  C   UNL     1       8.576  -2.871  -0.132  1.00  0.00     0.295 A 
ATOM     42  C   UNL     1       8.016  -0.750   0.108  1.00  0.00     0.072 A 
ATOM     43  N   UNL     1       9.731  -2.266  -0.051  1.00  0.00    -0.195 NA
ATOM     44  C   UNL     1       7.453   0.525   0.263  1.00  0.00     0.029 A 
ATOM     45  C   UNL     1       9.403  -0.940   0.095  1.00  0.00     0.092 A 
ATOM     46  C   UNL     1       8.323   1.617   0.393  1.00  0.00     0.002 A 
ATOM     47  C   UNL     1      10.260   0.166   0.233  1.00  0.00     0.031 A 
ATOM     48  C   UNL     1       9.704   1.445   0.377  1.00  0.00     0.002 A 
BRANCH  41  49
ATOM     49  O   UNL     1       8.492  -4.180  -0.261  1.00  0.00    -0.480 OA
ATOM     50  H   UNL     1       9.436  -4.429  -0.255  1.00  0.00     0.296 HD
ENDBRANCH  41  49
ENDBRANCH  39  40
ENDBRANCH  33  34
ENDBRANCH   4  33
TORSDOF 8
