MODEL        6USER    Run = 6USERUSER    Estimated Free Energy of Binding    =  -6.44 kcal/mol  [=(1)+(2)+(3)-(4)]USERUSER    (1) Final Intermolecular Energy     = -10.61 kcal/molUSER        vdW + Hbond + desolv Energy     = -11.75 kcal/molUSER        Electrostatic Energy            =  -0.11 kcal/molUSER        Moving Ligand-Fixed Receptor    = -11.86 kcal/molUSER        Moving Ligand-Moving Receptor   =  +1.24 kcal/molUSER    (2) Final Total Internal Energy     =  -2.25 kcal/molUSER    (3) Torsional Free Energy           =  +4.18 kcal/molUSER    (4) Unbound System's Energy         =  -2.25 kcal/molUSERUSERREMARK SMILES Cn1cc(C(=O)N[C@H]2CNCCC[C@H]2NC(=O)c2ccc(C(=O)c3ccc(C#N)cc3O)cc2)cn1REMARK SMILES IDX 15 1 16 2 17 3 14 5 8 6 7 7 5 8 6 9 4 11 2 12 3 13 36 14REMARK SMILES IDX 35 15 1 16 9 17 10 18 11 20 13 22 12 23 18 25 19 26 34 27REMARK SMILES IDX 20 28 33 29 21 30 22 31 23 32 24 33 25 34 31 35 26 36 30 37REMARK SMILES IDX 27 38 32 39 28 41 29 42REMARK H PARENT 15 4 7 10 10 19 32 40REMARK Flexibility Score:   72.900USER                              x       y       z     vdW  Elec       q    TypeUSER                           _______ _______ _______ _____ _____    ______ ____ROOTATOM      1  N   UNL     1      38.539  43.873  23.645 -0.08 -0.02    -0.347 N  ATOM      2  C   UNL     1      39.259  43.275  22.635 -0.18 +0.01    +0.251 C  ATOM      3  O   UNL     1      39.504  42.074  22.605 -0.11 -0.04    -0.269 OA ATOM      4  H   UNL     1      38.311  44.863  23.592 +0.08 +0.01    +0.164 HD ENDROOTBRANCH   1   5ATOM      5  C   UNL     1      38.011  43.123  24.788 -0.28 +0.00    +0.106 C  BRANCH   5   6ATOM      6  C   UNL     1      38.381  43.799  26.143 -0.19 -0.00    +0.118 C  BRANCH   6   7ATOM      7  N   UNL     1      39.281  44.954  25.983 -0.03 -0.00    -0.346 N  ATOM      8  C   UNL     1      40.588  44.852  25.572 -0.05 +0.01    +0.254 C  ATOM      9  O   UNL     1      41.110  43.776  25.297 -0.07 +0.00    -0.269 OA ATOM     10  H   UNL     1      38.870  45.876  26.011 +0.07 +0.00    +0.164 HD BRANCH   8  11ATOM     11  C   UNL     1      41.303  46.109  25.443 -0.07 +0.00    +0.077 A  ATOM     12  N   UNL     1      42.166  48.024  24.780 -0.13 -0.04    -0.275 N  ATOM     13  C   UNL     1      41.359  46.995  24.381 -0.13 +0.01    +0.122 A  ATOM     14  N   UNL     1      42.643  47.877  26.026 -0.09 -0.02    -0.181 NA ATOM     15  C   UNL     1      42.116  46.718  26.428 -0.06 +0.01    +0.149 A  ATOM     16  C   UNL     1      42.525  49.197  24.020 -0.27 +0.06    +0.173 C  ENDBRANCH   8  11ENDBRANCH   6   7BRANCH   6  17ATOM     17  C   UNL     1      37.142  44.213  26.993 -0.34 -0.01    +0.108 C  BRANCH  17  18ATOM     18  N   UNL     1      36.407  43.153  27.675 -0.20 +0.09    -0.315 NA ATOM     19  H   UNL     1      36.719  43.045  28.640 -0.39 -0.07    +0.122 HD BRANCH  18  20ATOM     20  C   UNL     1      36.391  41.860  26.990 -0.51 -0.02    +0.081 CG0ATOM     21  G   UNL     1      35.896  41.819  25.542 +0.00 +0.00    +0.000 G0 ENDBRANCH  18  20ENDBRANCH  17  18ENDBRANCH   6  17ENDBRANCH   5   6BRANCH   5  22ATOM     22  C   UNL     1      36.504  42.866  24.619 -0.37 +0.00    +0.028 C  BRANCH  22  23ATOM     23  C   UNL     1      35.903  41.810  25.546 -0.39 -0.00    +0.017 CG0ATOM     24  G   UNL     1      36.399  41.852  26.993 +0.00 +0.00    +0.000 G0 ENDBRANCH  22  23ENDBRANCH   5  22ENDBRANCH   1   5BRANCH   2  25ATOM     25  C   UNL     1      39.736  44.157  21.531 -0.26 +0.00    +0.039 A  ATOM     26  C   UNL     1      38.787  44.948  20.867 -0.35 +0.00    +0.014 A  ATOM     27  C   UNL     1      41.076  44.204  21.125 -0.32 +0.00    +0.014 A  ATOM     28  C   UNL     1      39.169  45.787  19.816 -0.29 -0.00    +0.013 A  ATOM     29  C   UNL     1      41.461  45.044  20.075 -0.36 +0.00    +0.013 A  ATOM     30  C   UNL     1      40.507  45.821  19.410 -0.42 +0.00    +0.023 A  BRANCH  30  31ATOM     31  C   UNL     1      40.958  46.706  18.310 -0.43 -0.01    +0.196 C  ATOM     32  O   UNL     1      42.026  47.306  18.427 -0.44 +0.00    -0.288 OA BRANCH  31  33ATOM     33  C   UNL     1      40.160  46.910  17.072 -0.45 -0.01    +0.064 A  ATOM     34  C   UNL     1      39.042  46.118  16.781 -0.40 -0.00    +0.017 A  ATOM     35  C   UNL     1      40.557  47.891  16.151 -0.44 -0.02    +0.128 A  ATOM     36  C   UNL     1      38.314  46.335  15.605 -0.38 -0.01    +0.020 A  ATOM     37  C   UNL     1      39.830  48.115  14.983 -0.50 -0.02    +0.066 A  ATOM     38  C   UNL     1      38.703  47.337  14.708 -0.44 -0.02    +0.056 A  BRANCH  35  39ATOM     39  O   UNL     1      41.665  48.675  16.332 -0.64 -0.04    -0.507 OA ATOM     40  H   UNL     1      42.349  48.132  16.787 -0.28 +0.02    +0.293 HD ENDBRANCH  35  39BRANCH  38  41ATOM     41  C   UNL     1      37.953  47.555  13.505 -0.51 -0.03    +0.099 C  ATOM     42  N   UNL     1      37.337  47.727  12.537 -1.04 +0.04    -0.192 NA ENDBRANCH  38  41ENDBRANCH  31  33ENDBRANCH  30  31ENDBRANCH   2  25TORSDOF 8TERENDMDL