MODEL        9USER    Run = 9USERUSER    Estimated Free Energy of Binding    = -13.95 kcal/mol  [=(1)+(2)+(3)-(4)]USERUSER    (1) Final Intermolecular Energy     = -16.33 kcal/molUSER        vdW + Hbond + desolv Energy     = -16.00 kcal/molUSER        Electrostatic Energy            =  -0.34 kcal/molUSER        Moving Ligand-Fixed Receptor    = -16.33 kcal/molUSER        Moving Ligand-Moving Receptor   =  +0.00 kcal/molUSER    (2) Final Total Internal Energy     =  -2.22 kcal/molUSER    (3) Torsional Free Energy           =  +2.39 kcal/molUSER    (4) Unbound System's Energy         =  -2.22 kcal/molUSERUSERREMARK SMILES CN1CCN(c2ccc(-c3nc4ccc(F)cc4nc3-c3ccc(CN4CCC(n5c(O)nc6ccccc65)CC4)cc3O)cc2)CC1REMARK SMILES IDX 21 1 22 2 23 3 24 4 42 5 43 6 20 7 10 8 11 9 12 10 19 11REMARK SMILES IDX 13 12 18 13 14 14 17 15 15 16 16 17 9 18 6 19 7 20 46 21REMARK SMILES IDX 8 22 45 23 5 24 2 25 3 26 48 27 4 28 47 29 1 30 44 31 25 33REMARK SMILES IDX 26 34 27 35 41 36 28 37 40 38 29 39 30 40 31 41 39 42 33 43REMARK SMILES IDX 38 44 34 45 37 46 35 47 36 48 32 49REMARK H PARENT 44 32 32 50USER                              x       y       z     vdW  Elec       q    TypeUSER                           _______ _______ _______ _____ _____    ______ ____ROOTATOM      1  C   UNL     1      35.576  44.082  17.454 -0.28 -0.02    +0.044 A  ATOM      2  C   UNL     1      36.263  43.582  16.334 -0.39 -0.00    +0.014 A  ATOM      3  C   UNL     1      36.204  44.231  15.093 -0.35 -0.00    +0.006 A  ATOM      4  C   UNL     1      35.447  45.397  14.932 -0.34 +0.02    -0.030 A  ATOM      5  C   UNL     1      34.743  45.896  16.033 -0.22 -0.05    +0.052 A  ATOM      6  C   UNL     1      34.795  45.237  17.259 -0.25 -0.07    +0.125 A  ENDROOTBRANCH   1   7ATOM      7  C   UNL     1      35.654  43.419  18.773 -0.29 -0.02    +0.101 A  ATOM      8  C   UNL     1      34.661  42.614  19.351 -0.35 -0.01    +0.097 A  ATOM      9  N   UNL     1      34.820  42.099  20.604 -0.19 -0.03    -0.244 NA ATOM     10  C   UNL     1      35.971  42.345  21.245 -0.39 +0.00    +0.090 A  ATOM     11  N   UNL     1      36.842  43.638  19.418 -0.19 +0.03    -0.244 NA ATOM     12  C   UNL     1      36.168  41.821  22.516 -0.44 +0.00    +0.033 A  ATOM     13  C   UNL     1      36.996  43.111  20.646 -0.33 -0.00    +0.092 A  ATOM     14  C   UNL     1      37.361  42.027  23.204 -0.39 +0.00    +0.041 A  ATOM     15  C   UNL     1      38.179  43.318  21.338 -0.18 +0.00    +0.069 A  ATOM     16  C   UNL     1      38.359  42.778  22.606 -0.26 +0.01    +0.125 A  ATOM     17  F   UNL     1      39.506  42.992  23.260 -0.05 -0.01    -0.207 F  BRANCH   8  18ATOM     18  C   UNL     1      33.422  42.163  18.694 -0.40 -0.00    +0.003 A  ATOM     19  C   UNL     1      31.088  41.170  17.357 -0.30 -0.01    +0.037 A  ATOM     20  C   UNL     1      31.602  40.537  18.494 -0.37 -0.00    +0.026 A  ATOM     21  C   UNL     1      31.759  42.322  16.917 -0.28 -0.01    +0.026 A  ATOM     22  C   UNL     1      32.747  41.020  19.147 -0.18 +0.00    +0.012 A  ATOM     23  C   UNL     1      32.907  42.805  17.561 -0.32 -0.00    +0.012 A  BRANCH  19  24ATOM     24  N   UNL     1      29.971  40.710  16.644 -0.17 +0.06    -0.369 N  ATOM     25  N   UNL     1      26.998  41.195  16.422 -0.10 +0.04    -0.303 NA ATOM     26  C   UNL     1      28.042  42.180  16.051 -0.24 -0.04    +0.105 C  ATOM     27  C   UNL     1      27.602  39.903  16.827 -0.20 +0.03    +0.105 C  ATOM     28  C   UNL     1      29.373  41.549  15.584 -0.26 -0.06    +0.132 C  ATOM     29  C   UNL     1      28.971  40.046  17.528 -0.27 +0.02    +0.132 C  ATOM     30  C   UNL     1      26.042  40.988  15.338 -0.35 -0.02    +0.105 C  ENDBRANCH  19  24ENDBRANCH   8  18ENDBRANCH   1   7BRANCH   6  31ATOM     31  O   UNL     1      34.035  45.771  18.268 -0.16 +0.30    -0.507 OA ATOM     32  H   UNL     1      33.591  46.562  17.893 +0.05 -0.31    +0.293 HD ENDBRANCH   6  31BRANCH   4  33ATOM     33  C   UNL     1      35.362  46.093  13.589 -0.36 -0.08    +0.120 C  BRANCH  33  34ATOM     34  N   UNL     1      36.450  47.058  13.334 -0.32 +0.16    -0.299 NA ATOM     35  C   UNL     1      37.704  46.356  13.011 -0.39 -0.03    +0.087 C  ATOM     36  C   UNL     1      36.585  48.035  14.422 -0.39 -0.07    +0.087 C  ATOM     37  C   UNL     1      38.804  46.526  14.057 -0.42 -0.01    +0.041 C  ATOM     38  C   UNL     1      37.856  48.881  14.297 -0.41 -0.03    +0.041 C  ATOM     39  C   UNL     1      39.123  48.014  14.239 -0.47 -0.03    +0.095 C  BRANCH  39  40ATOM     40  N   UNL     1      40.080  48.225  15.322 -0.31 +0.08    -0.291 N  ATOM     41  C   UNL     1      40.985  49.256  15.356 -0.38 -0.06    +0.295 A  ATOM     42  C   UNL     1      40.309  47.462  16.448 -0.47 -0.01    +0.072 A  ATOM     43  N   UNL     1      41.758  49.241  16.409 -0.93 -0.04    -0.195 NA ATOM     44  C   UNL     1      39.744  46.290  16.971 -0.44 -0.01    +0.029 A  ATOM     45  C   UNL     1      41.348  48.130  17.106 -0.41 -0.01    +0.092 A  ATOM     46  C   UNL     1      40.243  45.806  18.189 -0.47 -0.00    +0.002 A  ATOM     47  C   UNL     1      41.840  47.627  18.324 -0.49 -0.00    +0.031 A  ATOM     48  C   UNL     1      41.272  46.462  18.858 -0.49 +0.00    +0.002 A  BRANCH  41  49ATOM     49  O   UNL     1      41.103  50.187  14.430 -0.26 +0.17    -0.480 OA ATOM     50  H   UNL     1      40.460  50.849  14.748 -0.13 -0.22    +0.296 HD ENDBRANCH  41  49ENDBRANCH  39  40ENDBRANCH  33  34ENDBRANCH   4  33TORSDOF 8TERENDMDL