REMARK SMILES Cn1cc(C(=O)N[C@H]2CNCCC[C@H]2NC(=O)c2ccc(C(=O)c3ccc(C#N)cc3O)cc2)cn1
REMARK SMILES IDX 15 1 16 2 17 3 14 5 8 6 7 7 5 8 6 9 4 11 2 12 3 13 36 14
REMARK SMILES IDX 35 15 1 16 9 17 10 18 11 20 13 22 12 23 18 25 19 26 34 27
REMARK SMILES IDX 20 28 33 29 21 30 22 31 23 32 24 33 25 34 31 35 26 36 30 37
REMARK SMILES IDX 27 38 32 39 28 41 29 42
REMARK H PARENT 15 4 7 10 10 19 32 40
REMARK Flexibility Score:   72.900
ROOT
ATOM      1  N   UNL     1      -0.882  -0.763  -1.245  1.00  0.00    -0.347 N 
ATOM      2  C   UNL     1       0.368  -0.502  -1.759  1.00  0.00     0.251 C 
ATOM      3  O   UNL     1       0.614  -0.505  -2.961  1.00  0.00    -0.269 OA
ATOM      4  H   UNL     1      -1.048  -0.688  -0.244  1.00  0.00     0.164 HD
ENDROOT
BRANCH   1   5
ATOM      5  C   UNL     1      -2.033  -1.083  -2.093  1.00  0.00     0.106 C 
BRANCH   5   6
ATOM      6  C   UNL     1      -3.145  -1.833  -1.299  1.00  0.00     0.118 C 
BRANCH   6   7
ATOM      7  N   UNL     1      -3.783  -0.994  -0.270  1.00  0.00    -0.346 N 
ATOM      8  C   UNL     1      -3.193  -0.674   0.929  1.00  0.00     0.254 C 
ATOM      9  O   UNL     1      -2.071  -1.065   1.235  1.00  0.00    -0.269 OA
ATOM     10  H   UNL     1      -4.619  -0.490  -0.529  1.00  0.00     0.164 HD
BRANCH   8  11
ATOM     11  C   UNL     1      -3.969   0.194   1.796  1.00  0.00     0.077 A 
ATOM     12  N   UNL     1      -5.505   1.455   2.744  1.00  0.00    -0.275 N 
ATOM     13  C   UNL     1      -5.247   0.699   1.635  1.00  0.00     0.122 A 
ATOM     14  N   UNL     1      -4.489   1.483   3.620  1.00  0.00    -0.181 NA
ATOM     15  C   UNL     1      -3.560   0.715   3.046  1.00  0.00     0.149 A 
ATOM     16  C   UNL     1      -6.715   2.183   3.042  1.00  0.00     0.173 C 
ENDBRANCH   8  11
ENDBRANCH   6   7
BRANCH   6  17
ATOM     17  C   UNL     1      -4.239  -2.472  -2.207  1.00  0.00     0.108 C 
BRANCH  17  18
ATOM     18  N   UNL     1      -3.976  -2.529  -3.641  1.00  0.00    -0.315 NA
ATOM     19  H   UNL     1      -3.087  -2.989  -3.838  1.00  0.00     0.122 HD
BRANCH  18  20
ATOM     20  C   UNL     1      -4.062  -1.250  -4.347  1.00  0.00     0.081 CG0
ATOM     21  G   UNL     1      -3.884   0.034  -3.532  1.00  0.00     0.000 G0
ENDBRANCH  18  20
ENDBRANCH  17  18
ENDBRANCH   6  17
ENDBRANCH   5   6
BRANCH   5  22
ATOM     22  C   UNL     1      -2.538   0.174  -2.821  1.00  0.00     0.028 C 
BRANCH  22  23
ATOM     23  C   UNL     1      -3.884   0.034  -3.532  1.00  0.00     0.017 CG0
ATOM     24  G   UNL     1      -4.062  -1.250  -4.347  1.00  0.00     0.000 G0
ENDBRANCH  22  23
ENDBRANCH   5  22
ENDBRANCH   1   5
BRANCH   2  25
ATOM     25  C   UNL     1       1.450  -0.189  -0.782  1.00  0.00     0.039 A 
ATOM     26  C   UNL     1       2.550   0.553  -1.238  1.00  0.00     0.014 A 
ATOM     27  C   UNL     1       1.418  -0.623   0.549  1.00  0.00     0.014 A 
ATOM     28  C   UNL     1       3.603   0.870  -0.374  1.00  0.00     0.013 A 
ATOM     29  C   UNL     1       2.469  -0.306   1.416  1.00  0.00     0.013 A 
ATOM     30  C   UNL     1       3.568   0.424   0.951  1.00  0.00     0.023 A 
BRANCH  30  31
ATOM     31  C   UNL     1       4.655   0.748   1.904  1.00  0.00     0.196 C 
ATOM     32  O   UNL     1       4.362   1.100   3.046  1.00  0.00    -0.288 OA
BRANCH  31  33
ATOM     33  C   UNL     1       6.092   0.680   1.528  1.00  0.00     0.064 A 
ATOM     34  C   UNL     1       6.546  -0.176   0.516  1.00  0.00     0.017 A 
ATOM     35  C   UNL     1       7.025   1.459   2.229  1.00  0.00     0.128 A 
ATOM     36  C   UNL     1       7.907  -0.217   0.189  1.00  0.00     0.020 A 
ATOM     37  C   UNL     1       8.379   1.425   1.901  1.00  0.00     0.066 A 
ATOM     38  C   UNL     1       8.824   0.587   0.876  1.00  0.00     0.056 A 
BRANCH  35  39
ATOM     39  O   UNL     1       6.675   2.284   3.265  1.00  0.00    -0.507 OA
ATOM     40  H   UNL     1       5.747   2.074   3.518  1.00  0.00     0.293 HD
ENDBRANCH  35  39
BRANCH  38  41
ATOM     41  C   UNL     1      10.216   0.540   0.536  1.00  0.00     0.099 C 
ATOM     42  N   UNL     1      11.340   0.495   0.252  1.00  0.00    -0.192 NA
ENDBRANCH  38  41
ENDBRANCH  31  33
ENDBRANCH  30  31
ENDBRANCH   2  25
TORSDOF 8
