MODEL        6USER    Run = 6USERUSER    Estimated Free Energy of Binding    =  -8.26 kcal/mol  [=(1)+(2)+(3)-(4)]USERUSER    (1) Final Intermolecular Energy     = -12.74 kcal/molUSER        vdW + Hbond + desolv Energy     = -12.93 kcal/molUSER        Electrostatic Energy            =  -0.13 kcal/molUSER        Moving Ligand-Fixed Receptor    = -13.05 kcal/molUSER        Moving Ligand-Moving Receptor   =  +0.32 kcal/molUSER    (2) Final Total Internal Energy     =  -2.10 kcal/molUSER    (3) Torsional Free Energy           =  +4.47 kcal/molUSER    (4) Unbound System's Energy         =  -2.10 kcal/molUSERUSERREMARK SMILES Cn1cc(C(=O)N[C@@H]2CNCCC[C@H]2NS(=O)(=O)c2ccc(C(=O)c3ccc(C#N)cc3O)cc2)cn1REMARK SMILES IDX 15 1 14 3 8 4 7 5 5 6 6 7 4 9 2 10 3 11 37 12 36 13 1 14REMARK SMILES IDX 9 15 10 16 11 18 13 20 12 21 16 23 17 24 18 25 19 26 20 27REMARK SMILES IDX 35 28 21 29 34 30 22 31 23 32 24 33 25 34 26 35 32 36 27 37REMARK SMILES IDX 31 38 28 39 33 40 29 42 30 43REMARK H PARENT 15 2 7 8 10 17 33 41REMARK Flexibility Score:   99.900USER                              x       y       z     vdW  Elec       q    TypeUSER                           _______ _______ _______ _____ _____    ______ ____ROOTATOM      1  N   UNL     1      35.869  42.984  20.756 -0.31 -0.00    -0.206 NA ATOM      2  H   UNL     1      35.880  42.206  21.416 +0.08 +0.01    +0.141 HD ENDROOTBRANCH   1   3ATOM      3  C   UNL     1      36.585  44.233  21.132 -0.32 +0.00    +0.093 C  BRANCH   3   4ATOM      4  C   UNL     1      37.577  43.963  22.297 -0.35 +0.01    +0.114 C  BRANCH   4   5ATOM      5  N   UNL     1      36.968  44.208  23.608 -0.14 -0.06    -0.346 N  ATOM      6  C   UNL     1      36.695  43.184  24.484 -0.22 +0.02    +0.254 C  ATOM      7  O   UNL     1      36.837  42.004  24.180 -0.34 -0.00    -0.269 OA ATOM      8  H   UNL     1      37.004  45.160  23.967 +0.07 +0.04    +0.164 HD BRANCH   6   9ATOM      9  C   UNL     1      36.239  43.591  25.800 -0.32 -0.00    +0.077 A  ATOM     10  N   UNL     1      35.201  43.826  27.727 -0.35 +0.07    -0.275 N  ATOM     11  C   UNL     1      35.204  43.095  26.573 -0.30 -0.02    +0.122 A  ATOM     12  N   UNL     1      36.161  44.766  27.767 -0.33 +0.05    -0.181 NA ATOM     13  C   UNL     1      36.791  44.620  26.599 -0.26 -0.02    +0.149 A  ATOM     14  C   UNL     1      34.305  43.675  28.846 -0.43 -0.05    +0.173 C  ENDBRANCH   6   9ENDBRANCH   4   5BRANCH   4  15ATOM     15  C   UNL     1      38.883  44.786  22.168 -0.31 +0.01    +0.107 C  BRANCH  15  16ATOM     16  N   UNL     1      39.990  44.199  21.408 -0.11 -0.01    -0.315 NA ATOM     17  H   UNL     1      40.020  43.199  21.623 +0.07 +0.01    +0.122 HD BRANCH  16  18ATOM     18  C   UNL     1      39.885  44.377  19.969 -0.33 +0.00    +0.081 CG0ATOM     19  G   UNL     1      38.537  43.867  19.466 +0.00 +0.00    +0.000 G0 ENDBRANCH  16  18ENDBRANCH  15  16ENDBRANCH   4  15ENDBRANCH   3   4BRANCH   3  20ATOM     20  C   UNL     1      37.325  44.700  19.865 -0.31 -0.00    +0.023 C  BRANCH  20  21ATOM     21  C   UNL     1      38.540  43.865  19.466 -0.12 -0.00    +0.017 CG0ATOM     22  G   UNL     1      39.887  44.379  19.968 +0.00 +0.00    +0.000 G0 ENDBRANCH  20  21ENDBRANCH   3  20ENDBRANCH   1   3BRANCH   1  23ATOM     23  S   UNL     1      34.499  43.062  19.805 -0.43 -0.00    +0.240 S  ATOM     24  O   UNL     1      33.522  43.874  20.501 -0.56 -0.01    -0.207 OA ATOM     25  O   UNL     1      34.193  41.710  19.398 -0.30 +0.00    -0.207 OA BRANCH  23  26ATOM     26  C   UNL     1      35.079  43.939  18.377 -0.27 -0.02    +0.082 A  ATOM     27  C   UNL     1      34.676  45.260  18.156 -0.38 -0.01    +0.022 A  ATOM     28  C   UNL     1      35.925  43.288  17.475 -0.31 -0.01    +0.022 A  ATOM     29  C   UNL     1      35.137  45.940  17.026 -0.35 -0.01    +0.013 A  ATOM     30  C   UNL     1      36.378  43.967  16.343 -0.36 -0.00    +0.013 A  ATOM     31  C   UNL     1      35.974  45.288  16.111 -0.33 -0.01    +0.023 A  BRANCH  31  32ATOM     32  C   UNL     1      36.509  45.984  14.917 -0.31 -0.11    +0.196 C  ATOM     33  O   UNL     1      35.938  45.833  13.839 -0.28 +0.16    -0.288 OA BRANCH  32  34ATOM     34  C   UNL     1      37.721  46.842  14.964 -0.37 -0.03    +0.064 A  ATOM     35  C   UNL     1      38.555  46.875  16.090 -0.41 -0.01    +0.017 A  ATOM     36  C   UNL     1      38.019  47.671  13.872 -0.42 -0.05    +0.128 A  ATOM     37  C   UNL     1      39.690  47.693  16.097 -0.50 -0.01    +0.020 A  ATOM     38  C   UNL     1      39.153  48.480  13.873 -0.25 -0.02    +0.066 A  ATOM     39  C   UNL     1      39.997  48.489  14.987 -0.53 -0.02    +0.056 A  BRANCH  36  40ATOM     40  O   UNL     1      37.230  47.742  12.754 -0.81 +0.13    -0.507 OA ATOM     41  H   UNL     1      36.528  47.057  12.834 +0.24 -0.13    +0.293 HD ENDBRANCH  36  40BRANCH  39  42ATOM     42  C   UNL     1      41.166  49.319  15.000 -0.64 -0.02    +0.099 C  ATOM     43  N   UNL     1      42.118  49.983  15.008 -0.72 +0.01    -0.192 NA ENDBRANCH  39  42ENDBRANCH  32  34ENDBRANCH  31  32ENDBRANCH  23  26ENDBRANCH   1  23TORSDOF 9TERENDMDL