MODEL        7USER    Run = 7USERUSER    Estimated Free Energy of Binding    = -13.02 kcal/mol  [=(1)+(2)+(3)-(4)]USERUSER    (1) Final Intermolecular Energy     = -15.11 kcal/molUSER        vdW + Hbond + desolv Energy     = -14.72 kcal/molUSER        Electrostatic Energy            =  -0.39 kcal/molUSER        Moving Ligand-Fixed Receptor    = -15.11 kcal/molUSER        Moving Ligand-Moving Receptor   =  +0.00 kcal/molUSER    (2) Final Total Internal Energy     =  -1.92 kcal/molUSER    (3) Torsional Free Energy           =  +2.09 kcal/molUSER    (4) Unbound System's Energy         =  -1.92 kcal/molUSERUSERREMARK SMILES Oc1nc2ccccc2n1C1CCN(Cc2ccc(-c3nc4cc(F)ccc4nc3-c3ccc(N4CCOCC4)cc3)cc2)CC1REMARK SMILES IDX 15 1 14 2 11 3 12 4 46 5 13 6 45 7 10 8 2 9 3 10 4 11 9 12REMARK SMILES IDX 5 13 8 14 6 15 7 16 1 17 16 19 17 20 44 21 18 22 43 23 19 24REMARK SMILES IDX 20 25 21 26 30 27 22 28 29 29 23 30 28 31 24 32 27 33 26 34REMARK SMILES IDX 25 35 31 36 32 37 42 38 33 39 41 40 34 41 35 42 36 43 40 44REMARK SMILES IDX 37 45 39 46 38 47REMARK H PARENT 1 18USER                              x       y       z     vdW  Elec       q    TypeUSER                           _______ _______ _______ _____ _____    ______ ____ROOTATOM      1  C   UNL     1      39.033  44.003  21.774 -0.28 +0.00    +0.120 C  ENDROOTBRANCH   1   2ATOM      2  N   UNL     1      40.300  43.836  21.041 -0.05 -0.01    -0.299 NA ATOM      3  C   UNL     1      42.242  45.887  21.862 -0.26 +0.02    +0.095 C  ATOM      4  C   UNL     1      41.909  44.694  22.769 -0.21 +0.00    +0.041 C  ATOM      5  C   UNL     1      41.087  46.218  20.910 -0.28 +0.00    +0.041 C  ATOM      6  C   UNL     1      41.416  43.509  21.938 -0.33 +0.00    +0.087 C  ATOM      7  C   UNL     1      40.632  44.965  20.162 -0.38 +0.00    +0.087 C  BRANCH   3   8ATOM      8  N   UNL     1      42.715  47.053  22.597 -0.14 -0.05    -0.291 N  ATOM      9  C   UNL     1      43.928  47.678  22.413 -0.16 +0.08    +0.295 A  ATOM     10  N   UNL     1      44.136  48.626  23.288 -0.49 -0.06    -0.195 NA ATOM     11  C   UNL     1      42.997  48.670  24.046 -0.31 +0.02    +0.092 A  ATOM     12  C   UNL     1      42.077  47.704  23.635 -0.25 +0.01    +0.072 A  ATOM     13  C   UNL     1      42.681  49.523  25.113 -0.23 +0.01    +0.031 A  ATOM     14  C   UNL     1      40.829  47.559  24.258 -0.25 +0.00    +0.029 A  ATOM     15  C   UNL     1      41.441  49.389  25.745 -0.26 +0.00    +0.002 A  ATOM     16  C   UNL     1      40.530  48.422  25.320 -0.29 +0.00    +0.002 A  BRANCH   9  17ATOM     17  O   UNL     1      44.817  47.381  21.479 -0.65 -0.39    -0.480 OA ATOM     18  H   UNL     1      44.942  48.163  20.925 -0.34 +0.09    +0.296 HD ENDBRANCH   9  17ENDBRANCH   3   8ENDBRANCH   1   2BRANCH   1  19ATOM     19  C   UNL     1      37.811  43.610  20.967 -0.32 -0.00    -0.034 A  ATOM     20  C   UNL     1      37.067  42.474  21.305 -0.43 +0.00    +0.006 A  ATOM     21  C   UNL     1      37.419  44.364  19.854 -0.37 -0.00    +0.006 A  ATOM     22  C   UNL     1      35.940  42.117  20.558 -0.48 -0.00    +0.011 A  ATOM     23  C   UNL     1      36.289  44.005  19.110 -0.36 -0.00    +0.011 A  ATOM     24  C   UNL     1      35.517  42.885  19.460 -0.42 -0.00    +0.002 A  BRANCH  24  25ATOM     25  C   UNL     1      34.312  42.503  18.703 -0.34 -0.02    +0.097 A  ATOM     26  N   UNL     1      33.423  41.758  19.421 -0.34 -0.01    -0.244 NA ATOM     27  C   UNL     1      34.062  42.835  17.362 -0.30 -0.03    +0.097 A  ATOM     28  C   UNL     1      32.318  41.326  18.789 -0.32 -0.00    +0.092 A  ATOM     29  N   UNL     1      32.945  42.384  16.723 -0.14 +0.12    -0.244 NA ATOM     30  C   UNL     1      31.396  40.556  19.480 -0.13 +0.01    +0.069 A  ATOM     31  C   UNL     1      32.081  41.638  17.430 -0.24 -0.03    +0.090 A  ATOM     32  C   UNL     1      30.249  40.095  18.847 -0.07 +0.00    +0.125 A  ATOM     33  C   UNL     1      30.925  41.167  16.816 -0.27 -0.01    +0.033 A  ATOM     34  C   UNL     1      30.002  40.393  17.517 -0.31 -0.00    +0.041 A  ATOM     35  F   UNL     1      29.369  39.352  19.530 -0.04 -0.02    -0.207 F  BRANCH  27  36ATOM     36  C   UNL     1      34.920  43.690  16.524 -0.36 -0.00    +0.003 A  ATOM     37  C   UNL     1      36.068  43.166  15.914 -0.44 -0.00    +0.012 A  ATOM     38  C   UNL     1      34.630  45.038  16.285 -0.31 -0.01    +0.012 A  ATOM     39  C   UNL     1      36.903  43.965  15.117 -0.17 -0.01    +0.026 A  ATOM     40  C   UNL     1      35.468  45.828  15.486 -0.34 -0.02    +0.026 A  ATOM     41  C   UNL     1      36.619  45.312  14.867 -0.36 -0.02    +0.037 A  BRANCH  41  42ATOM     42  N   UNL     1      37.427  46.144  14.092 -0.14 +0.14    -0.367 N  ATOM     43  C   UNL     1      37.762  47.472  14.664 -0.44 -0.07    +0.145 C  ATOM     44  C   UNL     1      37.246  46.224  12.625 -0.49 -0.05    +0.145 C  ATOM     45  C   UNL     1      36.721  48.518  14.229 -0.29 -0.14    +0.181 C  ATOM     46  C   UNL     1      36.243  47.327  12.248 -0.59 -0.09    +0.181 C  ATOM     47  O   UNL     1      36.627  48.599  12.796 -0.73 +0.13    -0.378 OA ENDBRANCH  41  42ENDBRANCH  27  36ENDBRANCH  24  25ENDBRANCH   1  19TORSDOF 7TERENDMDL