REMARK SMILES Oc1nc2ccccc2n1C1CCN(Cc2ccc(-c3nc4cc(F)ccc4nc3-c3ccc(N4CCOCC4)cc3)cc2)CC1
REMARK SMILES IDX 15 1 14 2 11 3 12 4 46 5 13 6 45 7 10 8 2 9 3 10 4 11 9 12
REMARK SMILES IDX 5 13 8 14 6 15 7 16 1 17 16 19 17 20 44 21 18 22 43 23 19 24
REMARK SMILES IDX 20 25 21 26 30 27 22 28 29 29 23 30 28 31 24 32 27 33 26 34
REMARK SMILES IDX 25 35 31 36 32 37 42 38 33 39 41 40 34 41 35 42 36 43 40 44
REMARK SMILES IDX 37 45 39 46 38 47
REMARK H PARENT 1 18
ROOT
ATOM      1  C   UNL     1       2.577  -2.003   0.575  1.00  0.00     0.120 C 
ENDROOT
BRANCH   1   2
ATOM      2  N   UNL     1       2.313  -2.249  -0.854  1.00  0.00    -0.299 NA
ATOM      3  C   UNL     1       4.410  -1.027  -2.515  1.00  0.00     0.095 C 
ATOM      4  C   UNL     1       4.670  -2.314  -1.720  1.00  0.00     0.041 C 
ATOM      5  C   UNL     1       3.301  -0.180  -1.881  1.00  0.00     0.041 C 
ATOM      6  C   UNL     1       3.362  -3.067  -1.475  1.00  0.00     0.087 C 
ATOM      7  C   UNL     1       2.055  -1.029  -1.630  1.00  0.00     0.087 C 
BRANCH   3   8
ATOM      8  N   UNL     1       5.621  -0.260  -2.778  1.00  0.00    -0.291 N 
ATOM      9  C   UNL     1       6.145   0.007  -4.023  1.00  0.00     0.295 A 
ATOM     10  N   UNL     1       7.299   0.617  -3.955  1.00  0.00    -0.195 NA
ATOM     11  C   UNL     1       7.523   0.812  -2.619  1.00  0.00     0.092 A 
ATOM     12  C   UNL     1       6.486   0.284  -1.848  1.00  0.00     0.072 A 
ATOM     13  C   UNL     1       8.607   1.442  -1.990  1.00  0.00     0.031 A 
ATOM     14  C   UNL     1       6.488   0.368  -0.448  1.00  0.00     0.029 A 
ATOM     15  C   UNL     1       8.623   1.531  -0.594  1.00  0.00     0.002 A 
ATOM     16  C   UNL     1       7.577   1.003   0.162  1.00  0.00     0.002 A 
BRANCH   9  17
ATOM     17  O   UNL     1       5.587  -0.307  -5.180  1.00  0.00    -0.480 OA
ATOM     18  H   UNL     1       4.633  -0.174  -5.099  1.00  0.00     0.296 HD
ENDBRANCH   9  17
ENDBRANCH   3   8
ENDBRANCH   1   2
BRANCH   1  19
ATOM     19  C   UNL     1       1.397  -1.406   1.315  1.00  0.00    -0.034 A 
ATOM     20  C   UNL     1       1.545  -0.236   2.069  1.00  0.00     0.006 A 
ATOM     21  C   UNL     1       0.143  -2.028   1.279  1.00  0.00     0.006 A 
ATOM     22  C   UNL     1       0.453   0.312   2.749  1.00  0.00     0.011 A 
ATOM     23  C   UNL     1      -0.948  -1.476   1.959  1.00  0.00     0.011 A 
ATOM     24  C   UNL     1      -0.818  -0.285   2.692  1.00  0.00     0.002 A 
BRANCH  24  25
ATOM     25  C   UNL     1      -1.960   0.324   3.396  1.00  0.00     0.097 A 
ATOM     26  N   UNL     1      -1.726   0.570   4.717  1.00  0.00    -0.244 NA
ATOM     27  C   UNL     1      -3.201   0.626   2.812  1.00  0.00     0.097 A 
ATOM     28  C   UNL     1      -2.735   1.079   5.445  1.00  0.00     0.092 A 
ATOM     29  N   UNL     1      -4.224   1.131   3.558  1.00  0.00    -0.244 NA
ATOM     30  C   UNL     1      -2.542   1.332   6.794  1.00  0.00     0.069 A 
ATOM     31  C   UNL     1      -3.993   1.357   4.861  1.00  0.00     0.090 A 
ATOM     32  C   UNL     1      -3.570   1.854   7.567  1.00  0.00     0.125 A 
ATOM     33  C   UNL     1      -5.009   1.881   5.653  1.00  0.00     0.033 A 
ATOM     34  C   UNL     1      -4.807   2.133   7.009  1.00  0.00     0.041 A 
ATOM     35  F   UNL     1      -3.365   2.092   8.868  1.00  0.00    -0.207 F 
BRANCH  27  36
ATOM     36  C   UNL     1      -3.530   0.465   1.385  1.00  0.00     0.003 A 
ATOM     37  C   UNL     1      -4.676  -0.240   0.994  1.00  0.00     0.012 A 
ATOM     38  C   UNL     1      -2.739   1.011   0.368  1.00  0.00     0.012 A 
ATOM     39  C   UNL     1      -5.005  -0.410  -0.360  1.00  0.00     0.026 A 
ATOM     40  C   UNL     1      -3.076   0.838  -0.982  1.00  0.00     0.026 A 
ATOM     41  C   UNL     1      -4.224   0.137  -1.385  1.00  0.00     0.037 A 
BRANCH  41  42
ATOM     42  N   UNL     1      -4.507  -0.018  -2.742  1.00  0.00    -0.367 N 
ATOM     43  C   UNL     1      -4.527   1.217  -3.565  1.00  0.00     0.145 C 
ATOM     44  C   UNL     1      -5.534  -0.981  -3.197  1.00  0.00     0.145 C 
ATOM     45  C   UNL     1      -5.947   1.807  -3.607  1.00  0.00     0.181 C 
ATOM     46  C   UNL     1      -6.920  -0.319  -3.278  1.00  0.00     0.181 C 
ATOM     47  O   UNL     1      -6.897   0.852  -4.112  1.00  0.00    -0.378 OA
ENDBRANCH  41  42
ENDBRANCH  27  36
ENDBRANCH  24  25
ENDBRANCH   1  19
TORSDOF 7
