REMARK SMILES Cn1cc(C(=O)N[C@@H]2CNCCC[C@H]2NS(=O)(=O)c2ccc(C(=O)c3ccc(C#N)cc3O)cc2)cn1
REMARK SMILES IDX 15 1 14 3 8 4 7 5 5 6 6 7 4 9 2 10 3 11 37 12 36 13 1 14
REMARK SMILES IDX 9 15 10 16 11 18 13 20 12 21 16 23 17 24 18 25 19 26 20 27
REMARK SMILES IDX 35 28 21 29 34 30 22 31 23 32 24 33 25 34 26 35 32 36 27 37
REMARK SMILES IDX 31 38 28 39 33 40 29 42 30 43
REMARK H PARENT 15 2 7 8 10 17 33 41
REMARK Flexibility Score:   99.900
ROOT
ATOM      1  N   UNL     1      -1.536   0.578  -1.570  1.00  0.00    -0.206 NA
ATOM      2  H   UNL     1      -2.202   1.056  -2.177  1.00  0.00     0.141 HD
ENDROOT
BRANCH   1   3
ATOM      3  C   UNL     1      -1.771  -0.859  -1.263  1.00  0.00     0.093 C 
BRANCH   3   4
ATOM      4  C   UNL     1      -3.235  -1.083  -0.793  1.00  0.00     0.114 C 
BRANCH   4   5
ATOM      5  N   UNL     1      -3.753   0.060  -0.036  1.00  0.00    -0.346 N 
ATOM      6  C   UNL     1      -5.101   0.310   0.070  1.00  0.00     0.254 C 
ATOM      7  O   UNL     1      -5.939  -0.336  -0.550  1.00  0.00    -0.269 OA
ATOM      8  H   UNL     1      -3.121   0.501   0.630  1.00  0.00     0.164 HD
BRANCH   6   9
ATOM      9  C   UNL     1      -5.469   1.381   0.977  1.00  0.00     0.077 A 
ATOM     10  N   UNL     1      -5.510   3.063   2.397  1.00  0.00    -0.275 N 
ATOM     11  C   UNL     1      -4.666   2.241   1.706  1.00  0.00     0.122 A 
ATOM     12  N   UNL     1      -6.810   2.805   2.173  1.00  0.00    -0.181 NA
ATOM     13  C   UNL     1      -6.783   1.787   1.309  1.00  0.00     0.149 A 
ATOM     14  C   UNL     1      -5.140   4.130   3.292  1.00  0.00     0.173 C 
ENDBRANCH   6   9
ENDBRANCH   4   5
BRANCH   4  15
ATOM     15  C   UNL     1      -3.399  -2.378   0.041  1.00  0.00     0.107 C 
BRANCH  15  16
ATOM     16  N   UNL     1      -2.587  -3.540  -0.331  1.00  0.00    -0.315 NA
ATOM     17  H   UNL     1      -2.954  -4.351   0.172  1.00  0.00     0.122 HD
BRANCH  16  18
ATOM     18  C   UNL     1      -2.574  -3.825  -1.757  1.00  0.00     0.081 CG0
ATOM     19  G   UNL     1      -1.381  -3.146  -2.425  1.00  0.00     0.000 G0
ENDBRANCH  16  18
ENDBRANCH  15  16
ENDBRANCH   4  15
ENDBRANCH   3   4
BRANCH   3  20
ATOM     20  C   UNL     1      -1.477  -1.628  -2.564  1.00  0.00     0.023 C 
BRANCH  20  21
ATOM     21  C   UNL     1      -1.381  -3.146  -2.425  1.00  0.00     0.017 CG0
ATOM     22  G   UNL     1      -2.574  -3.825  -1.757  1.00  0.00     0.000 G0
ENDBRANCH  20  21
ENDBRANCH   3  20
ENDBRANCH   1   3
BRANCH   1  23
ATOM     23  S   UNL     1      -0.805   1.564  -0.437  1.00  0.00     0.240 S 
ATOM     24  O   UNL     1      -1.269   1.153   0.872  1.00  0.00    -0.207 OA
ATOM     25  O   UNL     1      -0.970   2.924  -0.896  1.00  0.00    -0.207 OA
BRANCH  23  26
ATOM     26  C   UNL     1       0.907   1.137  -0.613  1.00  0.00     0.082 A 
ATOM     27  C   UNL     1       1.521   0.307   0.330  1.00  0.00     0.022 A 
ATOM     28  C   UNL     1       1.631   1.655  -1.691  1.00  0.00     0.022 A 
ATOM     29  C   UNL     1       2.872  -0.020   0.183  1.00  0.00     0.013 A 
ATOM     30  C   UNL     1       2.981   1.333  -1.831  1.00  0.00     0.013 A 
ATOM     31  C   UNL     1       3.606   0.507  -0.888  1.00  0.00     0.023 A 
BRANCH  31  32
ATOM     32  C   UNL     1       5.031   0.160  -1.096  1.00  0.00     0.196 C 
ATOM     33  O   UNL     1       5.422  -0.077  -2.238  1.00  0.00    -0.288 OA
BRANCH  32  34
ATOM     34  C   UNL     1       6.006   0.065   0.021  1.00  0.00     0.064 A 
ATOM     35  C   UNL     1       5.840   0.797   1.205  1.00  0.00     0.017 A 
ATOM     36  C   UNL     1       7.143  -0.744  -0.125  1.00  0.00     0.128 A 
ATOM     37  C   UNL     1       6.777   0.680   2.238  1.00  0.00     0.020 A 
ATOM     38  C   UNL     1       8.073  -0.868   0.905  1.00  0.00     0.066 A 
ATOM     39  C   UNL     1       7.889  -0.158   2.094  1.00  0.00     0.056 A 
BRANCH  36  40
ATOM     40  O   UNL     1       7.412  -1.450  -1.268  1.00  0.00    -0.507 OA
ATOM     41  H   UNL     1       6.800  -1.134  -1.971  1.00  0.00     0.293 HD
ENDBRANCH  36  40
BRANCH  39  42
ATOM     42  C   UNL     1       8.841  -0.277   3.160  1.00  0.00     0.099 C 
ATOM     43  N   UNL     1       9.604  -0.369   4.029  1.00  0.00    -0.192 NA
ENDBRANCH  39  42
ENDBRANCH  32  34
ENDBRANCH  31  32
ENDBRANCH  23  26
ENDBRANCH   1  23
TORSDOF 9
