MODEL        10USER    Run = 10USERUSER    Estimated Free Energy of Binding    = -10.05 kcal/mol  [=(1)+(2)+(3)-(4)]USERUSER    (1) Final Intermolecular Energy     = -11.24 kcal/molUSER        vdW + Hbond + desolv Energy     = -10.86 kcal/molUSER        Electrostatic Energy            =  -0.38 kcal/molUSER        Moving Ligand-Fixed Receptor    = -11.24 kcal/molUSER        Moving Ligand-Moving Receptor   =  +0.00 kcal/molUSER    (2) Final Total Internal Energy     =  -1.04 kcal/molUSER    (3) Torsional Free Energy           =  +1.19 kcal/molUSER    (4) Unbound System's Energy         =  -1.04 kcal/molUSERUSERREMARK SMILES CN1CCN(c2ccc3c(c2)ON(/C=C2\C(=O)Nc4ccc(F)cc42)[CH][C@@H]3O)CC1REMARK SMILES IDX 6 1 7 2 8 3 9 4 10 5 11 6 12 7 13 8 26 9 27 10 5 11 2 12REMARK SMILES IDX 3 13 30 14 4 15 29 16 1 17 28 18 14 20 15 21 16 22 25 23REMARK SMILES IDX 18 24 24 25 19 26 22 27 20 28 21 29 17 30 23 32REMARK H PARENT 28 19 18 31USER                              x       y       z     vdW  Elec       q    TypeUSER                           _______ _______ _______ _____ _____    ______ ____ROOTATOM      1  C   UNL     1      35.301  43.659  19.539 -0.37 -0.01    +0.041 A  ATOM      2  C   UNL     1      33.952  43.988  19.748 -0.38 -0.00    +0.026 A  ATOM      3  C   UNL     1      33.115  44.417  18.709 -0.39 -0.00    +0.012 A  ATOM      4  C   UNL     1      33.609  44.540  17.410 -0.30 -0.01    +0.028 A  ATOM      5  C   UNL     1      34.957  44.252  17.184 -0.19 -0.07    +0.163 A  ATOM      6  C   UNL     1      35.782  43.812  18.228 -0.27 -0.02    +0.076 A  ATOM      7  O   UNL     1      35.535  44.323  15.929 -0.14 +0.17    -0.379 OA ATOM      8  N   UNL     1      34.853  45.209  15.072 -0.22 +0.14    -0.208 N  ATOM      9  C   UNL     1      33.488  45.093  15.000 -0.01 -0.13    +0.185 C  ATOM     10  C   UNL     1      32.720  44.942  16.265 -0.27 -0.11    +0.177 C  ENDROOTBRANCH   1  11ATOM     11  N   UNL     1      36.109  43.211  20.571 -0.19 +0.00    -0.369 N  ATOM     12  N   UNL     1      37.785  42.349  22.907 -0.20 -0.03    -0.303 NA ATOM     13  C   UNL     1      37.056  41.419  22.020 -0.55 +0.01    +0.105 C  ATOM     14  C   UNL     1      37.517  43.758  22.545 -0.36 +0.01    +0.105 C  ATOM     15  C   UNL     1      35.792  41.993  21.334 -0.43 +0.01    +0.132 C  ATOM     16  C   UNL     1      37.268  43.992  21.036 -0.37 +0.00    +0.132 C  ATOM     17  C   UNL     1      37.475  42.113  24.315 -0.33 +0.00    +0.105 C  ENDBRANCH   1  11BRANCH  10  18ATOM     18  O   UNL     1      32.091  46.183  16.582 -0.17 +0.29    -0.386 OA ATOM     19  H   UNL     1      32.793  46.812  16.850 -0.40 -0.45    +0.211 HD ENDBRANCH  10  18BRANCH   8  20ATOM     20  C   UNL     1      35.638  45.960  14.215 -0.38 -0.09    +0.139 C  BRANCH  20  21ATOM     21  C   UNL     1      36.690  46.763  14.434 -0.45 -0.04    +0.068 C  ATOM     22  C   UNL     1      37.086  47.992  13.652 -0.42 -0.12    +0.257 C  ATOM     23  C   UNL     1      37.640  46.640  15.546 -0.39 -0.01    +0.015 A  ATOM     24  N   UNL     1      38.226  48.466  14.288 -0.29 +0.16    -0.321 N  ATOM     25  C   UNL     1      37.760  45.753  16.602 -0.34 -0.02    +0.050 A  ATOM     26  C   UNL     1      38.546  47.698  15.403 -0.45 -0.02    +0.049 A  ATOM     27  C   UNL     1      38.805  45.962  17.502 -0.33 -0.03    +0.123 A  ATOM     28  C   UNL     1      39.588  47.912  16.284 -0.47 -0.01    +0.030 A  ATOM     29  C   UNL     1      39.711  47.024  17.353 -0.43 -0.01    +0.041 A  ATOM     30  O   UNL     1      36.538  48.501  12.692 -0.94 +0.10    -0.269 OA ATOM     31  H   UNL     1      38.703  49.304  13.991 -0.34 -0.11    +0.170 HD ATOM     32  F   UNL     1      38.942  45.134  18.545 -0.10 +0.02    -0.207 F  ENDBRANCH  20  21ENDBRANCH   8  20TORSDOF 4TERENDMDL