REMARK SMILES Cn1nc(-c2ccc(-n3ccnn3)c(CN3CCOCC3)c2)c2cc(-c3ccc4[nH]ncc4c3)ncc21
REMARK SMILES IDX 1 1 2 2 3 3 4 4 23 5 24 6 25 7 35 8 36 9 37 10 5 11 6 12
REMARK SMILES IDX 22 13 7 14 14 15 8 16 15 17 16 18 17 19 21 20 18 21 20 22
REMARK SMILES IDX 19 23 9 24 10 25 13 26 11 27 12 28 26 29 27 30 34 31 28 32
REMARK SMILES IDX 33 33 29 34 32 35 30 36 31 37
REMARK H PARENT 30 38
ROOT
ATOM      1  C   UNL     1       0.916   4.113   2.964  1.00  0.00     0.174 C 
ATOM      2  N   UNL     1       1.115   3.008   2.056  1.00  0.00    -0.266 N 
ATOM      3  N   UNL     1       0.040   2.347   1.593  1.00  0.00    -0.172 NA
ATOM      4  C   UNL     1       0.545   1.419   0.764  1.00  0.00     0.100 A 
ATOM      5  C   UNL     1       1.974   1.481   0.740  1.00  0.00     0.032 A 
ATOM      6  C   UNL     1       3.014   0.767   0.120  1.00  0.00     0.041 A 
ATOM      7  C   UNL     1       4.324   1.175   0.371  1.00  0.00     0.071 A 
ATOM      8  N   UNL     1       4.612   2.216   1.197  1.00  0.00    -0.254 NA
ATOM      9  C   UNL     1       3.622   2.906   1.808  1.00  0.00     0.140 A 
ATOM     10  C   UNL     1       2.307   2.533   1.584  1.00  0.00     0.087 A 
ENDROOT
BRANCH   4  11
ATOM     11  C   UNL     1      -0.341   0.508   0.040  1.00  0.00     0.003 A 
ATOM     12  C   UNL     1      -0.102   0.169  -1.288  1.00  0.00     0.013 A 
ATOM     13  C   UNL     1      -1.478  -0.017   0.668  1.00  0.00     0.017 A 
ATOM     14  C   UNL     1      -0.964  -0.706  -1.955  1.00  0.00     0.029 A 
ATOM     15  C   UNL     1      -2.383  -0.892   0.011  1.00  0.00    -0.007 A 
ATOM     16  C   UNL     1      -2.095  -1.271  -1.320  1.00  0.00     0.071 A 
BRANCH  15  17
ATOM     17  C   UNL     1      -3.618  -1.263   0.812  1.00  0.00     0.122 C 
BRANCH  17  18
ATOM     18  N   UNL     1      -4.880  -0.887   0.161  1.00  0.00    -0.294 NA
ATOM     19  C   UNL     1      -5.066   0.578   0.035  1.00  0.00     0.113 C 
ATOM     20  C   UNL     1      -6.028  -1.492   0.876  1.00  0.00     0.113 C 
ATOM     21  C   UNL     1      -5.968   1.180   1.125  1.00  0.00     0.175 C 
ATOM     22  C   UNL     1      -7.333  -0.722   0.627  1.00  0.00     0.175 C 
ATOM     23  O   UNL     1      -7.284   0.611   1.152  1.00  0.00    -0.379 OA
ENDBRANCH  17  18
ENDBRANCH  15  17
BRANCH  16  24
ATOM     24  N   UNL     1      -2.861  -2.194  -2.100  1.00  0.00    -0.220 N 
ATOM     25  C   UNL     1      -3.794  -3.139  -1.739  1.00  0.00     0.137 A 
ATOM     26  N   UNL     1      -2.650  -2.302  -3.445  1.00  0.00    -0.062 NA
ATOM     27  C   UNL     1      -4.171  -3.747  -2.910  1.00  0.00     0.157 A 
ATOM     28  N   UNL     1      -3.464  -3.223  -3.941  1.00  0.00    -0.139 NA
ENDBRANCH  16  24
ENDBRANCH   4  11
BRANCH   7  29
ATOM     29  C   UNL     1       5.496   0.499  -0.229  1.00  0.00     0.001 A 
ATOM     30  C   UNL     1       6.710   0.413   0.482  1.00  0.00     0.012 A 
ATOM     31  C   UNL     1       5.444  -0.069  -1.521  1.00  0.00     0.022 A 
ATOM     32  C   UNL     1       7.851  -0.220  -0.032  1.00  0.00     0.029 A 
ATOM     33  C   UNL     1       6.577  -0.710  -2.059  1.00  0.00     0.020 A 
ATOM     34  C   UNL     1       7.743  -0.771  -1.308  1.00  0.00     0.065 A 
ATOM     35  C   UNL     1       6.899  -1.369  -3.266  1.00  0.00     0.143 A 
ATOM     36  N   UNL     1       8.644  -1.440  -2.094  1.00  0.00    -0.278 N 
ATOM     37  N   UNL     1       8.156  -1.819  -3.289  1.00  0.00    -0.183 NA
ATOM     38  H   UNL     1       9.606  -1.669  -1.873  1.00  0.00     0.190 HD
ENDBRANCH   7  29
TORSDOF 5
