REMARK SMILES CN1C(=O)/C(=C\Nc2ccc(N3CCOCC3)cc2)c2cc(C(F)(F)F)ccc21
REMARK SMILES IDX 6 1 5 2 2 3 3 4 29 5 28 6 20 7 27 8 21 9 22 10 1 11 4 12
REMARK SMILES IDX 23 13 24 14 25 15 26 16 7 17 8 19 9 20 19 21 10 22 18 23
REMARK SMILES IDX 11 24 12 25 13 26 17 27 14 28 16 29 15 30
REMARK H PARENT 7 18
ROOT
ATOM      1  C   UNL     1       1.559   0.203   0.204  1.00  0.00     0.097 C 
ENDROOT
BRANCH   1   2
ATOM      2  C   UNL     1       2.824   0.606   0.379  1.00  0.00     0.065 C 
ATOM      3  N   UNL     1       4.600   1.927   0.982  1.00  0.00    -0.311 N 
ATOM      4  C   UNL     1       3.206   1.923   0.996  1.00  0.00     0.260 C 
ATOM      5  C   UNL     1       5.107   0.744   0.416  1.00  0.00     0.052 A 
ATOM      6  C   UNL     1       6.429   0.384   0.227  1.00  0.00     0.027 A 
ATOM      7  C   UNL     1       4.056  -0.097   0.031  1.00  0.00     0.013 A 
ATOM      8  C   UNL     1       6.689  -0.857  -0.364  1.00  0.00     0.015 A 
ATOM      9  C   UNL     1       4.303  -1.328  -0.555  1.00  0.00     0.024 A 
ATOM     10  C   UNL     1       5.639  -1.723  -0.752  1.00  0.00     0.056 A 
ATOM     11  C   UNL     1       5.413   3.003   1.479  1.00  0.00     0.153 C 
ATOM     12  O   UNL     1       2.439   2.776   1.407  1.00  0.00    -0.269 OA
BRANCH  10  13
ATOM     13  C   UNL     1       5.953  -3.047  -1.409  1.00  0.00     0.416 C 
ATOM     14  F   UNL     1       6.114  -2.929  -2.755  1.00  0.00    -0.166 F 
ATOM     15  F   UNL     1       4.977  -3.980  -1.227  1.00  0.00    -0.166 F 
ATOM     16  F   UNL     1       7.100  -3.613  -0.942  1.00  0.00    -0.166 F 
ENDBRANCH  10  13
ENDBRANCH   1   2
BRANCH   1  17
ATOM     17  N   UNL     1       0.421   0.891   0.545  1.00  0.00    -0.361 N 
ATOM     18  H   UNL     1       0.592   1.805   0.974  1.00  0.00     0.166 HD
BRANCH  17  19
ATOM     19  C   UNL     1      -0.927   0.538   0.386  1.00  0.00     0.038 A 
ATOM     20  C   UNL     1      -1.360  -0.655  -0.191  1.00  0.00     0.028 A 
ATOM     21  C   UNL     1      -1.910   1.424   0.840  1.00  0.00     0.028 A 
ATOM     22  C   UNL     1      -2.728  -0.943  -0.317  1.00  0.00     0.028 A 
ATOM     23  C   UNL     1      -3.278   1.133   0.715  1.00  0.00     0.028 A 
ATOM     24  C   UNL     1      -3.720  -0.053   0.120  1.00  0.00     0.037 A 
BRANCH  24  25
ATOM     25  N   UNL     1      -5.073  -0.397  -0.022  1.00  0.00    -0.367 N 
ATOM     26  C   UNL     1      -6.075   0.390   0.730  1.00  0.00     0.145 C 
ATOM     27  C   UNL     1      -5.491  -0.613  -1.430  1.00  0.00     0.145 C 
ATOM     28  C   UNL     1      -7.456  -0.273   0.610  1.00  0.00     0.181 C 
ATOM     29  C   UNL     1      -6.904  -1.219  -1.472  1.00  0.00     0.181 C 
ATOM     30  O   UNL     1      -7.855  -0.407  -0.764  1.00  0.00    -0.378 OA
ENDBRANCH  24  25
ENDBRANCH  17  19
ENDBRANCH   1  17
TORSDOF 5
