REMARK SMILES Nc1cc(-c2nn[nH]n2)ccc1Nc1nccc(-c2c(F)ccc3[nH]ncc23)n1
REMARK SMILES IDX 13 1 12 3 2 4 3 5 4 6 11 7 10 8 1 9 5 12 6 13 9 14 7 15 8 16
REMARK SMILES IDX 14 18 15 19 29 20 16 21 18 22 17 23 19 24 20 25 28 26 22 27
REMARK SMILES IDX 27 28 24 29 23 30 26 31 25 32 21 33
REMARK H PARENT 13 2 1 10 1 11 8 17 25 34
ROOT
ATOM      1  N   UNL     1       0.623   0.197  -0.383  1.00  0.00    -0.322 N 
ATOM      2  H   UNL     1       0.220  -0.486  -1.013  1.00  0.00     0.170 HD
ENDROOT
BRANCH   1   3
ATOM      3  C   UNL     1       2.029   0.176  -0.382  1.00  0.00     0.064 A 
ATOM      4  C   UNL     1       2.688  -0.188  -1.582  1.00  0.00     0.056 A 
ATOM      5  C   UNL     1       4.082  -0.331  -1.602  1.00  0.00     0.039 A 
ATOM      6  C   UNL     1       4.857   0.020  -0.489  1.00  0.00     0.025 A 
ATOM      7  C   UNL     1       2.810   0.564   0.710  1.00  0.00     0.029 A 
ATOM      8  C   UNL     1       4.207   0.486   0.659  1.00  0.00     0.014 A 
BRANCH   4   9
ATOM      9  N   UNL     1       1.934  -0.593  -2.711  1.00  0.00    -0.397 N 
ATOM     10  H   UNL     1       2.478  -0.582  -3.569  1.00  0.00     0.156 HD
ATOM     11  H   UNL     1       1.097  -0.022  -2.810  1.00  0.00     0.156 HD
ENDBRANCH   4   9
BRANCH   6  12
ATOM     12  C   UNL     1       6.309  -0.095  -0.534  1.00  0.00     0.204 A 
ATOM     13  N   UNL     1       6.993  -0.528  -1.649  1.00  0.00    -0.108 NA
ATOM     14  N   UNL     1       7.136   0.204   0.485  1.00  0.00    -0.134 NA
ATOM     15  N   UNL     1       8.282  -0.509  -1.343  1.00  0.00    -0.050 NA
ATOM     16  N   UNL     1       8.319  -0.074  -0.080  1.00  0.00    -0.177 N 
ATOM     17  H   UNL     1       9.197   0.038   0.419  1.00  0.00     0.216 HD
ENDBRANCH   6  12
ENDBRANCH   1   3
BRANCH   1  18
ATOM     18  C   UNL     1      -0.325   0.547   0.572  1.00  0.00     0.227 A 
ATOM     19  N   UNL     1      -0.018   1.311   1.628  1.00  0.00    -0.221 NA
ATOM     20  N   UNL     1      -1.566   0.095   0.330  1.00  0.00    -0.213 NA
ATOM     21  C   UNL     1      -1.011   1.609   2.481  1.00  0.00     0.117 A 
ATOM     22  C   UNL     1      -2.550   0.405   1.205  1.00  0.00     0.079 A 
ATOM     23  C   UNL     1      -2.303   1.180   2.319  1.00  0.00     0.049 A 
BRANCH  22  24
ATOM     24  C   UNL     1      -3.881  -0.130   0.889  1.00  0.00     0.047 A 
ATOM     25  C   UNL     1      -4.761  -0.635   1.867  1.00  0.00     0.133 A 
ATOM     26  C   UNL     1      -4.349  -0.158  -0.449  1.00  0.00     0.032 A 
ATOM     27  C   UNL     1      -6.023  -1.141   1.559  1.00  0.00     0.042 A 
ATOM     28  C   UNL     1      -3.852   0.237  -1.717  1.00  0.00     0.144 A 
ATOM     29  C   UNL     1      -5.616  -0.666  -0.734  1.00  0.00     0.066 A 
ATOM     30  C   UNL     1      -6.480  -1.168   0.242  1.00  0.00     0.031 A 
ATOM     31  N   UNL     1      -4.710   0.003  -2.713  1.00  0.00    -0.183 NA
ATOM     32  N   UNL     1      -5.762  -0.551  -2.092  1.00  0.00    -0.278 N 
ATOM     33  F   UNL     1      -4.388  -0.648   3.158  1.00  0.00    -0.206 F 
ATOM     34  H   UNL     1      -6.559  -0.827  -2.654  1.00  0.00     0.190 HD
ENDBRANCH  22  24
ENDBRANCH   1  18
TORSDOF 5
