MODEL        10USER    Run = 10USERUSER    Estimated Free Energy of Binding    = -13.45 kcal/mol  [=(1)+(2)+(3)-(4)]USERUSER    (1) Final Intermolecular Energy     = -14.94 kcal/molUSER        vdW + Hbond + desolv Energy     = -14.79 kcal/molUSER        Electrostatic Energy            =  -0.16 kcal/molUSER        Moving Ligand-Fixed Receptor    = -14.94 kcal/molUSER        Moving Ligand-Moving Receptor   =  +0.00 kcal/molUSER    (2) Final Total Internal Energy     =  -1.79 kcal/molUSER    (3) Torsional Free Energy           =  +1.49 kcal/molUSER    (4) Unbound System's Energy         =  -1.79 kcal/molUSERUSERREMARK SMILES Cn1nc(-c2ccc(-n3ccnn3)c(CN3CCOCC3)c2)c2cc(-c3ccc4[nH]ncc4c3)ncc21REMARK SMILES IDX 1 1 2 2 3 3 4 4 23 5 24 6 25 7 35 8 36 9 37 10 5 11 6 12REMARK SMILES IDX 22 13 7 14 14 15 8 16 15 17 16 18 17 19 21 20 18 21 20 22REMARK SMILES IDX 19 23 9 24 10 25 13 26 11 27 12 28 26 29 27 30 34 31 28 32REMARK SMILES IDX 33 33 29 34 32 35 30 36 31 37REMARK H PARENT 30 38USER                              x       y       z     vdW  Elec       q    TypeUSER                           _______ _______ _______ _____ _____    ______ ____ROOTATOM      1  C   UNL     1      37.468  42.915  21.202 -0.27 +0.00    +0.174 C  ATOM      2  N   UNL     1      37.211  43.763  20.062 -0.20 +0.01    -0.266 N  ATOM      3  N   UNL     1      38.189  44.575  19.625 -0.27 +0.01    -0.172 NA ATOM      4  C   UNL     1      37.661  45.193  18.556 -0.27 -0.02    +0.100 A  ATOM      5  C   UNL     1      36.307  44.782  18.346 -0.32 -0.01    +0.032 A  ATOM      6  C   UNL     1      35.273  45.102  17.450 -0.31 -0.02    +0.041 A  ATOM      7  C   UNL     1      34.055  44.437  17.596 -0.26 -0.03    +0.071 A  ATOM      8  N   UNL     1      33.846  43.517  18.575 -0.16 +0.05    -0.254 NA ATOM      9  C   UNL     1      34.830  43.206  19.451 -0.32 -0.01    +0.140 A  ATOM     10  C   UNL     1      36.054  43.843  19.339 -0.32 -0.01    +0.087 A  ENDROOTBRANCH   4  11ATOM     11  C   UNL     1      38.452  46.153  17.786 -0.36 -0.00    +0.003 A  ATOM     12  C   UNL     1      39.764  46.456  18.137 -0.43 -0.00    +0.013 A  ATOM     13  C   UNL     1      37.885  46.817  16.691 -0.33 -0.01    +0.017 A  ATOM     14  C   UNL     1      40.498  47.375  17.383 -0.49 -0.00    +0.029 A  ATOM     15  C   UNL     1      38.598  47.770  15.917 -0.46 +0.00    -0.007 A  ATOM     16  C   UNL     1      39.948  48.025  16.253 -0.47 -0.02    +0.071 A  BRANCH  15  17ATOM     17  C   UNL     1      37.783  48.471  14.845 -0.51 -0.08    +0.122 C  BRANCH  17  18ATOM     18  N   UNL     1      37.746  47.751  13.565 -0.53 +0.10    -0.294 NA ATOM     19  C   UNL     1      36.527  48.026  12.768 -0.61 -0.05    +0.113 C  ATOM     20  C   UNL     1      37.897  46.294  13.790 -0.42 -0.04    +0.113 C  ATOM     21  C   UNL     1      35.448  46.939  12.899 -0.43 -0.12    +0.175 C  ATOM     22  C   UNL     1      37.319  45.470  12.631 -0.31 -0.05    +0.175 C  ATOM     23  O   UNL     1      35.901  45.638  12.501 -0.28 +0.17    -0.379 OA ENDBRANCH  17  18ENDBRANCH  15  17BRANCH  16  24ATOM     24  N   UNL     1      40.826  48.899  15.538 -0.43 +0.04    -0.220 N  ATOM     25  C   UNL     1      41.277  48.877  14.238 -0.33 -0.02    +0.137 A  ATOM     26  N   UNL     1      41.453  49.927  16.184 -1.16 +0.00    -0.062 NA ATOM     27  C   UNL     1      42.121  49.952  14.125 -0.53 -0.03    +0.157 A  ATOM     28  N   UNL     1      42.216  50.582  15.321 -0.71 +0.01    -0.139 NA ENDBRANCH  16  24ENDBRANCH   4  11BRANCH   7  29ATOM     29  C   UNL     1      32.898  44.692  16.709 -0.32 -0.00    +0.001 A  ATOM     30  C   UNL     1      31.615  44.226  17.060 -0.28 -0.00    +0.012 A  ATOM     31  C   UNL     1      33.037  45.394  15.492 -0.30 -0.02    +0.022 A  ATOM     32  C   UNL     1      30.482  44.442  16.263 -0.29 -0.01    +0.029 A  ATOM     33  C   UNL     1      31.914  45.624  14.674 -0.44 -0.01    +0.020 A  ATOM     34  C   UNL     1      30.673  45.148  15.076 -0.38 -0.04    +0.065 A  ATOM     35  C   UNL     1      31.665  46.259  13.437 -0.29 -0.09    +0.143 A  ATOM     36  N   UNL     1      29.804  45.522  14.085 -0.16 +0.27    -0.278 N  ATOM     37  N   UNL     1      30.380  46.202  13.077 -0.51 +0.13    -0.183 NA ATOM     38  H   UNL     1      28.808  45.343  14.037 -0.34 -0.28    +0.190 HD ENDBRANCH   7  29TORSDOF 5TERENDMDL