MODEL        4USER    Run = 4USERUSER    Estimated Free Energy of Binding    =  -9.10 kcal/mol  [=(1)+(2)+(3)-(4)]USERUSER    (1) Final Intermolecular Energy     = -10.59 kcal/molUSER        vdW + Hbond + desolv Energy     = -10.55 kcal/molUSER        Electrostatic Energy            =  -0.03 kcal/molUSER        Moving Ligand-Fixed Receptor    = -10.59 kcal/molUSER        Moving Ligand-Moving Receptor   =  +0.00 kcal/molUSER    (2) Final Total Internal Energy     =  -0.80 kcal/molUSER    (3) Torsional Free Energy           =  +1.49 kcal/molUSER    (4) Unbound System's Energy         =  -0.80 kcal/molUSERUSERREMARK SMILES CN1C(=O)/C(=C\Nc2ccc(N3CCOCC3)cc2)c2cc(C(F)(F)F)ccc21REMARK SMILES IDX 6 1 5 2 2 3 3 4 29 5 28 6 20 7 27 8 21 9 22 10 1 11 4 12REMARK SMILES IDX 23 13 24 14 25 15 26 16 7 17 8 19 9 20 19 21 10 22 18 23REMARK SMILES IDX 11 24 12 25 13 26 17 27 14 28 16 29 15 30REMARK H PARENT 7 18USER                              x       y       z     vdW  Elec       q    TypeUSER                           _______ _______ _______ _____ _____    ______ ____ROOTATOM      1  C   UNL     1      40.681  50.118  15.517 -0.52 -0.04    +0.097 C  ENDROOTBRANCH   1   2ATOM      2  C   UNL     1      40.370  48.854  15.832 -0.61 -0.02    +0.065 C  ATOM      3  N   UNL     1      40.405  46.834  16.919 -0.26 +0.04    -0.311 N  ATOM      4  C   UNL     1      41.025  48.083  16.944 -0.39 -0.03    +0.260 C  ATOM      5  C   UNL     1      39.438  46.766  15.901 -0.42 -0.01    +0.052 A  ATOM      6  C   UNL     1      38.623  45.701  15.564 -0.31 -0.01    +0.027 A  ATOM      7  C   UNL     1      39.379  47.981  15.208 -0.52 -0.00    +0.013 A  ATOM      8  C   UNL     1      37.729  45.873  14.502 -0.40 -0.01    +0.015 A  ATOM      9  C   UNL     1      38.498  48.162  14.154 -0.50 -0.01    +0.024 A  ATOM     10  C   UNL     1      37.652  47.096  13.795 -0.46 -0.02    +0.056 A  ATOM     11  C   UNL     1      40.718  45.755  17.815 -0.42 -0.01    +0.153 C  ATOM     12  O   UNL     1      41.903  48.490  17.684 -0.71 -0.01    -0.269 OA BRANCH  10  13ATOM     13  C   UNL     1      36.692  47.243  12.638 -0.37 -0.17    +0.416 C  ATOM     14  F   UNL     1      35.500  46.630  12.876 -0.22 +0.11    -0.166 F  ATOM     15  F   UNL     1      37.165  46.707  11.478 -0.27 +0.05    -0.166 F  ATOM     16  F   UNL     1      36.396  48.541  12.353 -0.26 +0.06    -0.166 F  ENDBRANCH  10  13ENDBRANCH   1   2BRANCH   1  17ATOM     17  N   UNL     1      41.941  50.643  15.370 -0.32 +0.05    -0.361 N  ATOM     18  H   UNL     1      42.459  50.750  16.247 -0.31 +0.03    +0.166 HD BRANCH  17  19ATOM     19  C   UNL     1      42.622  51.042  14.211 -0.46 -0.01    +0.038 A  ATOM     20  C   UNL     1      43.725  51.895  14.206 +0.16 -0.01    +0.028 A  ATOM     21  C   UNL     1      42.185  50.553  12.975 -0.58 -0.01    +0.028 A  ATOM     22  C   UNL     1      44.358  52.252  13.006 -0.21 -0.01    +0.028 A  ATOM     23  C   UNL     1      42.821  50.910  11.775 -0.41 -0.01    +0.028 A  ATOM     24  C   UNL     1      43.916  51.780  11.761 -0.37 -0.02    +0.037 A  BRANCH  24  25ATOM     25  N   UNL     1      44.594  52.161  10.593 -0.15 +0.18    -0.367 N  ATOM     26  C   UNL     1      44.053  53.295   9.812 -0.36 -0.09    +0.145 C  ATOM     27  C   UNL     1      46.065  52.265  10.762 -0.32 -0.05    +0.145 C  ATOM     28  C   UNL     1      44.802  53.413   8.476 -0.27 -0.03    +0.181 C  ATOM     29  C   UNL     1      46.740  52.444   9.391 -0.22 -0.03    +0.181 C  ATOM     30  O   UNL     1      46.215  53.576   8.680 -0.09 +0.06    -0.378 OA ENDBRANCH  24  25ENDBRANCH  17  19ENDBRANCH   1  17TORSDOF 5TERENDMDL