REMARK SMILES CN1CCN(c2ccc3c(c2)ON(/C=C2\C(=O)Nc4ccc(F)cc42)[CH][C@@H]3O)CC1
REMARK SMILES IDX 6 1 7 2 8 3 9 4 10 5 11 6 12 7 13 8 26 9 27 10 5 11 2 12
REMARK SMILES IDX 3 13 30 14 4 15 29 16 1 17 28 18 14 20 15 21 16 22 25 23
REMARK SMILES IDX 18 24 24 25 19 26 22 27 20 28 21 29 17 30 23 32
REMARK H PARENT 28 19 18 31
ROOT
ATOM      1  C   UNL     1       2.567  -0.683   0.359  1.00  0.00     0.041 A 
ATOM      2  C   UNL     1       2.488  -1.411   1.558  1.00  0.00     0.026 A 
ATOM      3  C   UNL     1       1.304  -2.028   1.983  1.00  0.00     0.012 A 
ATOM      4  C   UNL     1       0.142  -1.929   1.217  1.00  0.00     0.028 A 
ATOM      5  C   UNL     1       0.187  -1.181   0.039  1.00  0.00     0.163 A 
ATOM      6  C   UNL     1       1.380  -0.578  -0.384  1.00  0.00     0.076 A 
ATOM      7  O   UNL     1      -0.905  -1.042  -0.799  1.00  0.00    -0.379 OA
ATOM      8  N   UNL     1      -2.128  -1.210  -0.121  1.00  0.00    -0.208 N 
ATOM      9  C   UNL     1      -2.250  -2.303   0.699  1.00  0.00     0.185 C 
ATOM     10  C   UNL     1      -1.127  -2.629   1.619  1.00  0.00     0.177 C 
ENDROOT
BRANCH   1  11
ATOM     11  N   UNL     1       3.752  -0.101  -0.061  1.00  0.00    -0.369 N 
ATOM     12  N   UNL     1       6.342   1.032  -1.070  1.00  0.00    -0.303 NA
ATOM     13  C   UNL     1       5.078   1.794  -0.987  1.00  0.00     0.105 C 
ATOM     14  C   UNL     1       6.146  -0.378  -0.669  1.00  0.00     0.105 C 
ATOM     15  C   UNL     1       3.779   0.958  -1.083  1.00  0.00     0.132 C 
ATOM     16  C   UNL     1       5.059  -0.588   0.412  1.00  0.00     0.132 C 
ATOM     17  C   UNL     1       6.937   1.109  -2.402  1.00  0.00     0.105 C 
ENDBRANCH   1  11
BRANCH  10  18
ATOM     18  O   UNL     1      -1.476  -2.229   2.944  1.00  0.00    -0.386 OA
ATOM     19  H   UNL     1      -2.344  -1.776   2.898  1.00  0.00     0.211 HD
ENDBRANCH  10  18
BRANCH   8  20
ATOM     20  C   UNL     1      -3.168  -0.388  -0.518  1.00  0.00     0.139 C 
BRANCH  20  21
ATOM     21  C   UNL     1      -4.287   0.006   0.106  1.00  0.00     0.068 C 
ATOM     22  C   UNL     1      -4.705  -0.301   1.525  1.00  0.00     0.257 C 
ATOM     23  C   UNL     1      -5.312   0.892  -0.458  1.00  0.00     0.015 A 
ATOM     24  N   UNL     1      -5.922   0.348   1.685  1.00  0.00    -0.321 N 
ATOM     25  C   UNL     1      -5.454   1.526  -1.680  1.00  0.00     0.050 A 
ATOM     26  C   UNL     1      -6.276   1.060   0.544  1.00  0.00     0.049 A 
ATOM     27  C   UNL     1      -6.580   2.329  -1.861  1.00  0.00     0.123 A 
ATOM     28  C   UNL     1      -7.398   1.848   0.375  1.00  0.00     0.030 A 
ATOM     29  C   UNL     1      -7.543   2.494  -0.853  1.00  0.00     0.041 A 
ATOM     30  O   UNL     1      -4.118  -0.944   2.376  1.00  0.00    -0.269 OA
ATOM     31  H   UNL     1      -6.432   0.336   2.556  1.00  0.00     0.170 HD
ATOM     32  F   UNL     1      -6.742   2.972  -3.024  1.00  0.00    -0.207 F 
ENDBRANCH  20  21
ENDBRANCH   8  20
TORSDOF 4
