REMARK SMILES CC(C)c1cn(C)nc1C(=O)Nc1ccc(-c2ccc(CN3CCC(n4c(O)nc5ccccc54)CC3)cc2)nc1
REMARK SMILES IDX 17 1 18 2 19 3 20 4 38 5 39 6 16 7 13 8 14 9 41 10 15 11
REMARK SMILES IDX 40 12 12 13 10 14 11 15 9 17 4 18 5 19 6 20 8 21 7 22 2 23
REMARK SMILES IDX 1 24 3 25 21 26 22 27 23 28 37 29 24 30 36 31 25 32 26 33
REMARK SMILES IDX 27 34 35 35 29 36 34 37 30 38 33 39 31 40 32 41 28 42
REMARK H PARENT 12 16 28 43
ROOT
ATOM      1  C   UNL     1      -0.269  -0.279  -0.572  1.00  0.00     0.000 A 
ATOM      2  C   UNL     1       0.641   0.131   0.424  1.00  0.00     0.010 A 
ATOM      3  C   UNL     1       1.994   0.362   0.142  1.00  0.00     0.006 A 
ATOM      4  C   UNL     1       2.492   0.188  -1.154  1.00  0.00    -0.034 A 
ATOM      5  C   UNL     1       1.611  -0.240  -2.151  1.00  0.00     0.006 A 
ATOM      6  C   UNL     1       0.259  -0.470  -1.865  1.00  0.00     0.010 A 
ENDROOT
BRANCH   1   7
ATOM      7  C   UNL     1      -1.715  -0.441  -0.260  1.00  0.00     0.070 A 
ATOM      8  C   UNL     1      -4.434  -0.478   0.387  1.00  0.00     0.060 A 
ATOM      9  C   UNL     1      -4.013  -0.946  -0.848  1.00  0.00     0.030 A 
ATOM     10  C   UNL     1      -3.438  -0.064   1.268  1.00  0.00     0.137 A 
ATOM     11  C   UNL     1      -2.650  -0.939  -1.170  1.00  0.00     0.031 A 
ATOM     12  N   UNL     1      -2.113  -0.026   0.973  1.00  0.00    -0.254 NA
BRANCH   8  13
ATOM     13  N   UNL     1      -5.783  -0.380   0.778  1.00  0.00    -0.319 N 
ATOM     14  C   UNL     1      -6.886  -0.427  -0.052  1.00  0.00     0.276 C 
ATOM     15  O   UNL     1      -6.864  -0.658  -1.258  1.00  0.00    -0.267 OA
ATOM     16  H   UNL     1      -6.003  -0.131   1.738  1.00  0.00     0.170 HD
BRANCH  14  17
ATOM     17  C   UNL     1      -8.143  -0.132   0.669  1.00  0.00     0.153 A 
ATOM     18  C   UNL     1      -9.374   0.405   0.166  1.00  0.00     0.006 A 
ATOM     19  C   UNL     1     -10.220   0.395   1.257  1.00  0.00     0.113 A 
ATOM     20  N   UNL     1      -9.503  -0.092   2.307  1.00  0.00    -0.275 N 
ATOM     21  N   UNL     1      -8.218  -0.339   2.005  1.00  0.00    -0.168 NA
ATOM     22  C   UNL     1      -9.995  -0.354   3.637  1.00  0.00     0.173 C 
BRANCH  18  23
ATOM     23  C   UNL     1      -9.740   0.924  -1.200  1.00  0.00     0.017 C 
ATOM     24  C   UNL     1      -8.759   1.979  -1.723  1.00  0.00     0.012 C 
ATOM     25  C   UNL     1      -9.972  -0.191  -2.221  1.00  0.00     0.012 C 
ENDBRANCH  18  23
ENDBRANCH  14  17
ENDBRANCH   8  13
ENDBRANCH   1   7
BRANCH   4  26
ATOM     26  C   UNL     1       3.930   0.529  -1.486  1.00  0.00     0.120 C 
BRANCH  26  27
ATOM     27  N   UNL     1       4.668  -0.559  -2.148  1.00  0.00    -0.299 NA
ATOM     28  C   UNL     1       5.924  -0.097  -2.754  1.00  0.00     0.087 C 
ATOM     29  C   UNL     1       4.911  -1.720  -1.281  1.00  0.00     0.087 C 
ATOM     30  C   UNL     1       7.013   0.243  -1.738  1.00  0.00     0.041 C 
ATOM     31  C   UNL     1       5.947  -1.469  -0.186  1.00  0.00     0.041 C 
ATOM     32  C   UNL     1       7.253  -0.927  -0.779  1.00  0.00     0.095 C 
BRANCH  32  33
ATOM     33  N   UNL     1       8.242  -0.609   0.244  1.00  0.00    -0.291 N 
ATOM     34  C   UNL     1       9.446  -1.243   0.392  1.00  0.00     0.295 A 
ATOM     35  C   UNL     1       8.180   0.368   1.219  1.00  0.00     0.072 A 
ATOM     36  N   UNL     1      10.185  -0.733   1.336  1.00  0.00    -0.195 NA
ATOM     37  C   UNL     1       7.212   1.310   1.595  1.00  0.00     0.029 A 
ATOM     38  C   UNL     1       9.411   0.267   1.873  1.00  0.00     0.092 A 
ATOM     39  C   UNL     1       7.526   2.170   2.655  1.00  0.00     0.002 A 
ATOM     40  C   UNL     1       9.704   1.136   2.933  1.00  0.00     0.031 A 
ATOM     41  C   UNL     1       8.752   2.087   3.316  1.00  0.00     0.002 A 
BRANCH  34  42
ATOM     42  O   UNL     1       9.848  -2.274  -0.328  1.00  0.00    -0.480 OA
ATOM     43  H   UNL     1      10.754  -2.409  -0.004  1.00  0.00     0.296 HD
ENDBRANCH  34  42
ENDBRANCH  32  33
ENDBRANCH  26  27
ENDBRANCH   4  26
TORSDOF 8
