MODEL        3USER    Run = 3USERUSER    Estimated Free Energy of Binding    = -12.75 kcal/mol  [=(1)+(2)+(3)-(4)]USERUSER    (1) Final Intermolecular Energy     = -15.14 kcal/molUSER        vdW + Hbond + desolv Energy     = -14.97 kcal/molUSER        Electrostatic Energy            =  -0.17 kcal/molUSER        Moving Ligand-Fixed Receptor    = -15.14 kcal/molUSER        Moving Ligand-Moving Receptor   =  +0.00 kcal/molUSER    (2) Final Total Internal Energy     =  -2.78 kcal/molUSER    (3) Torsional Free Energy           =  +2.39 kcal/molUSER    (4) Unbound System's Energy         =  -2.78 kcal/molUSERUSERREMARK SMILES Cc1cn(C)nc1C(=O)Nc1ccc(-n2c(-c3ccc(CN4CCC(n5c(O)nc6ccccc65)CC4)cc3)nc3cccnc32)cc1REMARK SMILES IDX 17 1 18 2 19 3 20 4 38 5 39 6 16 7 15 8 46 9 40 10 45 11REMARK SMILES IDX 41 12 44 13 42 14 43 15 14 16 11 17 12 18 48 19 13 20 47 21REMARK SMILES IDX 10 22 8 23 9 24 7 26 2 27 3 28 4 29 6 30 1 31 5 32 21 33REMARK SMILES IDX 22 34 23 35 37 36 24 37 36 38 25 39 26 40 27 41 35 42 29 43REMARK SMILES IDX 34 44 30 45 33 46 31 47 32 48 28 49REMARK H PARENT 10 25 28 50USER                              x       y       z     vdW  Elec       q    TypeUSER                           _______ _______ _______ _____ _____    ______ ____ROOTATOM      1  C   UNL     1      40.935  45.861  24.413 -0.12 +0.00    +0.018 A  ATOM      2  C   UNL     1      39.627  45.688  23.940 -0.21 +0.00    +0.012 A  ATOM      3  C   UNL     1      38.640  46.639  24.217 -0.31 +0.00    +0.006 A  ATOM      4  C   UNL     1      38.940  47.774  24.986 -0.32 -0.00    -0.034 A  ATOM      5  C   UNL     1      40.241  47.927  25.485 -0.24 +0.00    +0.006 A  ATOM      6  C   UNL     1      41.224  46.973  25.214 -0.14 +0.00    +0.012 A  ENDROOTBRANCH   1   7ATOM      7  C   UNL     1      42.001  44.900  24.102 -0.06 +0.01    +0.146 A  ATOM      8  N   UNL     1      42.540  44.627  22.833 -0.08 -0.04    -0.277 N  ATOM      9  C   UNL     1      43.358  43.512  23.004 -0.19 +0.02    +0.164 A  ATOM     10  N   UNL     1      42.544  44.131  25.035 -0.03 -0.00    -0.226 NA ATOM     11  N   UNL     1      44.077  42.838  22.075 -0.23 -0.03    -0.236 NA ATOM     12  C   UNL     1      43.355  43.262  24.370 -0.11 +0.00    +0.109 A  ATOM     13  C   UNL     1      44.821  41.834  22.591 -0.22 -0.01    +0.113 A  ATOM     14  C   UNL     1      44.142  42.212  24.858 -0.14 -0.00    +0.034 A  ATOM     15  C   UNL     1      44.890  41.486  23.933 -0.22 -0.00    +0.022 A  BRANCH   8  16ATOM     16  C   UNL     1      42.339  45.344  21.607 -0.25 +0.01    +0.049 A  ATOM     17  C   UNL     1      41.964  46.761  19.182 -0.47 +0.00    +0.041 A  ATOM     18  C   UNL     1      42.925  47.173  20.102 -0.42 +0.01    +0.028 A  ATOM     19  C   UNL     1      41.177  45.648  19.491 -0.41 +0.00    +0.028 A  ATOM     20  C   UNL     1      43.112  46.473  21.304 -0.32 +0.01    +0.029 A  ATOM     21  C   UNL     1      41.353  44.952  20.695 -0.33 +0.00    +0.029 A  BRANCH  17  22ATOM     22  N   UNL     1      41.735  47.389  17.951 -0.31 +0.02    -0.321 N  ATOM     23  C   UNL     1      40.542  47.553  17.272 -0.35 -0.04    +0.276 C  ATOM     24  O   UNL     1      39.442  47.133  17.612 -0.33 +0.07    -0.267 OA ATOM     25  H   UNL     1      42.526  47.807  17.467 -0.42 -0.02    +0.170 HD BRANCH  23  26ATOM     26  C   UNL     1      40.734  48.335  16.030 -0.45 -0.03    +0.153 A  ATOM     27  C   UNL     1      39.938  48.311  14.842 -0.55 -0.00    +0.000 A  ATOM     28  C   UNL     1      40.521  49.246  14.012 -0.09 -0.03    +0.112 A  ATOM     29  N   UNL     1      41.597  49.735  14.681 -0.44 +0.05    -0.275 N  ATOM     30  N   UNL     1      41.760  49.211  15.909 -0.90 -0.02    -0.168 NA ATOM     31  C   UNL     1      38.758  47.457  14.558 -0.52 -0.02    +0.048 C  ATOM     32  C   UNL     1      42.508  50.755  14.218 -0.54 -0.04    +0.173 C  ENDBRANCH  23  26ENDBRANCH  17  22ENDBRANCH   8  16ENDBRANCH   1   7BRANCH   4  33ATOM     33  C   UNL     1      37.891  48.844  25.212 -0.39 +0.01    +0.120 C  BRANCH  33  34ATOM     34  N   UNL     1      36.815  48.434  26.129 -0.26 +0.01    -0.299 NA ATOM     35  C   UNL     1      35.867  49.527  26.398 -0.40 -0.00    +0.087 C  ATOM     36  C   UNL     1      37.356  47.824  27.344 -0.30 -0.01    +0.087 C  ATOM     37  C   UNL     1      35.399  49.620  27.851 -0.22 -0.00    +0.041 C  ATOM     38  C   UNL     1      36.215  47.218  28.157 -0.36 -0.01    +0.041 C  ATOM     39  C   UNL     1      35.097  48.238  28.439 -0.33 -0.01    +0.095 C  BRANCH  39  40ATOM     40  N   UNL     1      34.759  48.333  29.856 -0.20 +0.03    -0.291 N  ATOM     41  C   UNL     1      35.556  48.838  30.847 -0.13 -0.03    +0.295 A  ATOM     42  C   UNL     1      33.566  47.975  30.448 -0.27 -0.01    +0.072 A  ATOM     43  N   UNL     1      34.992  48.829  32.023 -0.14 +0.01    -0.195 NA ATOM     44  C   UNL     1      32.371  47.424  29.962 -0.37 +0.00    +0.029 A  ATOM     45  C   UNL     1      33.746  48.298  31.796 -0.13 -0.01    +0.092 A  ATOM     46  C   UNL     1      31.345  47.201  30.888 -0.53 -0.00    +0.002 A  ATOM     47  C   UNL     1      32.706  48.064  32.709 -0.21 -0.00    +0.031 A  ATOM     48  C   UNL     1      31.507  47.514  32.239 -0.41 -0.00    +0.002 A  BRANCH  41  49ATOM     49  O   UNL     1      36.777  49.299  30.669 -0.03 +0.08    -0.480 OA ATOM     50  H   UNL     1      37.302  48.615  31.119 -0.53 -0.14    +0.296 HD ENDBRANCH  41  49ENDBRANCH  39  40ENDBRANCH  33  34ENDBRANCH   4  33TORSDOF 8TERENDMDL