REMARK SMILES Cc1cn(C)nc1C(=O)Nc1ccc(-n2c(-c3ccc(CN4CCC(n5c(O)nc6ccccc65)CC4)cc3)nc3cccnc32)cc1
REMARK SMILES IDX 17 1 18 2 19 3 20 4 38 5 39 6 16 7 15 8 46 9 40 10 45 11
REMARK SMILES IDX 41 12 44 13 42 14 43 15 14 16 11 17 12 18 48 19 13 20 47 21
REMARK SMILES IDX 10 22 8 23 9 24 7 26 2 27 3 28 4 29 6 30 1 31 5 32 21 33
REMARK SMILES IDX 22 34 23 35 37 36 24 37 36 38 25 39 26 40 27 41 35 42 29 43
REMARK SMILES IDX 34 44 30 45 33 46 31 47 32 48 28 49
REMARK H PARENT 10 25 28 50
ROOT
ATOM      1  C   UNL     1      -0.269  -1.947  -1.501  1.00  0.00     0.018 A 
ATOM      2  C   UNL     1      -0.422  -1.793  -0.117  1.00  0.00     0.012 A 
ATOM      3  C   UNL     1       0.317  -0.829   0.576  1.00  0.00     0.006 A 
ATOM      4  C   UNL     1       1.236  -0.013  -0.101  1.00  0.00    -0.034 A 
ATOM      5  C   UNL     1       1.411  -0.193  -1.481  1.00  0.00     0.006 A 
ATOM      6  C   UNL     1       0.677  -1.161  -2.170  1.00  0.00     0.012 A 
ENDROOT
BRANCH   1   7
ATOM      7  C   UNL     1      -1.062  -2.922  -2.261  1.00  0.00     0.146 A 
ATOM      8  N   UNL     1      -2.463  -3.044  -2.263  1.00  0.00    -0.277 N 
ATOM      9  C   UNL     1      -2.736  -4.224  -2.951  1.00  0.00     0.164 A 
ATOM     10  N   UNL     1      -0.494  -3.853  -3.014  1.00  0.00    -0.226 NA
ATOM     11  N   UNL     1      -3.936  -4.803  -3.197  1.00  0.00    -0.236 NA
ATOM     12  C   UNL     1      -1.506  -4.668  -3.419  1.00  0.00     0.109 A 
ATOM     13  C   UNL     1      -3.852  -5.918  -3.957  1.00  0.00     0.113 A 
ATOM     14  C   UNL     1      -1.470  -5.828  -4.202  1.00  0.00     0.034 A 
ATOM     15  C   UNL     1      -2.682  -6.461  -4.471  1.00  0.00     0.022 A 
BRANCH   8  16
ATOM     16  C   UNL     1      -3.435  -2.145  -1.712  1.00  0.00     0.049 A 
ATOM     17  C   UNL     1      -5.359  -0.384  -0.605  1.00  0.00     0.041 A 
ATOM     18  C   UNL     1      -5.643  -1.739  -0.756  1.00  0.00     0.028 A 
ATOM     19  C   UNL     1      -4.114   0.090  -1.030  1.00  0.00     0.028 A 
ATOM     20  C   UNL     1      -4.691  -2.612  -1.304  1.00  0.00     0.029 A 
ATOM     21  C   UNL     1      -3.165  -0.777  -1.588  1.00  0.00     0.029 A 
BRANCH  17  22
ATOM     22  N   UNL     1      -6.243   0.547  -0.043  1.00  0.00    -0.321 N 
ATOM     23  C   UNL     1      -7.530   0.349   0.420  1.00  0.00     0.276 C 
ATOM     24  O   UNL     1      -8.167  -0.698   0.386  1.00  0.00    -0.267 OA
ATOM     25  H   UNL     1      -5.925   1.507   0.071  1.00  0.00     0.170 HD
BRANCH  23  26
ATOM     26  C   UNL     1      -8.090   1.591   0.999  1.00  0.00     0.153 A 
ATOM     27  C   UNL     1      -9.403   1.803   1.523  1.00  0.00     0.000 A 
ATOM     28  C   UNL     1      -9.395   3.109   1.967  1.00  0.00     0.112 A 
ATOM     29  N   UNL     1      -8.165   3.606   1.675  1.00  0.00    -0.275 N 
ATOM     30  N   UNL     1      -7.343   2.716   1.090  1.00  0.00    -0.168 NA
ATOM     31  C   UNL     1     -10.531   0.839   1.565  1.00  0.00     0.048 C 
ATOM     32  C   UNL     1      -7.680   4.934   1.969  1.00  0.00     0.173 C 
ENDBRANCH  23  26
ENDBRANCH  17  22
ENDBRANCH   8  16
ENDBRANCH   1   7
BRANCH   4  33
ATOM     33  C   UNL     1       1.972   1.087   0.637  1.00  0.00     0.120 C 
BRANCH  33  34
ATOM     34  N   UNL     1       3.421   1.108   0.377  1.00  0.00    -0.299 NA
ATOM     35  C   UNL     1       4.103  -0.072   0.930  1.00  0.00     0.087 C 
ATOM     36  C   UNL     1       4.018   2.375   0.801  1.00  0.00     0.087 C 
ATOM     37  C   UNL     1       5.456   0.221   1.579  1.00  0.00     0.041 C 
ATOM     38  C   UNL     1       5.463   2.441   0.314  1.00  0.00     0.041 C 
ATOM     39  C   UNL     1       6.280   1.211   0.750  1.00  0.00     0.095 C 
BRANCH  39  40
ATOM     40  N   UNL     1       7.519   1.566   1.436  1.00  0.00    -0.291 N 
ATOM     41  C   UNL     1       7.630   2.331   2.565  1.00  0.00     0.295 A 
ATOM     42  C   UNL     1       8.795   1.164   1.100  1.00  0.00     0.072 A 
ATOM     43  N   UNL     1       8.858   2.467   2.982  1.00  0.00    -0.195 NA
ATOM     44  C   UNL     1       9.320   0.368   0.072  1.00  0.00     0.029 A 
ATOM     45  C   UNL     1       9.603   1.742   2.084  1.00  0.00     0.092 A 
ATOM     46  C   UNL     1      10.706   0.168   0.060  1.00  0.00     0.002 A 
ATOM     47  C   UNL     1      10.990   1.532   2.053  1.00  0.00     0.031 A 
ATOM     48  C   UNL     1      11.529   0.740   1.032  1.00  0.00     0.002 A 
BRANCH  41  49
ATOM     49  O   UNL     1       6.619   2.889   3.198  1.00  0.00    -0.480 OA
ATOM     50  H   UNL     1       7.081   3.346   3.922  1.00  0.00     0.296 HD
ENDBRANCH  41  49
ENDBRANCH  39  40
ENDBRANCH  33  34
ENDBRANCH   4  33
TORSDOF 8
