MODEL        1USER    Run = 1USERUSER    Estimated Free Energy of Binding    = -14.72 kcal/mol  [=(1)+(2)+(3)-(4)]USERUSER    (1) Final Intermolecular Energy     = -17.41 kcal/molUSER        vdW + Hbond + desolv Energy     = -17.27 kcal/molUSER        Electrostatic Energy            =  -0.13 kcal/molUSER        Moving Ligand-Fixed Receptor    = -17.41 kcal/molUSER        Moving Ligand-Moving Receptor   =  +0.00 kcal/molUSER    (2) Final Total Internal Energy     =  -2.54 kcal/molUSER    (3) Torsional Free Energy           =  +2.68 kcal/molUSER    (4) Unbound System's Energy         =  -2.54 kcal/molUSERUSERREMARK SMILES CC(C)c1cn(C)nc1C(=O)Nc1ccc(-n2c(-c3ccc(CN4CCC(n5c(O)nc6ccccc65)CC4)cc3)nc3ccccc32)cc1REMARK SMILES IDX 17 1 18 2 42 3 43 4 44 5 45 6 46 7 47 8 48 9 16 10 13 11REMARK SMILES IDX 14 12 50 13 15 14 49 15 12 16 10 17 11 18 9 20 4 21 5 22REMARK SMILES IDX 6 23 8 24 7 25 2 26 1 27 3 28 19 29 20 30 41 31 21 32 40 33REMARK SMILES IDX 22 34 23 35 24 36 25 37 39 38 26 39 38 40 27 41 28 42 29 43REMARK SMILES IDX 37 44 31 45 36 46 32 47 35 48 33 49 34 50 30 51REMARK H PARENT 12 19 30 52USER                              x       y       z     vdW  Elec       q    TypeUSER                           _______ _______ _______ _____ _____    ______ ____ROOTATOM      1  N   UNL     1      37.613  45.535  17.280 -0.18 +0.09    -0.292 N  ATOM      2  C   UNL     1      38.542  45.598  18.328 -0.30 -0.02    +0.145 A  ATOM      3  N   UNL     1      39.484  46.491  18.083 -0.29 +0.04    -0.228 NA ATOM      4  C   UNL     1      39.188  47.033  16.869 -0.38 -0.03    +0.090 A  ATOM      5  C   UNL     1      39.889  48.022  16.162 -0.51 -0.01    +0.030 A  ATOM      6  C   UNL     1      39.449  48.391  14.888 -0.55 -0.00    +0.002 A  ATOM      7  C   UNL     1      38.337  47.773  14.321 -0.52 -0.00    +0.002 A  ATOM      8  C   UNL     1      37.629  46.781  15.013 -0.40 -0.01    +0.029 A  ATOM      9  C   UNL     1      38.050  46.451  16.317 -0.34 -0.03    +0.073 A  ENDROOTBRANCH   1  10ATOM     10  C   UNL     1      36.467  44.684  17.169 -0.30 -0.02    +0.048 A  ATOM     11  C   UNL     1      34.262  42.930  17.014 -0.35 -0.02    +0.041 A  ATOM     12  C   UNL     1      34.176  44.118  17.744 -0.29 -0.01    +0.028 A  ATOM     13  C   UNL     1      35.444  42.640  16.337 -0.42 -0.01    +0.028 A  ATOM     14  C   UNL     1      35.271  44.987  17.830 -0.32 -0.01    +0.029 A  ATOM     15  C   UNL     1      36.533  43.517  16.400 -0.36 -0.01    +0.029 A  BRANCH  11  16ATOM     16  N   UNL     1      33.138  42.091  17.021 -0.13 +0.15    -0.321 N  ATOM     17  C   UNL     1      32.614  41.356  18.070 -0.27 -0.06    +0.276 C  ATOM     18  O   UNL     1      33.086  41.284  19.198 -0.41 -0.02    -0.267 OA ATOM     19  H   UNL     1      32.555  42.053  16.189 -0.45 -0.12    +0.170 HD BRANCH  17  20ATOM     20  C   UNL     1      31.358  40.672  17.675 -0.27 -0.03    +0.153 A  ATOM     21  C   UNL     1      30.786  39.441  18.149 -0.39 +0.00    +0.006 A  ATOM     22  C   UNL     1      29.611  39.317  17.433 -0.23 +0.03    +0.113 A  ATOM     23  N   UNL     1      29.529  40.401  16.619 -0.24 +0.01    -0.275 N  ATOM     24  N   UNL     1      30.561  41.248  16.744 -0.25 +0.05    -0.168 NA ATOM     25  C   UNL     1      28.479  40.693  15.671 -0.32 -0.03    +0.173 C  BRANCH  21  26ATOM     26  C   UNL     1      31.263  38.459  19.186 -0.52 +0.00    +0.017 C  ATOM     27  C   UNL     1      32.426  37.595  18.705 -0.60 +0.00    +0.012 C  ATOM     28  C   UNL     1      31.553  39.114  20.536 -0.45 +0.00    +0.012 C  ENDBRANCH  21  26ENDBRANCH  17  20ENDBRANCH  11  16ENDBRANCH   1  10BRANCH   2  29ATOM     29  C   UNL     1      38.505  44.843  19.581 -0.36 -0.00    +0.018 A  ATOM     30  C   UNL     1      37.569  43.813  19.732 -0.31 -0.00    +0.012 A  ATOM     31  C   UNL     1      39.410  45.100  20.615 -0.36 +0.00    +0.012 A  ATOM     32  C   UNL     1      37.507  43.080  20.919 -0.30 +0.00    +0.006 A  ATOM     33  C   UNL     1      39.363  44.345  21.793 -0.29 +0.00    +0.006 A  ATOM     34  C   UNL     1      38.411  43.327  21.960 -0.28 -0.00    -0.034 A  BRANCH  34  35ATOM     35  C   UNL     1      38.361  42.516  23.239 -0.28 +0.01    +0.120 C  BRANCH  35  36ATOM     36  N   UNL     1      37.778  43.169  24.417 -0.14 -0.01    -0.299 NA ATOM     37  C   UNL     1      37.874  44.630  24.406 -0.29 +0.01    +0.087 C  ATOM     38  C   UNL     1      36.454  42.690  24.792 -0.33 +0.00    +0.087 C  ATOM     39  C   UNL     1      36.961  45.314  25.432 -0.34 +0.00    +0.041 C  ATOM     40  C   UNL     1      36.176  43.042  26.259 -0.46 -0.00    +0.041 C  ATOM     41  C   UNL     1      36.735  44.423  26.654 -0.36 -0.01    +0.095 C  BRANCH  41  42ATOM     42  N   UNL     1      35.936  45.077  27.683 -0.18 +0.09    -0.291 N  ATOM     43  C   UNL     1      34.943  44.502  28.427 -0.34 -0.08    +0.295 A  ATOM     44  C   UNL     1      36.026  46.393  28.088 -0.14 -0.02    +0.072 A  ATOM     45  N   UNL     1      34.385  45.324  29.273 -0.37 +0.05    -0.195 NA ATOM     46  C   UNL     1      36.836  47.472  27.704 -0.31 -0.01    +0.029 A  ATOM     47  C   UNL     1      35.049  46.511  29.079 -0.30 -0.02    +0.092 A  ATOM     48  C   UNL     1      36.633  48.693  28.360 -0.26 -0.00    +0.002 A  ATOM     49  C   UNL     1      34.860  47.744  29.722 -0.37 -0.00    +0.031 A  ATOM     50  C   UNL     1      35.662  48.831  29.352 -0.28 -0.00    +0.002 A  BRANCH  43  51ATOM     51  O   UNL     1      34.561  43.246  28.325 -0.30 +0.14    -0.480 OA ATOM     52  H   UNL     1      35.022  42.839  29.082 -0.30 -0.20    +0.296 HD ENDBRANCH  43  51ENDBRANCH  41  42ENDBRANCH  35  36ENDBRANCH  34  35ENDBRANCH   2  29TORSDOF 9TERENDMDL