MODEL        9USER    Run = 9USERUSER    Estimated Free Energy of Binding    = -12.31 kcal/mol  [=(1)+(2)+(3)-(4)]USERUSER    (1) Final Intermolecular Energy     = -14.69 kcal/molUSER        vdW + Hbond + desolv Energy     = -14.55 kcal/molUSER        Electrostatic Energy            =  -0.15 kcal/molUSER        Moving Ligand-Fixed Receptor    = -14.69 kcal/molUSER        Moving Ligand-Moving Receptor   =  +0.00 kcal/molUSER    (2) Final Total Internal Energy     =  -2.48 kcal/molUSER    (3) Torsional Free Energy           =  +2.39 kcal/molUSER    (4) Unbound System's Energy         =  -2.48 kcal/molUSERUSERREMARK SMILES CC(C)c1cn(C)nc1C(=O)Nc1ccc(-c2ccc(CN3CCC(n4c(O)nc5ccccc54)CC3)cc2)nc1REMARK SMILES IDX 17 1 18 2 19 3 20 4 38 5 39 6 16 7 13 8 14 9 41 10 15 11REMARK SMILES IDX 40 12 12 13 10 14 11 15 9 17 4 18 5 19 6 20 8 21 7 22 2 23REMARK SMILES IDX 1 24 3 25 21 26 22 27 23 28 37 29 24 30 36 31 25 32 26 33REMARK SMILES IDX 27 34 35 35 29 36 34 37 30 38 33 39 31 40 32 41 28 42REMARK H PARENT 12 16 28 43USER                              x       y       z     vdW  Elec       q    TypeUSER                           _______ _______ _______ _____ _____    ______ ____ROOTATOM      1  C   UNL     1      36.099  44.576  17.889 -0.33 -0.00    +0.000 A  ATOM      2  C   UNL     1      36.425  45.931  17.679 -0.29 -0.00    +0.010 A  ATOM      3  C   UNL     1      36.189  46.569  16.454 -0.37 -0.00    +0.006 A  ATOM      4  C   UNL     1      35.616  45.871  15.385 -0.34 +0.03    -0.034 A  ATOM      5  C   UNL     1      35.306  44.520  15.566 -0.32 -0.00    +0.006 A  ATOM      6  C   UNL     1      35.544  43.886  16.792 -0.34 -0.00    +0.010 A  ENDROOTBRANCH   1   7ATOM      7  C   UNL     1      36.289  43.947  19.224 -0.32 -0.01    +0.070 A  ATOM      8  C   UNL     1      36.554  42.999  21.840 -0.36 +0.00    +0.060 A  ATOM      9  C   UNL     1      35.817  42.275  20.916 -0.46 +0.00    +0.030 A  ATOM     10  C   UNL     1      37.178  44.152  21.372 -0.30 +0.01    +0.137 A  ATOM     11  C   UNL     1      35.692  42.742  19.601 -0.41 -0.00    +0.031 A  ATOM     12  N   UNL     1      37.055  44.639  20.110 -0.18 +0.01    -0.254 NA BRANCH   8  13ATOM     13  N   UNL     1      36.681  42.650  23.198 -0.22 -0.03    -0.319 N  ATOM     14  C   UNL     1      37.516  43.243  24.125 -0.22 +0.02    +0.276 C  ATOM     15  O   UNL     1      38.213  44.235  23.929 -0.17 -0.02    -0.267 OA ATOM     16  H   UNL     1      36.220  41.811  23.539 +0.09 +0.01    +0.170 HD BRANCH  14  17ATOM     17  C   UNL     1      37.516  42.526  25.418 -0.24 -0.01    +0.153 A  ATOM     18  C   UNL     1      38.532  42.476  26.429 -0.28 -0.00    +0.006 A  ATOM     19  C   UNL     1      37.968  41.728  27.443 -0.35 -0.02    +0.113 A  ATOM     20  N   UNL     1      36.727  41.361  27.017 -0.31 +0.07    -0.275 N  ATOM     21  N   UNL     1      36.458  41.755  25.762 -0.34 +0.03    -0.168 NA ATOM     22  C   UNL     1      35.739  40.632  27.773 -0.41 -0.08    +0.173 C  BRANCH  18  23ATOM     23  C   UNL     1      39.929  43.039  26.454 -0.21 -0.00    +0.017 C  ATOM     24  C   UNL     1      40.678  42.844  25.130 -0.19 -0.00    +0.012 C  ATOM     25  C   UNL     1      39.980  44.494  26.925 -0.16 +0.00    +0.012 C  ENDBRANCH  18  23ENDBRANCH  14  17ENDBRANCH   8  13ENDBRANCH   1   7BRANCH   4  26ATOM     26  C   UNL     1      35.269  46.579  14.091 -0.39 -0.10    +0.120 C  BRANCH  26  27ATOM     27  N   UNL     1      36.298  46.458  13.046 -0.31 +0.15    -0.299 NA ATOM     28  C   UNL     1      36.957  47.738  12.756 -0.61 -0.03    +0.087 C  ATOM     29  C   UNL     1      37.296  45.415  13.318 -0.47 -0.03    +0.087 C  ATOM     30  C   UNL     1      37.902  48.211  13.859 -0.56 -0.02    +0.041 C  ATOM     31  C   UNL     1      38.262  45.763  14.450 -0.44 -0.01    +0.041 C  ATOM     32  C   UNL     1      38.923  47.125  14.210 -0.45 -0.02    +0.095 C  BRANCH  32  33ATOM     33  N   UNL     1      39.799  47.523  15.305 -0.27 +0.07    -0.291 N  ATOM     34  C   UNL     1      40.566  48.656  15.322 -0.34 -0.07    +0.295 A  ATOM     35  C   UNL     1      40.011  46.877  16.508 -0.43 -0.01    +0.072 A  ATOM     36  N   UNL     1      41.210  48.827  16.441 -0.84 +0.01    -0.195 NA ATOM     37  C   UNL     1      39.545  45.678  17.066 -0.33 -0.00    +0.029 A  ATOM     38  C   UNL     1      40.888  47.723  17.193 -0.46 -0.01    +0.092 A  ATOM     39  C   UNL     1      39.982  45.354  18.357 -0.45 -0.00    +0.002 A  ATOM     40  C   UNL     1      41.314  47.379  18.483 -0.43 -0.00    +0.031 A  ATOM     41  C   UNL     1      40.853  46.190  19.057 -0.47 +0.00    +0.002 A  BRANCH  34  42ATOM     42  O   UNL     1      40.669  49.510  14.320 -0.23 +0.17    -0.480 OA ATOM     43  H   UNL     1      40.171  50.276  14.651 -0.05 -0.23    +0.296 HD ENDBRANCH  34  42ENDBRANCH  32  33ENDBRANCH  26  27ENDBRANCH   4  26TORSDOF 8TERENDMDL