REMARK SMILES CC(C)c1cn(C)nc1C(=O)Nc1ccc(-n2c(-c3ccc(CN4CCC(n5c(O)nc6ccccc65)CC4)cc3)nc3ccccc32)cc1
REMARK SMILES IDX 17 1 18 2 42 3 43 4 44 5 45 6 46 7 47 8 48 9 16 10 13 11
REMARK SMILES IDX 14 12 50 13 15 14 49 15 12 16 10 17 11 18 9 20 4 21 5 22
REMARK SMILES IDX 6 23 8 24 7 25 2 26 1 27 3 28 19 29 20 30 41 31 21 32 40 33
REMARK SMILES IDX 22 34 23 35 24 36 25 37 39 38 26 39 38 40 27 41 28 42 29 43
REMARK SMILES IDX 37 44 31 45 36 46 32 47 35 48 33 49 34 50 30 51
REMARK H PARENT 12 19 30 52
ROOT
ATOM      1  N   UNL     1      -1.664  -3.268   0.641  1.00  0.00    -0.292 N 
ATOM      2  C   UNL     1      -0.276  -3.153   0.803  1.00  0.00     0.145 A 
ATOM      3  N   UNL     1       0.284  -4.333   1.003  1.00  0.00    -0.228 NA
ATOM      4  C   UNL     1      -0.728  -5.244   0.972  1.00  0.00     0.090 A 
ATOM      5  C   UNL     1      -0.652  -6.636   1.140  1.00  0.00     0.030 A 
ATOM      6  C   UNL     1      -1.830  -7.388   1.141  1.00  0.00     0.002 A 
ATOM      7  C   UNL     1      -3.065  -6.761   0.993  1.00  0.00     0.002 A 
ATOM      8  C   UNL     1      -3.157  -5.372   0.828  1.00  0.00     0.029 A 
ATOM      9  C   UNL     1      -1.961  -4.628   0.778  1.00  0.00     0.073 A 
ENDROOT
BRANCH   1  10
ATOM     10  C   UNL     1      -2.615  -2.220   0.423  1.00  0.00     0.048 A 
ATOM     11  C   UNL     1      -4.564  -0.211   0.061  1.00  0.00     0.041 A 
ATOM     12  C   UNL     1      -3.407   0.045   0.802  1.00  0.00     0.028 A 
ATOM     13  C   UNL     1      -4.725  -1.465  -0.524  1.00  0.00     0.028 A 
ATOM     14  C   UNL     1      -2.442  -0.953   0.991  1.00  0.00     0.029 A 
ATOM     15  C   UNL     1      -3.752  -2.458  -0.358  1.00  0.00     0.029 A 
BRANCH  11  16
ATOM     16  N   UNL     1      -5.504   0.825  -0.038  1.00  0.00    -0.321 N 
ATOM     17  C   UNL     1      -6.795   0.776  -0.534  1.00  0.00     0.276 C 
ATOM     18  O   UNL     1      -7.336  -0.209  -1.022  1.00  0.00    -0.267 OA
ATOM     19  H   UNL     1      -5.278   1.727   0.371  1.00  0.00     0.170 HD
BRANCH  17  20
ATOM     20  C   UNL     1      -7.485   2.079  -0.371  1.00  0.00     0.153 A 
ATOM     21  C   UNL     1      -8.856   2.437  -0.616  1.00  0.00     0.006 A 
ATOM     22  C   UNL     1      -8.921   3.775  -0.276  1.00  0.00     0.113 A 
ATOM     23  N   UNL     1      -7.678   4.139   0.133  1.00  0.00    -0.275 N 
ATOM     24  N   UNL     1      -6.786   3.139   0.099  1.00  0.00    -0.168 NA
ATOM     25  C   UNL     1      -7.261   5.452   0.567  1.00  0.00     0.173 C 
BRANCH  21  26
ATOM     26  C   UNL     1     -10.023   1.622  -1.107  1.00  0.00     0.017 C 
ATOM     27  C   UNL     1      -9.860   1.149  -2.550  1.00  0.00     0.012 C 
ATOM     28  C   UNL     1     -10.386   0.476  -0.164  1.00  0.00     0.012 C 
ENDBRANCH  21  26
ENDBRANCH  17  20
ENDBRANCH  11  16
ENDBRANCH   1  10
BRANCH   2  29
ATOM     29  C   UNL     1       0.520  -1.928   0.720  1.00  0.00     0.018 A 
ATOM     30  C   UNL     1       1.179  -1.462   1.864  1.00  0.00     0.012 A 
ATOM     31  C   UNL     1       0.671  -1.236  -0.485  1.00  0.00     0.012 A 
ATOM     32  C   UNL     1       1.941  -0.292   1.816  1.00  0.00     0.006 A 
ATOM     33  C   UNL     1       1.458  -0.079  -0.536  1.00  0.00     0.006 A 
ATOM     34  C   UNL     1       2.102   0.407   0.613  1.00  0.00    -0.034 A 
BRANCH  34  35
ATOM     35  C   UNL     1       2.948   1.663   0.553  1.00  0.00     0.120 C 
BRANCH  35  36
ATOM     36  N   UNL     1       4.387   1.485   0.326  1.00  0.00    -0.299 NA
ATOM     37  C   UNL     1       5.122   0.976   1.486  1.00  0.00     0.087 C 
ATOM     38  C   UNL     1       4.733   0.798  -0.911  1.00  0.00     0.087 C 
ATOM     39  C   UNL     1       6.524   0.454   1.145  1.00  0.00     0.041 C 
ATOM     40  C   UNL     1       6.186   1.115  -1.286  1.00  0.00     0.041 C 
ATOM     41  C   UNL     1       7.113   1.193  -0.058  1.00  0.00     0.095 C 
BRANCH  41  42
ATOM     42  N   UNL     1       8.477   0.775  -0.357  1.00  0.00    -0.291 N 
ATOM     43  C   UNL     1       8.881  -0.483  -0.711  1.00  0.00     0.295 A 
ATOM     44  C   UNL     1       9.609   1.564  -0.328  1.00  0.00     0.072 A 
ATOM     45  N   UNL     1      10.166  -0.578  -0.913  1.00  0.00    -0.195 NA
ATOM     46  C   UNL     1       9.841   2.916  -0.037  1.00  0.00     0.029 A 
ATOM     47  C   UNL     1      10.640   0.690  -0.681  1.00  0.00     0.092 A 
ATOM     48  C   UNL     1      11.163   3.372  -0.116  1.00  0.00     0.002 A 
ATOM     49  C   UNL     1      11.958   1.167  -0.752  1.00  0.00     0.031 A 
ATOM     50  C   UNL     1      12.207   2.515  -0.467  1.00  0.00     0.002 A 
BRANCH  43  51
ATOM     51  O   UNL     1       8.078  -1.518  -0.843  1.00  0.00    -0.480 OA
ATOM     52  H   UNL     1       8.704  -2.220  -1.100  1.00  0.00     0.296 HD
ENDBRANCH  43  51
ENDBRANCH  41  42
ENDBRANCH  35  36
ENDBRANCH  34  35
ENDBRANCH   2  29
TORSDOF 9
