MODEL        8USER    Run = 8USERUSER    Estimated Free Energy of Binding    = -10.00 kcal/mol  [=(1)+(2)+(3)-(4)]USERUSER    (1) Final Intermolecular Energy     = -11.20 kcal/molUSER        vdW + Hbond + desolv Energy     = -11.03 kcal/molUSER        Electrostatic Energy            =  -0.16 kcal/molUSER        Moving Ligand-Fixed Receptor    = -11.20 kcal/molUSER        Moving Ligand-Moving Receptor   =  +0.00 kcal/molUSER    (2) Final Total Internal Energy     =  -1.18 kcal/molUSER    (3) Torsional Free Energy           =  +1.19 kcal/molUSER    (4) Unbound System's Energy         =  -1.18 kcal/molUSERUSERREMARK SMILES O=C(c1ccncc1)N1CCN(c2nc3ccccc3nc2Nc2ccc(F)cc2)CC1REMARK SMILES IDX 13 1 14 2 15 3 16 4 17 5 18 6 19 7 20 8 21 9 22 10 12 11REMARK SMILES IDX 2 12 9 13 10 14 32 15 11 16 31 17 1 18 3 19 4 20 8 21 5 22REMARK SMILES IDX 7 23 6 24 23 25 24 27 25 28 30 29 26 30 29 31 27 32 28 33REMARK H PARENT 23 26USER                              x       y       z     vdW  Elec       q    TypeUSER                           _______ _______ _______ _____ _____    ______ ____ROOTATOM      1  C   UNL     1      36.501  45.159  16.625 -0.22 -0.08    +0.172 A  ATOM      2  N   UNL     1      35.714  45.276  15.531 -0.20 +0.13    -0.225 NA ATOM      3  C   UNL     1      36.141  46.084  14.544 -0.34 -0.06    +0.091 A  ATOM      4  C   UNL     1      35.369  46.225  13.398 -0.42 -0.02    +0.031 A  ATOM      5  C   UNL     1      35.774  47.047  12.345 -0.61 -0.00    +0.002 A  ATOM      6  C   UNL     1      36.974  47.739  12.441 -0.52 -0.00    +0.002 A  ATOM      7  C   UNL     1      37.756  47.604  13.587 -0.51 -0.01    +0.031 A  ATOM      8  C   UNL     1      37.362  46.790  14.641 -0.36 -0.05    +0.091 A  ATOM      9  N   UNL     1      38.145  46.693  15.728 -0.23 +0.09    -0.225 NA ATOM     10  C   UNL     1      37.716  45.900  16.735 -0.26 -0.06    +0.174 A  ENDROOTBRANCH   1  11ATOM     11  N   UNL     1      36.093  44.312  17.688 -0.08 +0.11    -0.350 N  ATOM     12  C   UNL     1      32.677  43.092  19.004 -0.27 -0.02    +0.254 C  ATOM     13  N   UNL     1      33.230  43.892  18.002 -0.09 +0.10    -0.335 N  ATOM     14  C   UNL     1      33.934  43.306  16.852 -0.31 -0.06    +0.141 C  ATOM     15  C   UNL     1      33.824  45.166  18.423 -0.38 -0.06    +0.141 C  ATOM     16  C   UNL     1      35.427  43.078  17.188 -0.35 -0.05    +0.140 C  ATOM     17  C   UNL     1      35.321  45.004  18.757 -0.32 -0.04    +0.140 C  ATOM     18  O   UNL     1      32.724  43.375  20.198 -0.90 -0.04    -0.269 OA BRANCH  12  19ATOM     19  C   UNL     1      31.975  41.848  18.612 -0.31 -0.00    +0.043 A  ATOM     20  C   UNL     1      32.062  40.736  19.446 -0.29 +0.00    +0.034 A  ATOM     21  C   UNL     1      31.182  41.804  17.466 -0.28 -0.01    +0.034 A  ATOM     22  C   UNL     1      31.379  39.597  19.069 -0.33 +0.01    +0.112 A  ATOM     23  C   UNL     1      30.538  40.617  17.178 -0.29 -0.02    +0.112 A  ATOM     24  N   UNL     1      30.630  39.510  17.947 -0.21 -0.02    -0.265 NA ENDBRANCH  12  19ENDBRANCH   1  11BRANCH  10  25ATOM     25  N   UNL     1      38.461  45.773  17.941 -0.19 +0.07    -0.337 N  ATOM     26  H   UNL     1      37.795  45.772  18.711 +0.09 -0.03    +0.168 HD BRANCH  25  27ATOM     27  C   UNL     1      39.739  46.243  18.286 -0.42 -0.00    +0.040 A  ATOM     28  C   UNL     1      40.370  47.310  17.633 -0.46 -0.00    +0.029 A  ATOM     29  C   UNL     1      40.471  45.544  19.263 -0.42 +0.00    +0.029 A  ATOM     30  C   UNL     1      41.668  47.702  17.977 -0.48 -0.00    +0.041 A  ATOM     31  C   UNL     1      41.769  45.931  19.610 -0.39 +0.01    +0.041 A  ATOM     32  C   UNL     1      42.354  47.012  18.965 -0.45 +0.01    +0.123 A  ATOM     33  F   UNL     1      43.598  47.383  19.293 -0.21 -0.07    -0.207 F  ENDBRANCH  25  27ENDBRANCH  10  25TORSDOF 4TERENDMDL