REMARK SMILES O=C(c1ccncc1)N1CCN(c2nc3ccccc3nc2Nc2ccc(F)cc2)CC1
REMARK SMILES IDX 13 1 14 2 15 3 16 4 17 5 18 6 19 7 20 8 21 9 22 10 12 11
REMARK SMILES IDX 2 12 9 13 10 14 32 15 11 16 31 17 1 18 3 19 4 20 8 21 5 22
REMARK SMILES IDX 7 23 6 24 23 25 24 27 25 28 30 29 26 30 29 31 27 32 28 33
REMARK H PARENT 23 26
ROOT
ATOM      1  C   UNL     1      -0.832   0.916  -0.537  1.00  0.00     0.172 A 
ATOM      2  N   UNL     1      -0.802   2.229  -0.217  1.00  0.00    -0.225 NA
ATOM      3  C   UNL     1      -1.918   2.765   0.308  1.00  0.00     0.091 A 
ATOM      4  C   UNL     1      -1.928   4.109   0.661  1.00  0.00     0.031 A 
ATOM      5  C   UNL     1      -3.061   4.707   1.215  1.00  0.00     0.002 A 
ATOM      6  C   UNL     1      -4.204   3.947   1.420  1.00  0.00     0.002 A 
ATOM      7  C   UNL     1      -4.205   2.597   1.069  1.00  0.00     0.031 A 
ATOM      8  C   UNL     1      -3.083   1.992   0.516  1.00  0.00     0.091 A 
ATOM      9  N   UNL     1      -3.130   0.690   0.190  1.00  0.00    -0.225 NA
ATOM     10  C   UNL     1      -2.021   0.146  -0.358  1.00  0.00     0.174 A 
ENDROOT
BRANCH   1  11
ATOM     11  N   UNL     1       0.326   0.307  -1.087  1.00  0.00    -0.350 N 
ATOM     12  C   UNL     1       4.104   0.532  -0.337  1.00  0.00     0.254 C 
ATOM     13  N   UNL     1       2.880   1.042   0.100  1.00  0.00    -0.335 N 
ATOM     14  C   UNL     1       1.931   0.214   0.859  1.00  0.00     0.141 C 
ATOM     15  C   UNL     1       2.199   1.987  -0.791  1.00  0.00     0.141 C 
ATOM     16  C   UNL     1       1.009  -0.575  -0.101  1.00  0.00     0.140 C 
ATOM     17  C   UNL     1       1.251   1.257  -1.765  1.00  0.00     0.140 C 
ATOM     18  O   UNL     1       4.589   0.788  -1.436  1.00  0.00    -0.269 OA
BRANCH  12  19
ATOM     19  C   UNL     1       4.875  -0.343   0.576  1.00  0.00     0.043 A 
ATOM     20  C   UNL     1       5.513  -1.465   0.052  1.00  0.00     0.034 A 
ATOM     21  C   UNL     1       5.022  -0.019   1.924  1.00  0.00     0.034 A 
ATOM     22  C   UNL     1       6.244  -2.251   0.921  1.00  0.00     0.112 A 
ATOM     23  C   UNL     1       5.776  -0.870   2.709  1.00  0.00     0.112 A 
ATOM     24  N   UNL     1       6.378  -1.984   2.239  1.00  0.00    -0.265 NA
ENDBRANCH  12  19
ENDBRANCH   1  11
BRANCH  10  25
ATOM     25  N   UNL     1      -1.996  -1.215  -0.774  1.00  0.00    -0.337 N 
ATOM     26  H   UNL     1      -1.392  -1.272  -1.591  1.00  0.00     0.168 HD
BRANCH  25  27
ATOM     27  C   UNL     1      -2.985  -2.211  -0.719  1.00  0.00     0.040 A 
ATOM     28  C   UNL     1      -4.044  -2.196   0.198  1.00  0.00     0.029 A 
ATOM     29  C   UNL     1      -2.851  -3.338  -1.551  1.00  0.00     0.029 A 
ATOM     30  C   UNL     1      -4.970  -3.243   0.250  1.00  0.00     0.041 A 
ATOM     31  C   UNL     1      -3.773  -4.387  -1.503  1.00  0.00     0.041 A 
ATOM     32  C   UNL     1      -4.829  -4.327  -0.604  1.00  0.00     0.123 A 
ATOM     33  F   UNL     1      -5.712  -5.332  -0.553  1.00  0.00    -0.207 F 
ENDBRANCH  25  27
ENDBRANCH  10  25
TORSDOF 4
