REMARK SMILES CNC1=C(c2ccc(C(N)=O)cc2)C=C(c2ccc(N3CCOCC3)cc2)N[C@@H]1N
REMARK SMILES IDX 3 1 4 2 14 3 15 4 28 5 29 6 2 8 1 9 5 11 6 12 13 13 7 14
REMARK SMILES IDX 12 15 8 16 9 17 10 18 11 19 30 22 16 25 17 26 27 27 18 28
REMARK SMILES IDX 26 29 19 30 20 31 21 32 25 33 22 34 24 35 23 36
REMARK H PARENT 28 7 2 10 10 20 10 21 30 23 30 24
ROOT
ATOM      1  C   UNL     1      -2.822  -1.682   0.598  1.00  0.00     0.056 C 
ATOM      2  C   UNL     1      -2.429  -0.457   0.145  1.00  0.00     0.006 C 
ATOM      3  C   UNL     1      -1.015  -0.133   0.011  1.00  0.00     0.037 C 
ATOM      4  C   UNL     1      -0.070  -1.017   0.355  1.00  0.00     0.044 C 
ATOM      5  N   UNL     1      -0.393  -2.288   0.767  1.00  0.00    -0.364 N 
ATOM      6  C   UNL     1      -1.744  -2.775   0.922  1.00  0.00     0.193 C 
ATOM      7  H   UNL     1       0.290  -2.711   1.387  1.00  0.00     0.162 HD
ENDROOT
BRANCH   1   8
ATOM      8  N   UNL     1      -4.181  -1.992   0.826  1.00  0.00    -0.388 N 
ATOM      9  C   UNL     1      -4.744  -3.308   1.037  1.00  0.00     0.139 C 
ATOM     10  H   UNL     1      -4.823  -1.335   0.391  1.00  0.00     0.160 HD
ENDBRANCH   1   8
BRANCH   2  11
ATOM     11  C   UNL     1      -3.434   0.584  -0.172  1.00  0.00    -0.016 A 
ATOM     12  C   UNL     1      -3.897   1.448   0.828  1.00  0.00     0.009 A 
ATOM     13  C   UNL     1      -3.912   0.724  -1.480  1.00  0.00     0.009 A 
ATOM     14  C   UNL     1      -4.841   2.435   0.528  1.00  0.00     0.014 A 
ATOM     15  C   UNL     1      -4.856   1.708  -1.781  1.00  0.00     0.014 A 
ATOM     16  C   UNL     1      -5.333   2.561  -0.777  1.00  0.00     0.039 A 
BRANCH  16  17
ATOM     17  C   UNL     1      -6.339   3.592  -1.150  1.00  0.00     0.248 C 
ATOM     18  N   UNL     1      -7.107   4.119  -0.149  1.00  0.00    -0.366 N 
ATOM     19  O   UNL     1      -6.506   3.938  -2.312  1.00  0.00    -0.270 OA
ATOM     20  H   UNL     1      -7.862   4.723  -0.450  1.00  0.00     0.159 HD
ATOM     21  H   UNL     1      -7.206   3.669   0.748  1.00  0.00     0.159 HD
ENDBRANCH  16  17
ENDBRANCH   2  11
BRANCH   6  22
ATOM     22  N   UNL     1      -1.982  -3.980   0.136  1.00  0.00    -0.306 NA
ATOM     23  H   UNL     1      -1.139  -4.538   0.229  1.00  0.00     0.121 HD
ATOM     24  H   UNL     1      -1.972  -3.661  -0.832  1.00  0.00     0.121 HD
ENDBRANCH   6  22
BRANCH   4  25
ATOM     25  C   UNL     1       1.359  -0.662   0.293  1.00  0.00    -0.002 A 
ATOM     26  C   UNL     1       2.254  -1.464  -0.421  1.00  0.00     0.012 A 
ATOM     27  C   UNL     1       1.861   0.456   0.964  1.00  0.00     0.012 A 
ATOM     28  C   UNL     1       3.618  -1.143  -0.480  1.00  0.00     0.026 A 
ATOM     29  C   UNL     1       3.224   0.770   0.900  1.00  0.00     0.026 A 
ATOM     30  C   UNL     1       4.133  -0.010   0.166  1.00  0.00     0.037 A 
BRANCH  30  31
ATOM     31  N   UNL     1       5.490   0.350   0.141  1.00  0.00    -0.367 N 
ATOM     32  C   UNL     1       6.468  -0.643  -0.355  1.00  0.00     0.145 C 
ATOM     33  C   UNL     1       5.739   1.696  -0.435  1.00  0.00     0.145 C 
ATOM     34  C   UNL     1       7.898  -0.139  -0.104  1.00  0.00     0.181 C 
ATOM     35  C   UNL     1       7.201   2.107  -0.197  1.00  0.00     0.181 C 
ATOM     36  O   UNL     1       8.120   1.138  -0.726  1.00  0.00    -0.378 OA
ENDBRANCH  30  31
ENDBRANCH   4  25
TORSDOF 6
