MODEL        4USER    Run = 4USERUSER    Estimated Free Energy of Binding    = -11.08 kcal/mol  [=(1)+(2)+(3)-(4)]USERUSER    (1) Final Intermolecular Energy     = -12.87 kcal/molUSER        vdW + Hbond + desolv Energy     = -12.83 kcal/molUSER        Electrostatic Energy            =  -0.04 kcal/molUSER        Moving Ligand-Fixed Receptor    = -12.87 kcal/molUSER        Moving Ligand-Moving Receptor   =  +0.00 kcal/molUSER    (2) Final Total Internal Energy     =  -1.03 kcal/molUSER    (3) Torsional Free Energy           =  +1.79 kcal/molUSER    (4) Unbound System's Energy         =  -1.03 kcal/molUSERUSERREMARK SMILES CNC1=C(c2ccc(S(N)(=O)=O)cc2)C=C(c2ccc3ccccc3c2)N[C@H]1NREMARK SMILES IDX 5 1 6 2 7 3 8 4 13 5 14 6 4 7 3 8 28 9 15 10 27 11 16 12REMARK SMILES IDX 2 14 1 15 29 17 17 20 18 21 26 22 19 23 25 24 20 25 24 26REMARK SMILES IDX 21 27 23 28 22 29 9 30 11 31 12 32 10 33REMARK H PARENT 27 13 2 16 29 18 29 19 10 34 10 35USER                              x       y       z     vdW  Elec       q    TypeUSER                           _______ _______ _______ _____ _____    ______ ____ROOTATOM      1  C   UNL     1      38.858  46.843  15.960 -0.42 +0.01    -0.016 A  ATOM      2  C   UNL     1      38.161  48.024  15.669 -0.46 -0.01    +0.010 A  ATOM      3  C   UNL     1      37.435  48.138  14.481 -0.52 -0.01    +0.022 A  ATOM      4  C   UNL     1      37.411  47.066  13.583 -0.46 -0.03    +0.082 A  ATOM      5  C   UNL     1      38.089  45.878  13.871 -0.38 -0.01    +0.022 A  ATOM      6  C   UNL     1      38.814  45.770  15.059 -0.35 -0.00    +0.010 A  ENDROOTBRANCH   1   7ATOM      7  C   UNL     1      39.618  46.727  17.224 -0.52 -0.00    +0.006 C  ATOM      8  C   UNL     1      40.809  47.370  17.379 -0.54 -0.01    +0.056 C  ATOM      9  C   UNL     1      41.609  47.197  18.713 -0.41 -0.00    +0.193 C  ATOM     10  C   UNL     1      39.085  45.900  18.302 -0.45 -0.01    +0.037 C  ATOM     11  N   UNL     1      40.796  46.634  19.763 -0.02 -0.01    -0.364 N  ATOM     12  C   UNL     1      39.678  45.870  19.505 -0.40 -0.00    +0.044 C  ATOM     13  H   UNL     1      41.357  46.296  20.538 +0.09 +0.02    +0.162 HD BRANCH   8  14ATOM     14  N   UNL     1      41.404  48.160  16.367 -0.17 +0.02    -0.388 N  ATOM     15  C   UNL     1      41.020  49.532  16.081 -0.55 -0.02    +0.139 C  ATOM     16  H   UNL     1      41.547  47.623  15.511 +0.13 -0.00    +0.160 HD ENDBRANCH   8  14BRANCH   9  17ATOM     17  N   UNL     1      42.845  46.478  18.432 +0.01 -0.04    -0.306 NA ATOM     18  H   UNL     1      42.605  45.818  17.695 -0.32 -0.01    +0.121 HD ATOM     19  H   UNL     1      43.461  47.152  17.979 -0.52 -0.00    +0.121 HD ENDBRANCH   9  17BRANCH  12  20ATOM     20  C   UNL     1      39.138  45.045  20.602 -0.36 -0.00    -0.002 A  ATOM     21  C   UNL     1      39.593  45.238  21.911 -0.30 +0.00    +0.011 A  ATOM     22  C   UNL     1      38.185  44.045  20.358 -0.32 -0.00    +0.019 A  ATOM     23  C   UNL     1      39.098  44.458  22.960 -0.26 +0.00    +0.009 A  ATOM     24  C   UNL     1      37.677  43.252  21.401 -0.35 -0.00    -0.018 A  ATOM     25  C   UNL     1      38.141  43.462  22.721 -0.32 -0.00    -0.018 A  ATOM     26  C   UNL     1      36.721  42.251  21.162 -0.48 +0.00    +0.009 A  ATOM     27  C   UNL     1      37.633  42.669  23.762 -0.37 +0.00    +0.009 A  ATOM     28  C   UNL     1      36.227  41.471  22.209 -0.54 +0.00    +0.001 A  ATOM     29  C   UNL     1      36.681  41.680  23.507 -0.43 +0.00    +0.001 A  ENDBRANCH  12  20ENDBRANCH   1   7BRANCH   4  30ATOM     30  S   UNL     1      36.466  47.194  12.093 -0.71 -0.11    +0.238 S  ATOM     31  O   UNL     1      35.629  46.025  11.958 -0.53 +0.11    -0.207 OA ATOM     32  O   UNL     1      35.949  48.537  11.970 -0.66 +0.11    -0.207 OA BRANCH  30  33ATOM     33  N   UNL     1      37.656  47.049  10.917 -0.57 +0.04    -0.225 NA ATOM     34  H   UNL     1      37.539  46.165  10.419 +0.08 -0.03    +0.137 HD ATOM     35  H   UNL     1      37.638  47.867  10.308 -0.41 -0.04    +0.137 HD ENDBRANCH  30  33ENDBRANCH   4  30TORSDOF 6TERENDMDL