MODEL        5USER    Run = 5USERUSER    Estimated Free Energy of Binding    = -10.42 kcal/mol  [=(1)+(2)+(3)-(4)]USERUSER    (1) Final Intermolecular Energy     = -12.21 kcal/molUSER        vdW + Hbond + desolv Energy     = -12.01 kcal/molUSER        Electrostatic Energy            =  -0.20 kcal/molUSER        Moving Ligand-Fixed Receptor    = -12.21 kcal/molUSER        Moving Ligand-Moving Receptor   =  +0.00 kcal/molUSER    (2) Final Total Internal Energy     =  -1.31 kcal/molUSER    (3) Torsional Free Energy           =  +1.79 kcal/molUSER    (4) Unbound System's Energy         =  -1.31 kcal/molUSERUSERREMARK SMILES CNC1=C(c2ccc(C(N)=O)cc2)C=C(c2ccc(N3CCOCC3)cc2)N[C@@H]1NREMARK SMILES IDX 3 1 4 2 14 3 15 4 28 5 29 6 2 8 1 9 5 11 6 12 13 13 7 14REMARK SMILES IDX 12 15 8 16 9 17 10 18 11 19 30 22 16 25 17 26 27 27 18 28REMARK SMILES IDX 26 29 19 30 20 31 21 32 25 33 22 34 24 35 23 36REMARK H PARENT 28 7 2 10 10 20 10 21 30 23 30 24USER                              x       y       z     vdW  Elec       q    TypeUSER                           _______ _______ _______ _____ _____    ______ ____ROOTATOM      1  C   UNL     1      34.069  43.140  17.127 -0.38 -0.02    +0.056 C  ATOM      2  C   UNL     1      35.224  43.818  17.389 -0.37 -0.00    +0.006 C  ATOM      3  C   UNL     1      35.917  43.642  18.658 -0.37 -0.01    +0.037 C  ATOM      4  C   UNL     1      35.425  42.836  19.607 -0.46 -0.00    +0.044 C  ATOM      5  N   UNL     1      34.296  42.082  19.391 -0.17 +0.01    -0.364 N  ATOM      6  C   UNL     1      33.513  42.117  18.178 -0.33 -0.04    +0.193 C  ATOM      7  H   UNL     1      33.774  41.863  20.234 +0.10 +0.05    +0.162 HD ENDROOTBRANCH   1   8ATOM      8  N   UNL     1      33.327  43.359  15.946 -0.09 +0.19    -0.388 N  ATOM      9  C   UNL     1      32.461  44.484  15.665 -0.31 -0.08    +0.139 C  ATOM     10  H   UNL     1      33.050  42.501  15.479 -0.45 -0.11    +0.160 HD ENDBRANCH   1   8BRANCH   2  11ATOM     11  C   UNL     1      35.767  44.782  16.405 -0.32 +0.01    -0.016 A  ATOM     12  C   UNL     1      36.242  44.337  15.165 -0.36 -0.00    +0.009 A  ATOM     13  C   UNL     1      35.789  46.150  16.700 -0.36 -0.01    +0.009 A  ATOM     14  C   UNL     1      36.749  45.248  14.233 -0.41 -0.01    +0.014 A  ATOM     15  C   UNL     1      36.297  47.061  15.772 -0.33 -0.01    +0.014 A  ATOM     16  C   UNL     1      36.789  46.614  14.538 -0.40 -0.02    +0.039 A  BRANCH  16  17ATOM     17  C   UNL     1      37.320  47.625  13.585 -0.42 -0.10    +0.248 C  ATOM     18  N   UNL     1      37.799  48.796  14.104 -0.23 +0.21    -0.366 N  ATOM     19  O   UNL     1      37.301  47.442  12.375 -1.07 +0.06    -0.270 OA ATOM     20  H   UNL     1      38.037  49.509  13.426 -0.37 -0.08    +0.159 HD ATOM     21  H   UNL     1      37.573  49.103  15.038 +0.00 -0.14    +0.159 HD ENDBRANCH  16  17ENDBRANCH   2  11BRANCH   6  22ATOM     22  N   UNL     1      33.373  40.793  17.582 -0.17 +0.14    -0.306 NA ATOM     23  H   UNL     1      34.286  40.568  17.198 -0.52 -0.11    +0.121 HD ATOM     24  H   UNL     1      32.781  40.941  16.765 -0.39 -0.09    +0.121 HD ENDBRANCH   6  22BRANCH   4  25ATOM     25  C   UNL     1      36.084  42.719  20.919 -0.46 -0.00    -0.002 A  ATOM     26  C   UNL     1      36.684  43.835  21.509 -0.37 +0.00    +0.012 A  ATOM     27  C   UNL     1      36.155  41.496  21.591 -0.54 +0.00    +0.012 A  ATOM     28  C   UNL     1      37.324  43.735  22.753 -0.36 +0.00    +0.026 A  ATOM     29  C   UNL     1      36.795  41.404  22.833 -0.47 +0.00    +0.026 A  ATOM     30  C   UNL     1      37.381  42.520  23.452 -0.39 +0.00    +0.037 A  BRANCH  30  31ATOM     31  N   UNL     1      38.013  42.368  24.696 -0.10 -0.02    -0.367 N  ATOM     32  C   UNL     1      39.018  43.377  25.098 -0.17 +0.00    +0.145 C  ATOM     33  C   UNL     1      37.077  42.059  25.807 -0.35 -0.02    +0.145 C  ATOM     34  C   UNL     1      39.737  42.919  26.377 -0.16 -0.00    +0.181 C  ATOM     35  C   UNL     1      37.867  41.666  27.066 -0.35 -0.02    +0.181 C  ATOM     36  O   UNL     1      38.805  42.686  27.446 -0.12 +0.03    -0.378 OA ENDBRANCH  30  31ENDBRANCH   4  25TORSDOF 6TERENDMDL