MODEL        8USER    Run = 8USERUSER    Estimated Free Energy of Binding    = -10.96 kcal/mol  [=(1)+(2)+(3)-(4)]USERUSER    (1) Final Intermolecular Energy     = -12.45 kcal/molUSER        vdW + Hbond + desolv Energy     = -12.35 kcal/molUSER        Electrostatic Energy            =  -0.10 kcal/molUSER        Moving Ligand-Fixed Receptor    = -12.45 kcal/molUSER        Moving Ligand-Moving Receptor   =  +0.00 kcal/molUSER    (2) Final Total Internal Energy     =  -1.15 kcal/molUSER    (3) Torsional Free Energy           =  +1.49 kcal/molUSER    (4) Unbound System's Energy         =  -1.15 kcal/molUSERUSERREMARK SMILES CNC1=C(c2ccc(C(N)=O)cc2)C=C(c2ccc3ncccc3c2)N[C@H]1NREMARK SMILES IDX 3 1 4 2 14 3 15 4 26 5 27 6 2 8 1 9 5 11 6 12 13 13 7 14REMARK SMILES IDX 12 15 8 16 9 17 10 18 11 19 28 22 16 25 17 26 25 27 18 28REMARK SMILES IDX 24 29 19 30 23 31 20 32 22 33 21 34REMARK H PARENT 26 7 2 10 10 20 10 21 28 23 28 24USER                              x       y       z     vdW  Elec       q    TypeUSER                           _______ _______ _______ _____ _____    ______ ____ROOTATOM      1  C   UNL     1      40.734  47.484  17.469 -0.54 -0.01    +0.056 C  ATOM      2  C   UNL     1      39.564  46.818  17.255 -0.52 -0.00    +0.006 C  ATOM      3  C   UNL     1      39.028  45.954  18.308 -0.43 -0.01    +0.037 C  ATOM      4  C   UNL     1      39.763  45.651  19.387 -0.43 -0.00    +0.044 C  ATOM      5  N   UNL     1      41.033  46.154  19.562 -0.19 -0.02    -0.364 N  ATOM      6  C   UNL     1      41.453  47.346  18.859 -0.23 -0.00    +0.193 C  ATOM      7  H   UNL     1      41.341  46.121  20.526 +0.09 +0.02    +0.162 HD ENDROOTBRANCH   1   8ATOM      8  N   UNL     1      41.415  48.331  16.564 -0.22 +0.02    -0.388 N  ATOM      9  C   UNL     1      41.049  48.500  15.168 -0.51 -0.02    +0.139 C  ATOM     10  H   UNL     1      42.418  48.106  16.646 -0.40 +0.01    +0.160 HD ENDBRANCH   1   8BRANCH   2  11ATOM     11  C   UNL     1      38.779  46.977  16.010 -0.43 +0.01    -0.016 A  ATOM     12  C   UNL     1      38.690  45.918  15.096 -0.39 -0.00    +0.009 A  ATOM     13  C   UNL     1      38.075  48.161  15.758 -0.41 -0.01    +0.009 A  ATOM     14  C   UNL     1      37.911  46.042  13.940 -0.42 -0.00    +0.014 A  ATOM     15  C   UNL     1      37.299  48.289  14.601 -0.53 -0.01    +0.014 A  ATOM     16  C   UNL     1      37.204  47.225  13.697 -0.50 -0.02    +0.039 A  BRANCH  16  17ATOM     17  C   UNL     1      36.356  47.402  12.487 -0.54 -0.12    +0.248 C  ATOM     18  N   UNL     1      35.722  46.293  11.997 -0.32 +0.20    -0.366 N  ATOM     19  O   UNL     1      36.189  48.497  11.967 -0.78 +0.12    -0.270 OA ATOM     20  H   UNL     1      35.036  46.474  11.273 -0.20 -0.12    +0.159 HD ATOM     21  H   UNL     1      35.579  45.472  12.567 +0.11 -0.08    +0.159 HD ENDBRANCH  16  17ENDBRANCH   2  11BRANCH   6  22ATOM     22  N   UNL     1      42.898  47.444  18.658 -0.34 -0.02    -0.306 NA ATOM     23  H   UNL     1      43.051  47.449  17.655 -0.53 -0.03    +0.121 HD ATOM     24  H   UNL     1      43.132  48.389  18.964 -0.36 -0.01    +0.121 HD ENDBRANCH   6  22BRANCH   4  25ATOM     25  C   UNL     1      39.224  44.765  20.424 -0.36 -0.00    -0.002 A  ATOM     26  C   UNL     1      39.859  44.667  21.664 -0.29 +0.00    +0.012 A  ATOM     27  C   UNL     1      38.079  44.000  20.180 -0.32 -0.00    +0.020 A  ATOM     28  C   UNL     1      39.351  43.806  22.644 -0.25 +0.00    +0.029 A  ATOM     29  C   UNL     1      37.573  43.140  21.171 -0.34 +0.00    +0.001 A  ATOM     30  C   UNL     1      38.216  43.037  22.423 -0.30 +0.00    +0.070 A  ATOM     31  C   UNL     1      36.426  42.362  20.956 -0.48 +0.00    +0.012 A  ATOM     32  N   UNL     1      37.769  42.226  23.398 -0.22 -0.02    -0.256 NA ATOM     33  C   UNL     1      35.964  41.520  21.960 -0.43 +0.00    +0.021 A  ATOM     34  C   UNL     1      36.664  41.488  23.151 -0.36 +0.00    +0.112 A  ENDBRANCH   4  25TORSDOF 5TERENDMDL