REMARK SMILES CNC1=C(c2ccc(C(N)=O)cc2)C=C(c2ccc3ncccc3c2)N[C@H]1N
REMARK SMILES IDX 3 1 4 2 14 3 15 4 26 5 27 6 2 8 1 9 5 11 6 12 13 13 7 14
REMARK SMILES IDX 12 15 8 16 9 17 10 18 11 19 28 22 16 25 17 26 25 27 18 28
REMARK SMILES IDX 24 29 19 30 23 31 20 32 22 33 21 34
REMARK H PARENT 26 7 2 10 10 20 10 21 28 23 28 24
ROOT
ATOM      1  C   UNL     1      -1.026  -2.088   0.571  1.00  0.00     0.056 C 
ATOM      2  C   UNL     1      -1.049  -0.782   0.179  1.00  0.00     0.006 C 
ATOM      3  C   UNL     1       0.211  -0.048   0.060  1.00  0.00     0.037 C 
ATOM      4  C   UNL     1       1.357  -0.570   0.520  1.00  0.00     0.044 C 
ATOM      5  N   UNL     1       1.401  -1.820   1.098  1.00  0.00    -0.364 N 
ATOM      6  C   UNL     1       0.357  -2.786   0.838  1.00  0.00     0.193 C 
ATOM      7  H   UNL     1       2.332  -2.219   1.103  1.00  0.00     0.162 HD
ENDROOT
BRANCH   1   8
ATOM      8  N   UNL     1      -2.135  -2.942   0.771  1.00  0.00    -0.388 N 
ATOM      9  C   UNL     1      -3.360  -2.547   1.445  1.00  0.00     0.139 C 
ATOM     10  H   UNL     1      -1.767  -3.814   1.179  1.00  0.00     0.160 HD
ENDBRANCH   1   8
BRANCH   2  11
ATOM     11  C   UNL     1      -2.304  -0.088  -0.186  1.00  0.00    -0.016 A 
ATOM     12  C   UNL     1      -2.798   0.943   0.625  1.00  0.00     0.009 A 
ATOM     13  C   UNL     1      -2.980  -0.413  -1.369  1.00  0.00     0.009 A 
ATOM     14  C   UNL     1      -3.957   1.638   0.263  1.00  0.00     0.014 A 
ATOM     15  C   UNL     1      -4.141   0.277  -1.731  1.00  0.00     0.014 A 
ATOM     16  C   UNL     1      -4.625   1.313  -0.924  1.00  0.00     0.039 A 
BRANCH  16  17
ATOM     17  C   UNL     1      -5.856   2.028  -1.356  1.00  0.00     0.248 C 
ATOM     18  N   UNL     1      -6.039   3.301  -0.890  1.00  0.00    -0.366 N 
ATOM     19  O   UNL     1      -6.658   1.526  -2.132  1.00  0.00    -0.270 OA
ATOM     20  H   UNL     1      -6.800   3.812  -1.322  1.00  0.00     0.159 HD
ATOM     21  H   UNL     1      -5.270   3.846  -0.528  1.00  0.00     0.159 HD
ENDBRANCH  16  17
ENDBRANCH   2  11
BRANCH   6  22
ATOM     22  N   UNL     1       0.189  -3.784   1.893  1.00  0.00    -0.306 NA
ATOM     23  H   UNL     1       1.103  -4.197   2.049  1.00  0.00     0.121 HD
ATOM     24  H   UNL     1       0.002  -3.235   2.732  1.00  0.00     0.121 HD
ENDBRANCH   6  22
BRANCH   4  25
ATOM     25  C   UNL     1       2.609   0.186   0.416  1.00  0.00    -0.002 A 
ATOM     26  C   UNL     1       3.017   1.017   1.462  1.00  0.00     0.012 A 
ATOM     27  C   UNL     1       3.400   0.096  -0.734  1.00  0.00     0.020 A 
ATOM     28  C   UNL     1       4.203   1.751   1.350  1.00  0.00     0.029 A 
ATOM     29  C   UNL     1       4.593   0.834  -0.837  1.00  0.00     0.001 A 
ATOM     30  C   UNL     1       5.004   1.677   0.218  1.00  0.00     0.070 A 
ATOM     31  C   UNL     1       5.408   0.762  -1.976  1.00  0.00     0.012 A 
ATOM     32  N   UNL     1       6.135   2.402   0.161  1.00  0.00    -0.256 NA
ATOM     33  C   UNL     1       6.574   1.514  -2.040  1.00  0.00     0.021 A 
ATOM     34  C   UNL     1       6.891   2.311  -0.956  1.00  0.00     0.112 A 
ENDBRANCH   4  25
TORSDOF 5
