REMARK SMILES CNC1=C(c2ccc(S(N)(=O)=O)cc2)C=C(c2ccc3ccccc3c2)N[C@H]1N
REMARK SMILES IDX 5 1 6 2 7 3 8 4 13 5 14 6 4 7 3 8 28 9 15 10 27 11 16 12
REMARK SMILES IDX 2 14 1 15 29 17 17 20 18 21 26 22 19 23 25 24 20 25 24 26
REMARK SMILES IDX 21 27 23 28 22 29 9 30 11 31 12 32 10 33
REMARK H PARENT 27 13 2 16 29 18 29 19 10 34 10 35
ROOT
ATOM      1  C   UNL     1       2.211   0.055   0.313  1.00  0.00    -0.016 A 
ATOM      2  C   UNL     1       2.720  -0.825   1.278  1.00  0.00     0.010 A 
ATOM      3  C   UNL     1       3.833  -0.465   2.041  1.00  0.00     0.022 A 
ATOM      4  C   UNL     1       4.438   0.778   1.832  1.00  0.00     0.082 A 
ATOM      5  C   UNL     1       3.929   1.670   0.884  1.00  0.00     0.022 A 
ATOM      6  C   UNL     1       2.816   1.305   0.124  1.00  0.00     0.010 A 
ENDROOT
BRANCH   1   7
ATOM      7  C   UNL     1       1.026  -0.330  -0.485  1.00  0.00     0.006 C 
ATOM      8  C   UNL     1       1.169  -0.817  -1.750  1.00  0.00     0.056 C 
ATOM      9  C   UNL     1      -0.104  -1.179  -2.584  1.00  0.00     0.193 C 
ATOM     10  C   UNL     1      -0.305  -0.166   0.091  1.00  0.00     0.037 C 
ATOM     11  N   UNL     1      -1.284  -1.269  -1.759  1.00  0.00    -0.364 N 
ATOM     12  C   UNL     1      -1.393  -0.619  -0.549  1.00  0.00     0.044 C 
ATOM     13  H   UNL     1      -2.135  -1.259  -2.312  1.00  0.00     0.162 HD
BRANCH   8  14
ATOM     14  N   UNL     1       2.424  -0.971  -2.386  1.00  0.00    -0.388 N 
ATOM     15  C   UNL     1       2.728  -2.032  -3.331  1.00  0.00     0.139 C 
ATOM     16  H   UNL     1       3.193  -0.816  -1.734  1.00  0.00     0.160 HD
ENDBRANCH   8  14
BRANCH   9  17
ATOM     17  N   UNL     1      -0.205  -0.263  -3.713  1.00  0.00    -0.306 NA
ATOM     18  H   UNL     1      -0.466   0.632  -3.304  1.00  0.00     0.121 HD
ATOM     19  H   UNL     1       0.750  -0.122  -4.042  1.00  0.00     0.121 HD
ENDBRANCH   9  17
BRANCH  12  20
ATOM     20  C   UNL     1      -2.740  -0.467   0.033  1.00  0.00    -0.002 A 
ATOM     21  C   UNL     1      -3.576  -1.581   0.161  1.00  0.00     0.011 A 
ATOM     22  C   UNL     1      -3.216   0.787   0.445  1.00  0.00     0.019 A 
ATOM     23  C   UNL     1      -4.859  -1.451   0.702  1.00  0.00     0.009 A 
ATOM     24  C   UNL     1      -4.503   0.935   0.990  1.00  0.00    -0.018 A 
ATOM     25  C   UNL     1      -5.335  -0.201   1.121  1.00  0.00    -0.018 A 
ATOM     26  C   UNL     1      -4.983   2.188   1.406  1.00  0.00     0.009 A 
ATOM     27  C   UNL     1      -6.621  -0.052   1.666  1.00  0.00     0.009 A 
ATOM     28  C   UNL     1      -6.264   2.318   1.946  1.00  0.00     0.001 A 
ATOM     29  C   UNL     1      -7.081   1.200   2.076  1.00  0.00     0.001 A 
ENDBRANCH  12  20
ENDBRANCH   1   7
BRANCH   4  30
ATOM     30  S   UNL     1       5.828   1.251   2.819  1.00  0.00     0.238 S 
ATOM     31  O   UNL     1       5.933   2.691   2.835  1.00  0.00    -0.207 OA
ATOM     32  O   UNL     1       5.849   0.458   4.025  1.00  0.00    -0.207 OA
BRANCH  30  33
ATOM     33  N   UNL     1       7.114   0.705   1.887  1.00  0.00    -0.225 NA
ATOM     34  H   UNL     1       7.688   1.498   1.597  1.00  0.00     0.137 HD
ATOM     35  H   UNL     1       7.631  -0.009   2.400  1.00  0.00     0.137 HD
ENDBRANCH  30  33
ENDBRANCH   4  30
TORSDOF 6
