
     RDKit          3D

 81 85  0  0  0  0  0  0  0  0999 V2000
   10.2211   -1.6654    1.1564 C   0  0  0  0  0  0  0  0  0  0  0  0
    8.9986   -0.9417    1.0954 O   0  0  0  0  0  0  0  0  0  0  0  0
    8.9365    0.1176    0.2295 C   0  0  0  0  0  0  0  0  0  0  0  0
    9.9472    0.5007   -0.6547 C   0  0  0  0  0  0  0  0  0  0  0  0
    9.7659    1.6105   -1.4838 C   0  0  0  0  0  0  0  0  0  0  0  0
    8.5736    2.3313   -1.4384 C   0  0  0  0  0  0  0  0  0  0  0  0
    8.4927    3.4189   -2.2674 O   0  0  0  0  0  0  0  0  0  0  0  0
    7.5346    1.9444   -0.5825 C   0  0  0  0  0  0  0  0  0  0  0  0
    6.2715    2.7198   -0.5720 C   0  0  0  0  0  0  0  0  0  0  0  0
    6.2968    3.8921   -0.9478 O   0  0  0  0  0  0  0  0  0  0  0  0
    4.9770    2.1303   -0.1651 C   0  0  0  0  0  0  0  0  0  0  0  0
    4.1602    2.8495    0.7127 C   0  0  0  0  0  0  0  0  0  0  0  0
    2.9426    2.3061    1.1303 C   0  0  0  0  0  0  0  0  0  0  0  0
    2.5242    1.0565    0.6519 C   0  0  0  0  0  0  0  0  0  0  0  0
    1.2346    0.4989    1.1512 C   0  0  0  0  0  0  0  0  0  0  0  0
    0.7508    0.9107    2.2008 O   0  0  0  0  0  0  0  0  0  0  0  0
    0.6340   -0.4535    0.3516 N   0  0  0  0  0  0  0  0  0  0  0  0
   -0.7136   -0.9486    0.6452 C   0  0  2  0  0  0  0  0  0  0  0  0
   -0.7778   -1.8002    1.9120 C   0  0  0  0  0  0  0  0  0  0  0  0
   -2.2419   -2.1307    2.1918 C   0  0  0  0  0  0  0  0  0  0  0  0
   -2.8770   -2.8803    1.1158 N   0  0  0  0  0  0  0  0  0  0  0  0
   -4.3427   -2.8178    1.0903 C   0  0  0  0  0  0  0  0  0  0  0  0
   -4.9168   -1.4695    0.6123 C   0  0  0  0  0  0  0  0  0  0  0  0
   -4.2550   -0.6696   -0.0560 O   0  0  0  0  0  0  0  0  0  0  0  0
   -6.2385   -1.1778    0.9493 N   0  0  0  0  0  0  0  0  0  0  0  0
   -7.2061   -2.1247    1.4993 C   0  0  0  0  0  0  0  0  0  0  0  0
   -7.9297   -1.5118    2.6912 C   0  0  0  0  0  0  0  0  0  0  0  0
   -8.4374   -0.0958    2.4146 C   0  0  0  0  0  0  0  0  0  0  0  0
   -9.7819   -0.0810    2.6627 F   0  0  0  0  0  0  0  0  0  0  0  0
   -8.2040    0.3792    0.9861 C   0  0  0  0  0  0  0  0  0  0  0  0
   -8.4602    1.7165    0.9080 F   0  0  0  0  0  0  0  0  0  0  0  0
   -6.7628    0.1317    0.5563 C   0  0  0  0  0  0  0  0  0  0  0  0
   -2.1917   -2.9246   -0.1709 C   0  0  0  0  0  0  0  0  0  0  0  0
   -1.2849   -1.7324   -0.5655 C   0  0  1  0  0  0  0  0  0  0  0  0
   -1.9631   -0.8134   -1.4789 N   0  0  0  0  0  0  0  0  0  0  0  0
   -1.2472    0.0294   -2.3032 C   0  0  0  0  0  0  0  0  0  0  0  0
   -0.0293   -0.0555   -2.4446 O   0  0  0  0  0  0  0  0  0  0  0  0
   -2.0104    1.0707   -3.0385 C   0  0  0  0  0  0  0  0  0  0  0  0
   -3.1921    1.6233   -2.5451 C   0  0  0  0  0  0  0  0  0  0  0  0
   -3.8242    2.5863   -3.3124 C   0  0  0  0  0  0  0  0  0  0  0  0
   -3.3643    3.0187   -4.5054 N   0  0  0  0  0  0  0  0  0  0  0  0
   -2.2074    2.4823   -4.9478 C   0  0  0  0  0  0  0  0  0  0  0  0
   -1.4966    1.5193   -4.2564 C   0  0  0  0  0  0  0  0  0  0  0  0
    3.3356    0.3531   -0.2508 C   0  0  0  0  0  0  0  0  0  0  0  0
    4.5574    0.8923   -0.6654 C   0  0  0  0  0  0  0  0  0  0  0  0
    7.7410    0.8511    0.2618 C   0  0  0  0  0  0  0  0  0  0  0  0
    6.7996    0.4946    1.1508 F   0  0  0  0  0  0  0  0  0  0  0  0
   10.4412   -2.1471    0.1987 H   0  0  0  0  0  0  0  0  0  0  0  0
   11.0460   -1.0211    1.4770 H   0  0  0  0  0  0  0  0  0  0  0  0
   10.1033   -2.4547    1.9054 H   0  0  0  0  0  0  0  0  0  0  0  0
   10.8888   -0.0350   -0.7181 H   0  0  0  0  0  0  0  0  0  0  0  0
   10.5573    1.9194   -2.1636 H   0  0  0  0  0  0  0  0  0  0  0  0
    7.6828    3.9257   -2.0244 H   0  0  0  0  0  0  0  0  0  0  0  0
    4.4733    3.8222    1.0849 H   0  0  0  0  0  0  0  0  0  0  0  0
    2.3201    2.8585    1.8313 H   0  0  0  0  0  0  0  0  0  0  0  0
    0.8375   -0.3590   -0.6449 H   0  0  0  0  0  0  0  0  0  0  0  0
   -1.3262   -0.0512    0.8143 H   0  0  0  0  0  0  0  0  0  0  0  0
   -0.1813   -2.7147    1.8006 H   0  0  0  0  0  0  0  0  0  0  0  0
   -0.3642   -1.2657    2.7740 H   0  0  0  0  0  0  0  0  0  0  0  0
   -2.7758   -1.1905    2.3828 H   0  0  0  0  0  0  0  0  0  0  0  0
   -2.3024   -2.7209    3.1148 H   0  0  0  0  0  0  0  0  0  0  0  0
   -4.6950   -3.0235    2.1076 H   0  0  0  0  0  0  0  0  0  0  0  0
   -4.7402   -3.6048    0.4378 H   0  0  0  0  0  0  0  0  0  0  0  0
   -6.7432   -3.0702    1.7890 H   0  0  0  0  0  0  0  0  0  0  0  0
   -7.9165   -2.3630    0.6982 H   0  0  0  0  0  0  0  0  0  0  0  0
   -7.2338   -1.4709    3.5402 H   0  0  0  0  0  0  0  0  0  0  0  0
   -8.7570   -2.1629    2.9975 H   0  0  0  0  0  0  0  0  0  0  0  0
   -7.9910    0.6119    3.1225 H   0  0  0  0  0  0  0  0  0  0  0  0
   -8.9056   -0.1210    0.3085 H   0  0  0  0  0  0  0  0  0  0  0  0
   -6.6823    0.2283   -0.5339 H   0  0  0  0  0  0  0  0  0  0  0  0
   -6.1063    0.9008    0.9824 H   0  0  0  0  0  0  0  0  0  0  0  0
   -2.8874   -3.1578   -0.9875 H   0  0  0  0  0  0  0  0  0  0  0  0
   -1.5369   -3.8057   -0.1160 H   0  0  0  0  0  0  0  0  0  0  0  0
   -0.4486   -2.1631   -1.1339 H   0  0  0  0  0  0  0  0  0  0  0  0
   -2.9307   -0.6029   -1.2386 H   0  0  0  0  0  0  0  0  0  0  0  0
   -3.6107    1.3489   -1.5849 H   0  0  0  0  0  0  0  0  0  0  0  0
   -4.7428    3.0573   -2.9746 H   0  0  0  0  0  0  0  0  0  0  0  0
   -1.8561    2.8600   -5.9034 H   0  0  0  0  0  0  0  0  0  0  0  0
   -0.5698    1.1231   -4.6582 H   0  0  0  0  0  0  0  0  0  0  0  0
    3.0438   -0.6260   -0.6226 H   0  0  0  0  0  0  0  0  0  0  0  0
    5.1706    0.3342   -1.3675 H   0  0  0  0  0  0  0  0  0  0  0  0
  1  2  1  0
  2  3  1  0
  3  4  2  0
  4  5  1  0
  5  6  2  0
  6  7  1  0
  6  8  1  0
  8  9  1  0
  9 10  2  0
  9 11  1  0
 11 12  2  0
 12 13  1  0
 13 14  2  0
 14 15  1  0
 15 16  2  0
 15 17  1  0
 17 18  1  0
 18 19  1  0
 19 20  1  0
 20 21  1  0
 21 22  1  0
 22 23  1  0
 23 24  2  0
 23 25  1  0
 25 26  1  0
 26 27  1  0
 27 28  1  0
 28 29  1  0
 28 30  1  0
 30 31  1  0
 30 32  1  0
 21 33  1  0
 33 34  1  0
 34 35  1  0
 35 36  1  0
 36 37  2  0
 36 38  1  0
 38 39  2  0
 39 40  1  0
 40 41  2  0
 41 42  1  0
 42 43  2  0
 14 44  1  0
 44 45  2  0
  8 46  2  0
 46 47  1  0
 46  3  1  0
 45 11  1  0
 34 18  1  0
 43 38  1  0
 32 25  1  0
  1 48  1  0
  1 49  1  0
  1 50  1  0
  4 51  1  0
  5 52  1  0
  7 53  1  0
 12 54  1  0
 13 55  1  0
 17 56  1  0
 18 57  1  1
 19 58  1  0
 19 59  1  0
 20 60  1  0
 20 61  1  0
 22 62  1  0
 22 63  1  0
 26 64  1  0
 26 65  1  0
 27 66  1  0
 27 67  1  0
 28 68  1  0
 30 69  1  0
 32 70  1  0
 32 71  1  0
 33 72  1  0
 33 73  1  0
 34 74  1  6
 35 75  1  0
 39 76  1  0
 40 77  1  0
 42 78  1  0
 43 79  1  0
 44 80  1  0
 45 81  1  0
M  END
$$$$
