
     RDKit          3D

 69 75  0  0  0  0  0  0  0  0999 V2000
    6.5707   -3.0241   -1.7554 O   0  0  0  0  0  0  0  0  0  0  0  0
    6.7568   -2.1126   -0.8221 C   0  0  0  0  0  0  0  0  0  0  0  0
    7.8686   -2.0564   -0.1462 N   0  0  0  0  0  0  0  0  0  0  0  0
    7.6897   -0.9986    0.7052 C   0  0  0  0  0  0  0  0  0  0  0  0
    8.5818   -0.4938    1.6656 C   0  0  0  0  0  0  0  0  0  0  0  0
    8.2009    0.6087    2.4335 C   0  0  0  0  0  0  0  0  0  0  0  0
    6.9546    1.2004    2.2455 C   0  0  0  0  0  0  0  0  0  0  0  0
    6.0506    0.7099    1.2932 C   0  0  0  0  0  0  0  0  0  0  0  0
    6.4343   -0.4002    0.5299 C   0  0  0  0  0  0  0  0  0  0  0  0
    5.8406   -1.1534   -0.4626 N   0  0  0  0  0  0  0  0  0  0  0  0
    4.5141   -1.0444   -1.0663 C   0  0  0  0  0  0  0  0  0  0  0  0
    4.3265    0.1940   -1.9550 C   0  0  0  0  0  0  0  0  0  0  0  0
    3.5049    1.3116   -1.3223 C   0  0  0  0  0  0  0  0  0  0  0  0
    2.2790    0.8555   -0.6628 N   0  0  0  0  0  0  0  0  0  0  0  0
    1.2650    0.3986   -1.6278 C   0  0  0  0  0  0  0  0  0  0  0  0
   -0.1144    0.2552   -1.0206 C   0  0  0  0  0  0  0  0  0  0  0  0
   -0.7102   -1.0043   -0.8777 C   0  0  0  0  0  0  0  0  0  0  0  0
   -1.9852   -1.1262   -0.3179 C   0  0  0  0  0  0  0  0  0  0  0  0
   -2.6998    0.0069    0.1003 C   0  0  0  0  0  0  0  0  0  0  0  0
   -4.0407   -0.1225    0.6892 C   0  0  0  0  0  0  0  0  0  0  0  0
   -4.1737   -0.6695    1.9741 C   0  0  0  0  0  0  0  0  0  0  0  0
   -5.4280   -0.7665    2.5891 C   0  0  0  0  0  0  0  0  0  0  0  0
   -5.5830   -1.3084    3.8775 C   0  0  0  0  0  0  0  0  0  0  0  0
   -6.8453   -1.3846    4.4629 C   0  0  0  0  0  0  0  0  0  0  0  0
   -7.9538   -0.9192    3.7650 C   0  0  0  0  0  0  0  0  0  0  0  0
   -7.7933   -0.3811    2.4846 C   0  0  0  0  0  0  0  0  0  0  0  0
   -6.5465   -0.2951    1.8790 C   0  0  0  0  0  0  0  0  0  0  0  0
   -6.4451    0.2296    0.6480 N   0  0  0  0  0  0  0  0  0  0  0  0
   -5.2194    0.3058    0.0551 C   0  0  0  0  0  0  0  0  0  0  0  0
   -5.2625    0.8763   -1.3053 C   0  0  0  0  0  0  0  0  0  0  0  0
   -5.8047    2.1549   -1.5245 C   0  0  0  0  0  0  0  0  0  0  0  0
   -5.8511    2.7103   -2.8064 C   0  0  0  0  0  0  0  0  0  0  0  0
   -5.3641    1.9915   -3.8951 C   0  0  0  0  0  0  0  0  0  0  0  0
   -4.8376    0.7164   -3.7038 C   0  0  0  0  0  0  0  0  0  0  0  0
   -4.7916    0.1630   -2.4209 C   0  0  0  0  0  0  0  0  0  0  0  0
   -2.0956    1.2644   -0.0402 C   0  0  0  0  0  0  0  0  0  0  0  0
   -0.8176    1.3877   -0.5909 C   0  0  0  0  0  0  0  0  0  0  0  0
    2.5874   -0.1234    0.3830 C   0  0  0  0  0  0  0  0  0  0  0  0
    3.3537   -1.3486   -0.1057 C   0  0  0  0  0  0  0  0  0  0  0  0
    7.4192   -3.5033   -1.7196 H   0  0  0  0  0  0  0  0  0  0  0  0
    9.5508   -0.9623    1.8008 H   0  0  0  0  0  0  0  0  0  0  0  0
    8.8841    1.0061    3.1807 H   0  0  0  0  0  0  0  0  0  0  0  0
    6.6750    2.0612    2.8501 H   0  0  0  0  0  0  0  0  0  0  0  0
    5.0951    1.1992    1.1760 H   0  0  0  0  0  0  0  0  0  0  0  0
    4.4897   -1.8848   -1.7759 H   0  0  0  0  0  0  0  0  0  0  0  0
    5.2929    0.5916   -2.2885 H   0  0  0  0  0  0  0  0  0  0  0  0
    3.8073   -0.1228   -2.8697 H   0  0  0  0  0  0  0  0  0  0  0  0
    4.1169    1.8606   -0.6004 H   0  0  0  0  0  0  0  0  0  0  0  0
    3.2594    2.0577   -2.0889 H   0  0  0  0  0  0  0  0  0  0  0  0
    1.1678    1.1354   -2.4368 H   0  0  0  0  0  0  0  0  0  0  0  0
    1.5585   -0.5377   -2.1172 H   0  0  0  0  0  0  0  0  0  0  0  0
   -0.1858   -1.9012   -1.1980 H   0  0  0  0  0  0  0  0  0  0  0  0
   -2.4261   -2.1158   -0.2187 H   0  0  0  0  0  0  0  0  0  0  0  0
   -3.2848   -1.0069    2.5043 H   0  0  0  0  0  0  0  0  0  0  0  0
   -4.7197   -1.6716    4.4304 H   0  0  0  0  0  0  0  0  0  0  0  0
   -6.9627   -1.8049    5.4584 H   0  0  0  0  0  0  0  0  0  0  0  0
   -8.9445   -0.9739    4.2096 H   0  0  0  0  0  0  0  0  0  0  0  0
   -8.6643   -0.0202    1.9418 H   0  0  0  0  0  0  0  0  0  0  0  0
   -6.1982    2.7230   -0.6835 H   0  0  0  0  0  0  0  0  0  0  0  0
   -6.2724    3.7015   -2.9531 H   0  0  0  0  0  0  0  0  0  0  0  0
   -5.4023    2.4206   -4.8929 H   0  0  0  0  0  0  0  0  0  0  0  0
   -4.4674    0.1484   -4.5531 H   0  0  0  0  0  0  0  0  0  0  0  0
   -4.3903   -0.8406   -2.2970 H   0  0  0  0  0  0  0  0  0  0  0  0
   -2.6183    2.1623    0.2832 H   0  0  0  0  0  0  0  0  0  0  0  0
   -0.3674    2.3742   -0.6807 H   0  0  0  0  0  0  0  0  0  0  0  0
    1.6726   -0.4506    0.8907 H   0  0  0  0  0  0  0  0  0  0  0  0
    3.1565    0.3744    1.1735 H   0  0  0  0  0  0  0  0  0  0  0  0
    2.6424   -1.9995   -0.6330 H   0  0  0  0  0  0  0  0  0  0  0  0
    3.7000   -1.9316    0.7566 H   0  0  0  0  0  0  0  0  0  0  0  0
  1  2  1  0
  2  3  2  0
  3  4  1  0
  4  5  2  0
  5  6  1  0
  6  7  2  0
  7  8  1  0
  8  9  2  0
  9 10  1  0
 10 11  1  0
 11 12  1  0
 12 13  1  0
 13 14  1  0
 14 15  1  0
 15 16  1  0
 16 17  2  0
 17 18  1  0
 18 19  2  0
 19 20  1  0
 20 21  2  0
 21 22  1  0
 22 23  2  0
 23 24  1  0
 24 25  2  0
 25 26  1  0
 26 27  2  0
 27 28  1  0
 28 29  2  0
 29 30  1  0
 30 31  2  0
 31 32  1  0
 32 33  2  0
 33 34  1  0
 34 35  2  0
 19 36  1  0
 36 37  2  0
 14 38  1  0
 38 39  1  0
 10  2  1  0
 39 11  1  0
  9  4  1  0
 37 16  1  0
 29 20  1  0
 35 30  1  0
 27 22  1  0
  1 40  1  0
  5 41  1  0
  6 42  1  0
  7 43  1  0
  8 44  1  0
 11 45  1  0
 12 46  1  0
 12 47  1  0
 13 48  1  0
 13 49  1  0
 15 50  1  0
 15 51  1  0
 17 52  1  0
 18 53  1  0
 21 54  1  0
 23 55  1  0
 24 56  1  0
 25 57  1  0
 26 58  1  0
 31 59  1  0
 32 60  1  0
 33 61  1  0
 34 62  1  0
 35 63  1  0
 36 64  1  0
 37 65  1  0
 38 66  1  0
 38 67  1  0
 39 68  1  0
 39 69  1  0
M  END
$$$$
