
     RDKit          3D

 76 81  0  0  0  0  0  0  0  0999 V2000
    7.5196    0.4629    4.2579 C   0  0  0  0  0  0  0  0  0  0  0  0
    6.8858    0.1946    3.0116 O   0  0  0  0  0  0  0  0  0  0  0  0
    7.5040    0.6612    1.8823 C   0  0  0  0  0  0  0  0  0  0  0  0
    8.6350    1.4797    1.8604 C   0  0  0  0  0  0  0  0  0  0  0  0
    9.1843    1.8816    0.6404 C   0  0  0  0  0  0  0  0  0  0  0  0
    8.5978    1.4790   -0.5562 C   0  0  0  0  0  0  0  0  0  0  0  0
    9.2173    1.8911   -1.7060 O   0  0  0  0  0  0  0  0  0  0  0  0
    7.4377    0.6956   -0.5557 C   0  0  0  0  0  0  0  0  0  0  0  0
    6.8226    0.3114   -1.8450 C   0  0  0  0  0  0  0  0  0  0  0  0
    7.5656    0.1975   -2.8217 O   0  0  0  0  0  0  0  0  0  0  0  0
    5.3635    0.1184   -2.0292 C   0  0  0  0  0  0  0  0  0  0  0  0
    4.4223    0.9114   -1.3602 C   0  0  0  0  0  0  0  0  0  0  0  0
    3.0548    0.7203   -1.5893 C   0  0  0  0  0  0  0  0  0  0  0  0
    2.6236   -0.2566   -2.4965 C   0  0  0  0  0  0  0  0  0  0  0  0
    1.1781   -0.4849   -2.7777 C   0  0  0  0  0  0  0  0  0  0  0  0
    0.8350   -0.9211   -3.8685 O   0  0  0  0  0  0  0  0  0  0  0  0
    0.3079   -0.2051   -1.7384 N   0  0  0  0  0  0  0  0  0  0  0  0
   -1.1098   -0.6124   -1.7974 C   0  0  2  0  0  0  0  0  0  0  0  0
   -1.8827    0.1189   -2.9106 C   0  0  0  0  0  0  0  0  0  0  0  0
   -2.1886    1.5775   -2.5610 C   0  0  0  0  0  0  0  0  0  0  0  0
   -2.9197    1.7507   -1.2932 N   0  0  0  0  0  0  0  0  0  0  0  0
   -4.3143    1.3026   -1.4393 C   0  0  0  0  0  0  0  0  0  0  0  0
   -5.0929    1.3833   -0.1666 C   0  0  0  0  0  0  0  0  0  0  0  0
   -5.3646    0.3726    0.6382 N   0  0  0  0  0  0  0  0  0  0  0  0
   -6.0938    0.9173    1.6585 C   0  0  0  0  0  0  0  0  0  0  0  0
   -6.6033    0.2268    2.7002 N   0  0  0  0  0  0  0  0  0  0  0  0
   -7.2891    0.9866    3.5819 C   0  0  0  0  0  0  0  0  0  0  0  0
   -7.4893    2.3615    3.4878 C   0  0  0  0  0  0  0  0  0  0  0  0
   -6.9552    3.0644    2.4084 C   0  0  0  0  0  0  0  0  0  0  0  0
   -6.2513    2.2880    1.4937 C   0  0  0  0  0  0  0  0  0  0  0  0
   -5.5877    2.5655    0.3288 N   0  0  0  0  0  0  0  0  0  0  0  0
   -2.1613    1.0905   -0.2104 C   0  0  0  0  0  0  0  0  0  0  0  0
   -1.8006   -0.4010   -0.4138 C   0  0  1  0  0  0  0  0  0  0  0  0
   -2.9534   -1.2798   -0.1891 N   0  0  0  0  0  0  0  0  0  0  0  0
   -2.7617   -2.6318    0.0258 C   0  0  0  0  0  0  0  0  0  0  0  0
   -1.6649   -3.1699   -0.0907 O   0  0  0  0  0  0  0  0  0  0  0  0
   -3.9387   -3.4334    0.4632 C   0  0  0  0  0  0  0  0  0  0  0  0
   -5.2531   -2.9989    0.3008 C   0  0  0  0  0  0  0  0  0  0  0  0
   -6.2711   -3.8212    0.7522 C   0  0  0  0  0  0  0  0  0  0  0  0
   -6.0676   -5.0296    1.3206 N   0  0  0  0  0  0  0  0  0  0  0  0
   -4.7869   -5.4339    1.4506 C   0  0  0  0  0  0  0  0  0  0  0  0
   -3.7006   -4.6821    1.0424 C   0  0  0  0  0  0  0  0  0  0  0  0
    3.5680   -1.0197   -3.1935 C   0  0  0  0  0  0  0  0  0  0  0  0
    4.9331   -0.8326   -2.9615 C   0  0  0  0  0  0  0  0  0  0  0  0
    6.9179    0.2720    0.6686 C   0  0  0  0  0  0  0  0  0  0  0  0
    5.8495   -0.5405    0.7022 F   0  0  0  0  0  0  0  0  0  0  0  0
    6.9342   -0.0249    5.0426 H   0  0  0  0  0  0  0  0  0  0  0  0
    8.5305    0.0431    4.2869 H   0  0  0  0  0  0  0  0  0  0  0  0
    7.5305    1.5369    4.4694 H   0  0  0  0  0  0  0  0  0  0  0  0
    9.1201    1.8153    2.7711 H   0  0  0  0  0  0  0  0  0  0  0  0
   10.0761    2.5028    0.6216 H   0  0  0  0  0  0  0  0  0  0  0  0
    8.8458    1.3660   -2.4524 H   0  0  0  0  0  0  0  0  0  0  0  0
    4.7332    1.6917   -0.6708 H   0  0  0  0  0  0  0  0  0  0  0  0
    2.3412    1.3611   -1.0784 H   0  0  0  0  0  0  0  0  0  0  0  0
    0.7346   -0.2496   -0.8215 H   0  0  0  0  0  0  0  0  0  0  0  0
   -1.0907   -1.6784   -2.0525 H   0  0  0  0  0  0  0  0  0  0  0  0
   -2.8158   -0.4225   -3.1054 H   0  0  0  0  0  0  0  0  0  0  0  0
   -1.3375    0.1013   -3.8591 H   0  0  0  0  0  0  0  0  0  0  0  0
   -2.7511    2.0409   -3.3815 H   0  0  0  0  0  0  0  0  0  0  0  0
   -1.2485    2.1412   -2.5020 H   0  0  0  0  0  0  0  0  0  0  0  0
   -4.8147    1.9365   -2.1829 H   0  0  0  0  0  0  0  0  0  0  0  0
   -4.3904    0.2771   -1.8149 H   0  0  0  0  0  0  0  0  0  0  0  0
   -7.7038    0.4326    4.4220 H   0  0  0  0  0  0  0  0  0  0  0  0
   -8.0577    2.8794    4.2545 H   0  0  0  0  0  0  0  0  0  0  0  0
   -7.0844    4.1335    2.2948 H   0  0  0  0  0  0  0  0  0  0  0  0
   -5.4666    3.4748   -0.0947 H   0  0  0  0  0  0  0  0  0  0  0  0
   -2.6650    1.2249    0.7541 H   0  0  0  0  0  0  0  0  0  0  0  0
   -1.2212    1.6489   -0.0966 H   0  0  0  0  0  0  0  0  0  0  0  0
   -1.0830   -0.6659    0.3755 H   0  0  0  0  0  0  0  0  0  0  0  0
   -3.7757   -0.8585    0.2445 H   0  0  0  0  0  0  0  0  0  0  0  0
   -5.5050   -2.0554   -0.1654 H   0  0  0  0  0  0  0  0  0  0  0  0
   -7.3110   -3.5198    0.6631 H   0  0  0  0  0  0  0  0  0  0  0  0
   -4.6519   -6.4100    1.9080 H   0  0  0  0  0  0  0  0  0  0  0  0
   -2.6919   -5.0600    1.1752 H   0  0  0  0  0  0  0  0  0  0  0  0
    3.2420   -1.7622   -3.9197 H   0  0  0  0  0  0  0  0  0  0  0  0
    5.6566   -1.4291   -3.5142 H   0  0  0  0  0  0  0  0  0  0  0  0
  1  2  1  0
  2  3  1  0
  3  4  2  0
  4  5  1  0
  5  6  2  0
  6  7  1  0
  6  8  1  0
  8  9  1  0
  9 10  2  0
  9 11  1  0
 11 12  2  0
 12 13  1  0
 13 14  2  0
 14 15  1  0
 15 16  2  0
 15 17  1  0
 17 18  1  0
 18 19  1  0
 19 20  1  0
 20 21  1  0
 21 22  1  0
 22 23  1  0
 23 24  2  0
 24 25  1  0
 25 26  2  0
 26 27  1  0
 27 28  2  0
 28 29  1  0
 29 30  2  0
 30 31  1  0
 21 32  1  0
 32 33  1  0
 33 34  1  0
 34 35  1  0
 35 36  2  0
 35 37  1  0
 37 38  2  0
 38 39  1  0
 39 40  2  0
 40 41  1  0
 41 42  2  0
 14 43  1  0
 43 44  2  0
  8 45  2  0
 45 46  1  0
 45  3  1  0
 44 11  1  0
 33 18  1  0
 42 37  1  0
 31 23  1  0
 30 25  1  0
  1 47  1  0
  1 48  1  0
  1 49  1  0
  4 50  1  0
  5 51  1  0
  7 52  1  0
 12 53  1  0
 13 54  1  0
 17 55  1  0
 18 56  1  6
 19 57  1  0
 19 58  1  0
 20 59  1  0
 20 60  1  0
 22 61  1  0
 22 62  1  0
 27 63  1  0
 28 64  1  0
 29 65  1  0
 31 66  1  0
 32 67  1  0
 32 68  1  0
 33 69  1  1
 34 70  1  0
 38 71  1  0
 39 72  1  0
 41 73  1  0
 42 74  1  0
 43 75  1  0
 44 76  1  0
M  END
$$$$
