MODEL        4USER    Run = 4USERUSER    Estimated Free Energy of Binding    = -11.29 kcal/mol  [=(1)+(2)+(3)-(4)]USERUSER    (1) Final Intermolecular Energy     = -13.08 kcal/molUSER        vdW + Hbond + desolv Energy     = -13.03 kcal/molUSER        Electrostatic Energy            =  -0.05 kcal/molUSER        Moving Ligand-Fixed Receptor    = -13.08 kcal/molUSER        Moving Ligand-Moving Receptor   =  +0.00 kcal/molUSER    (2) Final Total Internal Energy     =  -1.59 kcal/molUSER    (3) Torsional Free Energy           =  +1.79 kcal/molUSER    (4) Unbound System's Energy         =  -1.59 kcal/molUSERUSERREMARK SMILES Oc1nc2ccccc2n1C1CCN(Cc2ccc(-c3nc4ccccc4nc3-c3ccncc3)cc2)CC1REMARK SMILES IDX 11 1 12 2 13 3 14 4 38 5 39 6 10 7 2 8 3 9 4 10 9 11 5 12REMARK SMILES IDX 8 13 6 14 7 15 1 16 15 18 16 19 17 20 37 21 18 22 36 23REMARK SMILES IDX 19 24 20 25 21 26 29 27 22 28 28 29 23 30 27 31 24 32 26 33REMARK SMILES IDX 25 34 30 35 31 36 35 37 32 38 34 39 33 40REMARK H PARENT 1 17USER                              x       y       z     vdW  Elec       q    TypeUSER                           _______ _______ _______ _____ _____    ______ ____ROOTATOM      1  C   UNL     1      37.238  46.979  16.598 -0.23 -0.06    +0.095 C  ATOM      2  C   UNL     1      38.235  45.902  17.052 -0.42 -0.01    +0.041 C  ATOM      3  C   UNL     1      37.632  44.962  18.094 -0.36 -0.02    +0.087 C  ATOM      4  N   UNL     1      36.414  44.368  17.564 -0.12 +0.09    -0.299 NA ATOM      5  C   UNL     1      35.369  45.316  17.186 -0.33 -0.05    +0.087 C  ATOM      6  C   UNL     1      35.821  46.775  17.151 -0.11 -0.04    +0.041 C  ENDROOTBRANCH   1   7ATOM      7  N   UNL     1      37.245  47.251  15.165 -0.21 +0.19    -0.291 N  ATOM      8  C   UNL     1      37.326  48.509  14.624 -0.28 -0.22    +0.295 A  ATOM      9  N   UNL     1      37.273  48.521  13.322 -0.76 +0.07    -0.195 NA ATOM     10  C   UNL     1      37.148  47.200  12.977 -0.52 -0.03    +0.092 A  ATOM     11  C   UNL     1      37.128  46.374  14.107 -0.39 -0.03    +0.072 A  ATOM     12  C   UNL     1      37.044  46.632  11.698 -0.61 -0.01    +0.031 A  ATOM     13  C   UNL     1      37.011  44.982  13.998 -0.39 -0.01    +0.029 A  ATOM     14  C   UNL     1      36.923  45.244  11.579 -0.47 -0.00    +0.002 A  ATOM     15  C   UNL     1      36.908  44.435  12.714 -0.37 -0.00    +0.002 A  BRANCH   8  16ATOM     16  O   UNL     1      37.430  49.622  15.321 -0.30 +0.50    -0.480 OA ATOM     17  H   UNL     1      37.360  50.292  14.616 -0.32 -0.32    +0.296 HD ENDBRANCH   8  16ENDBRANCH   1   7BRANCH   4  18ATOM     18  C   UNL     1      35.936  43.178  18.276 -0.26 -0.03    +0.120 C  BRANCH  18  19ATOM     19  C   UNL     1      34.499  42.772  18.017 -0.35 +0.01    -0.034 A  ATOM     20  C   UNL     1      33.707  42.245  19.045 -0.40 -0.00    +0.006 A  ATOM     21  C   UNL     1      33.931  42.911  16.744 -0.37 -0.00    +0.006 A  ATOM     22  C   UNL     1      32.380  41.872  18.807 -0.37 -0.00    +0.011 A  ATOM     23  C   UNL     1      32.602  42.542  16.509 -0.17 -0.01    +0.011 A  ATOM     24  C   UNL     1      31.806  42.002  17.532 -0.32 -0.00    +0.002 A  BRANCH  24  25ATOM     25  C   UNL     1      30.407  41.596  17.300 -0.23 -0.02    +0.097 A  ATOM     26  N   UNL     1      29.653  42.550  16.683 -0.13 +0.08    -0.244 NA ATOM     27  C   UNL     1      29.858  40.350  17.642 -0.26 -0.00    +0.097 A  ATOM     28  C   UNL     1      28.379  42.242  16.385 -0.19 -0.03    +0.089 A  ATOM     29  N   UNL     1      28.569  40.039  17.323 -0.16 -0.04    -0.244 NA ATOM     30  C   UNL     1      27.578  43.182  15.748 -0.21 -0.02    +0.030 A  ATOM     31  C   UNL     1      27.836  40.979  16.702 -0.21 -0.01    +0.089 A  ATOM     32  C   UNL     1      26.252  42.902  15.417 -0.27 -0.00    +0.002 A  ATOM     33  C   UNL     1      26.513  40.708  16.367 -0.30 -0.00    +0.030 A  ATOM     34  C   UNL     1      25.717  41.658  15.726 -0.32 -0.00    +0.002 A  BRANCH  27  35ATOM     35  C   UNL     1      30.558  39.280  18.374 -0.38 +0.00    +0.005 A  ATOM     36  C   UNL     1      30.001  38.738  19.540 -0.34 +0.00    +0.030 A  ATOM     37  C   UNL     1      31.804  38.788  17.963 -0.33 +0.00    +0.030 A  ATOM     38  C   UNL     1      30.679  37.733  20.210 -0.37 +0.02    +0.111 A  ATOM     39  C   UNL     1      32.405  37.778  18.698 -0.41 +0.02    +0.111 A  ATOM     40  N   UNL     1      31.866  37.234  19.808 -0.43 -0.07    -0.265 NA ENDBRANCH  27  35ENDBRANCH  24  25ENDBRANCH  18  19ENDBRANCH   4  18TORSDOF 6TERENDMDL