MODEL        2USER    Run = 2USERUSER    Estimated Free Energy of Binding    =  -9.65 kcal/mol  [=(1)+(2)+(3)-(4)]USERUSER    (1) Final Intermolecular Energy     = -12.34 kcal/molUSER        vdW + Hbond + desolv Energy     = -12.22 kcal/molUSER        Electrostatic Energy            =  -0.12 kcal/molUSER        Moving Ligand-Fixed Receptor    = -12.34 kcal/molUSER        Moving Ligand-Moving Receptor   =  +0.00 kcal/molUSER    (2) Final Total Internal Energy     =  -1.25 kcal/molUSER    (3) Torsional Free Energy           =  +2.68 kcal/molUSER    (4) Unbound System's Energy         =  -1.25 kcal/molUSERUSERREMARK SMILES Cc1c(F)cccc1CO[C@H]1CNCCN1C(=O)C1=CN=C(/C=C/c2ccc(O)cc2)NC1REMARK SMILES IDX 19 1 20 2 21 3 22 4 32 5 33 6 17 8 18 9 16 10 11 11 12 12REMARK SMILES IDX 13 13 15 14 14 15 10 17 9 18 8 19 2 20 3 21 5 22 7 23 6 24REMARK SMILES IDX 1 25 4 26 23 27 24 28 25 29 26 30 31 31 27 32 30 33 28 34REMARK SMILES IDX 29 35REMARK H PARENT 32 7 13 16 29 36USER                              x       y       z     vdW  Elec       q    TypeUSER                           _______ _______ _______ _____ _____    ______ ____ROOTATOM      1  C   UNL     1      37.141  43.983  20.369 -0.42 -0.00    +0.055 C  ATOM      2  C   UNL     1      36.822  42.690  20.383 -0.35 -0.00    +0.124 C  ATOM      3  N   UNL     1      36.791  41.924  21.517 -0.35 -0.01    -0.239 NA ATOM      4  C   UNL     1      36.955  42.542  22.657 -0.43 +0.01    +0.126 C  ATOM      5  N   UNL     1      37.151  43.899  22.758 -0.16 -0.04    -0.366 N  ATOM      6  C   UNL     1      37.498  44.711  21.608 -0.26 +0.01    +0.157 C  ATOM      7  H   UNL     1      37.281  44.308  23.666 +0.08 +0.02    +0.162 HD ENDROOTBRANCH   1   8ATOM      8  C   UNL     1      37.169  44.734  19.097 -0.22 -0.04    +0.255 C  ATOM      9  O   UNL     1      38.095  45.523  18.901 -0.26 +0.04    -0.269 OA BRANCH   8  10ATOM     10  N   UNL     1      36.158  44.467  18.177 -0.12 +0.08    -0.310 N  ATOM     11  C   UNL     1      36.261  45.155  16.893 -0.23 -0.10    +0.231 C  ATOM     12  C   UNL     1      35.394  46.460  16.931 -0.29 -0.14    +0.136 C  ATOM     13  N   UNL     1      33.994  46.264  17.396 -0.13 +0.35    -0.311 NA ATOM     14  C   UNL     1      34.769  44.182  18.572 -0.31 -0.04    +0.138 C  ATOM     15  C   UNL     1      33.951  45.493  18.649 -0.46 -0.05    +0.102 C  ATOM     16  H   UNL     1      33.547  47.164  17.529 -0.49 -0.24    +0.122 HD BRANCH  11  17ATOM     17  O   UNL     1      35.779  44.284  15.857 -0.17 +0.15    -0.352 OA BRANCH  17  18ATOM     18  C   UNL     1      36.625  44.271  14.703 -0.22 -0.07    +0.199 C  BRANCH  18  19ATOM     19  C   UNL     1      36.780  45.654  14.106 -0.41 +0.01    -0.016 A  ATOM     20  C   UNL     1      37.897  46.466  14.383 -0.42 +0.00    -0.010 A  ATOM     21  C   UNL     1      37.918  47.765  13.865 -0.43 -0.05    +0.126 A  ATOM     22  C   UNL     1      36.887  48.264  13.075 -0.49 -0.01    +0.039 A  ATOM     23  C   UNL     1      35.765  46.143  13.257 -0.50 -0.00    +0.006 A  ATOM     24  C   UNL     1      35.814  47.444  12.754 -0.60 -0.00    +0.003 A  ATOM     25  C   UNL     1      39.025  46.013  15.266 -0.41 -0.01    +0.048 C  ATOM     26  F   UNL     1      38.963  48.555  14.127 -0.15 +0.08    -0.207 F  ENDBRANCH  18  19ENDBRANCH  17  18ENDBRANCH  11  17ENDBRANCH   8  10ENDBRANCH   1   8BRANCH   4  27ATOM     27  C   UNL     1      36.895  41.653  23.854 -0.35 +0.00    +0.047 C  BRANCH  27  28ATOM     28  C   UNL     1      37.443  41.938  25.045 -0.35 -0.00    +0.012 C  BRANCH  28  29ATOM     29  C   UNL     1      36.622  42.492  26.128 -0.40 +0.00    -0.025 A  ATOM     30  C   UNL     1      35.567  41.750  26.673 -0.56 -0.00    +0.012 A  ATOM     31  C   UNL     1      36.875  43.787  26.603 -0.35 -0.00    +0.012 A  ATOM     32  C   UNL     1      34.783  42.292  27.695 -0.52 -0.01    +0.047 A  ATOM     33  C   UNL     1      36.086  44.337  27.622 -0.43 -0.01    +0.047 A  ATOM     34  C   UNL     1      35.050  43.575  28.161 -0.47 -0.03    +0.115 A  BRANCH  34  35ATOM     35  O   UNL     1      34.268  44.053  29.169 -0.34 +0.13    -0.508 OA ATOM     36  H   UNL     1      34.625  43.726  30.015 -0.23 -0.13    +0.293 HD ENDBRANCH  34  35ENDBRANCH  28  29ENDBRANCH  27  28ENDBRANCH   4  27TORSDOF 9TERENDMDL