MODEL        6USER    Run = 6USERUSER    Estimated Free Energy of Binding    =  -8.29 kcal/mol  [=(1)+(2)+(3)-(4)]USERUSER    (1) Final Intermolecular Energy     =  -9.79 kcal/molUSER        vdW + Hbond + desolv Energy     =  -9.80 kcal/molUSER        Electrostatic Energy            =  +0.02 kcal/molUSER        Moving Ligand-Fixed Receptor    =  -9.79 kcal/molUSER        Moving Ligand-Moving Receptor   =  +0.00 kcal/molUSER    (2) Final Total Internal Energy     =  -0.99 kcal/molUSER    (3) Torsional Free Energy           =  +1.49 kcal/molUSER    (4) Unbound System's Energy         =  -0.99 kcal/molUSERUSERREMARK SMILES COc1ccc(C)c(N2Cc3c(C)nc(N4CC[C@H](N)C4)nc3[C@@H]2C#N)c1FREMARK SMILES IDX 9 1 10 2 11 3 12 4 13 5 14 6 15 7 22 8 23 9 24 10 8 11 3 12REMARK SMILES IDX 4 13 27 14 5 15 6 16 28 17 7 18 2 19 1 20 25 21 26 22 16 23REMARK SMILES IDX 17 24 21 25 18 26 19 27 20 28REMARK H PARENT 20 29 20 30USER                              x       y       z     vdW  Elec       q    TypeUSER                           _______ _______ _______ _____ _____    ______ ____ROOTATOM      1  N   UNL     1      39.699  44.588  21.202 -0.11 -0.01    -0.344 N  ATOM      2  C   UNL     1      38.446  43.943  20.756 -0.24 +0.00    +0.158 C  ATOM      3  C   UNL     1      37.892  43.401  22.025 -0.35 +0.00    +0.018 A  ATOM      4  C   UNL     1      36.885  42.515  22.274 -0.44 +0.00    +0.048 A  ATOM      5  C   UNL     1      36.119  41.856  21.172 -0.54 +0.00    +0.067 C  ATOM      6  N   UNL     1      36.551  42.197  23.545 -0.33 -0.01    -0.218 NA ATOM      7  C   UNL     1      37.219  42.773  24.571 -0.23 +0.01    +0.225 A  ATOM      8  N   UNL     1      38.217  43.654  24.393 -0.14 -0.01    -0.214 NA ATOM      9  C   UNL     1      38.513  43.954  23.119 -0.25 +0.01    +0.088 A  ATOM     10  C   UNL     1      39.602  44.910  22.670 -0.18 +0.01    +0.237 C  ENDROOTBRANCH   1  11ATOM     11  C   UNL     1      40.451  45.411  20.366 -0.33 +0.00    +0.081 A  ATOM     12  C   UNL     1      40.681  46.823  18.339 -0.37 -0.01    +0.156 A  ATOM     13  C   UNL     1      41.979  47.154  18.706 -0.51 +0.00    +0.050 A  ATOM     14  C   UNL     1      39.942  45.959  19.164 -0.28 -0.01    +0.188 A  ATOM     15  C   UNL     1      42.527  46.612  19.868 -0.43 +0.00    +0.009 A  ATOM     16  C   UNL     1      41.794  45.729  20.685 -0.34 -0.00    -0.024 A  ATOM     17  F   UNL     1      38.681  45.683  18.787 -0.12 +0.02    -0.201 F  ATOM     18  C   UNL     1      42.515  45.147  21.874 -0.27 +0.01    +0.047 C  BRANCH  12  19ATOM     19  O   UNL     1      40.035  47.272  17.217 -0.19 +0.10    -0.494 OA ATOM     20  C   UNL     1      40.716  48.220  16.408 -0.40 -0.05    +0.278 C  ENDBRANCH  12  19ENDBRANCH   1  11BRANCH  10  21ATOM     21  C   UNL     1      39.230  46.313  22.963 -0.29 +0.01    +0.094 C  ATOM     22  N   UNL     1      38.938  47.411  23.214 -0.16 -0.03    -0.196 NA ENDBRANCH  10  21BRANCH   7  23ATOM     23  N   UNL     1      36.876  42.421  25.848 -0.16 +0.03    -0.339 N  ATOM     24  C   UNL     1      37.559  41.326  26.512 -0.32 -0.02    +0.121 C  ATOM     25  C   UNL     1      35.511  42.603  26.335 -0.34 -0.02    +0.138 C  ATOM     26  C   UNL     1      36.722  41.108  27.772 -0.57 -0.01    +0.042 C  ATOM     27  C   UNL     1      35.295  41.418  27.313 -0.65 -0.03    +0.072 C  BRANCH  27  28ATOM     28  N   UNL     1      34.675  40.258  26.655 -0.33 +0.20    -0.326 NA ATOM     29  H   UNL     1      33.798  40.544  26.216 -0.45 -0.09    +0.119 HD ATOM     30  H   UNL     1      35.278  39.912  25.912 -0.50 -0.10    +0.119 HD ENDBRANCH  27  28ENDBRANCH   7  23TORSDOF 5TERENDMDL