REMARK SMILES Cc1c(F)cccc1CO[C@H]1CNCCN1C(=O)C1=CN=C(/C=C/c2ccc(O)cc2)NC1
REMARK SMILES IDX 19 1 20 2 21 3 22 4 32 5 33 6 17 8 18 9 16 10 11 11 12 12
REMARK SMILES IDX 13 13 15 14 14 15 10 17 9 18 8 19 2 20 3 21 5 22 7 23 6 24
REMARK SMILES IDX 1 25 4 26 23 27 24 28 25 29 26 30 31 31 27 32 30 33 28 34
REMARK SMILES IDX 29 35
REMARK H PARENT 32 7 13 16 29 36
ROOT
ATOM      1  C   UNL     1       0.159  -0.488   0.600  1.00  0.00     0.055 C 
ATOM      2  C   UNL     1       0.693   0.539  -0.058  1.00  0.00     0.124 C 
ATOM      3  N   UNL     1       2.039   0.780  -0.134  1.00  0.00    -0.239 NA
ATOM      4  C   UNL     1       2.835  -0.133   0.358  1.00  0.00     0.126 C 
ATOM      5  N   UNL     1       2.384  -1.297   0.934  1.00  0.00    -0.366 N 
ATOM      6  C   UNL     1       0.998  -1.473   1.321  1.00  0.00     0.157 C 
ATOM      7  H   UNL     1       3.051  -1.951   1.303  1.00  0.00     0.162 HD
ENDROOT
BRANCH   1   8
ATOM      8  C   UNL     1      -1.307  -0.665   0.649  1.00  0.00     0.255 C 
ATOM      9  O   UNL     1      -1.859  -0.694   1.751  1.00  0.00    -0.269 OA
BRANCH   8  10
ATOM     10  N   UNL     1      -1.980  -0.747  -0.567  1.00  0.00    -0.310 N 
ATOM     11  C   UNL     1      -3.426  -0.939  -0.489  1.00  0.00     0.231 C 
ATOM     12  C   UNL     1      -3.756  -2.466  -0.608  1.00  0.00     0.136 C 
ATOM     13  N   UNL     1      -3.122  -3.151  -1.767  1.00  0.00    -0.311 NA
ATOM     14  C   UNL     1      -1.382  -1.337  -1.776  1.00  0.00     0.138 C 
ATOM     15  C   UNL     1      -1.683  -2.853  -1.841  1.00  0.00     0.102 C 
ATOM     16  H   UNL     1      -3.264  -4.152  -1.694  1.00  0.00     0.122 HD
BRANCH  11  17
ATOM     17  O   UNL     1      -4.050  -0.223  -1.567  1.00  0.00    -0.352 OA
BRANCH  17  18
ATOM     18  C   UNL     1      -4.141   1.184  -1.321  1.00  0.00     0.199 C 
BRANCH  18  19
ATOM     19  C   UNL     1      -5.232   1.509  -0.323  1.00  0.00    -0.016 A 
ATOM     20  C   UNL     1      -5.035   2.426   0.727  1.00  0.00    -0.010 A 
ATOM     21  C   UNL     1      -6.063   2.600   1.659  1.00  0.00     0.126 A 
ATOM     22  C   UNL     1      -7.271   1.915   1.565  1.00  0.00     0.039 A 
ATOM     23  C   UNL     1      -6.479   0.861  -0.448  1.00  0.00     0.006 A 
ATOM     24  C   UNL     1      -7.488   1.055   0.497  1.00  0.00     0.003 A 
ATOM     25  C   UNL     1      -3.742   3.166   0.920  1.00  0.00     0.048 C 
ATOM     26  F   UNL     1      -5.890   3.456   2.670  1.00  0.00    -0.207 F 
ENDBRANCH  18  19
ENDBRANCH  17  18
ENDBRANCH  11  17
ENDBRANCH   8  10
ENDBRANCH   1   8
BRANCH   4  27
ATOM     27  C   UNL     1       4.288   0.183   0.230  1.00  0.00     0.047 C 
BRANCH  27  28
ATOM     28  C   UNL     1       5.283  -0.665   0.530  1.00  0.00     0.012 C 
BRANCH  28  29
ATOM     29  C   UNL     1       6.683  -0.262   0.349  1.00  0.00    -0.025 A 
ATOM     30  C   UNL     1       7.321   0.545   1.299  1.00  0.00     0.012 A 
ATOM     31  C   UNL     1       7.381  -0.663  -0.800  1.00  0.00     0.012 A 
ATOM     32  C   UNL     1       8.650   0.933   1.110  1.00  0.00     0.047 A 
ATOM     33  C   UNL     1       8.711  -0.269  -0.996  1.00  0.00     0.047 A 
ATOM     34  C   UNL     1       9.332   0.522  -0.030  1.00  0.00     0.115 A 
BRANCH  34  35
ATOM     35  O   UNL     1      10.630   0.914  -0.161  1.00  0.00    -0.508 OA
ATOM     36  H   UNL     1      10.954   0.614  -1.030  1.00  0.00     0.293 HD
ENDBRANCH  34  35
ENDBRANCH  28  29
ENDBRANCH  27  28
ENDBRANCH   4  27
TORSDOF 9
