MODEL        10USER    Run = 10USERUSER    Estimated Free Energy of Binding    =  -8.68 kcal/mol  [=(1)+(2)+(3)-(4)]USERUSER    (1) Final Intermolecular Energy     = -10.77 kcal/molUSER        vdW + Hbond + desolv Energy     = -10.44 kcal/molUSER        Electrostatic Energy            =  -0.32 kcal/molUSER        Moving Ligand-Fixed Receptor    = -10.77 kcal/molUSER        Moving Ligand-Moving Receptor   =  +0.00 kcal/molUSER    (2) Final Total Internal Energy     =  -1.30 kcal/molUSER    (3) Torsional Free Energy           =  +2.09 kcal/molUSER    (4) Unbound System's Energy         =  -1.30 kcal/molUSERUSERREMARK SMILES Cc1ncc2n1[C@]2(NS(=O)(=O)Cc1ccc(N)cc1)c1ccc(O)cc1REMARK SMILES IDX 8 1 7 3 2 4 3 5 6 6 4 7 5 8 1 9 20 10 21 11 26 12 22 13REMARK SMILES IDX 25 14 23 15 24 16 9 18 10 19 11 20 12 21 13 22 14 23 19 24REMARK SMILES IDX 15 25 18 26 16 27 17 28REMARK H PARENT 8 2 24 17 17 29 17 30USER                              x       y       z     vdW  Elec       q    TypeUSER                           _______ _______ _______ _____ _____    ______ ____ROOTATOM      1  N   UNL     1      35.198  46.446  13.513 -0.37 +0.13    -0.180 NA ATOM      2  H   UNL     1      34.464  46.934  12.996 -0.28 -0.13    +0.144 HD ENDROOTBRANCH   1   3ATOM      3  C   UNL     1      34.766  45.734  14.730 -0.25 -0.14    +0.178 C  ATOM      4  C   UNL     1      35.216  45.864  17.220 -0.29 -0.08    +0.108 A  ATOM      5  N   UNL     1      35.575  44.679  17.651 -0.15 +0.09    -0.241 NA ATOM      6  N   UNL     1      35.534  45.981  15.904 -0.16 +0.25    -0.299 N  ATOM      7  C   UNL     1      36.050  44.058  16.527 -0.26 -0.05    +0.139 A  ATOM      8  C   UNL     1      35.784  44.729  15.352 -0.29 -0.04    +0.087 A  ATOM      9  C   UNL     1      34.651  46.974  18.017 -0.27 -0.09    +0.088 C  BRANCH   3  10ATOM     10  C   UNL     1      33.276  45.481  14.890 -0.21 -0.00    +0.000 A  ATOM     11  C   UNL     1      32.768  44.456  15.710 -0.34 -0.01    +0.012 A  ATOM     12  C   UNL     1      32.338  46.254  14.176 -0.32 -0.01    +0.012 A  ATOM     13  C   UNL     1      31.394  44.221  15.829 -0.32 -0.02    +0.046 A  ATOM     14  C   UNL     1      30.965  46.025  14.287 -0.53 -0.03    +0.046 A  ATOM     15  C   UNL     1      30.504  45.012  15.115 -0.32 -0.07    +0.115 A  BRANCH  15  16ATOM     16  O   UNL     1      29.158  44.819  15.196 -0.05 +0.37    -0.508 OA ATOM     17  H   UNL     1      28.827  44.574  14.315 -0.20 -0.57    +0.293 HD ENDBRANCH  15  16ENDBRANCH   3  10ENDBRANCH   1   3BRANCH   1  18ATOM     18  S   UNL     1      36.544  47.449  13.650 -0.60 -0.12    +0.218 S  ATOM     19  O   UNL     1      36.452  48.227  14.867 -0.28 +0.22    -0.212 OA ATOM     20  O   UNL     1      36.647  48.118  12.368 -1.11 +0.07    -0.212 OA BRANCH  18  21ATOM     21  C   UNL     1      37.910  46.290  13.823 -0.36 -0.06    +0.189 C  BRANCH  21  22ATOM     22  C   UNL     1      38.907  46.763  14.851 -0.42 +0.01    -0.031 A  ATOM     23  C   UNL     1      39.690  47.898  14.607 -0.50 -0.00    +0.007 A  ATOM     24  C   UNL     1      39.104  46.062  16.047 -0.38 -0.00    +0.007 A  ATOM     25  C   UNL     1      40.620  48.339  15.552 -0.56 -0.00    +0.026 A  ATOM     26  C   UNL     1      40.036  46.510  16.988 -0.46 -0.00    +0.026 A  ATOM     27  C   UNL     1      40.764  47.680  16.774 -0.51 -0.00    +0.031 A  BRANCH  27  28ATOM     28  N   UNL     1      41.777  48.053  17.662 -0.25 +0.01    -0.399 N  ATOM     29  H   UNL     1      42.675  47.617  17.473 -0.48 -0.03    +0.156 HD ATOM     30  H   UNL     1      41.515  47.993  18.641 +0.08 -0.00    +0.156 HD ENDBRANCH  27  28ENDBRANCH  21  22ENDBRANCH  18  21ENDBRANCH   1  18TORSDOF 7TERENDMDL