MODEL        2USER    Run = 2USERUSER    Estimated Free Energy of Binding    =  -8.86 kcal/mol  [=(1)+(2)+(3)-(4)]USERUSER    (1) Final Intermolecular Energy     = -10.65 kcal/molUSER        vdW + Hbond + desolv Energy     = -10.35 kcal/molUSER        Electrostatic Energy            =  -0.30 kcal/molUSER        Moving Ligand-Fixed Receptor    = -10.65 kcal/molUSER        Moving Ligand-Moving Receptor   =  +0.00 kcal/molUSER    (2) Final Total Internal Energy     =  -1.16 kcal/molUSER    (3) Torsional Free Energy           =  +1.79 kcal/molUSER    (4) Unbound System's Energy         =  -1.16 kcal/molUSERUSERREMARK SMILES Cc1ncc2n1[C@@]2(NS(=O)(=O)Cc1ccccc1)c1ccc(O)cc1REMARK SMILES IDX 1 1 2 2 3 3 4 4 5 5 6 6 7 7 8 8 9 10 10 11 11 12 12 13 13 14REMARK SMILES IDX 14 15 18 16 15 17 17 18 16 19 19 20 20 21 25 22 21 23 24 24REMARK SMILES IDX 22 25 23 26REMARK H PARENT 8 9 23 27USER                              x       y       z     vdW  Elec       q    TypeUSER                           _______ _______ _______ _____ _____    ______ ____ROOTATOM      1  C   UNL     1      36.960  44.640  12.396 -0.48 -0.03    +0.088 C  ATOM      2  C   UNL     1      36.741  46.093  12.555 -0.51 -0.04    +0.108 A  ATOM      3  N   UNL     1      35.845  46.843  11.956 -0.48 +0.14    -0.241 NA ATOM      4  C   UNL     1      36.151  48.111  12.367 -0.45 -0.07    +0.139 A  ATOM      5  C   UNL     1      37.005  48.150  13.450 -0.51 -0.04    +0.087 A  ATOM      6  N   UNL     1      37.533  46.866  13.348 -0.27 +0.10    -0.299 N  ATOM      7  C   UNL     1      37.315  47.275  14.703 -0.38 -0.10    +0.178 C  ENDROOTBRANCH   7   8ATOM      8  N   UNL     1      36.150  46.702  15.408 -0.26 +0.16    -0.180 NA ATOM      9  H   UNL     1      35.663  47.346  16.038 +0.09 -0.22    +0.144 HD BRANCH   8  10ATOM     10  S   UNL     1      36.283  45.179  16.114 -0.35 -0.11    +0.218 S  ATOM     11  O   UNL     1      37.299  44.512  15.324 -0.28 +0.07    -0.212 OA ATOM     12  O   UNL     1      36.440  45.361  17.539 -0.25 +0.08    -0.212 OA BRANCH  10  13ATOM     13  C   UNL     1      34.689  44.413  15.766 -0.24 -0.10    +0.189 C  BRANCH  13  14ATOM     14  C   UNL     1      34.092  43.898  17.050 -0.29 +0.01    -0.032 A  ATOM     15  C   UNL     1      33.477  44.779  17.953 -0.35 -0.00    +0.005 A  ATOM     16  C   UNL     1      34.150  42.534  17.367 -0.40 -0.00    +0.005 A  ATOM     17  C   UNL     1      32.924  44.301  19.141 -0.43 -0.00    +0.000 A  ATOM     18  C   UNL     1      33.596  42.059  18.557 -0.41 -0.00    +0.000 A  ATOM     19  C   UNL     1      32.981  42.942  19.442 -0.41 +0.00    +0.000 A  ENDBRANCH  13  14ENDBRANCH  10  13ENDBRANCH   8  10ENDBRANCH   7   8BRANCH   7  20ATOM     20  C   UNL     1      38.598  47.548  15.467 -0.48 -0.00    +0.000 A  ATOM     21  C   UNL     1      39.415  48.642  15.115 -0.52 -0.01    +0.012 A  ATOM     22  C   UNL     1      39.034  46.744  16.539 -0.43 -0.00    +0.012 A  ATOM     23  C   UNL     1      40.596  48.926  15.805 -0.57 -0.01    +0.046 A  ATOM     24  C   UNL     1      40.218  47.022  17.233 -0.47 -0.01    +0.046 A  ATOM     25  C   UNL     1      40.988  48.115  16.859 -0.45 -0.01    +0.115 A  BRANCH  25  26ATOM     26  O   UNL     1      42.145  48.428  17.507 -0.39 -0.05    -0.508 OA ATOM     27  H   UNL     1      42.758  47.679  17.430 -0.36 -0.06    +0.293 HD ENDBRANCH  25  26ENDBRANCH   7  20TORSDOF 6TERENDMDL