MODEL        2USER    Run = 2USERUSER    Estimated Free Energy of Binding    =  -9.23 kcal/mol  [=(1)+(2)+(3)-(4)]USERUSER    (1) Final Intermolecular Energy     = -11.02 kcal/molUSER        vdW + Hbond + desolv Energy     = -10.65 kcal/molUSER        Electrostatic Energy            =  -0.37 kcal/molUSER        Moving Ligand-Fixed Receptor    = -11.02 kcal/molUSER        Moving Ligand-Moving Receptor   =  +0.00 kcal/molUSER    (2) Final Total Internal Energy     =  -1.37 kcal/molUSER    (3) Torsional Free Energy           =  +1.79 kcal/molUSER    (4) Unbound System's Energy         =  -1.37 kcal/molUSERUSERREMARK SMILES Cc1cc(CS(=O)(=O)N[C@]2(c3ccc(O)cc3)c3cnc(C)n32)ccn1REMARK SMILES IDX 9 1 6 3 7 4 8 5 5 6 4 7 2 8 3 9 26 10 25 11 24 12 1 13 10 14REMARK SMILES IDX 18 15 23 16 19 17 21 18 20 19 22 20 11 21 12 22 17 23 13 24REMARK SMILES IDX 16 25 14 26 15 27REMARK H PARENT 9 2 15 28USER                              x       y       z     vdW  Elec       q    TypeUSER                           _______ _______ _______ _____ _____    ______ ____ROOTATOM      1  N   UNL     1      35.697  46.613  16.381 -0.27 +0.19    -0.180 NA ATOM      2  H   UNL     1      35.126  47.445  16.549 -0.07 -0.30    +0.144 HD ENDROOTBRANCH   1   3ATOM      3  S   UNL     1      34.693  45.441  15.667 -0.34 -0.18    +0.218 S  ATOM      4  O   UNL     1      34.306  46.031  14.402 -0.35 +0.20    -0.212 OA ATOM      5  O   UNL     1      35.323  44.142  15.748 -0.27 +0.10    -0.212 OA BRANCH   3   6ATOM      6  C   UNL     1      33.296  45.494  16.795 -0.23 -0.15    +0.189 C  BRANCH   6   7ATOM      7  C   UNL     1      33.572  44.590  17.967 -0.33 +0.01    -0.028 A  ATOM      8  C   UNL     1      34.976  43.861  19.786 -0.38 -0.00    +0.038 A  ATOM      9  C   UNL     1      34.759  44.706  18.699 -0.36 -0.01    +0.028 A  ATOM     10  N   UNL     1      34.083  42.919  20.165 -0.62 -0.03    -0.262 NA ATOM     11  C   UNL     1      32.938  42.826  19.455 -0.31 +0.00    +0.111 A  ATOM     12  C   UNL     1      32.640  43.627  18.364 -0.33 -0.00    +0.025 A  ATOM     13  C   UNL     1      36.237  43.975  20.587 -0.43 -0.00    +0.067 C  ENDBRANCH   6   7ENDBRANCH   3   6ENDBRANCH   1   3BRANCH   1  14ATOM     14  C   UNL     1      36.945  46.935  15.648 -0.34 -0.12    +0.178 C  ATOM     15  C   UNL     1      36.890  47.984  14.645 -0.41 -0.07    +0.087 A  ATOM     16  N   UNL     1      36.944  46.564  14.285 -0.19 +0.15    -0.299 N  ATOM     17  C   UNL     1      36.839  48.594  13.435 -0.35 -0.07    +0.139 A  ATOM     18  C   UNL     1      36.908  46.573  12.942 -0.50 -0.04    +0.108 A  ATOM     19  N   UNL     1      36.834  47.749  12.389 -1.01 +0.08    -0.241 NA ATOM     20  C   UNL     1      36.968  45.290  12.195 -0.52 -0.03    +0.088 C  BRANCH  14  21ATOM     21  C   UNL     1      38.255  46.689  16.382 -0.40 -0.00    +0.000 A  ATOM     22  C   UNL     1      39.402  47.470  16.140 -0.48 -0.00    +0.012 A  ATOM     23  C   UNL     1      38.365  45.681  17.362 -0.38 -0.00    +0.012 A  ATOM     24  C   UNL     1      40.598  47.246  16.828 -0.48 -0.01    +0.046 A  ATOM     25  C   UNL     1      39.560  45.451  18.054 -0.40 -0.00    +0.046 A  ATOM     26  C   UNL     1      40.669  46.237  17.776 -0.41 -0.01    +0.115 A  BRANCH  26  27ATOM     27  O   UNL     1      41.856  46.049  18.419 -0.16 -0.02    -0.508 OA ATOM     28  H   UNL     1      42.545  46.555  17.960 -0.32 -0.03    +0.293 HD ENDBRANCH  26  27ENDBRANCH  14  21ENDBRANCH   1  14TORSDOF 6TERENDMDL