REMARK SMILES Cc1ncc2n1[C@]2(NS(=O)(=O)Cc1ccc(N)cc1)c1ccc(O)cc1
REMARK SMILES IDX 8 1 7 3 2 4 3 5 6 6 4 7 5 8 1 9 20 10 21 11 26 12 22 13
REMARK SMILES IDX 25 14 23 15 24 16 9 18 10 19 11 20 12 21 13 22 14 23 19 24
REMARK SMILES IDX 15 25 18 26 16 27 17 28
REMARK H PARENT 8 2 24 17 17 29 17 30
ROOT
ATOM      1  N   UNL     1       0.280   0.822   1.065  1.00  0.00    -0.180 NA
ATOM      2  H   UNL     1       0.796   1.691   1.213  1.00  0.00     0.144 HD
ENDROOT
BRANCH   1   3
ATOM      3  C   UNL     1      -1.141   0.969   0.700  1.00  0.00     0.178 C 
ATOM      4  C   UNL     1      -2.632   2.762  -0.290  1.00  0.00     0.108 A 
ATOM      5  N   UNL     1      -3.669   2.935   0.493  1.00  0.00    -0.241 NA
ATOM      6  N   UNL     1      -1.586   2.297   0.442  1.00  0.00    -0.299 N 
ATOM      7  C   UNL     1      -3.233   2.483   1.709  1.00  0.00     0.139 A 
ATOM      8  C   UNL     1      -2.030   1.810   1.667  1.00  0.00     0.087 A 
ATOM      9  C   UNL     1      -2.526   3.103  -1.725  1.00  0.00     0.088 C 
BRANCH   3  10
ATOM     10  C   UNL     1      -1.770  -0.163  -0.096  1.00  0.00     0.000 A 
ATOM     11  C   UNL     1      -2.714  -1.045   0.463  1.00  0.00     0.012 A 
ATOM     12  C   UNL     1      -1.389  -0.396  -1.433  1.00  0.00     0.012 A 
ATOM     13  C   UNL     1      -3.266  -2.097  -0.276  1.00  0.00     0.046 A 
ATOM     14  C   UNL     1      -1.934  -1.445  -2.177  1.00  0.00     0.046 A 
ATOM     15  C   UNL     1      -2.870  -2.285  -1.593  1.00  0.00     0.115 A 
BRANCH  15  16
ATOM     16  O   UNL     1      -3.377  -3.297  -2.351  1.00  0.00    -0.508 OA
ATOM     17  H   UNL     1      -4.045  -3.771  -1.828  1.00  0.00     0.293 HD
ENDBRANCH  15  16
ENDBRANCH   3  10
ENDBRANCH   1   3
BRANCH   1  18
ATOM     18  S   UNL     1       0.644  -0.260   2.304  1.00  0.00     0.218 S 
ATOM     19  O   UNL     1      -0.581  -0.770   2.882  1.00  0.00    -0.212 OA
ATOM     20  O   UNL     1       1.605   0.433   3.139  1.00  0.00    -0.212 OA
BRANCH  18  21
ATOM     21  C   UNL     1       1.469  -1.611   1.448  1.00  0.00     0.189 C 
BRANCH  21  22
ATOM     22  C   UNL     1       2.522  -1.100   0.498  1.00  0.00    -0.031 A 
ATOM     23  C   UNL     1       2.330  -1.193  -0.886  1.00  0.00     0.007 A 
ATOM     24  C   UNL     1       3.726  -0.564   0.970  1.00  0.00     0.007 A 
ATOM     25  C   UNL     1       3.305  -0.727  -1.773  1.00  0.00     0.026 A 
ATOM     26  C   UNL     1       4.696  -0.099   0.076  1.00  0.00     0.026 A 
ATOM     27  C   UNL     1       4.473  -0.127  -1.301  1.00  0.00     0.031 A 
BRANCH  27  28
ATOM     28  N   UNL     1       5.494   0.226  -2.188  1.00  0.00    -0.399 N 
ATOM     29  H   UNL     1       6.150   0.906  -1.815  1.00  0.00     0.156 HD
ATOM     30  H   UNL     1       5.171   0.469  -3.119  1.00  0.00     0.156 HD
ENDBRANCH  27  28
ENDBRANCH  21  22
ENDBRANCH  18  21
ENDBRANCH   1  18
TORSDOF 7
