MODEL        1USER    Run = 1USERUSER    Estimated Free Energy of Binding    =  -9.04 kcal/mol  [=(1)+(2)+(3)-(4)]USERUSER    (1) Final Intermolecular Energy     = -11.12 kcal/molUSER        vdW + Hbond + desolv Energy     = -10.78 kcal/molUSER        Electrostatic Energy            =  -0.35 kcal/molUSER        Moving Ligand-Fixed Receptor    = -11.12 kcal/molUSER        Moving Ligand-Moving Receptor   =  +0.00 kcal/molUSER    (2) Final Total Internal Energy     =  -1.11 kcal/molUSER    (3) Torsional Free Energy           =  +2.09 kcal/molUSER    (4) Unbound System's Energy         =  -1.11 kcal/molUSERUSERREMARK SMILES Cc1ncc2n1[C@]2(NS(=O)(=O)Cc1ccnc(N)c1)c1ccc(O)cc1REMARK SMILES IDX 8 1 7 3 2 4 3 5 6 6 4 7 5 8 1 9 20 10 21 11 26 12 22 13REMARK SMILES IDX 25 14 23 15 24 16 9 18 10 19 11 20 12 21 13 22 14 23 19 24REMARK SMILES IDX 15 25 17 26 16 27 18 28REMARK H PARENT 8 2 24 17 18 29 18 30USER                              x       y       z     vdW  Elec       q    TypeUSER                           _______ _______ _______ _____ _____    ______ ____ROOTATOM      1  N   UNL     1      36.719  45.795  17.700 -0.24 +0.07    -0.180 NA ATOM      2  H   UNL     1      36.637  46.815  17.697 +0.08 -0.08    +0.144 HD ENDROOTBRANCH   1   3ATOM      3  C   UNL     1      36.147  45.150  16.499 -0.27 -0.09    +0.178 C  ATOM      4  C   UNL     1      33.752  43.880  16.830 -0.24 -0.05    +0.108 A  ATOM      5  N   UNL     1      33.986  42.599  16.848 -0.24 +0.10    -0.241 NA ATOM      6  N   UNL     1      34.830  44.666  16.658 -0.11 +0.16    -0.299 N  ATOM      7  C   UNL     1      35.309  42.515  16.628 -0.35 -0.06    +0.139 A  ATOM      8  C   UNL     1      35.936  43.712  16.525 -0.32 -0.03    +0.087 A  ATOM      9  C   UNL     1      32.409  44.497  16.977 -0.30 -0.03    +0.088 C  BRANCH   3  10ATOM     10  C   UNL     1      36.435  45.819  15.165 -0.38 -0.00    +0.000 A  ATOM     11  C   UNL     1      36.589  47.218  15.070 -0.39 -0.01    +0.012 A  ATOM     12  C   UNL     1      36.595  45.078  13.978 -0.41 -0.00    +0.012 A  ATOM     13  C   UNL     1      36.870  47.842  13.851 -0.52 -0.03    +0.046 A  ATOM     14  C   UNL     1      36.880  45.696  12.755 -0.52 -0.02    +0.046 A  ATOM     15  C   UNL     1      37.013  47.075  12.704 -0.54 -0.04    +0.115 A  BRANCH  15  16ATOM     16  O   UNL     1      37.291  47.722  11.537 -0.74 +0.07    -0.508 OA ATOM     17  H   UNL     1      36.558  48.327  11.337 -0.15 -0.16    +0.293 HD ENDBRANCH  15  16ENDBRANCH   3  10ENDBRANCH   1   3BRANCH   1  18ATOM     18  S   UNL     1      38.310  45.384  18.111 -0.41 -0.04    +0.218 S  ATOM     19  O   UNL     1      38.775  46.247  19.173 -0.24 +0.02    -0.212 OA ATOM     20  O   UNL     1      38.273  43.944  18.265 -0.20 +0.03    -0.212 OA BRANCH  18  21ATOM     21  C   UNL     1      39.156  45.790  16.577 -0.28 -0.04    +0.189 C  BRANCH  21  22ATOM     22  C   UNL     1      40.081  46.953  16.806 -0.48 +0.00    -0.026 A  ATOM     23  C   UNL     1      41.085  46.898  17.774 -0.49 -0.00    +0.025 A  ATOM     24  C   UNL     1      39.948  48.131  16.060 -0.51 -0.01    +0.051 A  ATOM     25  C   UNL     1      41.900  48.005  17.943 -0.33 -0.00    +0.114 A  ATOM     26  C   UNL     1      40.822  49.186  16.293 -0.38 -0.02    +0.123 A  ATOM     27  N   UNL     1      41.791  49.139  17.219 -0.72 -0.04    -0.240 NA BRANCH  26  28ATOM     28  N   UNL     1      40.704  50.373  15.575 -0.29 +0.16    -0.384 N  ATOM     29  H   UNL     1      39.713  50.505  15.391 -0.37 -0.13    +0.158 HD ATOM     30  H   UNL     1      41.101  51.156  16.078 -0.45 -0.08    +0.158 HD ENDBRANCH  26  28ENDBRANCH  21  22ENDBRANCH  18  21ENDBRANCH   1  18TORSDOF 7TERENDMDL