MODEL        8USER    Run = 8USERUSER    Estimated Free Energy of Binding    =  -9.12 kcal/mol  [=(1)+(2)+(3)-(4)]USERUSER    (1) Final Intermolecular Energy     = -10.91 kcal/molUSER        vdW + Hbond + desolv Energy     = -10.64 kcal/molUSER        Electrostatic Energy            =  -0.27 kcal/molUSER        Moving Ligand-Fixed Receptor    = -10.91 kcal/molUSER        Moving Ligand-Moving Receptor   =  +0.00 kcal/molUSER    (2) Final Total Internal Energy     =  -1.05 kcal/molUSER    (3) Torsional Free Energy           =  +1.79 kcal/molUSER    (4) Unbound System's Energy         =  -1.05 kcal/molUSERUSERREMARK SMILES Cc1ncc2n1[C@@]2(NS(=O)(=O)Cc1ccncc1)c1ccc(O)cc1REMARK SMILES IDX 1 1 2 2 3 3 4 4 5 5 6 6 7 7 8 8 9 10 10 11 11 12 12 13 13 14REMARK SMILES IDX 14 15 18 16 15 17 17 18 16 19 19 20 20 21 25 22 21 23 24 24REMARK SMILES IDX 22 25 23 26REMARK H PARENT 8 9 23 27USER                              x       y       z     vdW  Elec       q    TypeUSER                           _______ _______ _______ _____ _____    ______ ____ROOTATOM      1  C   UNL     1      36.926  44.635  12.532 -0.47 -0.03    +0.088 C  ATOM      2  C   UNL     1      36.726  46.097  12.628 -0.51 -0.04    +0.108 A  ATOM      3  N   UNL     1      35.828  46.826  12.009 -0.48 +0.14    -0.241 NA ATOM      4  C   UNL     1      36.148  48.110  12.359 -0.45 -0.07    +0.139 A  ATOM      5  C   UNL     1      37.036  48.191  13.412 -0.49 -0.04    +0.087 A  ATOM      6  N   UNL     1      37.532  46.896  13.379 -0.27 +0.10    -0.299 N  ATOM      7  C   UNL     1      37.323  47.380  14.713 -0.39 -0.10    +0.178 C  ENDROOTBRANCH   7   8ATOM      8  N   UNL     1      36.139  46.872  15.466 -0.26 +0.17    -0.180 NA ATOM      9  H   UNL     1      36.001  47.444  16.310 +0.08 -0.19    +0.144 HD BRANCH   8  10ATOM     10  S   UNL     1      36.289  45.261  15.988 -0.36 -0.11    +0.218 S  ATOM     11  O   UNL     1      35.046  44.565  15.734 -0.25 +0.11    -0.212 OA ATOM     12  O   UNL     1      37.543  44.761  15.465 -0.27 +0.07    -0.212 OA BRANCH  10  13ATOM     13  C   UNL     1      36.444  45.446  17.772 -0.27 -0.07    +0.189 C  BRANCH  13  14ATOM     14  C   UNL     1      35.382  44.658  18.496 -0.34 +0.01    -0.029 A  ATOM     15  C   UNL     1      34.103  45.195  18.675 -0.43 -0.01    +0.025 A  ATOM     16  C   UNL     1      35.644  43.385  19.013 -0.36 -0.00    +0.025 A  ATOM     17  C   UNL     1      33.158  44.453  19.365 -0.35 -0.02    +0.111 A  ATOM     18  C   UNL     1      34.635  42.725  19.697 -0.35 -0.00    +0.111 A  ATOM     19  N   UNL     1      33.399  43.234  19.886 -0.78 -0.02    -0.265 NA ENDBRANCH  13  14ENDBRANCH  10  13ENDBRANCH   8  10ENDBRANCH   7   8BRANCH   7  20ATOM     20  C   UNL     1      38.608  47.654  15.467 -0.49 -0.00    +0.000 A  ATOM     21  C   UNL     1      38.883  46.996  16.683 -0.43 -0.00    +0.012 A  ATOM     22  C   UNL     1      39.573  48.571  15.004 -0.54 -0.00    +0.012 A  ATOM     23  C   UNL     1      40.068  47.224  17.394 -0.44 -0.01    +0.046 A  ATOM     24  C   UNL     1      40.758  48.804  15.706 -0.57 -0.01    +0.046 A  ATOM     25  C   UNL     1      40.998  48.126  16.893 -0.45 -0.01    +0.115 A  BRANCH  25  26ATOM     26  O   UNL     1      42.166  48.381  17.547 -0.39 -0.04    -0.508 OA ATOM     27  H   UNL     1      42.783  47.649  17.380 -0.36 -0.07    +0.293 HD ENDBRANCH  25  26ENDBRANCH   7  20TORSDOF 6TERENDMDL