MODEL        10USER    Run = 10USERUSER    Estimated Free Energy of Binding    =  -7.55 kcal/mol  [=(1)+(2)+(3)-(4)]USERUSER    (1) Final Intermolecular Energy     = -10.24 kcal/molUSER        vdW + Hbond + desolv Energy     = -10.58 kcal/molUSER        Electrostatic Energy            =  -0.00 kcal/molUSER        Moving Ligand-Fixed Receptor    = -10.58 kcal/molUSER        Moving Ligand-Moving Receptor   =  +0.34 kcal/molUSER    (2) Final Total Internal Energy     =  -1.14 kcal/molUSER    (3) Torsional Free Energy           =  +2.68 kcal/molUSER    (4) Unbound System's Energy         =  -1.14 kcal/molUSERUSERREMARK SMILES C[C@H]1CC(C(=O)Nc2cc(-c3ccncc3)[nH]n2)=CC=Cc2ccccc21REMARK SMILES IDX 3 1 2 2 1 3 27 4 26 5 22 6 25 7 23 8 24 9 21 10 20 11 4 13REMARK SMILES IDX 5 14 7 15 6 16 8 18 9 19 18 20 10 21 17 22 11 24 12 25 16 26REMARK SMILES IDX 13 27 15 28 14 29 19 30REMARK H PARENT 7 17 17 23REMARK Flexibility Score:  119.900USER                              x       y       z     vdW  Elec       q    TypeUSER                           _______ _______ _______ _____ _____    ______ ____ROOTATOM      1  C   UNL     1      44.964  52.476   9.814 -0.36 -0.02    +0.049 C  ENDROOTBRANCH   1   2ATOM      2  C   UNL     1      46.377  52.982   9.438 -0.28 -0.00    +0.021 C  ATOM      3  C   UNL     1      46.287  53.615   8.030 -0.24 -0.00    +0.013 C  BRANCH   2   4ATOM      4  C   UNL     1      47.570  52.022   9.622 -0.30 +0.01    -0.038 A  ATOM      5  C   UNL     1      48.137  51.440   8.457 -0.28 -0.00    +0.004 A  ATOM      6  C   UNL     1      48.213  51.728  10.850 -0.32 +0.00    -0.022 A  ATOM      7  C   UNL     1      49.244  50.589   8.494 -0.42 -0.00    +0.000 A  ATOM      8  C   UNL     1      49.335  50.866  10.866 -0.30 -0.00    +0.008 A  ATOM      9  C   UNL     1      49.843  50.295   9.704 -0.43 -0.00    +0.001 A  BRANCH   6  10ATOM     10  C   UNL     1      47.878  52.228  12.198 -0.30 -0.00    +0.008 C  BRANCH  10  11ATOM     11  C   UNL     1      46.656  52.273  12.751 -0.32 -0.00    +0.001 CG0ATOM     12  G   UNL     1      45.518  52.959  12.184 +0.00 +0.00    +0.000 G0 ENDBRANCH  10  11ENDBRANCH   6  10ENDBRANCH   2   4ENDBRANCH   1   2BRANCH   1  13ATOM     13  C   UNL     1      44.696  52.367  11.297 -0.44 -0.01    +0.018 C  BRANCH  13  14ATOM     14  C   UNL     1      43.535  51.614  11.879 -0.31 -0.14    +0.252 C  ATOM     15  N   UNL     1      43.619  51.368  13.224 -0.20 +0.13    -0.305 N  ATOM     16  O   UNL     1      42.602  51.261  11.160 -0.45 +0.16    -0.269 OA ATOM     17  H   UNL     1      44.421  51.625  13.773 -0.45 -0.09    +0.171 HD BRANCH  15  18ATOM     18  C   UNL     1      42.663  50.731  13.978 -0.46 -0.04    +0.155 A  ATOM     19  C   UNL     1      41.802  49.664  13.646 -0.49 -0.01    +0.077 A  ATOM     20  N   UNL     1      42.462  51.145  15.230 -0.20 +0.02    -0.157 NA ATOM     21  C   UNL     1      41.043  49.417  14.775 -0.59 -0.02    +0.067 A  ATOM     22  N   UNL     1      41.479  50.349  15.682 -0.45 +0.05    -0.276 N  ATOM     23  H   UNL     1      41.137  50.502  16.623 -0.14 -0.05    +0.190 HD BRANCH  21  24ATOM     24  C   UNL     1      39.982  48.447  15.036 -0.57 -0.00    +0.003 A  ATOM     25  C   UNL     1      40.103  47.480  16.038 -0.50 -0.01    +0.030 A  ATOM     26  C   UNL     1      38.811  48.462  14.273 -0.47 -0.01    +0.030 A  ATOM     27  C   UNL     1      39.059  46.588  16.234 -0.35 -0.03    +0.111 A  ATOM     28  C   UNL     1      37.822  47.531  14.547 -0.41 -0.05    +0.111 A  ATOM     29  N   UNL     1      37.918  46.597  15.515 -0.19 +0.12    -0.265 NA ENDBRANCH  21  24ENDBRANCH  15  18ENDBRANCH  13  14BRANCH  13  30ATOM     30  C   UNL     1      45.518  52.962  12.185 -0.34 -0.00    +0.009 CG0ATOM     31  G   UNL     1      46.655  52.276  12.754 +0.00 +0.00    +0.000 G0 ENDBRANCH  13  30ENDBRANCH   1  13TORSDOF 3TERENDMDL