MODEL        4USER    Run = 4USERUSER    Estimated Free Energy of Binding    =  -9.72 kcal/mol  [=(1)+(2)+(3)-(4)]USERUSER    (1) Final Intermolecular Energy     = -10.91 kcal/molUSER        vdW + Hbond + desolv Energy     = -10.92 kcal/molUSER        Electrostatic Energy            =  +0.01 kcal/molUSER        Moving Ligand-Fixed Receptor    = -10.91 kcal/molUSER        Moving Ligand-Moving Receptor   =  +0.00 kcal/molUSER    (2) Final Total Internal Energy     =  -0.98 kcal/molUSER    (3) Torsional Free Energy           =  +1.19 kcal/molUSER    (4) Unbound System's Energy         =  -0.98 kcal/molUSERUSERREMARK SMILES C1=C(NCc2ccccc2)NC2=CCN=C(c3cccc4cccnc34)C2=N1REMARK SMILES IDX 3 1 2 3 1 4 28 5 11 6 27 7 12 8 16 9 13 10 15 11 14 12 17 14REMARK SMILES IDX 18 15 26 16 19 17 25 18 21 19 20 20 24 21 22 22 23 23 4 24REMARK SMILES IDX 5 25 6 26 10 27 7 28 9 29 8 30REMARK H PARENT 3 2 11 13USER                              x       y       z     vdW  Elec       q    TypeUSER                           _______ _______ _______ _____ _____    ______ ____ROOTATOM      1  N   UNL     1      33.328  45.386  16.635 -0.09 +0.29    -0.366 N  ATOM      2  H   UNL     1      32.830  46.073  17.189 -0.11 -0.15    +0.162 HD ENDROOTBRANCH   1   3ATOM      3  C   UNL     1      34.485  45.888  16.081 -0.14 -0.13    +0.122 C  ATOM      4  C   UNL     1      35.470  46.497  16.790 -0.27 -0.16    +0.156 C  ATOM      5  N   UNL     1      36.646  47.009  16.267 -0.23 +0.21    -0.249 NA ATOM      6  N   UNL     1      34.661  45.776  14.718 -0.15 +0.29    -0.339 N  ATOM      7  C   UNL     1      36.802  46.865  14.979 -0.39 -0.07    +0.112 C  ATOM      8  C   UNL     1      35.766  46.275  14.076 -0.47 -0.04    +0.066 C  ATOM      9  C   UNL     1      38.074  47.341  14.316 -0.48 -0.04    +0.095 C  ATOM     10  C   UNL     1      35.986  46.335  12.762 -0.65 -0.01    +0.025 C  ATOM     11  N   UNL     1      38.215  47.432  13.036 -0.59 +0.05    -0.278 NA ATOM     12  C   UNL     1      37.172  46.974  12.128 -0.57 -0.05    +0.172 C  ATOM     13  H   UNL     1      33.951  45.305  14.182 +0.14 -0.11    +0.168 HD BRANCH   9  14ATOM     14  C   UNL     1      39.198  47.745  15.182 -0.49 -0.01    +0.028 A  ATOM     15  C   UNL     1      39.899  48.912  14.840 -0.49 -0.01    +0.013 A  ATOM     16  C   UNL     1      39.537  46.952  16.283 -0.41 -0.02    +0.080 A  ATOM     17  C   UNL     1      40.953  49.335  15.638 -0.66 -0.00    +0.001 A  ATOM     18  N   UNL     1      38.893  45.793  16.567 -0.20 +0.06    -0.256 NA ATOM     19  C   UNL     1      40.611  47.404  17.082 -0.53 -0.00    +0.001 A  ATOM     20  C   UNL     1      41.302  48.587  16.760 -0.45 -0.00    +0.010 A  ATOM     21  C   UNL     1      39.269  45.089  17.655 -0.26 -0.01    +0.112 A  ATOM     22  C   UNL     1      40.975  46.641  18.201 -0.51 -0.00    +0.012 A  ATOM     23  C   UNL     1      40.294  45.468  18.496 -0.45 -0.00    +0.021 A  ENDBRANCH   9  14ENDBRANCH   1   3BRANCH   1  24ATOM     24  C   UNL     1      33.121  44.022  17.088 -0.26 -0.06    +0.150 C  BRANCH  24  25ATOM     25  C   UNL     1      34.122  43.697  18.170 -0.30 +0.01    -0.029 A  ATOM     26  C   UNL     1      34.471  44.664  19.125 -0.40 -0.00    +0.005 A  ATOM     27  C   UNL     1      34.742  42.439  18.220 -0.40 -0.00    +0.005 A  ATOM     28  C   UNL     1      35.407  44.374  20.117 -0.32 -0.00    +0.000 A  ATOM     29  C   UNL     1      35.678  42.152  19.215 -0.35 -0.00    +0.000 A  ATOM     30  C   UNL     1      36.009  43.118  20.163 -0.44 -0.00    +0.000 A  ENDBRANCH  24  25ENDBRANCH   1  24TORSDOF 4TERENDMDL