MODEL        4USER    Run = 4USERUSER    Estimated Free Energy of Binding    =  -8.88 kcal/mol  [=(1)+(2)+(3)-(4)]USERUSER    (1) Final Intermolecular Energy     = -10.07 kcal/molUSER        vdW + Hbond + desolv Energy     =  -9.93 kcal/molUSER        Electrostatic Energy            =  -0.15 kcal/molUSER        Moving Ligand-Fixed Receptor    = -10.07 kcal/molUSER        Moving Ligand-Moving Receptor   =  +0.00 kcal/molUSER    (2) Final Total Internal Energy     =  -0.44 kcal/molUSER    (3) Torsional Free Energy           =  +1.19 kcal/molUSER    (4) Unbound System's Energy         =  -0.44 kcal/molUSERUSERREMARK SMILES COc1ccc(/C=C/c2n[nH]c3cc(Cl)ccc23)cc1CREMARK SMILES IDX 7 1 6 2 3 3 4 4 20 5 5 6 19 7 21 8 2 9 1 10 8 11 9 12 10 13REMARK SMILES IDX 18 14 11 15 17 16 12 17 16 18 13 19 14 20 15 22REMARK H PARENT 11 21USER                              x       y       z     vdW  Elec       q    TypeUSER                           _______ _______ _______ _____ _____    ______ ____ROOTATOM      1  C   UNL     1      37.131  46.202  16.317 -0.43 -0.01    +0.010 C  ENDROOTBRANCH   1   2ATOM      2  C   UNL     1      38.298  47.087  16.203 -0.40 +0.01    -0.025 A  ATOM      3  C   UNL     1      40.604  48.705  16.006 -0.49 -0.03    +0.121 A  ATOM      4  C   UNL     1      39.553  48.853  15.098 -0.47 -0.02    +0.047 A  ATOM      5  C   UNL     1      40.509  47.732  17.017 -0.52 +0.00    -0.008 A  ATOM      6  C   UNL     1      38.412  48.046  15.193 -0.51 -0.01    +0.012 A  ATOM      7  C   UNL     1      39.359  46.929  17.102 -0.44 -0.00    +0.015 A  ATOM      8  C   UNL     1      41.626  47.543  18.006 -0.54 -0.00    +0.048 C  BRANCH   3   9ATOM      9  O   UNL     1      41.759  49.443  15.997 -0.79 -0.06    -0.496 OA ATOM     10  C   UNL     1      41.911  50.402  14.959 -0.46 -0.05    +0.278 C  ENDBRANCH   3   9ENDBRANCH   1   2BRANCH   1  11ATOM     11  C   UNL     1      35.873  46.642  16.489 -0.39 -0.03    +0.031 C  BRANCH  11  12ATOM     12  C   UNL     1      34.926  46.166  17.454 -0.33 -0.08    +0.093 A  ATOM     13  N   UNL     1      34.407  46.991  18.374 -0.83 +0.15    -0.175 NA ATOM     14  C   UNL     1      34.434  44.832  17.617 -0.31 -0.01    +0.027 A  ATOM     15  N   UNL     1      33.566  46.220  19.076 -0.25 +0.16    -0.277 N  ATOM     16  C   UNL     1      34.645  43.573  17.016 -0.33 -0.01    +0.014 A  ATOM     17  C   UNL     1      33.538  44.912  18.681 -0.38 -0.02    +0.067 A  ATOM     18  C   UNL     1      33.937  42.458  17.486 -0.38 -0.01    +0.021 A  ATOM     19  C   UNL     1      32.817  43.815  19.167 -0.39 -0.01    +0.048 A  ATOM     20  C   UNL     1      33.037  42.586  18.541 -0.34 -0.01    +0.043 A  ATOM     21  H   UNL     1      33.040  46.649  19.829 -0.43 -0.12    +0.190 HD ATOM     22  Cl  UNL     1      32.182  41.197  19.096 -0.51 -0.00    -0.084 Cl ENDBRANCH  11  12ENDBRANCH   1  11TORSDOF 4TERENDMDL