REMARK SMILES C[C@H]1CC(C(=O)Nc2cc(-c3ccncc3)[nH]n2)=CC=Cc2ccccc21
REMARK SMILES IDX 3 1 2 2 1 3 27 4 26 5 22 6 25 7 23 8 24 9 21 10 20 11 4 13
REMARK SMILES IDX 5 14 7 15 6 16 8 18 9 19 18 20 10 21 17 22 11 24 12 25 16 26
REMARK SMILES IDX 13 27 15 28 14 29 19 30
REMARK H PARENT 7 17 17 23
REMARK Flexibility Score:  119.900
ROOT
ATOM      1  C   UNL     1       2.035   0.674   2.059  1.00  0.00     0.049 C 
ENDROOT
BRANCH   1   2
ATOM      2  C   UNL     1       2.859   1.250   0.882  1.00  0.00     0.021 C 
ATOM      3  C   UNL     1       1.889   2.051  -0.018  1.00  0.00     0.013 C 
BRANCH   2   4
ATOM      4  C   UNL     1       3.794   0.297   0.109  1.00  0.00    -0.038 A 
ATOM      5  C   UNL     1       4.123   0.635  -1.230  1.00  0.00     0.004 A 
ATOM      6  C   UNL     1       4.428  -0.852   0.644  1.00  0.00    -0.022 A 
ATOM      7  C   UNL     1       4.991  -0.128  -2.015  1.00  0.00     0.000 A 
ATOM      8  C   UNL     1       5.307  -1.609  -0.167  1.00  0.00     0.008 A 
ATOM      9  C   UNL     1       5.582  -1.258  -1.484  1.00  0.00     0.001 A 
BRANCH   6  10
ATOM     10  C   UNL     1       4.316  -1.404   2.008  1.00  0.00     0.008 C 
BRANCH  10  11
ATOM     11  C   UNL     1       3.209  -1.905   2.578  1.00  0.00     0.001 CG0
ATOM     12  G   UNL     1       1.878  -1.804   2.026  1.00  0.00     0.000 G0
ENDBRANCH  10  11
ENDBRANCH   6  10
ENDBRANCH   2   4
ENDBRANCH   1   2
BRANCH   1  13
ATOM     13  C   UNL     1       1.304  -0.614   1.758  1.00  0.00     0.018 C 
BRANCH  13  14
ATOM     14  C   UNL     1      -0.071  -0.668   1.157  1.00  0.00     0.252 C 
ATOM     15  N   UNL     1      -0.803   0.483   1.280  1.00  0.00    -0.305 N 
ATOM     16  O   UNL     1      -0.467  -1.694   0.608  1.00  0.00    -0.269 OA
ATOM     17  H   UNL     1      -0.468   1.288   1.781  1.00  0.00     0.171 HD
BRANCH  15  18
ATOM     18  C   UNL     1      -2.067   0.681   0.778  1.00  0.00     0.155 A 
ATOM     19  C   UNL     1      -2.899  -0.185   0.038  1.00  0.00     0.077 A 
ATOM     20  N   UNL     1      -2.654   1.861   0.982  1.00  0.00    -0.157 NA
ATOM     21  C   UNL     1      -4.063   0.519  -0.210  1.00  0.00     0.067 A 
ATOM     22  N   UNL     1      -3.844   1.742   0.371  1.00  0.00    -0.276 N 
ATOM     23  H   UNL     1      -4.463   2.544   0.374  1.00  0.00     0.190 HD
BRANCH  21  24
ATOM     24  C   UNL     1      -5.279   0.157  -0.935  1.00  0.00     0.003 A 
ATOM     25  C   UNL     1      -6.515   0.731  -0.625  1.00  0.00     0.030 A 
ATOM     26  C   UNL     1      -5.231  -0.790  -1.961  1.00  0.00     0.030 A 
ATOM     27  C   UNL     1      -7.631   0.343  -1.351  1.00  0.00     0.111 A 
ATOM     28  C   UNL     1      -6.401  -1.110  -2.632  1.00  0.00     0.111 A 
ATOM     29  N   UNL     1      -7.600  -0.560  -2.352  1.00  0.00    -0.265 NA
ENDBRANCH  21  24
ENDBRANCH  15  18
ENDBRANCH  13  14
BRANCH  13  30
ATOM     30  C   UNL     1       1.878  -1.804   2.026  1.00  0.00     0.009 CG0
ATOM     31  G   UNL     1       3.209  -1.905   2.578  1.00  0.00     0.000 G0
ENDBRANCH  13  30
ENDBRANCH   1  13
TORSDOF 3
