MODEL        7USER    Run = 7USERUSER    Estimated Free Energy of Binding    =  -9.80 kcal/mol  [=(1)+(2)+(3)-(4)]USERUSER    (1) Final Intermolecular Energy     = -11.59 kcal/molUSER        vdW + Hbond + desolv Energy     = -11.28 kcal/molUSER        Electrostatic Energy            =  -0.30 kcal/molUSER        Moving Ligand-Fixed Receptor    = -11.59 kcal/molUSER        Moving Ligand-Moving Receptor   =  +0.00 kcal/molUSER    (2) Final Total Internal Energy     =  -2.12 kcal/molUSER    (3) Torsional Free Energy           =  +1.79 kcal/molUSER    (4) Unbound System's Energy         =  -2.12 kcal/molUSERUSERREMARK SMILES C[C@@H]1CN(CC2=C(c3ccccc3)c3ccccc3C2=O)CCN1CCOREMARK SMILES IDX 1 1 2 2 3 3 4 4 22 5 23 6 24 7 25 8 26 9 27 10 5 12 6 13REMARK SMILES IDX 7 14 20 15 14 16 19 17 15 18 18 19 16 20 17 21 21 22 8 23REMARK SMILES IDX 9 24 13 25 10 26 12 27 11 28REMARK H PARENT 27 11USER                              x       y       z     vdW  Elec       q    TypeUSER                           _______ _______ _______ _____ _____    ______ ____ROOTATOM      1  C   UNL     1      34.492  45.887  14.502 -0.34 -0.02    +0.026 C  ATOM      2  C   UNL     1      33.944  45.697  15.923 -0.12 -0.07    +0.067 C  ATOM      3  C   UNL     1      35.085  45.687  16.998 -0.34 -0.08    +0.103 C  ATOM      4  N   UNL     1      35.792  44.416  17.257 -0.11 +0.11    -0.296 NA ATOM      5  C   UNL     1      34.811  43.321  17.337 -0.34 -0.03    +0.100 C  ATOM      6  C   UNL     1      33.791  43.277  16.183 -0.33 -0.05    +0.100 C  ATOM      7  N   UNL     1      33.033  44.537  16.082 -0.14 +0.17    -0.296 NA ENDROOTBRANCH   7   8ATOM      8  C   UNL     1      31.961  44.427  15.081 -0.31 -0.07    +0.113 C  BRANCH   8   9ATOM      9  C   UNL     1      31.165  45.721  14.869 -0.43 -0.11    +0.171 C  BRANCH   9  10ATOM     10  O   UNL     1      31.127  46.464  16.086 -0.49 +0.14    -0.395 OA ATOM     11  H   UNL     1      32.047  46.558  16.385 -0.36 -0.24    +0.210 HD ENDBRANCH   9  10ENDBRANCH   8   9ENDBRANCH   7   8BRANCH   4  12ATOM     12  C   UNL     1      36.880  44.121  16.317 -0.33 -0.04    +0.125 C  BRANCH  12  13ATOM     13  C   UNL     1      37.964  45.150  16.341 -0.38 -0.01    +0.023 C  ATOM     14  C   UNL     1      38.300  46.100  15.438 -0.45 +0.00    -0.002 C  ATOM     15  C   UNL     1      38.803  45.342  17.550 -0.32 -0.03    +0.191 C  ATOM     16  C   UNL     1      39.392  46.903  15.995 -0.46 +0.00    -0.006 A  ATOM     17  C   UNL     1      39.699  46.452  17.268 -0.44 -0.01    +0.030 A  ATOM     18  C   UNL     1      40.102  47.963  15.455 -0.54 -0.00    +0.009 A  ATOM     19  C   UNL     1      40.686  47.012  18.058 -0.49 -0.00    +0.013 A  ATOM     20  C   UNL     1      41.111  48.553  16.226 -0.55 -0.00    +0.001 A  ATOM     21  C   UNL     1      41.401  48.082  17.520 -0.50 -0.00    +0.001 A  ATOM     22  O   UNL     1      38.752  44.718  18.590 -0.25 +0.03    -0.289 OA BRANCH  14  23ATOM     23  C   UNL     1      37.622  46.277  14.149 -0.42 +0.01    -0.017 A  ATOM     24  C   UNL     1      37.396  45.171  13.319 -0.42 -0.00    +0.009 A  ATOM     25  C   UNL     1      37.185  47.540  13.733 -0.54 -0.00    +0.009 A  ATOM     26  C   UNL     1      36.749  45.328  12.091 -0.57 -0.00    +0.001 A  ATOM     27  C   UNL     1      36.538  47.696  12.506 -0.68 -0.00    +0.001 A  ATOM     28  C   UNL     1      36.320  46.591  11.686 -0.63 -0.00    +0.000 A  ENDBRANCH  14  23ENDBRANCH  12  13ENDBRANCH   4  12TORSDOF 6TERENDMDL