MODEL        4USER    Run = 4USERUSER    Estimated Free Energy of Binding    =  -8.60 kcal/mol  [=(1)+(2)+(3)-(4)]USERUSER    (1) Final Intermolecular Energy     = -10.39 kcal/molUSER        vdW + Hbond + desolv Energy     = -10.10 kcal/molUSER        Electrostatic Energy            =  -0.29 kcal/molUSER        Moving Ligand-Fixed Receptor    = -10.39 kcal/molUSER        Moving Ligand-Moving Receptor   =  +0.00 kcal/molUSER    (2) Final Total Internal Energy     =  -0.82 kcal/molUSER    (3) Torsional Free Energy           =  +1.79 kcal/molUSER    (4) Unbound System's Energy         =  -0.82 kcal/molUSERUSERREMARK SMILES COc1ccc(CCN(C)c2nc3ccccc3c(=O)[nH]2)cc1OCREMARK SMILES IDX 7 1 6 2 3 3 4 4 23 5 5 6 22 7 2 8 1 9 24 10 25 11 8 12 9 13REMARK SMILES IDX 10 14 11 15 12 16 21 17 13 18 19 19 14 20 18 21 15 22 17 23REMARK SMILES IDX 16 24 20 26REMARK H PARENT 21 25USER                              x       y       z     vdW  Elec       q    TypeUSER                           _______ _______ _______ _____ _____    ______ ____ROOTATOM      1  C   UNL     1      37.980  47.687  13.817 -0.55 -0.02    +0.057 C  ENDROOTBRANCH   1   2ATOM      2  C   UNL     1      39.065  47.836  14.855 -0.48 +0.02    -0.042 A  ATOM      3  C   UNL     1      41.054  48.144  16.824 -0.41 -0.02    +0.160 A  ATOM      4  C   UNL     1      40.115  47.112  16.920 -0.46 -0.01    +0.051 A  ATOM      5  C   UNL     1      41.000  49.032  15.731 -0.49 -0.02    +0.160 A  ATOM      6  C   UNL     1      39.128  46.960  15.943 -0.45 -0.00    +0.008 A  ATOM      7  C   UNL     1      40.005  48.872  14.759 -0.49 -0.02    +0.054 A  BRANCH   3   8ATOM      8  O   UNL     1      42.055  48.370  17.737 -0.44 -0.02    -0.493 OA ATOM      9  C   UNL     1      42.265  47.388  18.741 -0.40 +0.01    +0.278 C  ENDBRANCH   3   8BRANCH   5  10ATOM     10  O   UNL     1      41.954  50.020  15.711 -0.68 -0.03    -0.493 OA ATOM     11  C   UNL     1      42.325  50.555  14.450 -0.44 -0.05    +0.278 C  ENDBRANCH   5  10ENDBRANCH   1   2BRANCH   1  12ATOM     12  C   UNL     1      36.583  47.719  14.448 -0.41 -0.10    +0.124 C  BRANCH  12  13ATOM     13  N   UNL     1      36.042  46.365  14.560 -0.16 +0.24    -0.345 N  ATOM     14  C   UNL     1      35.882  45.639  13.302 -0.29 -0.07    +0.146 C  BRANCH  13  15ATOM     15  C   UNL     1      35.591  45.783  15.732 -0.21 -0.15    +0.205 A  ATOM     16  N   UNL     1      35.666  44.497  15.911 -0.20 +0.10    -0.214 NA ATOM     17  N   UNL     1      35.069  46.593  16.712 -0.11 +0.37    -0.292 N  ATOM     18  C   UNL     1      35.203  43.935  17.111 -0.27 -0.03    +0.080 A  ATOM     19  C   UNL     1      34.603  46.153  17.925 -0.27 -0.20    +0.260 A  ATOM     20  C   UNL     1      35.281  42.552  17.285 -0.40 -0.01    +0.029 A  ATOM     21  C   UNL     1      34.668  44.704  18.143 -0.30 -0.03    +0.066 A  ATOM     22  C   UNL     1      34.832  41.955  18.468 -0.35 -0.00    +0.002 A  ATOM     23  C   UNL     1      34.214  44.123  19.331 -0.40 -0.00    +0.016 A  ATOM     24  C   UNL     1      34.300  42.742  19.491 -0.42 -0.00    +0.001 A  ATOM     25  H   UNL     1      35.025  47.587  16.585 -0.00 -0.42    +0.173 HD ATOM     26  O   UNL     1      34.166  46.925  18.772 -1.02 +0.18    -0.269 OA ENDBRANCH  13  15ENDBRANCH  12  13ENDBRANCH   1  12TORSDOF 6TERENDMDL