REMARK SMILES COc1ccc(Nc2nc3cc(F)ccc3c(=O)n2C2CCN(C)CC2)cc1OC
REMARK SMILES IDX 7 1 6 3 3 4 4 5 28 6 5 7 27 8 2 9 1 10 29 11 30 12 8 13 9 14
REMARK SMILES IDX 19 15 10 16 17 17 11 18 16 19 12 20 15 21 14 22 18 23 13 24
REMARK SMILES IDX 20 25 21 26 26 27 22 28 25 29 23 30 24 31
REMARK H PARENT 7 2
ROOT
ATOM      1  N   UNL     1      -0.054   0.344  -0.099  1.00  0.00    -0.325 N 
ATOM      2  H   UNL     1      -0.628   1.157  -0.243  1.00  0.00     0.170 HD
ENDROOT
BRANCH   1   3
ATOM      3  C   UNL     1       1.322   0.656  -0.065  1.00  0.00     0.045 A 
ATOM      4  C   UNL     1       4.062   1.363  -0.141  1.00  0.00     0.160 A 
ATOM      5  C   UNL     1       3.079   2.278  -0.534  1.00  0.00     0.052 A 
ATOM      6  C   UNL     1       3.683   0.111   0.352  1.00  0.00     0.162 A 
ATOM      7  C   UNL     1       1.729   1.923  -0.510  1.00  0.00     0.030 A 
ATOM      8  C   UNL     1       2.319  -0.227   0.366  1.00  0.00     0.076 A 
BRANCH   4   9
ATOM      9  O   UNL     1       5.370   1.759  -0.185  1.00  0.00    -0.493 OA
ATOM     10  C   UNL     1       5.824   1.916  -1.530  1.00  0.00     0.278 C 
ENDBRANCH   4   9
BRANCH   6  11
ATOM     11  O   UNL     1       4.476  -0.892   0.844  1.00  0.00    -0.493 OA
ATOM     12  C   UNL     1       5.870  -0.657   0.973  1.00  0.00     0.278 C 
ENDBRANCH   6  11
ENDBRANCH   1   3
BRANCH   1  13
ATOM     13  C   UNL     1      -0.681  -0.884  -0.083  1.00  0.00     0.211 A 
ATOM     14  N   UNL     1       0.019  -1.971  -0.249  1.00  0.00    -0.214 NA
ATOM     15  N   UNL     1      -2.075  -0.945   0.073  1.00  0.00    -0.275 N 
ATOM     16  C   UNL     1      -0.582  -3.223  -0.281  1.00  0.00     0.083 A 
ATOM     17  C   UNL     1      -2.764  -2.156  -0.109  1.00  0.00     0.263 A 
ATOM     18  C   UNL     1       0.225  -4.357  -0.378  1.00  0.00     0.068 A 
ATOM     19  C   UNL     1      -1.959  -3.375  -0.242  1.00  0.00     0.066 A 
ATOM     20  C   UNL     1      -0.358  -5.619  -0.435  1.00  0.00     0.125 A 
ATOM     21  C   UNL     1      -2.552  -4.644  -0.308  1.00  0.00     0.019 A 
ATOM     22  C   UNL     1      -1.742  -5.774  -0.404  1.00  0.00     0.040 A 
ATOM     23  O   UNL     1      -3.988  -2.257  -0.177  1.00  0.00    -0.268 OA
ATOM     24  F   UNL     1       0.424  -6.701  -0.525  1.00  0.00    -0.207 F 
BRANCH  15  25
ATOM     25  C   UNL     1      -2.945   0.227   0.355  1.00  0.00     0.096 C 
ATOM     26  C   UNL     1      -2.551   1.020   1.613  1.00  0.00     0.041 C 
ATOM     27  C   UNL     1      -3.172   1.118  -0.873  1.00  0.00     0.041 C 
ATOM     28  C   UNL     1      -3.499   2.204   1.825  1.00  0.00     0.086 C 
ATOM     29  C   UNL     1      -4.076   2.304  -0.526  1.00  0.00     0.086 C 
ATOM     30  N   UNL     1      -3.631   3.063   0.643  1.00  0.00    -0.306 NA
ATOM     31  C   UNL     1      -2.448   3.873   0.387  1.00  0.00     0.105 C 
ENDBRANCH  15  25
ENDBRANCH   1  13
TORSDOF 5
