MODEL        5USER    Run = 5USERUSER    Estimated Free Energy of Binding    =  -9.95 kcal/mol  [=(1)+(2)+(3)-(4)]USERUSER    (1) Final Intermolecular Energy     = -11.44 kcal/molUSER        vdW + Hbond + desolv Energy     = -11.27 kcal/molUSER        Electrostatic Energy            =  -0.18 kcal/molUSER        Moving Ligand-Fixed Receptor    = -11.44 kcal/molUSER        Moving Ligand-Moving Receptor   =  +0.00 kcal/molUSER    (2) Final Total Internal Energy     =  -1.30 kcal/molUSER    (3) Torsional Free Energy           =  +1.49 kcal/molUSER    (4) Unbound System's Energy         =  -1.30 kcal/molUSERUSERREMARK SMILES COc1ccc(Nc2nc3cc(F)ccc3c(=O)n2C2CCN(C)CC2)cc1OCREMARK SMILES IDX 7 1 6 3 3 4 4 5 28 6 5 7 27 8 2 9 1 10 29 11 30 12 8 13 9 14REMARK SMILES IDX 19 15 10 16 17 17 11 18 16 19 12 20 15 21 14 22 18 23 13 24REMARK SMILES IDX 20 25 21 26 26 27 22 28 25 29 23 30 24 31REMARK H PARENT 7 2USER                              x       y       z     vdW  Elec       q    TypeUSER                           _______ _______ _______ _____ _____    ______ ____ROOTATOM      1  N   UNL     1      37.332  45.743  16.923 -0.15 +0.13    -0.325 N  ATOM      2  H   UNL     1      36.999  45.934  15.994 +0.13 -0.09    +0.170 HD ENDROOTBRANCH   1   3ATOM      3  C   UNL     1      36.347  45.140  17.734 -0.31 -0.02    +0.045 A  ATOM      4  C   UNL     1      34.329  44.083  19.415 -0.29 -0.03    +0.160 A  ATOM      5  C   UNL     1      34.117  45.271  18.708 -0.41 -0.02    +0.052 A  ATOM      6  C   UNL     1      35.525  43.380  19.241 -0.28 -0.02    +0.162 A  ATOM      7  C   UNL     1      35.118  45.799  17.891 -0.38 -0.02    +0.030 A  ATOM      8  C   UNL     1      36.520  43.929  18.415 -0.27 -0.02    +0.076 A  BRANCH   4   9ATOM      9  O   UNL     1      33.318  43.609  20.204 -0.74 -0.04    -0.493 OA ATOM     10  C   UNL     1      32.145  43.329  19.438 -0.26 -0.00    +0.278 C  ENDBRANCH   4   9BRANCH   6  11ATOM     11  O   UNL     1      35.899  42.178  19.783 -0.14 +0.03    -0.493 OA ATOM     12  C   UNL     1      36.211  42.122  21.166 -0.37 +0.01    +0.278 C  ENDBRANCH   6  11ENDBRANCH   1   3BRANCH   1  13ATOM     13  C   UNL     1      38.592  46.194  17.255 -0.26 -0.06    +0.211 A  ATOM     14  N   UNL     1      39.155  45.791  18.359 -0.29 +0.03    -0.214 NA ATOM     15  N   UNL     1      39.237  47.117  16.416 -0.26 +0.08    -0.275 N  ATOM     16  C   UNL     1      40.405  46.256  18.748 -0.40 -0.00    +0.083 A  ATOM     17  C   UNL     1      40.425  47.748  16.823 -0.32 -0.05    +0.263 A  ATOM     18  C   UNL     1      40.995  45.727  19.896 -0.36 +0.00    +0.068 A  ATOM     19  C   UNL     1      41.071  47.244  18.040 -0.47 -0.01    +0.066 A  ATOM     20  C   UNL     1      42.236  46.195  20.315 -0.29 +0.03    +0.125 A  ATOM     21  C   UNL     1      42.318  47.726  18.464 -0.49 -0.00    +0.019 A  ATOM     22  C   UNL     1      42.904  47.194  19.611 -0.47 +0.01    +0.040 A  ATOM     23  O   UNL     1      40.945  48.696  16.238 -0.63 +0.04    -0.268 OA ATOM     24  F   UNL     1      42.796  45.680  21.416 -0.06 -0.07    -0.207 F  BRANCH  15  25ATOM     25  C   UNL     1      38.717  47.567  15.098 -0.48 -0.04    +0.096 C  ATOM     26  C   UNL     1      38.551  46.440  14.064 -0.44 -0.01    +0.041 C  ATOM     27  C   UNL     1      37.478  48.465  15.215 -0.54 -0.03    +0.041 C  ATOM     28  C   UNL     1      38.013  46.995  12.741 -0.33 -0.02    +0.086 C  ATOM     29  C   UNL     1      36.989  48.901  13.831 -0.46 -0.05    +0.086 C  ATOM     30  N   UNL     1      36.791  47.791  12.898 -0.72 +0.12    -0.306 NA ATOM     31  C   UNL     1      35.616  46.986  13.203 -0.53 -0.07    +0.105 C  ENDBRANCH  15  25ENDBRANCH   1  13TORSDOF 5TERENDMDL