MODEL        7USER    Run = 7USERUSER    Estimated Free Energy of Binding    = -12.98 kcal/mol  [=(1)+(2)+(3)-(4)]USERUSER    (1) Final Intermolecular Energy     = -14.77 kcal/molUSER        vdW + Hbond + desolv Energy     = -14.60 kcal/molUSER        Electrostatic Energy            =  -0.18 kcal/molUSER        Moving Ligand-Fixed Receptor    = -14.77 kcal/molUSER        Moving Ligand-Moving Receptor   =  +0.00 kcal/molUSER    (2) Final Total Internal Energy     =  -2.57 kcal/molUSER    (3) Torsional Free Energy           =  +1.79 kcal/molUSER    (4) Unbound System's Energy         =  -2.57 kcal/molUSERUSERREMARK SMILES Oc1nc2ccccc2n1C1CCN(Cc2ccc(-c3nc4ccc(F)cc4nc3-c3ccncc3)cc2)CC1REMARK SMILES IDX 11 1 12 2 13 3 14 4 39 5 40 6 10 7 2 8 3 9 4 10 9 11 5 12REMARK SMILES IDX 8 13 6 14 7 15 1 16 15 18 16 19 17 20 38 21 18 22 37 23REMARK SMILES IDX 19 24 20 25 21 26 30 27 22 28 29 29 23 30 28 31 24 32 27 33REMARK SMILES IDX 25 34 26 35 31 36 32 37 36 38 33 39 35 40 34 41REMARK H PARENT 1 17USER                              x       y       z     vdW  Elec       q    TypeUSER                           _______ _______ _______ _____ _____    ______ ____ROOTATOM      1  C   UNL     1      39.157  48.470  14.660 -0.52 -0.04    +0.095 C  ATOM      2  C   UNL     1      37.739  48.820  15.127 -0.54 -0.03    +0.041 C  ATOM      3  C   UNL     1      36.723  48.507  14.035 -0.42 -0.06    +0.087 C  ATOM      4  N   UNL     1      36.727  47.107  13.586 -0.29 +0.15    -0.299 NA ATOM      5  C   UNL     1      37.916  46.352  14.006 -0.44 -0.03    +0.087 C  ATOM      6  C   UNL     1      39.202  47.161  13.856 -0.23 -0.01    +0.041 C  ENDROOTBRANCH   1   7ATOM      7  N   UNL     1      40.100  48.514  15.773 -0.32 +0.09    -0.291 N  ATOM      8  C   UNL     1      41.037  49.480  16.015 -0.34 -0.05    +0.295 A  ATOM      9  N   UNL     1      41.757  49.253  17.077 -0.80 -0.03    -0.195 NA ATOM     10  C   UNL     1      41.288  48.053  17.553 -0.41 -0.01    +0.092 A  ATOM     11  C   UNL     1      40.250  47.558  16.758 -0.46 -0.01    +0.072 A  ATOM     12  C   UNL     1      41.713  47.318  18.671 -0.48 -0.00    +0.031 A  ATOM     13  C   UNL     1      39.612  46.340  17.031 -0.44 -0.01    +0.029 A  ATOM     14  C   UNL     1      41.088  46.099  18.956 -0.48 +0.00    +0.002 A  ATOM     15  C   UNL     1      40.055  45.620  18.148 -0.45 -0.00    +0.002 A  BRANCH   8  16ATOM     16  O   UNL     1      41.227  50.551  15.272 -0.41 +0.16    -0.480 OA ATOM     17  H   UNL     1      40.335  50.943  15.278 -0.22 -0.20    +0.296 HD ENDBRANCH   8  16ENDBRANCH   1   7BRANCH   4  18ATOM     18  C   UNL     1      35.511  46.378  13.988 -0.43 -0.09    +0.120 C  BRANCH  18  19ATOM     19  C   UNL     1      35.620  45.720  15.348 -0.34 +0.02    -0.034 A  ATOM     20  C   UNL     1      35.788  44.335  15.459 -0.35 -0.00    +0.006 A  ATOM     21  C   UNL     1      35.511  46.482  16.519 -0.30 -0.01    +0.006 A  ATOM     22  C   UNL     1      35.858  43.727  16.716 -0.36 -0.00    +0.011 A  ATOM     23  C   UNL     1      35.573  45.869  17.775 -0.36 -0.01    +0.011 A  ATOM     24  C   UNL     1      35.763  44.481  17.899 -0.32 -0.00    +0.002 A  BRANCH  24  25ATOM     25  C   UNL     1      35.829  43.811  19.211 -0.31 -0.02    +0.097 A  ATOM     26  N   UNL     1      36.946  44.129  19.928 -0.23 +0.02    -0.244 NA ATOM     27  C   UNL     1      34.877  42.913  19.717 -0.36 -0.00    +0.097 A  ATOM     28  C   UNL     1      37.121  43.525  21.114 -0.34 +0.00    +0.090 A  ATOM     29  N   UNL     1      35.071  42.291  20.917 -0.22 -0.03    -0.244 NA ATOM     30  C   UNL     1      38.250  43.822  21.870 -0.32 +0.00    +0.033 A  ATOM     31  C   UNL     1      36.181  42.594  21.610 -0.35 +0.01    +0.092 A  ATOM     32  C   UNL     1      38.469  43.213  23.106 -0.28 +0.00    +0.041 A  ATOM     33  C   UNL     1      36.406  41.990  22.839 -0.40 +0.00    +0.069 A  ATOM     34  C   UNL     1      37.540  42.299  23.578 -0.30 +0.01    +0.125 A  ATOM     35  F   UNL     1      37.740  41.710  24.763 -0.05 -0.01    -0.207 F  BRANCH  27  36ATOM     36  C   UNL     1      33.594  42.561  19.077 -0.40 -0.00    +0.005 A  ATOM     37  C   UNL     1      33.417  41.374  18.353 -0.35 -0.01    +0.030 A  ATOM     38  C   UNL     1      32.506  43.444  19.139 -0.39 -0.00    +0.030 A  ATOM     39  C   UNL     1      32.185  41.114  17.773 -0.30 -0.03    +0.111 A  ATOM     40  C   UNL     1      31.315  43.100  18.521 -0.17 -0.01    +0.111 A  ATOM     41  N   UNL     1      31.129  41.949  17.845 -0.13 +0.05    -0.265 NA ENDBRANCH  27  36ENDBRANCH  24  25ENDBRANCH  18  19ENDBRANCH   4  18TORSDOF 6TERENDMDL