REMARK SMILES Oc1nc2ccccc2n1C1CCN(Cc2ccc(-c3nc4ccc(F)cc4nc3-c3ccncc3)cc2)CC1
REMARK SMILES IDX 11 1 12 2 13 3 14 4 39 5 40 6 10 7 2 8 3 9 4 10 9 11 5 12
REMARK SMILES IDX 8 13 6 14 7 15 1 16 15 18 16 19 17 20 38 21 18 22 37 23
REMARK SMILES IDX 19 24 20 25 21 26 30 27 22 28 29 29 23 30 28 31 24 32 27 33
REMARK SMILES IDX 25 34 26 35 31 36 32 37 36 38 33 39 35 40 34 41
REMARK H PARENT 1 17
ROOT
ATOM      1  C   UNL     1      -4.459   0.380  -0.065  1.00  0.00     0.095 C 
ATOM      2  C   UNL     1      -3.392  -0.711  -0.211  1.00  0.00     0.041 C 
ATOM      3  C   UNL     1      -2.002  -0.139   0.045  1.00  0.00     0.087 C 
ATOM      4  N   UNL     1      -1.839   0.490   1.364  1.00  0.00    -0.299 NA
ATOM      5  C   UNL     1      -3.109   0.763   2.053  1.00  0.00     0.087 C 
ATOM      6  C   UNL     1      -4.172   1.326   1.112  1.00  0.00     0.041 C 
ENDROOT
BRANCH   1   7
ATOM      7  N   UNL     1      -5.799  -0.198  -0.046  1.00  0.00    -0.291 N 
ATOM      8  C   UNL     1      -6.381  -0.882   0.985  1.00  0.00     0.295 A 
ATOM      9  N   UNL     1      -7.586  -1.301   0.717  1.00  0.00    -0.195 NA
ATOM     10  C   UNL     1      -7.806  -0.893  -0.576  1.00  0.00     0.092 A 
ATOM     11  C   UNL     1      -6.705  -0.201  -1.088  1.00  0.00     0.072 A 
ATOM     12  C   UNL     1      -8.937  -1.089  -1.384  1.00  0.00     0.031 A 
ATOM     13  C   UNL     1      -6.681   0.308  -2.394  1.00  0.00     0.029 A 
ATOM     14  C   UNL     1      -8.929  -0.589  -2.691  1.00  0.00     0.002 A 
ATOM     15  C   UNL     1      -7.818   0.098  -3.185  1.00  0.00     0.002 A 
BRANCH   8  16
ATOM     16  O   UNL     1      -5.814  -1.119   2.150  1.00  0.00    -0.480 OA
ATOM     17  H   UNL     1      -6.525  -1.603   2.608  1.00  0.00     0.296 HD
ENDBRANCH   8  16
ENDBRANCH   1   7
BRANCH   4  18
ATOM     18  C   UNL     1      -0.950  -0.278   2.254  1.00  0.00     0.120 C 
BRANCH  18  19
ATOM     19  C   UNL     1       0.498  -0.281   1.811  1.00  0.00    -0.034 A 
ATOM     20  C   UNL     1       1.145  -1.481   1.495  1.00  0.00     0.006 A 
ATOM     21  C   UNL     1       1.227   0.914   1.750  1.00  0.00     0.006 A 
ATOM     22  C   UNL     1       2.490  -1.483   1.115  1.00  0.00     0.011 A 
ATOM     23  C   UNL     1       2.576   0.907   1.378  1.00  0.00     0.011 A 
ATOM     24  C   UNL     1       3.230  -0.290   1.038  1.00  0.00     0.002 A 
BRANCH  24  25
ATOM     25  C   UNL     1       4.651  -0.324   0.645  1.00  0.00     0.097 A 
ATOM     26  N   UNL     1       5.388  -1.234   1.346  1.00  0.00    -0.244 NA
ATOM     27  C   UNL     1       5.247   0.488  -0.333  1.00  0.00     0.097 A 
ATOM     28  C   UNL     1       6.705  -1.300   1.096  1.00  0.00     0.090 A 
ATOM     29  N   UNL     1       6.590   0.427  -0.569  1.00  0.00    -0.244 NA
ATOM     30  C   UNL     1       7.487  -2.213   1.795  1.00  0.00     0.033 A 
ATOM     31  C   UNL     1       7.313  -0.459   0.137  1.00  0.00     0.092 A 
ATOM     32  C   UNL     1       8.859  -2.309   1.565  1.00  0.00     0.041 A 
ATOM     33  C   UNL     1       8.679  -0.557  -0.085  1.00  0.00     0.069 A 
ATOM     34  C   UNL     1       9.443  -1.475   0.624  1.00  0.00     0.125 A 
ATOM     35  F   UNL     1      10.759  -1.560   0.395  1.00  0.00    -0.207 F 
BRANCH  27  36
ATOM     36  C   UNL     1       4.541   1.441  -1.212  1.00  0.00     0.005 A 
ATOM     37  C   UNL     1       3.370   1.099  -1.903  1.00  0.00     0.030 A 
ATOM     38  C   UNL     1       5.056   2.729  -1.418  1.00  0.00     0.030 A 
ATOM     39  C   UNL     1       2.766   2.045  -2.716  1.00  0.00     0.111 A 
ATOM     40  C   UNL     1       4.384   3.604  -2.256  1.00  0.00     0.111 A 
ATOM     41  N   UNL     1       3.244   3.291  -2.904  1.00  0.00    -0.265 NA
ENDBRANCH  27  36
ENDBRANCH  24  25
ENDBRANCH  18  19
ENDBRANCH   4  18
TORSDOF 6
