MODEL        8USER    Run = 8USERUSER    Estimated Free Energy of Binding    = -11.89 kcal/mol  [=(1)+(2)+(3)-(4)]USERUSER    (1) Final Intermolecular Energy     = -13.68 kcal/molUSER        vdW + Hbond + desolv Energy     = -13.57 kcal/molUSER        Electrostatic Energy            =  -0.12 kcal/molUSER        Moving Ligand-Fixed Receptor    = -13.68 kcal/molUSER        Moving Ligand-Moving Receptor   =  +0.00 kcal/molUSER    (2) Final Total Internal Energy     =  -1.61 kcal/molUSER    (3) Torsional Free Energy           =  +1.79 kcal/molUSER    (4) Unbound System's Energy         =  -1.61 kcal/molUSERUSERREMARK SMILES Oc1nc2ccccc2n1C1CCN(Cc2ccc(-c3nc4ccccc4nc3-c3ccccc3)cc2)CC1REMARK SMILES IDX 11 1 12 2 13 3 14 4 38 5 39 6 10 7 2 8 3 9 4 10 9 11 5 12REMARK SMILES IDX 8 13 6 14 7 15 1 16 15 18 16 19 17 20 37 21 18 22 36 23REMARK SMILES IDX 19 24 20 25 21 26 29 27 22 28 28 29 23 30 27 31 24 32 26 33REMARK SMILES IDX 25 34 30 35 31 36 35 37 32 38 34 39 33 40REMARK H PARENT 1 17USER                              x       y       z     vdW  Elec       q    TypeUSER                           _______ _______ _______ _____ _____    ______ ____ROOTATOM      1  C   UNL     1      26.164  41.371  17.430 -0.24 -0.01    +0.095 C  ATOM      2  C   UNL     1      27.682  41.274  17.652 -0.22 -0.00    +0.041 C  ATOM      3  C   UNL     1      28.459  41.412  16.343 -0.29 -0.02    +0.087 C  ATOM      4  N   UNL     1      27.966  42.483  15.472 -0.07 +0.21    -0.299 NA ATOM      5  C   UNL     1      26.539  42.340  15.143 -0.25 -0.05    +0.087 C  ATOM      6  C   UNL     1      25.795  41.267  15.945 -0.35 -0.01    +0.041 C  ENDROOTBRANCH   1   7ATOM      7  N   UNL     1      25.416  40.445  18.267 -0.12 +0.02    -0.291 N  ATOM      8  C   UNL     1      25.002  39.188  17.921 -0.18 -0.04    +0.295 A  ATOM      9  N   UNL     1      24.356  38.575  18.872 -0.28 +0.14    -0.195 NA ATOM     10  C   UNL     1      24.351  39.472  19.913 -0.28 -0.04    +0.092 A  ATOM     11  C   UNL     1      25.012  40.654  19.570 -0.26 -0.01    +0.072 A  ATOM     12  C   UNL     1      23.800  39.338  21.197 -0.32 -0.02    +0.031 A  ATOM     13  C   UNL     1      25.153  41.724  20.465 -0.43 -0.01    +0.029 A  ATOM     14  C   UNL     1      23.929  40.397  22.103 -0.45 -0.00    +0.002 A  ATOM     15  C   UNL     1      24.595  41.568  21.741 -0.58 -0.00    +0.002 A  BRANCH   8  16ATOM     16  O   UNL     1      25.226  38.619  16.754 -0.73 -0.12    -0.480 OA ATOM     17  H   UNL     1      24.325  38.354  16.494 -0.25 -0.17    +0.296 HD ENDBRANCH   8  16ENDBRANCH   1   7BRANCH   4  18ATOM     18  C   UNL     1      28.278  43.840  15.953 -0.23 -0.06    +0.120 C  BRANCH  18  19ATOM     19  C   UNL     1      29.728  44.236  15.774 -0.28 +0.02    -0.034 A  ATOM     20  C   UNL     1      30.074  45.550  15.440 -0.40 -0.00    +0.006 A  ATOM     21  C   UNL     1      30.747  43.287  15.923 -0.32 -0.00    +0.006 A  ATOM     22  C   UNL     1      31.417  45.910  15.280 -0.45 -0.01    +0.011 A  ATOM     23  C   UNL     1      32.087  43.650  15.764 -0.35 -0.01    +0.011 A  ATOM     24  C   UNL     1      32.448  44.971  15.455 -0.37 -0.00    +0.002 A  BRANCH  24  25ATOM     25  C   UNL     1      33.855  45.375  15.301 -0.23 -0.08    +0.097 A  ATOM     26  N   UNL     1      34.085  46.160  14.208 -0.21 +0.24    -0.244 NA ATOM     27  C   UNL     1      34.902  44.996  16.157 -0.25 -0.06    +0.097 A  ATOM     28  C   UNL     1      35.356  46.526  13.965 -0.38 -0.07    +0.089 A  ATOM     29  N   UNL     1      36.189  45.363  15.895 -0.17 +0.13    -0.244 NA ATOM     30  C   UNL     1      35.640  47.316  12.857 -0.49 -0.02    +0.030 A  ATOM     31  C   UNL     1      36.412  46.124  14.810 -0.33 -0.05    +0.089 A  ATOM     32  C   UNL     1      36.944  47.716  12.565 -0.58 -0.00    +0.002 A  ATOM     33  C   UNL     1      37.708  46.527  14.511 -0.40 -0.01    +0.030 A  ATOM     34  C   UNL     1      37.983  47.320  13.396 -0.51 -0.00    +0.002 A  BRANCH  27  35ATOM     35  C   UNL     1      34.746  44.212  17.396 -0.30 -0.00    +0.002 A  ATOM     36  C   UNL     1      35.227  42.892  17.465 -0.38 -0.00    +0.010 A  ATOM     37  C   UNL     1      34.149  44.751  18.549 -0.39 -0.00    +0.010 A  ATOM     38  C   UNL     1      35.093  42.131  18.631 -0.41 -0.00    +0.001 A  ATOM     39  C   UNL     1      34.011  43.991  19.715 -0.40 -0.00    +0.001 A  ATOM     40  C   UNL     1      34.480  42.681  19.754 -0.41 -0.00    +0.000 A  ENDBRANCH  27  35ENDBRANCH  24  25ENDBRANCH  18  19ENDBRANCH   4  18TORSDOF 6TERENDMDL