MODEL        4USER    Run = 4USERUSER    Estimated Free Energy of Binding    =  -6.54 kcal/mol  [=(1)+(2)+(3)-(4)]USERUSER    (1) Final Intermolecular Energy     = -11.01 kcal/molUSER        vdW + Hbond + desolv Energy     = -11.66 kcal/molUSER        Electrostatic Energy            =  -0.32 kcal/molUSER        Moving Ligand-Fixed Receptor    = -11.98 kcal/molUSER        Moving Ligand-Moving Receptor   =  +0.97 kcal/molUSER    (2) Final Total Internal Energy     =  -2.84 kcal/molUSER    (3) Torsional Free Energy           =  +4.47 kcal/molUSER    (4) Unbound System's Energy         =  -2.84 kcal/molUSERUSERREMARK SMILES COc1ccc(O)c(C(=O)c2ccc(CO[C@@H]3CCCNC[C@@H]3NC(=O)c3ccncc3)cc2)c1FREMARK SMILES IDX 16 1 15 2 14 3 11 4 12 5 34 6 13 7 33 8 9 9 10 10 8 11 3 12REMARK SMILES IDX 4 13 35 14 5 15 6 16 36 17 2 18 1 19 7 20 17 22 18 23 23 25REMARK SMILES IDX 22 26 21 27 20 29 19 30 24 32 25 33 26 35 27 36 28 37 32 38REMARK SMILES IDX 29 39 31 40 30 41REMARK H PARENT 7 21 21 28 24 34REMARK Flexibility Score:   99.900USER                              x       y       z     vdW  Elec       q    TypeUSER                           _______ _______ _______ _____ _____    ______ ____ROOTATOM      1  O   UNL     1      37.995  44.344  24.003 -0.14 -0.03    -0.371 OA ENDROOTBRANCH   1   2ATOM      2  C   UNL     1      38.615  43.335  23.208 -0.22 +0.01    +0.196 C  BRANCH   2   3ATOM      3  C   UNL     1      39.238  43.998  22.007 -0.27 -0.00    -0.022 A  ATOM      4  C   UNL     1      40.420  45.252  19.788 -0.40 +0.00    +0.023 A  ATOM      5  C   UNL     1      41.220  44.596  20.729 -0.34 +0.00    +0.012 A  ATOM      6  C   UNL     1      39.030  45.252  19.938 -0.37 -0.00    +0.012 A  ATOM      7  C   UNL     1      40.630  43.980  21.834 -0.28 +0.00    +0.007 A  ATOM      8  C   UNL     1      38.442  44.634  21.044 -0.36 +0.00    +0.007 A  BRANCH   4   9ATOM      9  C   UNL     1      40.998  45.891  18.581 -0.40 -0.00    +0.199 C  ATOM     10  O   UNL     1      42.225  45.936  18.456 -0.29 -0.03    -0.288 OA BRANCH   9  11ATOM     11  C   UNL     1      40.179  46.540  17.536 -0.41 -0.01    +0.104 A  ATOM     12  C   UNL     1      38.268  46.568  16.022 -0.29 -0.06    +0.155 A  ATOM     13  C   UNL     1      38.652  47.830  15.563 -0.45 -0.02    +0.053 A  ATOM     14  C   UNL     1      39.043  45.931  17.002 -0.29 -0.04    +0.179 A  ATOM     15  C   UNL     1      39.807  48.435  16.066 -0.49 -0.02    +0.051 A  ATOM     16  C   UNL     1      40.570  47.788  17.035 -0.41 -0.02    +0.130 A  ATOM     17  F   UNL     1      38.683  44.702  17.409 -0.08 +0.03    -0.202 F  BRANCH  12  18ATOM     18  O   UNL     1      37.171  45.871  15.594 -0.04 +0.23    -0.494 OA ATOM     19  C   UNL     1      35.897  46.471  15.790 -0.21 -0.25    +0.278 C  ENDBRANCH  12  18BRANCH  16  20ATOM     20  O   UNL     1      41.702  48.437  17.451 -0.56 -0.01    -0.507 OA ATOM     21  H   UNL     1      42.451  47.798  17.403 -0.30 -0.03    +0.293 HD ENDBRANCH  16  20ENDBRANCH   9  11ENDBRANCH   4   9ENDBRANCH   2   3ENDBRANCH   1   2BRANCH   1  22ATOM     22  C   UNL     1      37.966  44.027  25.412 -0.22 +0.00    +0.142 C  BRANCH  22  23ATOM     23  C   UNL     1      36.583  43.400  25.639 -0.41 -0.00    +0.035 CG0ATOM     24  G   UNL     1      36.101  43.153  27.064 +0.00 +0.00    +0.000 G0 ENDBRANCH  22  23BRANCH  22  25ATOM     25  C   UNL     1      38.274  45.303  26.230 -0.23 -0.00    +0.125 C  BRANCH  25  26ATOM     26  C   UNL     1      36.968  45.976  26.721 -0.30 -0.02    +0.108 C  BRANCH  26  27ATOM     27  N   UNL     1      36.381  45.453  27.953 -0.23 +0.08    -0.315 NA ATOM     28  H   UNL     1      35.928  46.224  28.447 -0.03 -0.03    +0.122 HD BRANCH  27  29ATOM     29  C   UNL     1      35.451  44.350  27.759 -0.48 -0.02    +0.081 C  BRANCH  29  30ATOM     30  C   UNL     1      36.090  43.160  27.059 -0.51 -0.00    +0.018 CG0ATOM     31  G   UNL     1      36.580  43.402  25.636 +0.00 +0.00    +0.000 G0 ENDBRANCH  29  30ENDBRANCH  27  29ENDBRANCH  26  27ENDBRANCH  25  26BRANCH  25  32ATOM     32  N   UNL     1      39.175  46.202  25.495 -0.05 -0.01    -0.345 N  ATOM     33  C   UNL     1      40.206  46.862  26.132 -0.11 +0.02    +0.251 C  ATOM     34  H   UNL     1      39.356  45.924  24.537 +0.07 +0.01    +0.164 HD ATOM     35  O   UNL     1      40.382  46.840  27.343 -0.55 -0.03    -0.269 OA BRANCH  33  36ATOM     36  C   UNL     1      41.156  47.598  25.255 -0.18 +0.00    +0.042 A  ATOM     37  C   UNL     1      42.012  48.530  25.842 -0.24 +0.00    +0.034 A  ATOM     38  C   UNL     1      41.189  47.407  23.874 -0.23 +0.00    +0.034 A  ATOM     39  C   UNL     1      42.881  49.224  25.020 -0.30 +0.02    +0.112 A  ATOM     40  C   UNL     1      42.094  48.153  23.139 -0.23 +0.02    +0.112 A  ATOM     41  N   UNL     1      42.943  49.051  23.682 -0.83 -0.09    -0.265 NA ENDBRANCH  33  36ENDBRANCH  25  32ENDBRANCH  22  25ENDBRANCH   1  22TORSDOF 9TERENDMDL