MODEL        6USER    Run = 6USERUSER    Estimated Free Energy of Binding    =  -7.29 kcal/mol  [=(1)+(2)+(3)-(4)]USERUSER    (1) Final Intermolecular Energy     = -11.76 kcal/molUSER        vdW + Hbond + desolv Energy     = -11.95 kcal/molUSER        Electrostatic Energy            =  -0.46 kcal/molUSER        Moving Ligand-Fixed Receptor    = -12.41 kcal/molUSER        Moving Ligand-Moving Receptor   =  +0.65 kcal/molUSER    (2) Final Total Internal Energy     =  -1.97 kcal/molUSER    (3) Torsional Free Energy           =  +4.47 kcal/molUSER    (4) Unbound System's Energy         =  -1.97 kcal/molUSERUSERREMARK SMILES COc1ccc(O)c(C(=O)c2ccc(CN[C@@H]3CCCNC[C@H]3NC(=O)c3ccncc3)cc2)c1FREMARK SMILES IDX 16 1 15 3 14 4 11 5 12 6 34 7 13 8 33 9 9 10 10 11 8 12 3 13REMARK SMILES IDX 4 14 35 15 5 16 6 17 36 18 2 19 1 20 7 21 17 23 18 24 23 26REMARK SMILES IDX 22 27 21 28 20 30 19 31 24 33 25 34 26 36 27 37 28 38 32 39REMARK SMILES IDX 29 40 31 41 30 42REMARK H PARENT 16 2 7 22 21 29 24 35REMARK Flexibility Score:   99.900USER                              x       y       z     vdW  Elec       q    TypeUSER                           _______ _______ _______ _____ _____    ______ ____ROOTATOM      1  N   UNL     1      35.762  44.224  20.221 -0.21 +0.02    -0.308 NA ATOM      2  H   UNL     1      35.109  43.768  20.862 +0.06 +0.01    +0.123 HD ENDROOTBRANCH   1   3ATOM      3  C   UNL     1      36.953  43.382  20.088 -0.35 -0.01    +0.117 C  BRANCH   3   4ATOM      4  C   UNL     1      38.250  44.149  20.185 -0.31 +0.00    -0.034 A  ATOM      5  C   UNL     1      40.674  45.563  20.380 -0.36 +0.00    +0.023 A  ATOM      6  C   UNL     1      40.332  44.621  21.356 -0.30 +0.00    +0.012 A  ATOM      7  C   UNL     1      39.792  45.815  19.323 -0.40 -0.00    +0.012 A  ATOM      8  C   UNL     1      39.131  43.914  21.252 -0.22 +0.00    +0.006 A  ATOM      9  C   UNL     1      38.591  45.109  19.223 -0.38 -0.00    +0.006 A  BRANCH   5  10ATOM     10  C   UNL     1      41.916  46.367  20.468 -0.30 +0.03    +0.199 C  ATOM     11  O   UNL     1      42.559  46.587  19.440 -0.35 -0.06    -0.288 OA BRANCH  10  12ATOM     12  C   UNL     1      42.400  46.978  21.724 -0.25 +0.02    +0.104 A  ATOM     13  C   UNL     1      42.025  47.803  23.988 -0.21 +0.02    +0.155 A  ATOM     14  C   UNL     1      43.374  48.152  24.081 -0.27 +0.01    +0.053 A  ATOM     15  C   UNL     1      41.552  47.211  22.808 -0.11 +0.02    +0.179 A  ATOM     16  C   UNL     1      44.241  47.891  23.016 -0.27 +0.01    +0.051 A  ATOM     17  C   UNL     1      43.758  47.294  21.854 -0.27 +0.04    +0.130 A  ATOM     18  F   UNL     1      40.261  46.844  22.744 -0.04 -0.02    -0.202 F  BRANCH  13  19ATOM     19  O   UNL     1      41.089  47.988  24.971 -0.06 -0.06    -0.494 OA ATOM     20  C   UNL     1      40.651  46.835  25.678 -0.08 +0.02    +0.278 C  ENDBRANCH  13  19BRANCH  17  21ATOM     21  O   UNL     1      44.679  47.040  20.873 -0.45 -0.61    -0.507 OA ATOM     22  H   UNL     1      44.414  47.551  20.073 -0.19 +0.18    +0.293 HD ENDBRANCH  17  21ENDBRANCH  10  12ENDBRANCH   5  10ENDBRANCH   3   4ENDBRANCH   1   3BRANCH   1  23ATOM     23  C   UNL     1      35.056  44.472  18.934 -0.38 -0.02    +0.077 C  BRANCH  23  24ATOM     24  C   UNL     1      33.629  43.929  19.086 -0.45 -0.00    +0.022 CG0ATOM     25  G   UNL     1      32.673  44.277  17.946 +0.00 +0.00    +0.000 G0 ENDBRANCH  23  24BRANCH  23  26ATOM     26  C   UNL     1      35.849  43.817  17.759 -0.30 -0.03    +0.113 C  BRANCH  26  27ATOM     27  C   UNL     1      35.069  42.641  17.122 -0.41 -0.04    +0.107 C  BRANCH  27  28ATOM     28  N   UNL     1      33.952  42.940  16.231 -0.18 +0.15    -0.315 NA ATOM     29  H   UNL     1      33.831  42.163  15.577 -0.49 -0.08    +0.122 HD BRANCH  28  30ATOM     30  C   UNL     1      32.663  43.231  16.841 -0.33 -0.03    +0.081 C  BRANCH  30  31ATOM     31  C   UNL     1      32.676  44.279  17.951 -0.37 -0.00    +0.017 CG0ATOM     32  G   UNL     1      33.629  43.924  19.092 +0.00 +0.00    +0.000 G0 ENDBRANCH  30  31ENDBRANCH  28  30ENDBRANCH  27  28ENDBRANCH  26  27BRANCH  26  33ATOM     33  N   UNL     1      36.136  44.835  16.730 -0.09 +0.15    -0.346 N  ATOM     34  C   UNL     1      36.411  44.483  15.426 -0.26 -0.10    +0.251 C  ATOM     35  H   UNL     1      36.038  45.805  16.993 +0.11 -0.10    +0.164 HD ATOM     36  O   UNL     1      36.530  43.323  15.054 -0.30 +0.09    -0.269 OA BRANCH  34  37ATOM     37  C   UNL     1      36.594  45.595  14.457 -0.37 -0.02    +0.042 A  ATOM     38  C   UNL     1      36.844  46.871  14.963 -0.39 -0.02    +0.034 A  ATOM     39  C   UNL     1      36.557  45.394  13.077 -0.47 -0.01    +0.034 A  ATOM     40  C   UNL     1      37.016  47.906  14.064 -0.45 -0.07    +0.112 A  ATOM     41  C   UNL     1      36.745  46.496  12.261 -0.56 -0.04    +0.112 A  ATOM     42  N   UNL     1      36.963  47.745  12.723 -0.94 +0.09    -0.265 NA ENDBRANCH  34  37ENDBRANCH  26  33ENDBRANCH  23  26ENDBRANCH   1  23TORSDOF 9TERENDMDL