MODEL        2USER    Run = 2USERUSER    Estimated Free Energy of Binding    = -12.42 kcal/mol  [=(1)+(2)+(3)-(4)]USERUSER    (1) Final Intermolecular Energy     = -14.81 kcal/molUSER        vdW + Hbond + desolv Energy     = -14.72 kcal/molUSER        Electrostatic Energy            =  -0.08 kcal/molUSER        Moving Ligand-Fixed Receptor    = -14.81 kcal/molUSER        Moving Ligand-Moving Receptor   =  +0.00 kcal/molUSER    (2) Final Total Internal Energy     =  -2.25 kcal/molUSER    (3) Torsional Free Energy           =  +2.39 kcal/molUSER    (4) Unbound System's Energy         =  -2.25 kcal/molUSERUSERREMARK SMILES N#Cc1cnc(-c2ccc(CNCc3ccc(-c4csnn4)cc3)cc2)c(-c2ccccc2)c1REMARK SMILES IDX 11 1 10 2 7 3 8 4 26 5 9 6 25 7 6 8 3 9 4 10 34 11 5 12REMARK SMILES IDX 27 13 2 14 1 15 28 16 29 17 33 18 30 19 32 20 31 21 12 22REMARK SMILES IDX 13 24 14 25 15 26 24 27 16 28 23 29 17 30 18 31 19 32 22 33REMARK SMILES IDX 20 34 21 35REMARK H PARENT 12 23USER                              x       y       z     vdW  Elec       q    TypeUSER                           _______ _______ _______ _____ _____    ______ ____ROOTATOM      1  C   UNL     1      35.846  43.515  19.225 -0.36 -0.02    +0.117 C  ENDROOTBRANCH   1   2ATOM      2  C   UNL     1      36.720  44.499  18.484 -0.32 +0.01    -0.034 A  ATOM      3  C   UNL     1      38.345  46.338  17.056 -0.39 -0.00    +0.001 A  ATOM      4  C   UNL     1      38.914  45.320  17.842 -0.39 -0.00    +0.011 A  ATOM      5  C   UNL     1      36.945  46.424  17.015 -0.28 -0.01    +0.011 A  ATOM      6  C   UNL     1      38.116  44.408  18.541 -0.34 -0.00    +0.006 A  ATOM      7  C   UNL     1      36.143  45.513  17.711 -0.34 -0.00    +0.006 A  BRANCH   3   8ATOM      8  C   UNL     1      39.211  47.286  16.325 -0.41 -0.03    +0.078 A  ATOM      9  C   UNL     1      40.970  49.114  15.220 -0.58 -0.01    +0.071 A  ATOM     10  C   UNL     1      41.097  48.649  16.514 -0.42 -0.01    +0.131 A  ATOM     11  C   UNL     1      39.915  48.623  14.452 -0.45 -0.01    +0.032 A  ATOM     12  N   UNL     1      40.254  47.752  17.074 -0.33 +0.05    -0.254 NA ATOM     13  C   UNL     1      39.007  47.688  14.988 -0.50 -0.00    +0.009 A  BRANCH   9  14ATOM     14  C   UNL     1      41.900  50.059  14.692 -0.65 -0.02    +0.101 C  ATOM     15  N   UNL     1      42.655  50.828  14.264 -0.50 +0.04    -0.192 NA ENDBRANCH   9  14BRANCH  13  16ATOM     16  C   UNL     1      37.936  47.165  14.123 -0.47 +0.01    -0.016 A  ATOM     17  C   UNL     1      37.000  48.034  13.534 -0.58 -0.00    +0.009 A  ATOM     18  C   UNL     1      37.829  45.792  13.849 -0.42 -0.00    +0.009 A  ATOM     19  C   UNL     1      35.985  47.544  12.709 -0.63 -0.00    +0.001 A  ATOM     20  C   UNL     1      36.813  45.301  13.025 -0.51 -0.00    +0.001 A  ATOM     21  C   UNL     1      35.892  46.177  12.456 -0.59 -0.00    +0.000 A  ENDBRANCH  13  16ENDBRANCH   3   8ENDBRANCH   1   2BRANCH   1  22ATOM     22  N   UNL     1      34.457  43.628  18.781 -0.13 +0.06    -0.309 NA ATOM     23  H   UNL     1      34.248  44.615  18.639 +0.08 -0.04    +0.123 HD BRANCH  22  24ATOM     24  C   UNL     1      34.217  42.908  17.530 -0.35 -0.04    +0.117 C  BRANCH  24  25ATOM     25  C   UNL     1      33.336  43.663  16.562 -0.30 +0.02    -0.034 A  ATOM     26  C   UNL     1      33.806  44.810  15.910 -0.32 -0.00    +0.006 A  ATOM     27  C   UNL     1      32.025  43.240  16.315 -0.33 -0.00    +0.006 A  ATOM     28  C   UNL     1      32.985  45.512  15.020 -0.30 -0.01    +0.011 A  ATOM     29  C   UNL     1      31.203  43.942  15.428 -0.36 -0.01    +0.011 A  ATOM     30  C   UNL     1      31.674  45.084  14.764 -0.41 -0.00    +0.003 A  BRANCH  30  31ATOM     31  C   UNL     1      30.792  45.793  13.842 -0.47 -0.08    +0.105 A  ATOM     32  C   UNL     1      29.426  45.946  14.018 -0.06 -0.10    +0.118 A  ATOM     33  N   UNL     1      31.293  46.404  12.693 -0.70 +0.08    -0.138 NA ATOM     34  S   UNL     1      28.833  46.857  12.689 -0.60 +0.01    -0.020 S  ATOM     35  N   UNL     1      30.344  46.999  11.991 -1.03 +0.03    -0.091 NA ENDBRANCH  30  31ENDBRANCH  24  25ENDBRANCH  22  24ENDBRANCH   1  22TORSDOF 8TERENDMDL