MODEL        10USER    Run = 10USERUSER    Estimated Free Energy of Binding    =  -6.22 kcal/mol  [=(1)+(2)+(3)-(4)]USERUSER    (1) Final Intermolecular Energy     = -10.70 kcal/molUSER        vdW + Hbond + desolv Energy     = -11.55 kcal/molUSER        Electrostatic Energy            =  -0.14 kcal/molUSER        Moving Ligand-Fixed Receptor    = -11.69 kcal/molUSER        Moving Ligand-Moving Receptor   =  +0.99 kcal/molUSER    (2) Final Total Internal Energy     =  -1.82 kcal/molUSER    (3) Torsional Free Energy           =  +4.47 kcal/molUSER    (4) Unbound System's Energy         =  -1.82 kcal/molUSERUSERREMARK SMILES COc1ccc(O)c(C(=O)c2ccc(C(=O)O[C@@H]3CCCNC[C@H]3NC(=O)c3ccncc3)cc2)c1FREMARK SMILES IDX 17 1 15 2 16 3 14 4 11 5 12 6 35 7 13 8 34 9 9 10 10 11 8 12REMARK SMILES IDX 3 13 4 14 36 15 5 16 6 17 37 18 2 19 1 20 7 21 18 23 24 25REMARK SMILES IDX 23 26 22 27 21 29 20 30 19 31 25 33 26 34 27 36 28 37 29 38REMARK SMILES IDX 33 39 30 40 32 41 31 42REMARK H PARENT 7 22 22 28 25 35REMARK Flexibility Score:   99.900USER                              x       y       z     vdW  Elec       q    TypeUSER                           _______ _______ _______ _____ _____    ______ ____ROOTATOM      1  O   UNL     1      41.057  46.419  23.237 -0.04 -0.04    -0.457 OA ENDROOTBRANCH   1   2ATOM      2  C   UNL     1      41.108  45.160  22.731 -0.09 +0.03    +0.338 C  ATOM      3  O   UNL     1      41.462  44.148  23.318 -0.10 -0.01    -0.246 OA BRANCH   2   4ATOM      4  C   UNL     1      40.614  45.165  21.332 -0.28 +0.00    +0.060 A  ATOM      5  C   UNL     1      39.606  45.191  18.712 -0.42 -0.00    +0.023 A  ATOM      6  C   UNL     1      40.900  44.715  18.964 -0.41 +0.00    +0.013 A  ATOM      7  C   UNL     1      38.819  45.649  19.778 -0.23 -0.00    +0.013 A  ATOM      8  C   UNL     1      41.402  44.702  20.270 -0.35 +0.00    +0.016 A  ATOM      9  C   UNL     1      39.316  45.627  21.084 -0.28 +0.00    +0.016 A  BRANCH   5  10ATOM     10  C   UNL     1      39.034  45.251  17.339 -0.24 -0.03    +0.199 C  ATOM     11  O   UNL     1      38.468  44.279  16.848 -0.02 +0.06    -0.288 OA BRANCH  10  12ATOM     12  C   UNL     1      39.139  46.476  16.537 -0.36 -0.03    +0.104 A  ATOM     13  C   UNL     1      40.429  48.427  15.899 -0.45 -0.04    +0.155 A  ATOM     14  C   UNL     1      39.369  48.843  15.083 -0.44 -0.03    +0.053 A  ATOM     15  C   UNL     1      40.299  47.241  16.630 -0.37 -0.03    +0.179 A  ATOM     16  C   UNL     1      38.209  48.065  14.979 -0.49 -0.03    +0.051 A  ATOM     17  C   UNL     1      38.099  46.878  15.700 -0.32 -0.06    +0.130 A  ATOM     18  F   UNL     1      41.322  46.815  17.390 -0.13 +0.02    -0.202 F  BRANCH  13  19ATOM     19  O   UNL     1      41.627  49.078  16.037 -0.75 -0.04    -0.494 OA ATOM     20  C   UNL     1      41.825  50.254  15.264 -0.40 -0.03    +0.278 C  ENDBRANCH  13  19BRANCH  17  21ATOM     21  O   UNL     1      36.980  46.105  15.585 -0.04 +0.27    -0.507 OA ATOM     22  H   UNL     1      37.196  45.176  15.769 +0.21 -0.11    +0.293 HD ENDBRANCH  17  21ENDBRANCH  10  12ENDBRANCH   5  10ENDBRANCH   2   4ENDBRANCH   1   2BRANCH   1  23ATOM     23  C   UNL     1      39.803  46.825  23.846 -0.22 +0.02    +0.200 CG0ATOM     24  G   UNL     1      40.086  48.090  24.656 +0.00 +0.00    +0.000 G0 BRANCH  23  25ATOM     25  C   UNL     1      39.299  45.633  24.685 -0.17 +0.01    +0.137 C  BRANCH  25  26ATOM     26  C   UNL     1      38.253  46.000  25.757 -0.26 +0.00    +0.109 C  BRANCH  26  27ATOM     27  N   UNL     1      37.158  46.840  25.268 -0.73 -0.05    -0.315 NA ATOM     28  H   UNL     1      36.413  46.830  25.965 -0.31 -0.02    +0.122 HD BRANCH  27  29ATOM     29  C   UNL     1      37.501  48.235  24.973 -0.36 +0.01    +0.081 C  BRANCH  29  30ATOM     30  C   UNL     1      38.895  48.736  25.371 -0.34 +0.00    +0.019 C  BRANCH  30  31ATOM     31  C   UNL     1      40.087  48.093  24.650 -0.33 +0.01    +0.049 CG0ATOM     32  G   UNL     1      39.790  46.828  23.846 +0.00 +0.00    +0.000 G0 ENDBRANCH  30  31ENDBRANCH  29  30ENDBRANCH  27  29ENDBRANCH  26  27ENDBRANCH  25  26BRANCH  25  33ATOM     33  N   UNL     1      38.762  44.604  23.785 -0.08 -0.02    -0.344 N  ATOM     34  C   UNL     1      37.439  44.234  23.800 -0.23 +0.03    +0.251 C  ATOM     35  H   UNL     1      39.314  44.408  22.961 +0.09 +0.01    +0.164 HD ATOM     36  O   UNL     1      36.612  44.682  24.583 -0.34 -0.05    -0.269 OA BRANCH  34  37ATOM     37  C   UNL     1      37.035  43.237  22.781 -0.36 +0.00    +0.042 A  ATOM     38  C   UNL     1      36.737  43.681  21.494 -0.37 +0.00    +0.034 A  ATOM     39  C   UNL     1      36.912  41.885  23.097 -0.46 +0.00    +0.034 A  ATOM     40  C   UNL     1      36.349  42.739  20.560 -0.37 -0.00    +0.112 A  ATOM     41  C   UNL     1      36.510  41.026  22.092 -0.42 +0.00    +0.112 A  ATOM     42  N   UNL     1      36.233  41.422  20.830 -0.30 +0.01    -0.265 NA ENDBRANCH  34  37ENDBRANCH  25  33ENDBRANCH  23  25ENDBRANCH   1  23TORSDOF 9TERENDMDL