
     RDKit          3D

 67 71  0  0  0  0  0  0  0  0999 V2000
    8.3929   -3.1980    0.1375 C   0  0  0  0  0  0  0  0  0  0  0  0
    7.2865   -2.3112    0.0395 O   0  0  0  0  0  0  0  0  0  0  0  0
    7.0212   -1.5129    1.1194 C   0  0  0  0  0  0  0  0  0  0  0  0
    7.7739   -1.4666    2.2956 C   0  0  0  0  0  0  0  0  0  0  0  0
    7.4170   -0.5869    3.3216 C   0  0  0  0  0  0  0  0  0  0  0  0
    6.3044    0.2385    3.1789 C   0  0  0  0  0  0  0  0  0  0  0  0
    6.0434    1.0949    4.2153 O   0  0  0  0  0  0  0  0  0  0  0  0
    5.5143    0.1774    2.0251 C   0  0  0  0  0  0  0  0  0  0  0  0
    4.3256    1.0497    1.9113 C   0  0  0  0  0  0  0  0  0  0  0  0
    4.3433    2.1312    2.5006 O   0  0  0  0  0  0  0  0  0  0  0  0
    3.1080    0.6604    1.1625 C   0  0  0  0  0  0  0  0  0  0  0  0
    2.6102   -0.6470    1.2021 C   0  0  0  0  0  0  0  0  0  0  0  0
    1.4474   -0.9696    0.4968 C   0  0  0  0  0  0  0  0  0  0  0  0
    0.7804    0.0106   -0.2482 C   0  0  0  0  0  0  0  0  0  0  0  0
   -0.4431   -0.3824   -0.9931 C   0  0  0  0  0  0  0  0  0  0  0  0
   -1.2203   -1.2033   -0.5173 O   0  0  0  0  0  0  0  0  0  0  0  0
   -0.6383    0.2307   -2.2096 N   0  0  0  0  0  0  0  0  0  0  0  0
   -1.8772    0.0830   -2.9694 C   0  0  2  0  0  0  0  0  0  0  0  0
   -1.6788    0.4441   -4.4509 C   0  0  0  0  0  0  0  0  0  0  0  0
   -1.2377    1.8733   -4.7717 C   0  0  0  0  0  0  0  0  0  0  0  0
   -2.0660    2.9858   -4.1331 C   0  0  0  0  0  0  0  0  0  0  0  0
   -1.8058    3.0701   -2.6997 N   0  0  0  0  0  0  0  0  0  0  0  0
   -2.7473    2.2833   -1.8894 C   0  0  0  0  0  0  0  0  0  0  0  0
   -3.0788    0.8389   -2.3431 C   0  0  0  0  0  0  0  0  0  0  0  0
   -3.6393    0.0732   -1.2246 N   0  0  0  0  0  0  0  0  0  0  0  0
   -4.9383    0.2525   -0.7770 C   0  0  0  0  0  0  0  0  0  0  0  0
   -5.6821    1.0397   -1.3666 O   0  0  0  0  0  0  0  0  0  0  0  0
   -5.3494   -0.5291    0.3938 C   0  0  0  0  0  0  0  0  0  0  0  0
   -6.5925   -0.5344    0.8351 N   0  0  0  0  0  0  0  0  0  0  0  0
   -6.7012   -1.3519    1.9451 C   0  0  0  0  0  0  0  0  0  0  0  0
   -7.8815   -1.6047    2.6730 C   0  0  0  0  0  0  0  0  0  0  0  0
   -7.8472   -2.4554    3.7826 C   0  0  0  0  0  0  0  0  0  0  0  0
   -6.6526   -3.0522    4.1755 C   0  0  0  0  0  0  0  0  0  0  0  0
   -5.4670   -2.8160    3.4714 C   0  0  0  0  0  0  0  0  0  0  0  0
   -5.5151   -1.9630    2.3557 C   0  0  0  0  0  0  0  0  0  0  0  0
   -4.2467   -1.4889    1.2943 S   0  0  0  0  0  0  0  0  0  0  0  0
    1.2541    1.3283   -0.2514 C   0  0  0  0  0  0  0  0  0  0  0  0
    2.4146    1.6514    0.4572 C   0  0  0  0  0  0  0  0  0  0  0  0
    5.8983   -0.6813    0.9936 C   0  0  0  0  0  0  0  0  0  0  0  0
    5.2045   -0.7061   -0.1565 F   0  0  0  0  0  0  0  0  0  0  0  0
    8.4601   -3.7549   -0.8023 H   0  0  0  0  0  0  0  0  0  0  0  0
    9.3307   -2.6493    0.2671 H   0  0  0  0  0  0  0  0  0  0  0  0
    8.2429   -3.9220    0.9430 H   0  0  0  0  0  0  0  0  0  0  0  0
    8.6525   -2.0877    2.4414 H   0  0  0  0  0  0  0  0  0  0  0  0
    8.0151   -0.5338    4.2292 H   0  0  0  0  0  0  0  0  0  0  0  0
    5.4014    1.7681    3.8937 H   0  0  0  0  0  0  0  0  0  0  0  0
    3.1072   -1.4223    1.7791 H   0  0  0  0  0  0  0  0  0  0  0  0
    1.0649   -1.9884    0.5234 H   0  0  0  0  0  0  0  0  0  0  0  0
   -0.0603    1.0247   -2.4540 H   0  0  0  0  0  0  0  0  0  0  0  0
   -2.1184   -0.9894   -2.9506 H   0  0  0  0  0  0  0  0  0  0  0  0
   -2.6149    0.2430   -4.9886 H   0  0  0  0  0  0  0  0  0  0  0  0
   -0.9338   -0.2384   -4.8815 H   0  0  0  0  0  0  0  0  0  0  0  0
   -0.1812    1.9996   -4.4992 H   0  0  0  0  0  0  0  0  0  0  0  0
   -1.2756    1.9998   -5.8617 H   0  0  0  0  0  0  0  0  0  0  0  0
   -1.7408    3.9323   -4.5828 H   0  0  0  0  0  0  0  0  0  0  0  0
   -3.1332    2.8904   -4.3652 H   0  0  0  0  0  0  0  0  0  0  0  0
   -1.8991    4.0452   -2.4050 H   0  0  0  0  0  0  0  0  0  0  0  0
   -3.6869    2.8448   -1.8037 H   0  0  0  0  0  0  0  0  0  0  0  0
   -2.3342    2.2530   -0.8726 H   0  0  0  0  0  0  0  0  0  0  0  0
   -3.8741    0.8922   -3.0987 H   0  0  0  0  0  0  0  0  0  0  0  0
   -3.0062   -0.5339   -0.7016 H   0  0  0  0  0  0  0  0  0  0  0  0
   -8.8104   -1.1356    2.3619 H   0  0  0  0  0  0  0  0  0  0  0  0
   -8.7620   -2.6482    4.3390 H   0  0  0  0  0  0  0  0  0  0  0  0
   -6.6392   -3.7110    5.0418 H   0  0  0  0  0  0  0  0  0  0  0  0
   -4.5349   -3.2813    3.7788 H   0  0  0  0  0  0  0  0  0  0  0  0
    0.7213    2.1184   -0.7746 H   0  0  0  0  0  0  0  0  0  0  0  0
    2.7752    2.6782    0.4618 H   0  0  0  0  0  0  0  0  0  0  0  0
  1  2  1  0
  2  3  1  0
  3  4  2  0
  4  5  1  0
  5  6  2  0
  6  7  1  0
  6  8  1  0
  8  9  1  0
  9 10  2  0
  9 11  1  0
 11 12  2  0
 12 13  1  0
 13 14  2  0
 14 15  1  0
 15 16  2  0
 15 17  1  0
 17 18  1  0
 18 19  1  0
 19 20  1  0
 20 21  1  0
 21 22  1  0
 22 23  1  0
 23 24  1  0
 24 25  1  0
 25 26  1  0
 26 27  2  0
 26 28  1  0
 28 29  2  0
 29 30  1  0
 30 31  2  0
 31 32  1  0
 32 33  2  0
 33 34  1  0
 34 35  2  0
 35 36  1  0
 14 37  1  0
 37 38  2  0
  8 39  2  0
 39 40  1  0
 39  3  1  0
 38 11  1  0
 24 18  1  0
 36 28  1  0
 35 30  1  0
  1 41  1  0
  1 42  1  0
  1 43  1  0
  4 44  1  0
  5 45  1  0
  7 46  1  0
 12 47  1  0
 13 48  1  0
 17 49  1  0
 18 50  1  6
 19 51  1  0
 19 52  1  0
 20 53  1  0
 20 54  1  0
 21 55  1  0
 21 56  1  0
 22 57  1  0
 23 58  1  0
 23 59  1  0
 24 60  1  0
 25 61  1  0
 31 62  1  0
 32 63  1  0
 33 64  1  0
 34 65  1  0
 37 66  1  0
 38 67  1  0
M  END
$$$$
