
     RDKit          3D

 46 49  0  0  0  0  0  0  0  0999 V2000
   -4.1885   -1.5236    2.5515 C   0  0  0  0  0  0  0  0  0  0  0  0
   -3.8385   -0.3678    1.8023 O   0  0  0  0  0  0  0  0  0  0  0  0
   -4.9809    0.2372    1.1885 C   0  0  0  0  0  0  0  0  0  0  0  0
   -4.5723    1.4715    0.3617 C   0  0  2  0  0  0  0  0  0  0  0  0
   -5.7879    2.3427    0.0229 C   0  0  0  0  0  0  0  0  0  0  0  0
   -6.3227    1.7256   -1.2598 C   0  0  0  0  0  0  0  0  0  0  0  0
   -5.0527    1.3486   -2.0130 C   0  0  0  0  0  0  0  0  0  0  0  0
   -4.0775    1.0775   -0.9685 N   0  0  0  0  0  0  0  0  0  0  0  0
   -2.7592    0.8144   -1.2374 C   0  0  0  0  0  0  0  0  0  0  0  0
   -1.7899    0.8373   -0.3913 N   0  0  0  0  0  0  0  0  0  0  0  0
   -0.5793    0.5439   -0.8824 C   0  0  0  0  0  0  0  0  0  0  0  0
   -0.0580    0.2899   -2.0464 N   0  0  0  0  0  0  0  0  0  0  0  0
    1.1574    0.1573   -1.3995 C   0  0  0  0  0  0  0  0  0  0  0  0
    2.5065   -0.0979   -1.3940 C   0  0  0  0  0  0  0  0  0  0  0  0
    2.9522   -0.0083   -0.0618 C   0  0  0  0  0  0  0  0  0  0  0  0
    4.3017   -0.2277    0.4720 C   0  0  0  0  0  0  0  0  0  0  0  0
    4.8482    0.6085    1.4523 C   0  0  0  0  0  0  0  0  0  0  0  0
    6.1358    0.3818    1.9412 C   0  0  0  0  0  0  0  0  0  0  0  0
    6.8992   -0.6822    1.4542 C   0  0  0  0  0  0  0  0  0  0  0  0
    6.3774   -1.5216    0.4678 C   0  0  0  0  0  0  0  0  0  0  0  0
    7.0132   -2.5832   -0.1137 O   0  0  0  0  0  0  0  0  0  0  0  0
    8.2282   -3.0292    0.4752 C   0  0  0  0  0  0  0  0  0  0  0  0
    8.6580   -4.1297   -0.1887 F   0  0  0  0  0  0  0  0  0  0  0  0
    9.1943   -2.0826    0.3810 F   0  0  0  0  0  0  0  0  0  0  0  0
    8.0435   -3.3696    1.7714 F   0  0  0  0  0  0  0  0  0  0  0  0
    5.0849   -1.2850   -0.0171 C   0  0  0  0  0  0  0  0  0  0  0  0
    1.6176    0.3969    1.0482 S   0  0  0  0  0  0  0  0  0  0  0  0
    0.6133    0.4168   -0.2179 C   0  0  0  0  0  0  0  0  0  0  0  0
   -3.2741   -1.9651    2.9563 H   0  0  0  0  0  0  0  0  0  0  0  0
   -4.6788   -2.2614    1.9096 H   0  0  0  0  0  0  0  0  0  0  0  0
   -4.8452   -1.2523    3.3817 H   0  0  0  0  0  0  0  0  0  0  0  0
   -5.6687    0.5445    1.9870 H   0  0  0  0  0  0  0  0  0  0  0  0
   -5.4845   -0.5070    0.5556 H   0  0  0  0  0  0  0  0  0  0  0  0
   -3.8270    2.0649    0.9050 H   0  0  0  0  0  0  0  0  0  0  0  0
   -6.5372    2.3792    0.8210 H   0  0  0  0  0  0  0  0  0  0  0  0
   -5.4597    3.3703   -0.1769 H   0  0  0  0  0  0  0  0  0  0  0  0
   -6.9154    0.8313   -1.0369 H   0  0  0  0  0  0  0  0  0  0  0  0
   -6.9529    2.4168   -1.8285 H   0  0  0  0  0  0  0  0  0  0  0  0
   -5.2135    0.4772   -2.6535 H   0  0  0  0  0  0  0  0  0  0  0  0
   -4.7155    2.1870   -2.6360 H   0  0  0  0  0  0  0  0  0  0  0  0
   -2.5987    0.5818   -2.3075 H   0  0  0  0  0  0  0  0  0  0  0  0
    3.1350   -0.3393   -2.2441 H   0  0  0  0  0  0  0  0  0  0  0  0
    4.2839    1.4532    1.8425 H   0  0  0  0  0  0  0  0  0  0  0  0
    6.5488    1.0425    2.7045 H   0  0  0  0  0  0  0  0  0  0  0  0
    7.8972   -0.8122    1.8637 H   0  0  0  0  0  0  0  0  0  0  0  0
    4.6827   -1.9527   -0.7769 H   0  0  0  0  0  0  0  0  0  0  0  0
  1  2  1  0
  2  3  1  0
  3  4  1  0
  4  5  1  0
  5  6  1  0
  6  7  1  0
  7  8  1  0
  8  9  1  0
  9 10  2  3
 10 11  1  0
 11 12  2  0
 12 13  1  0
 13 14  1  0
 14 15  2  0
 15 16  1  0
 16 17  2  0
 17 18  1  0
 18 19  2  0
 19 20  1  0
 20 21  1  0
 21 22  1  0
 22 23  1  0
 22 24  1  0
 22 25  1  0
 20 26  2  0
 15 27  1  0
 27 28  1  0
  8  4  1  0
 28 11  1  0
 28 13  2  0
 26 16  1  0
  1 29  1  0
  1 30  1  0
  1 31  1  0
  3 32  1  0
  3 33  1  0
  4 34  1  1
  5 35  1  0
  5 36  1  0
  6 37  1  0
  6 38  1  0
  7 39  1  0
  7 40  1  0
  9 41  1  0
 14 42  1  0
 17 43  1  0
 18 44  1  0
 19 45  1  0
 26 46  1  0
M  END
$$$$
