
     RDKit          3D

 35 37  0  0  0  0  0  0  0  0999 V2000
   -2.8377   -2.4202   -0.0479 O   0  0  0  0  0  0  0  0  0  0  0  0
   -2.8003   -1.8938    1.0627 C   0  0  0  0  0  0  0  0  0  0  0  0
   -3.3728   -0.5085    1.3281 C   0  0  0  0  0  0  0  0  0  0  0  0
   -2.6164    0.5992    0.6086 C   0  0  0  0  0  0  0  0  0  0  0  0
   -3.3130    1.5737   -0.1192 C   0  0  0  0  0  0  0  0  0  0  0  0
   -2.6253    2.6345   -0.7127 C   0  0  0  0  0  0  0  0  0  0  0  0
   -1.2427    2.7457   -0.5670 C   0  0  0  0  0  0  0  0  0  0  0  0
   -0.5384    1.7879    0.1615 C   0  0  0  0  0  0  0  0  0  0  0  0
   -1.2117    0.7028    0.7229 C   0  0  0  0  0  0  0  0  0  0  0  0
   -0.5496   -0.2614    1.4832 N   0  0  0  0  0  0  0  0  0  0  0  0
   -0.0427   -1.3167    0.9194 C   0  0  0  0  0  0  0  0  0  0  0  0
    0.3425   -1.5434   -0.7753 S   0  0  0  0  0  0  0  0  0  0  0  0
    1.9046   -0.6951   -0.8880 C   0  0  0  0  0  0  0  0  0  0  0  0
    2.9488   -0.9474    0.0104 C   0  0  0  0  0  0  0  0  0  0  0  0
    4.1649   -0.2683   -0.1071 C   0  0  0  0  0  0  0  0  0  0  0  0
    4.3354    0.6567   -1.1316 C   0  0  0  0  0  0  0  0  0  0  0  0
    5.5035    1.3427   -1.2824 O   0  0  0  0  0  0  0  0  0  0  0  0
    3.3149    0.9082   -2.0401 C   0  0  0  0  0  0  0  0  0  0  0  0
    2.1011    0.2283   -1.9217 C   0  0  0  0  0  0  0  0  0  0  0  0
    0.1399   -2.3844    1.7561 N   0  0  0  0  0  0  0  0  0  0  0  0
   -0.9173   -2.8425    2.3500 C   0  0  0  0  0  0  0  0  0  0  0  0
   -2.2625   -2.5451    2.1628 N   0  0  0  0  0  0  0  0  0  0  0  0
   -3.3700   -0.2934    2.4033 H   0  0  0  0  0  0  0  0  0  0  0  0
   -4.4224   -0.5310    1.0114 H   0  0  0  0  0  0  0  0  0  0  0  0
   -4.3937    1.5176   -0.2261 H   0  0  0  0  0  0  0  0  0  0  0  0
   -3.1715    3.3845   -1.2797 H   0  0  0  0  0  0  0  0  0  0  0  0
   -0.7127    3.5818   -1.0157 H   0  0  0  0  0  0  0  0  0  0  0  0
    0.5355    1.8866    0.2913 H   0  0  0  0  0  0  0  0  0  0  0  0
    2.8285   -1.6777    0.8079 H   0  0  0  0  0  0  0  0  0  0  0  0
    4.9585   -0.4771    0.6032 H   0  0  0  0  0  0  0  0  0  0  0  0
    6.1231    1.0556   -0.5918 H   0  0  0  0  0  0  0  0  0  0  0  0
    3.4627    1.6281   -2.8399 H   0  0  0  0  0  0  0  0  0  0  0  0
    1.3085    0.4301   -2.6389 H   0  0  0  0  0  0  0  0  0  0  0  0
   -0.7831   -3.5746    3.1645 H   0  0  0  0  0  0  0  0  0  0  0  0
   -2.7884   -2.4835    3.0235 H   0  0  0  0  0  0  0  0  0  0  0  0
  1  2  2  0
  2  3  1  0
  3  4  1  0
  4  5  2  0
  5  6  1  0
  6  7  2  0
  7  8  1  0
  8  9  2  0
  9 10  1  0
 10 11  2  3
 11 12  1  0
 12 13  1  0
 13 14  2  0
 14 15  1  0
 15 16  2  0
 16 17  1  0
 16 18  1  0
 18 19  2  0
 11 20  1  0
 20 21  2  3
 21 22  1  0
 22  2  1  0
  9  4  1  0
 19 13  1  0
  3 23  1  0
  3 24  1  0
  5 25  1  0
  6 26  1  0
  7 27  1  0
  8 28  1  0
 14 29  1  0
 15 30  1  0
 17 31  1  0
 18 32  1  0
 19 33  1  0
 21 34  1  0
 22 35  1  0
M  END
$$$$
