REMARK SMILES CCOCC(=O)N1Cc2cc(OC)c(OC)cc2[C@H]1OC
REMARK SMILES IDX 4 1 3 2 2 3 1 4 5 5 6 6 7 7 8 8 19 9 9 10 18 11 10 12 17 13
REMARK SMILES IDX 11 14 14 15 20 16 21 17 12 18 13 19 15 20 16 21
REMARK H PARENT
ROOT
ATOM      1  C   UNL     1       1.663  -0.610   2.764  1.00  0.00     0.260 C 
ENDROOT
BRANCH   1   2
ATOM      2  O   UNL     1       2.528  -0.303   3.849  1.00  0.00    -0.372 OA
BRANCH   2   3
ATOM      3  C   UNL     1       2.696  -1.408   4.731  1.00  0.00     0.157 C 
ATOM      4  C   UNL     1       3.631  -0.991   5.849  1.00  0.00     0.035 C 
ENDBRANCH   2   3
ENDBRANCH   1   2
BRANCH   1   5
ATOM      5  C   UNL     1       1.454   0.570   1.800  1.00  0.00     0.251 C 
ATOM      6  O   UNL     1       2.080   1.625   1.901  1.00  0.00    -0.272 OA
BRANCH   5   7
ATOM      7  N   UNL     1       0.523   0.374   0.803  1.00  0.00    -0.306 N 
ATOM      8  C   UNL     1      -0.126  -0.886   0.457  1.00  0.00     0.158 C 
ATOM      9  C   UNL     1       0.193   1.441  -0.127  1.00  0.00     0.249 C 
ATOM     10  C   UNL     1      -0.707  -0.624  -0.894  1.00  0.00    -0.017 A 
ATOM     11  C   UNL     1      -0.519   0.718  -1.236  1.00  0.00     0.010 A 
ATOM     12  C   UNL     1      -1.354  -1.501  -1.749  1.00  0.00     0.056 A 
ATOM     13  C   UNL     1      -0.981   1.221  -2.443  1.00  0.00     0.059 A 
ATOM     14  C   UNL     1      -1.822  -1.014  -2.977  1.00  0.00     0.161 A 
ATOM     15  C   UNL     1      -1.636   0.351  -3.325  1.00  0.00     0.161 A 
BRANCH   9  16
ATOM     16  O   UNL     1      -0.748   2.298   0.502  1.00  0.00    -0.357 OA
ATOM     17  C   UNL     1      -0.265   3.627   0.625  1.00  0.00     0.198 C 
ENDBRANCH   9  16
BRANCH  14  18
ATOM     18  O   UNL     1      -2.473  -1.783  -3.912  1.00  0.00    -0.493 OA
ATOM     19  C   UNL     1      -2.720  -3.144  -3.593  1.00  0.00     0.278 C 
ENDBRANCH  14  18
BRANCH  15  20
ATOM     20  O   UNL     1      -2.133   0.727  -4.550  1.00  0.00    -0.493 OA
ATOM     21  C   UNL     1      -2.047   2.101  -4.902  1.00  0.00     0.278 C 
ENDBRANCH  15  20
ENDBRANCH   5   7
ENDBRANCH   1   5
TORSDOF 7
