MODEL        8USER    Run = 8USERUSER    Estimated Free Energy of Binding    =  -7.73 kcal/mol  [=(1)+(2)+(3)-(4)]USERUSER    (1) Final Intermolecular Energy     = -13.10 kcal/molUSER        vdW + Hbond + desolv Energy     = -13.80 kcal/molUSER        Electrostatic Energy            =  -0.16 kcal/molUSER        Moving Ligand-Fixed Receptor    = -13.96 kcal/molUSER        Moving Ligand-Moving Receptor   =  +0.85 kcal/molUSER    (2) Final Total Internal Energy     =  -3.14 kcal/molUSER    (3) Torsional Free Energy           =  +5.37 kcal/molUSER    (4) Unbound System's Energy         =  -3.14 kcal/molUSERUSERREMARK SMILES O=CCN(C(=O)c1cccc([C@@]2(CO)C=CC=COC2)n1)c1ccc(OCCN2CCCCC2)cc1REMARK SMILES IDX 4 1 3 2 2 3 1 4 5 5 6 6 7 7 8 8 21 9 9 10 11 11 10 12 12 13REMARK SMILES IDX 13 14 14 15 15 17 16 18 17 19 20 21 19 22 18 23 22 25 23 26REMARK SMILES IDX 36 27 24 28 35 29 25 30 26 31 27 32 28 33 29 34 30 35 34 36REMARK SMILES IDX 31 37 33 38 32 39REMARK H PARENT 14 16REMARK Flexibility Score:  129.900USER                              x       y       z     vdW  Elec       q    TypeUSER                           _______ _______ _______ _____ _____    ______ ____ROOTATOM      1  N   UNL     1      39.209  48.014  15.601 -0.27 +0.12    -0.300 N  ENDROOTBRANCH   1   2ATOM      2  C   UNL     1      40.262  48.418  14.656 -0.44 -0.05    +0.197 C  BRANCH   2   3ATOM      3  C   UNL     1      41.000  49.688  15.043 -0.50 -0.07    +0.246 C  ATOM      4  O   UNL     1      41.523  49.919  16.129 -1.04 +0.01    -0.301 OA ENDBRANCH   2   3ENDBRANCH   1   2BRANCH   1   5ATOM      5  C   UNL     1      37.879  48.474  15.461 -0.30 -0.20    +0.277 C  ATOM      6  O   UNL     1      37.529  49.658  15.488 -0.39 +0.27    -0.267 OA BRANCH   5   7ATOM      7  C   UNL     1      36.762  47.507  15.214 -0.30 -0.11    +0.129 A  ATOM      8  C   UNL     1      36.250  47.432  13.924 -0.45 -0.02    +0.034 A  ATOM      9  N   UNL     1      36.263  46.794  16.260 -0.23 +0.22    -0.246 NA ATOM     10  C   UNL     1      35.190  46.573  13.684 -0.46 -0.00    +0.004 A  ATOM     11  C   UNL     1      35.215  45.955  16.020 -0.28 -0.05    +0.057 A  ATOM     12  C   UNL     1      34.664  45.832  14.739 -0.32 -0.02    +0.025 A  BRANCH  11  13ATOM     13  C   UNL     1      34.599  45.229  17.232 -0.34 -0.05    +0.088 C  BRANCH  13  14ATOM     14  C   UNL     1      33.593  46.240  17.868 -0.31 -0.16    +0.177 C  BRANCH  14  15ATOM     15  O   UNL     1      34.231  47.456  18.267 -0.90 +0.45    -0.395 OA ATOM     16  H   UNL     1      34.672  47.814  17.475 -0.26 -0.46    +0.210 HD ENDBRANCH  14  15ENDBRANCH  13  14BRANCH  13  17ATOM     17  C   UNL     1      33.840  43.948  16.878 -0.37 +0.00    -0.008 C  BRANCH  17  18ATOM     18  C   UNL     1      33.303  43.072  17.739 -0.39 -0.00    +0.000 C  BRANCH  18  19ATOM     19  C   UNL     1      33.606  42.945  19.141 -0.43 -0.00    +0.038 CG0ATOM     20  G   UNL     1      34.274  43.782  19.946 +0.00 +0.00    +0.000 G0 ENDBRANCH  18  19ENDBRANCH  17  18ENDBRANCH  13  17BRANCH  13  21ATOM     21  C   UNL     1      35.656  44.884  18.310 -0.24 -0.08    +0.248 C  BRANCH  21  22ATOM     22  O   UNL     1      35.161  44.776  19.651 -0.12 +0.11    -0.500 OA BRANCH  22  23ATOM     23  C   UNL     1      34.277  43.783  19.939 -0.26 -0.01    +0.187 CG0ATOM     24  G   UNL     1      33.598  42.949  19.140 +0.00 +0.00    +0.000 G0 ENDBRANCH  22  23ENDBRANCH  21  22ENDBRANCH  13  21ENDBRANCH  11  13ENDBRANCH   5   7ENDBRANCH   1   5BRANCH   1  25ATOM     25  C   UNL     1      39.609  47.174  16.713 -0.45 -0.01    +0.045 A  ATOM     26  C   UNL     1      40.593  47.567  17.632 -0.44 -0.00    +0.030 A  ATOM     27  C   UNL     1      39.052  45.897  16.898 -0.39 -0.01    +0.030 A  ATOM     28  C   UNL     1      41.008  46.731  18.682 -0.45 -0.00    +0.048 A  ATOM     29  C   UNL     1      39.464  45.062  17.946 -0.35 -0.01    +0.048 A  ATOM     30  C   UNL     1      40.449  45.469  18.840 -0.37 -0.00    +0.119 A  BRANCH  30  31ATOM     31  O   UNL     1      40.762  44.557  19.806 -0.12 -0.03    -0.492 OA BRANCH  31  32ATOM     32  C   UNL     1      40.921  45.047  21.138 -0.23 +0.02    +0.245 C  BRANCH  32  33ATOM     33  C   UNL     1      40.026  44.236  22.098 -0.24 +0.01    +0.126 C  BRANCH  33  34ATOM     34  N   UNL     1      38.648  44.741  22.267 -0.16 -0.02    -0.300 NA ATOM     35  C   UNL     1      37.789  44.574  21.089 -0.35 +0.00    +0.084 C  ATOM     36  C   UNL     1      38.002  44.174  23.460 -0.32 +0.01    +0.084 C  ATOM     37  C   UNL     1      37.371  43.124  20.829 -0.39 +0.00    +0.016 C  ATOM     38  C   UNL     1      37.582  42.709  23.300 -0.43 +0.00    +0.016 C  ATOM     39  C   UNL     1      36.714  42.512  22.062 -0.53 +0.00    +0.003 C  ENDBRANCH  33  34ENDBRANCH  32  33ENDBRANCH  31  32ENDBRANCH  30  31ENDBRANCH   1  25TORSDOF 12TERENDMDL