REMARK SMILES Cc1ccc(-c2ncc3sc(N)nc3n2)cc1N
REMARK SMILES IDX 6 1 7 2 8 3 9 4 10 5 11 6 13 7 14 8 15 9 5 10 2 11 3 12
REMARK SMILES IDX 17 13 4 14 16 15 1 16 18 17 12 20
REMARK H PARENT 18 18 18 19 12 21 12 22
ROOT
ATOM      1  C   UNL     1       0.760  -0.474  -0.278  1.00  0.00     0.161 A 
ATOM      2  N   UNL     1       0.912  -1.465  -1.188  1.00  0.00    -0.235 NA
ATOM      3  C   UNL     1       2.154  -1.895  -1.489  1.00  0.00     0.136 A 
ATOM      4  C   UNL     1       3.230  -1.312  -0.858  1.00  0.00     0.094 A 
ATOM      5  S   UNL     1       4.914  -1.583  -0.982  1.00  0.00    -0.094 S 
ATOM      6  C   UNL     1       5.186  -0.364   0.196  1.00  0.00     0.182 A 
ATOM      7  N   UNL     1       4.118   0.232   0.657  1.00  0.00    -0.200 NA
ATOM      8  C   UNL     1       2.993  -0.304   0.066  1.00  0.00     0.176 A 
ATOM      9  N   UNL     1       1.757   0.139   0.376  1.00  0.00    -0.207 NA
ENDROOT
BRANCH   1  10
ATOM     10  C   UNL     1      -0.620  -0.032   0.021  1.00  0.00     0.021 A 
ATOM     11  C   UNL     1      -3.277   0.839   0.555  1.00  0.00    -0.028 A 
ATOM     12  C   UNL     1      -2.185   1.406   1.226  1.00  0.00     0.006 A 
ATOM     13  C   UNL     1      -3.054  -0.212  -0.347  1.00  0.00     0.035 A 
ATOM     14  C   UNL     1      -0.882   0.971   0.968  1.00  0.00     0.012 A 
ATOM     15  C   UNL     1      -1.733  -0.592  -0.637  1.00  0.00     0.037 A 
ATOM     16  C   UNL     1      -4.658   1.364   0.832  1.00  0.00     0.046 C 
BRANCH  13  17
ATOM     17  N   UNL     1      -4.096  -0.744  -1.125  1.00  0.00    -0.398 N 
ATOM     18  H   UNL     1      -3.891  -1.665  -1.501  1.00  0.00     0.156 HD
ATOM     19  H   UNL     1      -5.004  -0.711  -0.675  1.00  0.00     0.156 HD
ENDBRANCH  13  17
ENDBRANCH   1  10
BRANCH   6  20
ATOM     20  N   UNL     1       6.429  -0.048   0.596  1.00  0.00    -0.375 N 
ATOM     21  H   UNL     1       6.513   0.844   1.073  1.00  0.00     0.159 HD
ATOM     22  H   UNL     1       7.195  -0.244  -0.037  1.00  0.00     0.159 HD
ENDBRANCH   6  20
TORSDOF 3
