MODEL        10USER    Run = 10USERUSER    Estimated Free Energy of Binding    =  -9.43 kcal/mol  [=(1)+(2)+(3)-(4)]USERUSER    (1) Final Intermolecular Energy     = -12.42 kcal/molUSER        vdW + Hbond + desolv Energy     = -12.13 kcal/molUSER        Electrostatic Energy            =  -0.28 kcal/molUSER        Moving Ligand-Fixed Receptor    = -12.42 kcal/molUSER        Moving Ligand-Moving Receptor   =  +0.00 kcal/molUSER    (2) Final Total Internal Energy     =  -1.98 kcal/molUSER    (3) Torsional Free Energy           =  +2.98 kcal/molUSER    (4) Unbound System's Energy         =  -1.98 kcal/molUSERUSERREMARK SMILES NC(=O)C(=CC=CC1=CNCC1)CCC(=O)n1cc(-c2ccc3c(c2)OCO3)nn1REMARK SMILES IDX 4 1 2 2 1 3 3 6 5 7 6 8 7 9 8 10 9 11 12 12 10 13 11 14REMARK SMILES IDX 13 16 14 17 15 18 16 19 17 20 18 21 30 22 19 23 29 24 20 25REMARK SMILES IDX 21 26 25 27 22 28 24 29 23 30 26 31 28 32 27 33REMARK H PARENT 1 4 1 5 10 15USER                              x       y       z     vdW  Elec       q    TypeUSER                           _______ _______ _______ _____ _____    ______ ____ROOTATOM      1  C   UNL     1      37.331  47.230  14.331 -0.53 -0.01    +0.017 C  ENDROOTBRANCH   1   2ATOM      2  C   UNL     1      36.564  47.309  13.057 -0.49 -0.12    +0.244 C  ATOM      3  N   UNL     1      35.389  46.627  13.050 -0.27 +0.24    -0.366 N  ATOM      4  H   UNL     1      34.795  46.718  12.236 -0.21 -0.14    +0.159 HD ATOM      5  H   UNL     1      35.041  46.134  13.859 +0.11 -0.12    +0.159 HD ATOM      6  O   UNL     1      36.912  48.020  12.125 -1.08 +0.06    -0.270 OA ENDBRANCH   1   2BRANCH   1   7ATOM      7  C   UNL     1      36.807  46.795  15.495 -0.46 -0.01    +0.009 C  BRANCH   7   8ATOM      8  C   UNL     1      36.410  45.442  15.833 -0.41 -0.00    +0.001 C  BRANCH   8   9ATOM      9  C   UNL     1      35.162  45.014  16.096 -0.38 -0.00    +0.005 C  BRANCH   9  10ATOM     10  C   UNL     1      34.762  43.861  16.854 -0.37 +0.01    -0.031 C  ATOM     11  C   UNL     1      35.235  42.611  16.776 -0.45 -0.03    +0.081 C  ATOM     12  C   UNL     1      33.601  43.900  17.815 -0.33 -0.02    +0.058 C  ATOM     13  N   UNL     1      34.577  41.748  17.619 -0.15 +0.16    -0.390 N  ATOM     14  C   UNL     1      33.391  42.411  18.168 -0.36 -0.03    +0.117 C  ATOM     15  H   UNL     1      34.439  40.813  17.241 -0.49 -0.13    +0.159 HD ENDBRANCH   9  10ENDBRANCH   8   9ENDBRANCH   7   8ENDBRANCH   1   7BRANCH   1  16ATOM     16  C   UNL     1      38.786  47.620  14.207 -0.52 -0.02    +0.051 C  BRANCH  16  17ATOM     17  C   UNL     1      39.167  48.740  15.176 -0.48 -0.05    +0.107 C  BRANCH  17  18ATOM     18  C   UNL     1      40.358  48.345  16.016 -0.43 -0.06    +0.248 C  ATOM     19  O   UNL     1      41.441  48.918  16.056 -0.96 +0.00    -0.273 OA BRANCH  18  20ATOM     20  N   UNL     1      40.166  47.202  16.800 -0.37 +0.04    -0.187 N  ATOM     21  C   UNL     1      39.147  46.941  17.690 -0.17 -0.04    +0.149 A  ATOM     22  N   UNL     1      41.032  46.161  16.776 -0.36 +0.00    -0.059 NA ATOM     23  C   UNL     1      39.434  45.696  18.199 -0.36 -0.01    +0.113 A  ATOM     24  N   UNL     1      40.593  45.241  17.624 -0.30 +0.00    -0.130 NA BRANCH  23  25ATOM     25  C   UNL     1      38.669  44.946  19.182 -0.38 -0.00    +0.008 A  ATOM     26  C   UNL     1      37.401  44.428  18.822 -0.35 -0.00    +0.014 A  ATOM     27  C   UNL     1      39.156  44.720  20.479 -0.32 +0.00    +0.061 A  ATOM     28  C   UNL     1      36.626  43.698  19.732 -0.35 -0.00    +0.051 A  ATOM     29  C   UNL     1      38.370  43.997  21.355 -0.24 +0.00    +0.166 A  ATOM     30  C   UNL     1      37.141  43.501  20.993 -0.29 +0.00    +0.165 A  ATOM     31  O   UNL     1      38.694  43.692  22.640 -0.06 -0.02    -0.454 OA ATOM     32  O   UNL     1      36.537  42.821  22.003 -0.19 -0.04    -0.454 OA ATOM     33  C   UNL     1      37.526  42.948  23.046 -0.14 +0.04    +0.468 C  ENDBRANCH  23  25ENDBRANCH  18  20ENDBRANCH  17  18ENDBRANCH  16  17ENDBRANCH   1  16TORSDOF 10TERENDMDL