REMARK SMILES CCCCNCC[C@H]1C=Cc2ccccc2O1
REMARK SMILES IDX 4 1 3 2 2 3 1 4 5 5 6 7 7 8 8 9 9 10 17 11 10 12 16 13 11 14
REMARK SMILES IDX 15 15 12 16 14 17 13 18
REMARK H PARENT 5 6
ROOT
ATOM      1  C   UNL     1       2.998  -0.838  -0.264  1.00  0.00     0.081 C 
ENDROOT
BRANCH   1   2
ATOM      2  C   UNL     1       3.960   0.203   0.316  1.00  0.00     0.015 C 
BRANCH   2   3
ATOM      3  C   UNL     1       5.303  -0.432   0.683  1.00  0.00    -0.002 C 
ATOM      4  C   UNL     1       6.265   0.594   1.261  1.00  0.00     0.004 C 
ENDBRANCH   2   3
ENDBRANCH   1   2
BRANCH   1   5
ATOM      5  N   UNL     1       1.739  -0.255  -0.737  1.00  0.00    -0.317 NA
ATOM      6  H   UNL     1       1.276  -0.943  -1.330  1.00  0.00     0.122 HD
BRANCH   5   7
ATOM      7  C   UNL     1       0.846   0.126   0.360  1.00  0.00     0.085 C 
BRANCH   7   8
ATOM      8  C   UNL     1      -0.449   0.771  -0.145  1.00  0.00     0.065 C 
BRANCH   8   9
ATOM      9  C   UNL     1      -1.364  -0.118  -1.002  1.00  0.00     0.197 C 
ATOM     10  C   UNL     1      -1.771  -1.394  -0.305  1.00  0.00     0.018 C 
ATOM     11  O   UNL     1      -2.461   0.705  -1.456  1.00  0.00    -0.486 OA
ATOM     12  C   UNL     1      -3.007  -1.608   0.154  1.00  0.00     0.011 C 
ATOM     13  C   UNL     1      -3.670   0.551  -0.835  1.00  0.00     0.127 A 
ATOM     14  C   UNL     1      -3.990  -0.552  -0.038  1.00  0.00     0.016 A 
ATOM     15  C   UNL     1      -4.615   1.551  -1.065  1.00  0.00     0.047 A 
ATOM     16  C   UNL     1      -5.262  -0.640   0.537  1.00  0.00     0.012 A 
ATOM     17  C   UNL     1      -5.881   1.462  -0.485  1.00  0.00     0.004 A 
ATOM     18  C   UNL     1      -6.203   0.368   0.317  1.00  0.00     0.001 A 
ENDBRANCH   8   9
ENDBRANCH   7   8
ENDBRANCH   5   7
ENDBRANCH   1   5
TORSDOF 6
