REMARK SMILES Cc1ccc(O)c(-c2c[nH]c3cccc(O)c23)c1C
REMARK SMILES IDX 8 1 9 2 10 3 11 4 12 5 13 6 14 7 15 8 17 9 7 11 2 12 3 13
REMARK SMILES IDX 18 14 4 15 5 16 1 17 19 18 6 19 16 21
REMARK H PARENT 10 10 6 20 16 22
ROOT
ATOM      1  C   UNL     1      -0.468  -0.740  -0.645  1.00  0.00     0.015 A 
ATOM      2  C   UNL     1      -0.677  -1.376  -1.851  1.00  0.00     0.092 A 
ATOM      3  N   UNL     1      -2.003  -1.255  -2.165  1.00  0.00    -0.360 N 
ATOM      4  C   UNL     1      -2.667  -0.568  -1.174  1.00  0.00     0.050 A 
ATOM      5  C   UNL     1      -4.022  -0.222  -1.076  1.00  0.00     0.027 A 
ATOM      6  C   UNL     1      -4.435   0.488   0.055  1.00  0.00     0.006 A 
ATOM      7  C   UNL     1      -3.528   0.840   1.051  1.00  0.00     0.047 A 
ATOM      8  C   UNL     1      -2.183   0.486   0.936  1.00  0.00     0.125 A 
ATOM      9  C   UNL     1      -1.726  -0.229  -0.195  1.00  0.00     0.049 A 
ATOM     10  H   UNL     1      -2.440  -1.616  -3.002  1.00  0.00     0.166 HD
ENDROOT
BRANCH   1  11
ATOM     11  C   UNL     1       0.843  -0.678  -0.018  1.00  0.00     0.029 A 
ATOM     12  C   UNL     1       2.885   0.538   0.548  1.00  0.00    -0.047 A 
ATOM     13  C   UNL     1       3.313  -0.568   1.299  1.00  0.00     0.007 A 
ATOM     14  C   UNL     1       1.649   0.482  -0.143  1.00  0.00    -0.037 A 
ATOM     15  C   UNL     1       2.525  -1.711   1.401  1.00  0.00     0.047 A 
ATOM     16  C   UNL     1       1.296  -1.761   0.756  1.00  0.00     0.123 A 
ATOM     17  C   UNL     1       3.776   1.751   0.491  1.00  0.00     0.044 C 
ATOM     18  C   UNL     1       1.169   1.670  -0.945  1.00  0.00     0.045 C 
BRANCH  16  19
ATOM     19  O   UNL     1       0.571  -2.908   0.942  1.00  0.00    -0.507 OA
ATOM     20  H   UNL     1      -0.281  -2.815   0.481  1.00  0.00     0.293 HD
ENDBRANCH  16  19
ENDBRANCH   1  11
BRANCH   8  21
ATOM     21  O   UNL     1      -1.357   0.869   1.970  1.00  0.00    -0.507 OA
ATOM     22  H   UNL     1      -0.467   0.525   1.782  1.00  0.00     0.293 HD
ENDBRANCH   8  21
TORSDOF 3
