MODEL        2USER    Run = 2USERUSER    Estimated Free Energy of Binding    =  -6.75 kcal/mol  [=(1)+(2)+(3)-(4)]USERUSER    (1) Final Intermolecular Energy     =  -8.84 kcal/molUSER        vdW + Hbond + desolv Energy     =  -8.67 kcal/molUSER        Electrostatic Energy            =  -0.18 kcal/molUSER        Moving Ligand-Fixed Receptor    =  -8.84 kcal/molUSER        Moving Ligand-Moving Receptor   =  +0.00 kcal/molUSER    (2) Final Total Internal Energy     =  -0.89 kcal/molUSER    (3) Torsional Free Energy           =  +2.09 kcal/molUSER    (4) Unbound System's Energy         =  -0.89 kcal/molUSERUSERREMARK SMILES CCOCC(=O)N1Cc2cc(OC)c(OC)cc2[C@H]1OCREMARK SMILES IDX 4 1 3 2 2 3 1 4 5 5 6 6 7 7 8 8 19 9 9 10 18 11 10 12 17 13REMARK SMILES IDX 11 14 14 15 20 16 21 17 12 18 13 19 15 20 16 21REMARK H PARENTUSER                              x       y       z     vdW  Elec       q    TypeUSER                           _______ _______ _______ _____ _____    ______ ____ROOTATOM      1  C   UNL     1      36.815  47.810  14.037 -0.38 -0.16    +0.260 C  ENDROOTBRANCH   1   2ATOM      2  O   UNL     1      37.341  47.946  12.724 -0.92 +0.07    -0.372 OA BRANCH   2   3ATOM      3  C   UNL     1      36.785  46.996  11.821 -0.60 -0.06    +0.157 C  ATOM      4  C   UNL     1      36.897  45.619  12.446 -0.62 -0.01    +0.035 C  ENDBRANCH   2   3ENDBRANCH   1   2BRANCH   1   5ATOM      5  C   UNL     1      37.580  48.632  15.088 -0.37 -0.20    +0.251 C  ATOM      6  O   UNL     1      37.306  49.805  15.337 -0.54 +0.30    -0.272 OA BRANCH   5   7ATOM      7  N   UNL     1      38.595  47.971  15.745 -0.24 +0.16    -0.306 N  ATOM      8  C   UNL     1      38.533  46.627  16.309 -0.36 -0.06    +0.158 C  ATOM      9  C   UNL     1      39.839  48.650  16.068 -0.38 -0.09    +0.249 C  ATOM     10  C   UNL     1      39.717  46.570  17.218 -0.46 +0.00    -0.017 A  ATOM     11  C   UNL     1      40.470  47.740  17.085 -0.51 -0.00    +0.010 A  ATOM     12  C   UNL     1      40.100  45.563  18.088 -0.41 -0.00    +0.056 A  ATOM     13  C   UNL     1      41.633  47.931  17.816 -0.41 -0.00    +0.059 A  ATOM     14  C   UNL     1      41.269  45.740  18.842 -0.35 +0.01    +0.161 A  ATOM     15  C   UNL     1      42.038  46.927  18.705 -0.42 +0.01    +0.161 A  BRANCH   9  16ATOM     16  O   UNL     1      40.661  48.638  14.910 -0.34 +0.07    -0.357 OA ATOM     17  C   UNL     1      41.425  49.827  14.782 -0.58 -0.04    +0.198 C  ENDBRANCH   9  16BRANCH  14  18ATOM     18  O   UNL     1      41.750  44.819  19.742 -0.08 -0.08    -0.493 OA ATOM     19  C   UNL     1      40.873  44.371  20.764 -0.22 +0.02    +0.278 C  ENDBRANCH  14  18BRANCH  15  20ATOM     20  O   UNL     1      43.165  47.000  19.488 -0.25 -0.15    -0.493 OA ATOM     21  C   UNL     1      42.990  47.269  20.872 -0.23 +0.06    +0.278 C  ENDBRANCH  15  20ENDBRANCH   5   7ENDBRANCH   1   5TORSDOF 7TERENDMDL