MODEL        2USER    Run = 2USERUSER    Estimated Free Energy of Binding    =  -6.84 kcal/mol  [=(1)+(2)+(3)-(4)]USERUSER    (1) Final Intermolecular Energy     =  -7.73 kcal/molUSER        vdW + Hbond + desolv Energy     =  -7.72 kcal/molUSER        Electrostatic Energy            =  -0.01 kcal/molUSER        Moving Ligand-Fixed Receptor    =  -7.73 kcal/molUSER        Moving Ligand-Moving Receptor   =  +0.00 kcal/molUSER    (2) Final Total Internal Energy     =  -1.44 kcal/molUSER    (3) Torsional Free Energy           =  +0.89 kcal/molUSER    (4) Unbound System's Energy         =  -1.44 kcal/molUSERUSERREMARK SMILES Cc1ccc(O)c(-c2c[nH]c3cccc(O)c23)c1CREMARK SMILES IDX 8 1 9 2 10 3 11 4 12 5 13 6 14 7 15 8 17 9 7 11 2 12 3 13REMARK SMILES IDX 18 14 4 15 5 16 1 17 19 18 6 19 16 21REMARK H PARENT 10 10 6 20 16 22USER                              x       y       z     vdW  Elec       q    TypeUSER                           _______ _______ _______ _____ _____    ______ ____ROOTATOM      1  C   UNL     1      38.237  47.500  15.548 -0.45 -0.01    +0.015 A  ATOM      2  C   UNL     1      38.197  48.862  15.337 -0.41 -0.07    +0.092 A  ATOM      3  N   UNL     1      37.504  49.088  14.179 -0.16 +0.24    -0.360 N  ATOM      4  C   UNL     1      37.109  47.894  13.620 -0.53 -0.02    +0.050 A  ATOM      5  C   UNL     1      36.389  47.650  12.442 -0.66 -0.01    +0.027 A  ATOM      6  C   UNL     1      36.120  46.321  12.104 -0.64 -0.00    +0.006 A  ATOM      7  C   UNL     1      36.553  45.273  12.913 -0.46 -0.02    +0.047 A  ATOM      8  C   UNL     1      37.270  45.536  14.081 -0.33 -0.05    +0.125 A  ATOM      9  C   UNL     1      37.559  46.868  14.459 -0.41 -0.02    +0.049 A  ATOM     10  H   UNL     1      37.308  49.997  13.784 -0.44 -0.12    +0.166 HD ENDROOTBRANCH   1  11ATOM     11  C   UNL     1      38.901  46.913  16.701 -0.41 -0.01    +0.029 A  ATOM     12  C   UNL     1      40.812  46.756  18.216 -0.47 +0.00    -0.047 A  ATOM     13  C   UNL     1      40.095  45.834  18.994 -0.44 -0.00    +0.007 A  ATOM     14  C   UNL     1      40.226  47.287  17.040 -0.48 +0.01    -0.037 A  ATOM     15  C   UNL     1      38.802  45.455  18.645 -0.38 -0.01    +0.047 A  ATOM     16  C   UNL     1      38.207  45.998  17.513 -0.30 -0.03    +0.123 A  ATOM     17  C   UNL     1      42.201  47.137  18.657 -0.57 +0.00    +0.044 C  ATOM     18  C   UNL     1      40.981  48.291  16.199 -0.59 -0.01    +0.045 C  BRANCH  16  19ATOM     19  O   UNL     1      36.920  45.600  17.266 -0.06 +0.20    -0.507 OA ATOM     20  H   UNL     1      36.737  45.711  16.317 +0.21 -0.15    +0.293 HD ENDBRANCH  16  19ENDBRANCH   1  11BRANCH   8  21ATOM     21  O   UNL     1      37.665  44.441  14.818 +0.07 +0.15    -0.507 OA ATOM     22  H   UNL     1      37.017  44.314  15.532 +0.19 -0.10    +0.293 HD ENDBRANCH   8  21TORSDOF 3TERENDMDL