REMARK SMILES COCCCCNC(=O)c1nccnc1Nc1cccc(OC)c1
REMARK SMILES IDX 7 1 8 2 9 3 6 5 5 6 4 7 3 8 2 9 1 10 10 11 11 12 15 13 12 14
REMARK SMILES IDX 14 15 13 16 16 17 17 19 18 20 24 21 19 22 21 23 20 24 22 25
REMARK SMILES IDX 23 26
REMARK H PARENT 7 4 16 18
ROOT
ATOM      1  N   UNL     1       2.338  -1.476   1.003  1.00  0.00    -0.351 N 
ATOM      2  C   UNL     1       1.036  -1.024   1.085  1.00  0.00     0.273 C 
ATOM      3  O   UNL     1       0.631  -0.274   1.968  1.00  0.00    -0.267 OA
ATOM      4  H   UNL     1       2.533  -2.150   0.265  1.00  0.00     0.163 HD
ENDROOT
BRANCH   1   5
ATOM      5  C   UNL     1       3.358  -1.137   1.966  1.00  0.00     0.116 C 
BRANCH   5   6
ATOM      6  C   UNL     1       3.894   0.287   1.814  1.00  0.00     0.024 C 
BRANCH   6   7
ATOM      7  C   UNL     1       4.830   0.497   0.620  1.00  0.00     0.030 C 
BRANCH   7   8
ATOM      8  C   UNL     1       4.140   0.426  -0.740  1.00  0.00     0.160 C 
BRANCH   8   9
ATOM      9  O   UNL     1       5.057   0.754  -1.786  1.00  0.00    -0.385 OA
ATOM     10  C   UNL     1       5.130   2.151  -2.041  1.00  0.00     0.194 C 
ENDBRANCH   8   9
ENDBRANCH   7   8
ENDBRANCH   6   7
ENDBRANCH   5   6
ENDBRANCH   1   5
BRANCH   2  11
ATOM     11  C   UNL     1       0.132  -1.540   0.004  1.00  0.00     0.170 A 
ATOM     12  N   UNL     1       0.705  -2.479  -0.821  1.00  0.00    -0.246 NA
ATOM     13  C   UNL     1      -1.202  -1.093  -0.110  1.00  0.00     0.162 A 
ATOM     14  C   UNL     1      -0.111  -2.968  -1.774  1.00  0.00     0.132 A 
ATOM     15  N   UNL     1      -1.979  -1.621  -1.092  1.00  0.00    -0.235 NA
ATOM     16  C   UNL     1      -1.422  -2.552  -1.904  1.00  0.00     0.133 A 
BRANCH  13  17
ATOM     17  N   UNL     1      -1.701  -0.071   0.727  1.00  0.00    -0.338 N 
ATOM     18  H   UNL     1      -1.126   0.036   1.568  1.00  0.00     0.168 HD
BRANCH  17  19
ATOM     19  C   UNL     1      -2.950   0.571   0.821  1.00  0.00     0.043 A 
ATOM     20  C   UNL     1      -3.171   1.427   1.913  1.00  0.00     0.026 A 
ATOM     21  C   UNL     1      -3.964   0.459  -0.139  1.00  0.00     0.072 A 
ATOM     22  C   UNL     1      -4.373   2.120   2.060  1.00  0.00     0.006 A 
ATOM     23  C   UNL     1      -5.175   1.148  -0.002  1.00  0.00     0.120 A 
ATOM     24  C   UNL     1      -5.373   1.976   1.103  1.00  0.00     0.046 A 
BRANCH  23  25
ATOM     25  O   UNL     1      -6.231   1.103  -0.874  1.00  0.00    -0.497 OA
ATOM     26  C   UNL     1      -6.093   0.247  -2.001  1.00  0.00     0.278 C 
ENDBRANCH  23  25
ENDBRANCH  17  19
ENDBRANCH  13  17
ENDBRANCH   2  11
TORSDOF 9
