REMARK SMILES NC(=O)C(=CC=CC1=CNCC1)CCC(=O)n1cc(-c2ccc3c(c2)OCO3)nn1
REMARK SMILES IDX 4 1 2 2 1 3 3 6 5 7 6 8 7 9 8 10 9 11 12 12 10 13 11 14
REMARK SMILES IDX 13 16 14 17 15 18 16 19 17 20 18 21 30 22 19 23 29 24 20 25
REMARK SMILES IDX 21 26 25 27 22 28 24 29 23 30 26 31 28 32 27 33
REMARK H PARENT 1 4 1 5 10 15
ROOT
ATOM      1  C   UNL     1      -2.592  -1.486   1.634  1.00  0.00     0.017 C 
ENDROOT
BRANCH   1   2
ATOM      2  C   UNL     1      -2.374  -2.925   1.948  1.00  0.00     0.244 C 
ATOM      3  N   UNL     1      -2.619  -3.781   0.922  1.00  0.00    -0.366 N 
ATOM      4  H   UNL     1      -2.407  -4.760   1.062  1.00  0.00     0.159 HD
ATOM      5  H   UNL     1      -2.892  -3.464   0.003  1.00  0.00     0.159 HD
ATOM      6  O   UNL     1      -1.908  -3.301   3.014  1.00  0.00    -0.270 OA
ENDBRANCH   1   2
BRANCH   1   7
ATOM      7  C   UNL     1      -3.750  -0.991   1.154  1.00  0.00     0.009 C 
BRANCH   7   8
ATOM      8  C   UNL     1      -4.985  -1.712   0.912  1.00  0.00     0.001 C 
BRANCH   8   9
ATOM      9  C   UNL     1      -6.108  -1.218   0.362  1.00  0.00     0.005 C 
BRANCH   9  10
ATOM     10  C   UNL     1      -6.356   0.121  -0.098  1.00  0.00    -0.031 C 
ATOM     11  C   UNL     1      -6.229   1.268   0.580  1.00  0.00     0.081 C 
ATOM     12  C   UNL     1      -6.938   0.403  -1.459  1.00  0.00     0.058 C 
ATOM     13  N   UNL     1      -6.606   2.361  -0.164  1.00  0.00    -0.390 N 
ATOM     14  C   UNL     1      -7.266   1.911  -1.392  1.00  0.00     0.117 C 
ATOM     15  H   UNL     1      -7.082   3.087   0.366  1.00  0.00     0.159 HD
ENDBRANCH   9  10
ENDBRANCH   8   9
ENDBRANCH   7   8
ENDBRANCH   1   7
BRANCH   1  16
ATOM     16  C   UNL     1      -1.416  -0.593   1.960  1.00  0.00     0.051 C 
BRANCH  16  17
ATOM     17  C   UNL     1      -0.222  -0.855   1.041  1.00  0.00     0.107 C 
BRANCH  17  18
ATOM     18  C   UNL     1       0.920   0.080   1.360  1.00  0.00     0.248 C 
ATOM     19  O   UNL     1       0.921   0.960   2.213  1.00  0.00    -0.273 OA
BRANCH  18  20
ATOM     20  N   UNL     1       2.063  -0.106   0.575  1.00  0.00    -0.187 N 
ATOM     21  C   UNL     1       3.256   0.580   0.631  1.00  0.00     0.149 A 
ATOM     22  N   UNL     1       2.117  -1.041  -0.404  1.00  0.00    -0.059 NA
ATOM     23  C   UNL     1       4.034   0.017  -0.354  1.00  0.00     0.113 A 
ATOM     24  N   UNL     1       3.313  -0.972  -0.973  1.00  0.00    -0.130 NA
BRANCH  23  25
ATOM     25  C   UNL     1       5.395   0.374  -0.717  1.00  0.00     0.008 A 
ATOM     26  C   UNL     1       6.039  -0.331  -1.763  1.00  0.00     0.014 A 
ATOM     27  C   UNL     1       6.089   1.402  -0.059  1.00  0.00     0.061 A 
ATOM     28  C   UNL     1       7.349  -0.025  -2.151  1.00  0.00     0.051 A 
ATOM     29  C   UNL     1       7.380   1.682  -0.463  1.00  0.00     0.166 A 
ATOM     30  C   UNL     1       7.992   0.989  -1.479  1.00  0.00     0.165 A 
ATOM     31  O   UNL     1       8.184   2.641   0.069  1.00  0.00    -0.454 OA
ATOM     32  O   UNL     1       9.258   1.424  -1.715  1.00  0.00    -0.454 OA
ATOM     33  C   UNL     1       9.374   2.471  -0.729  1.00  0.00     0.468 C 
ENDBRANCH  23  25
ENDBRANCH  18  20
ENDBRANCH  17  18
ENDBRANCH  16  17
ENDBRANCH   1  16
TORSDOF 10
