REMARK SMILES Nc1ccccc1[C@@H](N)NC(=O)CNC(=O)c1cccc(C(F)(F)F)c1
REMARK SMILES IDX 10 1 11 2 12 3 8 5 7 6 2 7 3 8 4 9 6 10 5 11 1 12 9 15 13 18
REMARK SMILES IDX 14 19 15 20 16 22 17 23 18 24 26 25 19 26 21 27 20 28 22 29
REMARK SMILES IDX 23 30 24 31 25 32
REMARK H PARENT 10 4 1 13 1 14 9 16 9 17 14 21
ROOT
ATOM      1  N   UNL     1      -1.636  -1.703  -0.332  1.00  0.00    -0.335 N 
ATOM      2  C   UNL     1      -0.450  -2.342  -0.033  1.00  0.00     0.240 C 
ATOM      3  O   UNL     1      -0.216  -2.886   1.045  1.00  0.00    -0.273 OA
ATOM      4  H   UNL     1      -1.592  -1.028  -1.086  1.00  0.00     0.165 HD
ENDROOT
BRANCH   1   5
ATOM      5  C   UNL     1      -2.584  -1.376   0.700  1.00  0.00     0.180 C 
BRANCH   5   6
ATOM      6  C   UNL     1      -3.564  -0.312   0.225  1.00  0.00     0.012 A 
ATOM      7  C   UNL     1      -3.141   1.017  -0.010  1.00  0.00     0.038 A 
ATOM      8  C   UNL     1      -4.098   1.994  -0.332  1.00  0.00     0.026 A 
ATOM      9  C   UNL     1      -5.438   1.664  -0.530  1.00  0.00     0.002 A 
ATOM     10  C   UNL     1      -4.928  -0.622   0.018  1.00  0.00     0.009 A 
ATOM     11  C   UNL     1      -5.851   0.351  -0.365  1.00  0.00     0.001 A 
BRANCH   7  12
ATOM     12  N   UNL     1      -1.834   1.455   0.268  1.00  0.00    -0.398 N 
ATOM     13  H   UNL     1      -1.606   2.338  -0.181  1.00  0.00     0.156 HD
ATOM     14  H   UNL     1      -1.092   0.785   0.056  1.00  0.00     0.156 HD
ENDBRANCH   7  12
ENDBRANCH   5   6
BRANCH   5  15
ATOM     15  N   UNL     1      -3.198  -2.654   1.019  1.00  0.00    -0.307 NA
ATOM     16  H   UNL     1      -3.385  -3.111   0.132  1.00  0.00     0.121 HD
ATOM     17  H   UNL     1      -2.457  -3.213   1.448  1.00  0.00     0.121 HD
ENDBRANCH   5  15
ENDBRANCH   1   5
BRANCH   2  18
ATOM     18  C   UNL     1       0.604  -2.251  -1.136  1.00  0.00     0.216 C 
BRANCH  18  19
ATOM     19  N   UNL     1       1.712  -1.457  -0.638  1.00  0.00    -0.343 N 
ATOM     20  C   UNL     1       1.567  -0.088  -0.546  1.00  0.00     0.251 C 
ATOM     21  H   UNL     1       2.321  -1.911   0.034  1.00  0.00     0.164 HD
ATOM     22  O   UNL     1       0.564   0.498  -0.941  1.00  0.00    -0.269 OA
BRANCH  20  23
ATOM     23  C   UNL     1       2.663   0.650   0.137  1.00  0.00     0.040 A 
ATOM     24  C   UNL     1       2.354   1.846   0.794  1.00  0.00     0.014 A 
ATOM     25  C   UNL     1       3.986   0.189   0.116  1.00  0.00     0.027 A 
ATOM     26  C   UNL     1       3.355   2.566   1.447  1.00  0.00     0.001 A 
ATOM     27  C   UNL     1       5.003   0.915   0.762  1.00  0.00     0.056 A 
ATOM     28  C   UNL     1       4.671   2.100   1.436  1.00  0.00     0.013 A 
BRANCH  27  29
ATOM     29  C   UNL     1       6.425   0.405   0.754  1.00  0.00     0.416 C 
ATOM     30  F   UNL     1       6.760  -0.200  -0.420  1.00  0.00    -0.166 F 
ATOM     31  F   UNL     1       6.644  -0.520   1.727  1.00  0.00    -0.166 F 
ATOM     32  F   UNL     1       7.351   1.384   0.947  1.00  0.00    -0.166 F 
ENDBRANCH  27  29
ENDBRANCH  20  23
ENDBRANCH  18  19
ENDBRANCH   2  18
TORSDOF 8
