MODEL        7USER    Run = 7USERUSER    Estimated Free Energy of Binding    =  -8.02 kcal/mol  [=(1)+(2)+(3)-(4)]USERUSER    (1) Final Intermolecular Energy     =  -9.81 kcal/molUSER        vdW + Hbond + desolv Energy     =  -9.68 kcal/molUSER        Electrostatic Energy            =  -0.12 kcal/molUSER        Moving Ligand-Fixed Receptor    =  -9.81 kcal/molUSER        Moving Ligand-Moving Receptor   =  +0.00 kcal/molUSER    (2) Final Total Internal Energy     =  -0.39 kcal/molUSER    (3) Torsional Free Energy           =  +1.79 kcal/molUSER    (4) Unbound System's Energy         =  -0.39 kcal/molUSERUSERREMARK SMILES CCCCNCC[C@H]1C=Cc2ccccc2O1REMARK SMILES IDX 4 1 3 2 2 3 1 4 5 5 6 7 7 8 8 9 9 10 17 11 10 12 16 13 11 14REMARK SMILES IDX 15 15 12 16 14 17 13 18REMARK H PARENT 5 6USER                              x       y       z     vdW  Elec       q    TypeUSER                           _______ _______ _______ _____ _____    ______ ____ROOTATOM      1  C   UNL     1      41.409  50.328  14.830 -0.64 -0.02    +0.081 C  ENDROOTBRANCH   1   2ATOM      2  C   UNL     1      42.626  50.820  14.041 -0.65 -0.00    +0.015 C  BRANCH   2   3ATOM      3  C   UNL     1      42.554  50.370  12.580 -0.75 +0.00    -0.002 C  ATOM      4  C   UNL     1      42.906  51.504  11.630 -0.63 -0.00    +0.004 C  ENDBRANCH   2   3ENDBRANCH   1   2BRANCH   1   5ATOM      5  N   UNL     1      41.734  49.945  16.207 -0.85 -0.02    -0.317 NA ATOM      6  H   UNL     1      41.435  50.700  16.823 -0.49 -0.03    +0.122 HD BRANCH   5   7ATOM      7  C   UNL     1      41.087  48.695  16.614 -0.51 -0.01    +0.085 C  BRANCH   7   8ATOM      8  C   UNL     1      40.245  48.087  15.487 -0.58 -0.01    +0.065 C  BRANCH   8   9ATOM      9  C   UNL     1      38.754  47.871  15.791 -0.39 -0.09    +0.197 C  ATOM     10  C   UNL     1      37.881  49.002  15.302 -0.48 -0.01    +0.018 C  ATOM     11  O   UNL     1      38.397  46.565  15.289 -0.08 +0.17    -0.486 OA ATOM     12  C   UNL     1      37.062  48.885  14.253 -0.56 -0.01    +0.011 C  ATOM     13  C   UNL     1      37.690  46.505  14.120 -0.35 -0.05    +0.127 A  ATOM     14  C   UNL     1      37.023  47.602  13.567 -0.56 -0.01    +0.016 A  ATOM     15  C   UNL     1      37.628  45.257  13.498 -0.36 -0.01    +0.047 A  ATOM     16  C   UNL     1      36.302  47.443  12.380 -0.68 -0.01    +0.012 A  ATOM     17  C   UNL     1      36.911  45.104  12.311 -0.55 -0.00    +0.004 A  ATOM     18  C   UNL     1      36.251  46.197  11.751 -0.58 -0.00    +0.001 A  ENDBRANCH   8   9ENDBRANCH   7   8ENDBRANCH   5   7ENDBRANCH   1   5TORSDOF 6TERENDMDL