MODEL        10USER    Run = 10USERUSER    Estimated Free Energy of Binding    =  -7.62 kcal/mol  [=(1)+(2)+(3)-(4)]USERUSER    (1) Final Intermolecular Energy     = -10.01 kcal/molUSER        vdW + Hbond + desolv Energy     =  -9.75 kcal/molUSER        Electrostatic Energy            =  -0.26 kcal/molUSER        Moving Ligand-Fixed Receptor    = -10.01 kcal/molUSER        Moving Ligand-Moving Receptor   =  +0.00 kcal/molUSER    (2) Final Total Internal Energy     =  -2.70 kcal/molUSER    (3) Torsional Free Energy           =  +2.39 kcal/molUSER    (4) Unbound System's Energy         =  -2.70 kcal/molUSERUSERREMARK SMILES Nc1ccccc1[C@@H](N)NC(=O)CNC(=O)c1cccc(C(F)(F)F)c1REMARK SMILES IDX 10 1 11 2 12 3 8 5 7 6 2 7 3 8 4 9 6 10 5 11 1 12 9 15 13 18REMARK SMILES IDX 14 19 15 20 16 22 17 23 18 24 26 25 19 26 21 27 20 28 22 29REMARK SMILES IDX 23 30 24 31 25 32REMARK H PARENT 10 4 1 13 1 14 9 16 9 17 14 21USER                              x       y       z     vdW  Elec       q    TypeUSER                           _______ _______ _______ _____ _____    ______ ____ROOTATOM      1  N   UNL     1      28.554  46.356  12.868 -0.13 +0.31    -0.335 N  ATOM      2  C   UNL     1      29.930  46.456  12.881 -0.44 -0.16    +0.240 C  ATOM      3  O   UNL     1      30.586  47.016  12.004 -1.12 +0.10    -0.273 OA ATOM      4  H   UNL     1      28.164  45.613  13.436 -0.41 -0.26    +0.165 HD ENDROOTBRANCH   1   5ATOM      5  C   UNL     1      27.799  46.650  11.679 -0.30 -0.12    +0.180 C  BRANCH   5   6ATOM      6  C   UNL     1      26.306  46.694  11.977 -0.39 -0.00    +0.012 A  ATOM      7  C   UNL     1      25.376  47.086  10.986 -0.29 -0.02    +0.038 A  ATOM      8  C   UNL     1      24.022  47.228  11.334 -0.18 -0.01    +0.026 A  ATOM      9  C   UNL     1      23.558  46.890  12.605 -0.18 -0.00    +0.002 A  ATOM     10  C   UNL     1      25.811  46.356  13.257 -0.27 -0.00    +0.009 A  ATOM     11  C   UNL     1      24.453  46.442  13.564 -0.29 +0.00    +0.001 A  BRANCH   7  12ATOM     12  N   UNL     1      25.771  47.544   9.717 -0.04 +0.50    -0.398 N  ATOM     13  H   UNL     1      26.764  47.758   9.661 -0.39 -0.17    +0.156 HD ATOM     14  H   UNL     1      25.249  48.346   9.357 -0.33 -0.29    +0.156 HD ENDBRANCH   7  12ENDBRANCH   5   6BRANCH   5  15ATOM     15  N   UNL     1      28.355  47.913  11.224 -0.42 +0.12    -0.307 NA ATOM     16  H   UNL     1      28.850  48.310  12.016 +0.07 +0.00    +0.121 HD ATOM     17  H   UNL     1      29.090  47.663  10.558 -0.03 -0.06    +0.121 HD ENDBRANCH   5  15ENDBRANCH   1   5BRANCH   2  18ATOM     18  C   UNL     1      30.599  45.734  14.050 -0.42 -0.16    +0.216 C  BRANCH  18  19ATOM     19  N   UNL     1      31.997  46.120  14.080 -0.26 +0.27    -0.343 N  ATOM     20  C   UNL     1      32.839  45.518  14.992 -0.19 -0.22    +0.251 C  ATOM     21  H   UNL     1      32.397  46.420  13.198 -0.34 -0.13    +0.164 HD ATOM     22  O   UNL     1      32.439  44.721  15.835 -0.25 +0.15    -0.269 OA BRANCH  20  23ATOM     23  C   UNL     1      34.289  45.820  14.856 -0.25 -0.04    +0.040 A  ATOM     24  C   UNL     1      35.127  45.581  15.951 -0.32 -0.01    +0.014 A  ATOM     25  C   UNL     1      34.822  46.355  13.675 -0.32 -0.02    +0.027 A  ATOM     26  C   UNL     1      36.493  45.851  15.860 -0.36 -0.00    +0.001 A  ATOM     27  C   UNL     1      36.196  46.641  13.580 -0.48 -0.03    +0.056 A  ATOM     28  C   UNL     1      37.025  46.372  14.680 -0.40 -0.01    +0.013 A  BRANCH  27  29ATOM     29  C   UNL     1      36.771  47.199  12.299 -0.38 -0.16    +0.416 C  ATOM     30  F   UNL     1      38.114  47.411  12.374 -0.13 +0.01    -0.166 F  ATOM     31  F   UNL     1      36.220  48.398  11.970 -0.26 +0.08    -0.166 F  ATOM     32  F   UNL     1      36.580  46.387  11.223 -0.25 +0.07    -0.166 F  ENDBRANCH  27  29ENDBRANCH  20  23ENDBRANCH  18  19ENDBRANCH   2  18TORSDOF 8TERENDMDL