MODEL        4USER    Run = 4USERUSER    Estimated Free Energy of Binding    =  -7.81 kcal/mol  [=(1)+(2)+(3)-(4)]USERUSER    (1) Final Intermolecular Energy     = -10.50 kcal/molUSER        vdW + Hbond + desolv Energy     = -10.24 kcal/molUSER        Electrostatic Energy            =  -0.25 kcal/molUSER        Moving Ligand-Fixed Receptor    = -10.50 kcal/molUSER        Moving Ligand-Moving Receptor   =  +0.00 kcal/molUSER    (2) Final Total Internal Energy     =  -1.96 kcal/molUSER    (3) Torsional Free Energy           =  +2.68 kcal/molUSER    (4) Unbound System's Energy         =  -1.96 kcal/molUSERUSERREMARK SMILES COCCCCNC(=O)c1nccnc1Nc1cccc(OC)c1REMARK SMILES IDX 7 1 8 2 9 3 6 5 5 6 4 7 3 8 2 9 1 10 10 11 11 12 15 13 12 14REMARK SMILES IDX 14 15 13 16 16 17 17 19 18 20 24 21 19 22 21 23 20 24 22 25REMARK SMILES IDX 23 26REMARK H PARENT 7 4 16 18USER                              x       y       z     vdW  Elec       q    TypeUSER                           _______ _______ _______ _____ _____    ______ ____ROOTATOM      1  N   UNL     1      33.676  45.863  14.642 -0.12 +0.35    -0.351 N  ATOM      2  C   UNL     1      34.965  46.187  15.016 -0.14 -0.28    +0.273 C  ATOM      3  O   UNL     1      35.362  46.163  16.176 -0.24 +0.26    -0.267 OA ATOM      4  H   UNL     1      33.449  45.990  13.657 +0.00 -0.13    +0.163 HD ENDROOTBRANCH   1   5ATOM      5  C   UNL     1      32.647  45.490  15.582 -0.31 -0.10    +0.116 C  BRANCH   5   6ATOM      6  C   UNL     1      31.423  44.847  14.927 -0.46 -0.01    +0.024 C  BRANCH   6   7ATOM      7  C   UNL     1      30.495  45.826  14.201 -0.57 -0.02    +0.030 C  BRANCH   7   8ATOM      8  C   UNL     1      30.720  45.906  12.693 -0.42 -0.12    +0.160 C  BRANCH   8   9ATOM      9  O   UNL     1      30.206  47.134  12.173 -0.85 +0.12    -0.385 OA ATOM     10  C   UNL     1      28.812  47.079  11.900 -0.44 -0.10    +0.194 C  ENDBRANCH   8   9ENDBRANCH   7   8ENDBRANCH   6   7ENDBRANCH   5   6ENDBRANCH   1   5BRANCH   2  11ATOM     11  C   UNL     1      35.856  46.593  13.879 -0.35 -0.11    +0.170 A  ATOM     12  N   UNL     1      35.382  46.258  12.632 -0.35 +0.15    -0.246 NA ATOM     13  C   UNL     1      37.065  47.284  14.107 -0.37 -0.09    +0.162 A  ATOM     14  C   UNL     1      36.163  46.646  11.606 -0.46 -0.06    +0.132 A  ATOM     15  N   UNL     1      37.813  47.650  13.033 -0.81 +0.05    -0.235 NA ATOM     16  C   UNL     1      37.348  47.329  11.802 -0.28 -0.03    +0.133 A  BRANCH  13  17ATOM     17  N   UNL     1      37.526  47.530  15.419 -0.19 +0.22    -0.338 N  ATOM     18  H   UNL     1      36.759  47.806  16.038 +0.11 -0.18    +0.168 HD BRANCH  17  19ATOM     19  C   UNL     1      38.799  47.796  15.957 -0.44 -0.02    +0.043 A  ATOM     20  C   UNL     1      39.246  46.996  17.022 -0.43 -0.01    +0.026 A  ATOM     21  C   UNL     1      39.675  48.769  15.456 -0.49 -0.03    +0.072 A  ATOM     22  C   UNL     1      40.507  47.181  17.589 -0.50 -0.00    +0.006 A  ATOM     23  C   UNL     1      40.942  48.965  16.018 -0.50 -0.02    +0.120 A  ATOM     24  C   UNL     1      41.351  48.168  17.087 -0.45 -0.00    +0.046 A  BRANCH  23  25ATOM     25  O   UNL     1      41.869  49.890  15.612 -0.70 -0.02    -0.497 OA ATOM     26  C   UNL     1      41.799  50.311  14.256 -0.48 -0.07    +0.278 C  ENDBRANCH  23  25ENDBRANCH  17  19ENDBRANCH  13  17ENDBRANCH   2  11TORSDOF 9TERENDMDL