MODEL        10USER    Run = 10USERUSER    Estimated Free Energy of Binding    =  -7.56 kcal/mol  [=(1)+(2)+(3)-(4)]USERUSER    (1) Final Intermolecular Energy     =  -8.46 kcal/molUSER        vdW + Hbond + desolv Energy     =  -8.32 kcal/molUSER        Electrostatic Energy            =  -0.14 kcal/molUSER        Moving Ligand-Fixed Receptor    =  -8.46 kcal/molUSER        Moving Ligand-Moving Receptor   =  +0.00 kcal/molUSER    (2) Final Total Internal Energy     =  -0.12 kcal/molUSER    (3) Torsional Free Energy           =  +0.89 kcal/molUSER    (4) Unbound System's Energy         =  -0.12 kcal/molUSERUSERREMARK SMILES Cc1ccc(-c2ncc3sc(N)nc3n2)cc1NREMARK SMILES IDX 6 1 7 2 8 3 9 4 10 5 11 6 13 7 14 8 15 9 5 10 2 11 3 12REMARK SMILES IDX 17 13 4 14 16 15 1 16 18 17 12 20REMARK H PARENT 18 18 18 19 12 21 12 22USER                              x       y       z     vdW  Elec       q    TypeUSER                           _______ _______ _______ _____ _____    ______ ____ROOTATOM      1  C   UNL     1      38.963  46.819  16.445 -0.32 -0.05    +0.161 A  ATOM      2  N   UNL     1      39.523  47.403  15.359 -0.29 +0.06    -0.235 NA ATOM      3  C   UNL     1      38.765  47.618  14.265 -0.38 -0.04    +0.136 A  ATOM      4  C   UNL     1      37.442  47.238  14.288 -0.41 -0.05    +0.094 A  ATOM      5  S   UNL     1      36.200  47.342  13.117 -0.77 +0.05    -0.094 S  ATOM      6  C   UNL     1      35.108  46.617  14.226 -0.22 -0.17    +0.182 A  ATOM      7  N   UNL     1      35.607  46.295  15.390 -0.24 +0.18    -0.200 NA ATOM      8  C   UNL     1      36.939  46.649  15.440 -0.27 -0.11    +0.176 A  ATOM      9  N   UNL     1      37.686  46.424  16.542 -0.25 +0.09    -0.207 NA ENDROOTBRANCH   1  10ATOM     10  C   UNL     1      39.832  46.601  17.622 -0.46 -0.00    +0.021 A  ATOM     11  C   UNL     1      41.531  46.154  19.862 -0.40 -0.00    -0.028 A  ATOM     12  C   UNL     1      40.260  45.568  19.795 -0.40 +0.00    +0.006 A  ATOM     13  C   UNL     1      41.941  47.018  18.835 -0.51 +0.00    +0.035 A  ATOM     14  C   UNL     1      39.424  45.795  18.698 -0.42 -0.00    +0.012 A  ATOM     15  C   UNL     1      41.111  47.185  17.714 -0.48 -0.00    +0.037 A  ATOM     16  C   UNL     1      42.415  45.851  21.040 -0.33 +0.01    +0.046 C  BRANCH  13  17ATOM     17  N   UNL     1      43.242  47.548  18.798 -0.28 -0.05    -0.398 N  ATOM     18  H   UNL     1      43.712  47.403  17.909 -0.48 -0.00    +0.156 HD ATOM     19  H   UNL     1      43.303  48.511  19.107 -0.54 -0.02    +0.156 HD ENDBRANCH  13  17ENDBRANCH   1  10BRANCH   6  20ATOM     20  N   UNL     1      33.826  46.391  13.894 -0.06 +0.37    -0.375 N  ATOM     21  H   UNL     1      33.593  46.583  12.924 -0.47 -0.16    +0.159 HD ATOM     22  H   UNL     1      33.109  46.680  14.548 -0.36 -0.24    +0.159 HD ENDBRANCH   6  20TORSDOF 3TERENDMDL