REMARK SMILES O=CCN(C(=O)c1cccc([C@@]2(CO)C=CC=COC2)n1)c1ccc(OCCN2CCCCC2)cc1
REMARK SMILES IDX 4 1 3 2 2 3 1 4 5 5 6 6 7 7 8 8 21 9 9 10 11 11 10 12 12 13
REMARK SMILES IDX 13 14 14 15 15 17 16 18 17 19 20 21 19 22 18 23 22 25 23 26
REMARK SMILES IDX 36 27 24 28 35 29 25 30 26 31 27 32 28 33 29 34 30 35 34 36
REMARK SMILES IDX 31 37 33 38 32 39
REMARK H PARENT 14 16
REMARK Flexibility Score:  129.900
ROOT
ATOM      1  N   UNL     1      -1.308  -0.368   0.195  1.00  0.00    -0.300 N 
ENDROOT
BRANCH   1   2
ATOM      2  C   UNL     1      -2.058   0.897   0.144  1.00  0.00     0.197 C 
BRANCH   2   3
ATOM      3  C   UNL     1      -2.750   1.165  -1.181  1.00  0.00     0.246 C 
ATOM      4  O   UNL     1      -2.634   0.498  -2.205  1.00  0.00    -0.301 OA
ENDBRANCH   2   3
ENDBRANCH   1   2
BRANCH   1   5
ATOM      5  C   UNL     1      -1.909  -1.561   0.660  1.00  0.00     0.277 C 
ATOM      6  O   UNL     1      -1.347  -2.657   0.739  1.00  0.00    -0.267 OA
BRANCH   5   7
ATOM      7  C   UNL     1      -3.324  -1.557   1.153  1.00  0.00     0.129 A 
ATOM      8  C   UNL     1      -3.596  -2.244   2.330  1.00  0.00     0.034 A 
ATOM      9  N   UNL     1      -4.281  -0.939   0.409  1.00  0.00    -0.246 NA
ATOM     10  C   UNL     1      -4.905  -2.286   2.782  1.00  0.00     0.004 A 
ATOM     11  C   UNL     1      -5.569  -0.990   0.853  1.00  0.00     0.057 A 
ATOM     12  C   UNL     1      -5.901  -1.660   2.037  1.00  0.00     0.025 A 
BRANCH  11  13
ATOM     13  C   UNL     1      -6.653  -0.370  -0.050  1.00  0.00     0.088 C 
BRANCH  13  14
ATOM     14  C   UNL     1      -6.823  -1.355  -1.249  1.00  0.00     0.177 C 
BRANCH  14  15
ATOM     15  O   UNL     1      -7.776  -0.881  -2.205  1.00  0.00    -0.395 OA
ATOM     16  H   UNL     1      -7.726  -1.481  -2.971  1.00  0.00     0.210 HD
ENDBRANCH  14  15
ENDBRANCH  13  14
BRANCH  13  17
ATOM     17  C   UNL     1      -8.013  -0.195   0.630  1.00  0.00    -0.008 C 
BRANCH  17  18
ATOM     18  C   UNL     1      -8.411   0.851   1.368  1.00  0.00     0.000 C 
BRANCH  18  19
ATOM     19  C   UNL     1      -7.601   1.964   1.792  1.00  0.00     0.038 CG0
ATOM     20  G   UNL     1      -6.416   2.380   1.326  1.00  0.00     0.000 G0
ENDBRANCH  18  19
ENDBRANCH  17  18
ENDBRANCH  13  17
BRANCH  13  21
ATOM     21  C   UNL     1      -6.222   1.000  -0.630  1.00  0.00     0.248 C 
BRANCH  21  22
ATOM     22  O   UNL     1      -5.642   1.915   0.309  1.00  0.00    -0.500 OA
BRANCH  22  23
ATOM     23  C   UNL     1      -6.416   2.380   1.326  1.00  0.00     0.187 CG0
ATOM     24  G   UNL     1      -7.601   1.964   1.792  1.00  0.00     0.000 G0
ENDBRANCH  22  23
ENDBRANCH  21  22
ENDBRANCH  13  21
ENDBRANCH  11  13
ENDBRANCH   5   7
ENDBRANCH   1   5
BRANCH   1  25
ATOM     25  C   UNL     1       0.088  -0.322  -0.194  1.00  0.00     0.045 A 
ATOM     26  C   UNL     1       1.029  -1.244   0.286  1.00  0.00     0.030 A 
ATOM     27  C   UNL     1       0.573   0.684  -1.047  1.00  0.00     0.030 A 
ATOM     28  C   UNL     1       2.389  -1.168  -0.060  1.00  0.00     0.048 A 
ATOM     29  C   UNL     1       1.929   0.761  -1.394  1.00  0.00     0.048 A 
ATOM     30  C   UNL     1       2.847  -0.159  -0.898  1.00  0.00     0.119 A 
BRANCH  30  31
ATOM     31  O   UNL     1       4.135   0.035  -1.306  1.00  0.00    -0.492 OA
BRANCH  31  32
ATOM     32  C   UNL     1       5.128  -0.838  -0.766  1.00  0.00     0.245 C 
BRANCH  32  33
ATOM     33  C   UNL     1       6.519  -0.431  -1.296  1.00  0.00     0.126 C 
BRANCH  33  34
ATOM     34  N   UNL     1       6.975   0.923  -0.920  1.00  0.00    -0.300 NA
ATOM     35  C   UNL     1       7.156   1.127   0.522  1.00  0.00     0.084 C 
ATOM     36  C   UNL     1       8.190   1.312  -1.652  1.00  0.00     0.084 C 
ATOM     37  C   UNL     1       8.378   0.407   1.099  1.00  0.00     0.016 C 
ATOM     38  C   UNL     1       9.460   0.610  -1.162  1.00  0.00     0.016 C 
ATOM     39  C   UNL     1       9.647   0.785   0.341  1.00  0.00     0.003 C 
ENDBRANCH  33  34
ENDBRANCH  32  33
ENDBRANCH  31  32
ENDBRANCH  30  31
ENDBRANCH   1  25
TORSDOF 12
