MODEL        1USER    Run = 1USERUSER    Estimated Free Energy of Binding    =  -9.22 kcal/mol  [=(1)+(2)+(3)-(4)]USERUSER    (1) Final Intermolecular Energy     = -11.01 kcal/molUSER        vdW + Hbond + desolv Energy     = -10.89 kcal/molUSER        Electrostatic Energy            =  -0.12 kcal/molUSER        Moving Ligand-Fixed Receptor    = -11.01 kcal/molUSER        Moving Ligand-Moving Receptor   =  +0.00 kcal/molUSER    (2) Final Total Internal Energy     =  -1.35 kcal/molUSER    (3) Torsional Free Energy           =  +1.79 kcal/molUSER    (4) Unbound System's Energy         =  -1.35 kcal/molUSERUSERREMARK SMILES Cn1cncc1C=Nc1ccc(C#N)c(-c2ccc(C(=O)N3CCC(F)CC3)c(F)c2)n1REMARK SMILES IDX 9 1 10 2 11 3 12 4 15 5 32 6 8 7 7 8 6 9 2 10 3 11 4 12 5 13REMARK SMILES IDX 1 14 16 15 17 16 31 17 18 18 29 19 19 20 30 21 20 22 22 23REMARK SMILES IDX 23 24 28 25 24 26 27 27 25 28 21 29 26 30 13 31 14 32REMARK H PARENTUSER                              x       y       z     vdW  Elec       q    TypeUSER                           _______ _______ _______ _____ _____    ______ ____ROOTATOM      1  C   UNL     1      39.245  48.036  15.911 -0.38 -0.06    +0.152 A  ATOM      2  C   UNL     1      39.064  48.458  14.604 -0.49 -0.02    +0.050 A  ATOM      3  C   UNL     1      37.952  48.000  13.905 -0.51 -0.01    +0.025 A  ATOM      4  C   UNL     1      37.041  47.149  14.540 -0.39 -0.05    +0.078 A  ATOM      5  C   UNL     1      37.280  46.789  15.870 -0.33 -0.05    +0.091 A  ATOM      6  N   UNL     1      38.379  47.224  16.549 -0.26 +0.10    -0.227 NA ENDROOTBRANCH   1   7ATOM      7  N   UNL     1      40.304  48.506  16.674 -0.34 +0.06    -0.235 NA BRANCH   7   8ATOM      8  C   UNL     1      41.179  47.702  17.195 -0.43 -0.02    +0.141 C  BRANCH   8   9ATOM      9  C   UNL     1      41.033  46.661  18.184 -0.46 -0.00    +0.079 A  ATOM     10  N   UNL     1      41.822  46.528  19.311 -0.26 -0.03    -0.333 N  ATOM     11  C   UNL     1      41.403  45.433  20.010 -0.26 +0.02    +0.199 A  ATOM     12  N   UNL     1      40.383  44.856  19.424 -0.25 -0.00    -0.245 NA ATOM     13  C   UNL     1      40.144  45.607  18.303 -0.36 -0.01    +0.140 A  ATOM     14  C   UNL     1      42.936  47.366  19.690 -0.44 +0.03    +0.151 C  ENDBRANCH   8   9ENDBRANCH   7   8ENDBRANCH   1   7BRANCH   5  15ATOM     15  C   UNL     1      36.409  45.906  16.666 -0.36 -0.00    +0.005 A  ATOM     16  C   UNL     1      36.633  44.516  16.679 -0.33 -0.00    +0.011 A  ATOM     17  C   UNL     1      35.357  46.411  17.447 -0.31 -0.04    +0.050 A  ATOM     18  C   UNL     1      35.826  43.657  17.434 -0.32 -0.01    +0.017 A  ATOM     19  C   UNL     1      34.554  45.554  18.201 -0.34 -0.07    +0.136 A  ATOM     20  C   UNL     1      34.794  44.185  18.212 -0.27 -0.02    +0.075 A  ATOM     21  F   UNL     1      33.549  46.085  18.912 -0.18 +0.12    -0.206 F  BRANCH  20  22ATOM     22  C   UNL     1      33.936  43.260  18.978 -0.26 -0.04    +0.256 C  ATOM     23  N   UNL     1      33.010  42.463  18.305 -0.13 +0.07    -0.338 N  ATOM     24  C   UNL     1      32.257  41.482  19.087 -0.34 -0.00    +0.123 C  ATOM     25  C   UNL     1      32.618  42.650  16.905 -0.29 -0.05    +0.123 C  ATOM     26  C   UNL     1      31.807  40.314  18.222 -0.44 -0.01    +0.059 C  ATOM     27  C   UNL     1      31.173  42.242  16.670 -0.32 -0.02    +0.059 C  ATOM     28  C   UNL     1      30.937  40.789  17.066 -0.26 -0.04    +0.170 C  ATOM     29  O   UNL     1      34.067  43.254  20.200 -0.77 -0.02    -0.269 OA ATOM     30  F   UNL     1      29.628  40.668  17.427 -0.03 +0.01    -0.247 F  ENDBRANCH  20  22ENDBRANCH   5  15BRANCH   4  31ATOM     31  C   UNL     1      35.912  46.666  13.806 -0.48 -0.07    +0.101 C  ATOM     32  N   UNL     1      35.000  46.249  13.221 -0.31 +0.13    -0.192 NA ENDBRANCH   4  31TORSDOF 6TERENDMDL