REMARK SMILES COc1ccc(O)c(C(=O)c2ccc(C(=O)N[C@@H]3CCCN(C(C)=O)C3)cc2)c1F
REMARK SMILES IDX 11 1 12 2 13 3 14 4 27 5 28 6 9 7 10 8 8 9 3 10 4 11 29 12
REMARK SMILES IDX 5 13 6 14 30 15 2 16 1 17 7 18 15 20 17 21 16 22 18 24 19 25
REMARK SMILES IDX 26 26 20 27 22 28 21 29 23 30 24 31 25 32
REMARK H PARENT 7 19 17 23
ROOT
ATOM      1  C   UNL     1       1.586  -0.918  -1.185  1.00  0.00     0.023 A 
ATOM      2  C   UNL     1       1.992  -0.929   0.154  1.00  0.00     0.013 A 
ATOM      3  C   UNL     1       1.051  -0.724   1.167  1.00  0.00     0.014 A 
ATOM      4  C   UNL     1      -0.301  -0.535   0.850  1.00  0.00     0.039 A 
ATOM      5  C   UNL     1      -0.707  -0.524  -0.490  1.00  0.00     0.014 A 
ATOM      6  C   UNL     1       0.235  -0.727  -1.504  1.00  0.00     0.013 A 
ENDROOT
BRANCH   1   7
ATOM      7  C   UNL     1       2.539  -1.173  -2.292  1.00  0.00     0.199 C 
ATOM      8  O   UNL     1       2.167  -1.859  -3.246  1.00  0.00    -0.288 OA
BRANCH   7   9
ATOM      9  C   UNL     1       3.939  -0.698  -2.285  1.00  0.00     0.104 A 
ATOM     10  C   UNL     1       5.641   0.941  -1.682  1.00  0.00     0.155 A 
ATOM     11  C   UNL     1       6.617   0.147  -2.290  1.00  0.00     0.053 A 
ATOM     12  C   UNL     1       4.306   0.510  -1.692  1.00  0.00     0.179 A 
ATOM     13  C   UNL     1       6.256  -1.049  -2.917  1.00  0.00     0.051 A 
ATOM     14  C   UNL     1       4.925  -1.458  -2.926  1.00  0.00     0.130 A 
ATOM     15  F   UNL     1       3.372   1.300  -1.139  1.00  0.00    -0.202 F 
BRANCH  10  16
ATOM     16  O   UNL     1       5.870   2.136  -1.056  1.00  0.00    -0.494 OA
ATOM     17  C   UNL     1       7.199   2.642  -1.080  1.00  0.00     0.278 C 
ENDBRANCH  10  16
BRANCH  14  18
ATOM     18  O   UNL     1       4.652  -2.624  -3.590  1.00  0.00    -0.507 OA
ATOM     19  H   UNL     1       3.676  -2.678  -3.715  1.00  0.00     0.293 HD
ENDBRANCH  14  18
ENDBRANCH   7   9
ENDBRANCH   1   7
BRANCH   4  20
ATOM     20  C   UNL     1      -1.261  -0.328   1.966  1.00  0.00     0.251 C 
ATOM     21  N   UNL     1      -2.528  -0.844   1.789  1.00  0.00    -0.348 N 
ATOM     22  O   UNL     1      -0.910   0.262   2.981  1.00  0.00    -0.269 OA
ATOM     23  H   UNL     1      -2.778  -1.246   0.896  1.00  0.00     0.164 HD
BRANCH  21  24
ATOM     24  C   UNL     1      -3.611  -0.523   2.722  1.00  0.00     0.101 C 
ATOM     25  C   UNL     1      -4.745  -1.555   2.605  1.00  0.00     0.028 C 
ATOM     26  C   UNL     1      -4.132   0.904   2.461  1.00  0.00     0.144 C 
ATOM     27  C   UNL     1      -5.940  -1.057   1.784  1.00  0.00     0.024 C 
ATOM     28  N   UNL     1      -4.728   1.006   1.118  1.00  0.00    -0.341 N 
ATOM     29  C   UNL     1      -5.521  -0.129   0.652  1.00  0.00     0.119 C 
BRANCH  28  30
ATOM     30  C   UNL     1      -4.452   2.016   0.209  1.00  0.00     0.219 C 
ATOM     31  C   UNL     1      -3.667   3.204   0.703  1.00  0.00     0.114 C 
ATOM     32  O   UNL     1      -4.822   1.958  -0.965  1.00  0.00    -0.275 OA
ENDBRANCH  28  30
ENDBRANCH  21  24
ENDBRANCH   4  20
TORSDOF 7
