MODEL        1USER    Run = 1USERUSER    Estimated Free Energy of Binding    = -10.57 kcal/mol  [=(1)+(2)+(3)-(4)]USERUSER    (1) Final Intermolecular Energy     = -12.66 kcal/molUSER        vdW + Hbond + desolv Energy     = -12.54 kcal/molUSER        Electrostatic Energy            =  -0.12 kcal/molUSER        Moving Ligand-Fixed Receptor    = -12.66 kcal/molUSER        Moving Ligand-Moving Receptor   =  +0.00 kcal/molUSER    (2) Final Total Internal Energy     =  -1.68 kcal/molUSER    (3) Torsional Free Energy           =  +2.09 kcal/molUSER    (4) Unbound System's Energy         =  -1.68 kcal/molUSERUSERREMARK SMILES Cn1cncc1C=Nc1ccc(C#N)c(-c2ccc(C(=O)N3CCN(S(C)(=O)=O)CC3)c(F)c2)n1REMARK SMILES IDX 9 1 10 2 11 3 12 4 15 5 35 6 8 7 7 8 6 9 2 10 3 11 4 12 5 13REMARK SMILES IDX 1 14 16 15 17 16 34 17 18 18 32 19 19 20 33 21 20 22 22 23REMARK SMILES IDX 23 24 31 25 24 26 30 27 25 28 21 29 26 30 27 31 28 32 29 33REMARK SMILES IDX 13 34 14 35REMARK H PARENTUSER                              x       y       z     vdW  Elec       q    TypeUSER                           _______ _______ _______ _____ _____    ______ ____ROOTATOM      1  C   UNL     1      39.570  46.900  16.850 -0.36 -0.04    +0.152 A  ATOM      2  C   UNL     1      40.377  46.729  17.963 -0.45 -0.01    +0.050 A  ATOM      3  C   UNL     1      39.920  45.938  19.012 -0.41 -0.00    +0.025 A  ATOM      4  C   UNL     1      38.659  45.341  18.927 -0.34 -0.01    +0.078 A  ATOM      5  C   UNL     1      37.895  45.570  17.780 -0.31 -0.02    +0.091 A  ATOM      6  N   UNL     1      38.350  46.335  16.748 -0.25 +0.08    -0.227 NA ENDROOTBRANCH   1   7ATOM      7  N   UNL     1      40.036  47.699  15.801 -0.32 +0.06    -0.235 NA BRANCH   7   8ATOM      8  C   UNL     1      39.763  47.352  14.588 -0.42 -0.03    +0.141 C  BRANCH   8   9ATOM      9  C   UNL     1      38.451  47.556  14.034 -0.43 -0.03    +0.079 A  ATOM     10  N   UNL     1      37.553  46.615  13.577 -0.21 +0.12    -0.333 N  ATOM     11  C   UNL     1      36.437  47.275  13.145 -0.44 -0.10    +0.199 A  ATOM     12  N   UNL     1      36.555  48.573  13.291 -0.56 +0.12    -0.245 NA ATOM     13  C   UNL     1      37.797  48.757  13.838 -0.22 -0.07    +0.140 A  ATOM     14  C   UNL     1      37.728  45.184  13.543 -0.30 -0.05    +0.151 C  ENDBRANCH   8   9ENDBRANCH   7   8ENDBRANCH   1   7BRANCH   5  15ATOM     15  C   UNL     1      36.548  45.014  17.545 -0.33 -0.00    +0.005 A  ATOM     16  C   UNL     1      36.282  44.115  16.494 -0.35 -0.00    +0.011 A  ATOM     17  C   UNL     1      35.486  45.357  18.401 -0.30 -0.02    +0.050 A  ATOM     18  C   UNL     1      34.999  43.592  16.299 -0.37 -0.01    +0.017 A  ATOM     19  C   UNL     1      34.210  44.833  18.207 -0.28 -0.05    +0.136 A  ATOM     20  C   UNL     1      33.964  43.939  17.171 -0.25 -0.03    +0.075 A  ATOM     21  F   UNL     1      33.229  45.214  19.039 -0.13 +0.07    -0.206 F  BRANCH  20  22ATOM     22  C   UNL     1      32.615  43.399  16.925 -0.20 -0.10    +0.256 C  ATOM     23  N   UNL     1      32.275  42.145  17.422 -0.12 +0.11    -0.336 N  ATOM     24  C   UNL     1      33.223  41.178  17.988 -0.36 -0.04    +0.136 C  ATOM     25  C   UNL     1      30.901  41.673  17.228 -0.28 -0.04    +0.136 C  ATOM     26  C   UNL     1      32.773  39.721  17.805 -0.29 -0.03    +0.123 C  ATOM     27  C   UNL     1      30.484  40.660  18.300 -0.23 -0.01    +0.123 C  ATOM     28  N   UNL     1      31.403  39.490  18.333 -0.30 -0.01    -0.199 NA ATOM     29  O   UNL     1      31.847  44.087  16.257 -0.23 +0.11    -0.269 OA BRANCH  28  30ATOM     30  S   UNL     1      31.185  38.357  19.558 -0.51 +0.04    +0.211 S  ATOM     31  C   UNL     1      29.481  38.606  20.019 -0.25 +0.02    +0.176 C  ATOM     32  O   UNL     1      32.007  38.755  20.680 -1.18 -0.07    -0.213 OA ATOM     33  O   UNL     1      31.297  37.039  18.970 -0.98 -0.09    -0.213 OA ENDBRANCH  28  30ENDBRANCH  20  22ENDBRANCH   5  15BRANCH   4  34ATOM     34  C   UNL     1      38.212  44.501  19.995 -0.35 -0.00    +0.101 C  ATOM     35  N   UNL     1      37.840  43.807  20.846 -0.24 -0.00    -0.192 NA ENDBRANCH   4  34TORSDOF 7TERENDMDL