MODEL        8USER    Run = 8USERUSER    Estimated Free Energy of Binding    =  -9.85 kcal/mol  [=(1)+(2)+(3)-(4)]USERUSER    (1) Final Intermolecular Energy     = -11.64 kcal/molUSER        vdW + Hbond + desolv Energy     = -11.54 kcal/molUSER        Electrostatic Energy            =  -0.10 kcal/molUSER        Moving Ligand-Fixed Receptor    = -11.64 kcal/molUSER        Moving Ligand-Moving Receptor   =  +0.00 kcal/molUSER    (2) Final Total Internal Energy     =  -1.58 kcal/molUSER    (3) Torsional Free Energy           =  +1.79 kcal/molUSER    (4) Unbound System's Energy         =  -1.58 kcal/molUSERUSERREMARK SMILES COc1ccc(O)c(C(=O)c2ccc(C(=O)N[C@@H]3CCC4(CCCC4)NC3)cc2)c1FREMARK SMILES IDX 11 1 12 2 13 3 14 4 28 5 29 6 9 7 10 8 8 9 3 10 4 11 30 12REMARK SMILES IDX 5 13 6 14 31 15 2 16 1 17 7 18 15 20 17 21 16 22 18 24 19 25REMARK SMILES IDX 27 26 20 27 26 28 21 29 22 30 25 31 23 32 24 33REMARK H PARENT 7 19 17 23 26 34USER                              x       y       z     vdW  Elec       q    TypeUSER                           _______ _______ _______ _____ _____    ______ ____ROOTATOM      1  C   UNL     1      39.689  47.393  15.900 -0.49 -0.01    +0.023 A  ATOM      2  C   UNL     1      40.734  48.015  16.593 -0.54 -0.00    +0.013 A  ATOM      3  C   UNL     1      41.153  47.504  17.825 -0.51 -0.00    +0.014 A  ATOM      4  C   UNL     1      40.518  46.385  18.383 -0.46 -0.00    +0.039 A  ATOM      5  C   UNL     1      39.470  45.766  17.689 -0.42 -0.00    +0.014 A  ATOM      6  C   UNL     1      39.051  46.277  16.457 -0.42 -0.00    +0.013 A  ENDROOTBRANCH   1   7ATOM      7  C   UNL     1      39.185  47.921  14.611 -0.42 -0.07    +0.199 C  ATOM      8  O   UNL     1      39.766  48.877  14.095 -0.35 +0.10    -0.288 OA BRANCH   7   9ATOM      9  C   UNL     1      38.049  47.322  13.878 -0.42 -0.04    +0.104 A  ATOM     10  C   UNL     1      36.936  45.412  12.846 -0.40 -0.05    +0.155 A  ATOM     11  C   UNL     1      35.876  46.239  12.468 -0.56 -0.03    +0.053 A  ATOM     12  C   UNL     1      38.013  45.965  13.556 -0.20 -0.05    +0.179 A  ATOM     13  C   UNL     1      35.886  47.593  12.814 -0.53 -0.03    +0.051 A  ATOM     14  C   UNL     1      36.957  48.125  13.526 -0.48 -0.06    +0.130 A  ATOM     15  F   UNL     1      39.009  45.153  13.949 -0.04 +0.04    -0.202 F  BRANCH  10  16ATOM     16  O   UNL     1      37.030  44.072  12.583 -0.13 +0.15    -0.494 OA ATOM     17  C   UNL     1      37.252  43.686  11.232 -0.33 -0.08    +0.278 C  ENDBRANCH  10  16BRANCH  14  18ATOM     18  O   UNL     1      36.873  49.451  13.852 -0.13 +0.33    -0.507 OA ATOM     19  H   UNL     1      37.769  49.752  14.129 -0.33 -0.26    +0.293 HD ENDBRANCH  14  18ENDBRANCH   7   9ENDBRANCH   1   7BRANCH   4  20ATOM     20  C   UNL     1      40.997  45.885  19.701 -0.31 +0.01    +0.251 C  ATOM     21  N   UNL     1      40.029  45.417  20.566 -0.16 -0.01    -0.348 N  ATOM     22  O   UNL     1      42.188  45.937  19.984 -0.27 -0.06    -0.269 OA ATOM     23  H   UNL     1      39.069  45.672  20.382 +0.08 +0.00    +0.164 HD BRANCH  21  24ATOM     24  C   UNL     1      40.363  45.056  21.946 -0.26 +0.01    +0.096 C  ATOM     25  C   UNL     1      40.470  43.530  22.086 -0.31 +0.00    +0.028 C  ATOM     26  C   UNL     1      39.324  45.625  22.932 -0.28 +0.01    +0.106 C  ATOM     27  C   UNL     1      39.356  42.935  22.952 -0.31 +0.00    +0.024 C  ATOM     28  N   UNL     1      37.990  45.035  22.747 -0.18 -0.03    -0.309 NA ATOM     29  C   UNL     1      37.970  43.568  22.676 -0.39 +0.00    +0.018 C  ATOM     30  C   UNL     1      37.365  43.068  21.349 -0.43 +0.00    +0.022 C  ATOM     31  C   UNL     1      36.922  43.039  23.672 -0.43 +0.00    +0.022 C  ATOM     32  C   UNL     1      36.818  41.674  21.657 -0.62 +0.00    +0.002 C  ATOM     33  C   UNL     1      36.557  41.648  23.162 -0.55 +0.00    +0.002 C  ATOM     34  H   UNL     1      37.565  45.445  21.916 +0.05 +0.01    +0.123 HD ENDBRANCH  21  24ENDBRANCH   4  20TORSDOF 6TERENDMDL