MODEL        9USER    Run = 9USERUSER    Estimated Free Energy of Binding    =  -9.37 kcal/mol  [=(1)+(2)+(3)-(4)]USERUSER    (1) Final Intermolecular Energy     = -11.46 kcal/molUSER        vdW + Hbond + desolv Energy     = -11.24 kcal/molUSER        Electrostatic Energy            =  -0.21 kcal/molUSER        Moving Ligand-Fixed Receptor    = -11.46 kcal/molUSER        Moving Ligand-Moving Receptor   =  +0.00 kcal/molUSER    (2) Final Total Internal Energy     =  -0.98 kcal/molUSER    (3) Torsional Free Energy           =  +2.09 kcal/molUSER    (4) Unbound System's Energy         =  -0.98 kcal/molUSERUSERREMARK SMILES COC(=O)N1CCN(C(=O)c2ccc(-c3nc(N=Cc4cncn4C)ccc3C#N)cc2F)CC1REMARK SMILES IDX 15 1 16 2 17 3 26 4 27 5 28 6 14 7 11 8 12 9 32 10 13 11REMARK SMILES IDX 31 12 33 13 9 14 3 15 5 16 6 17 35 18 7 19 34 20 8 21 4 22REMARK SMILES IDX 10 23 2 24 1 25 29 26 30 27 18 28 19 29 20 30 21 31 24 32REMARK SMILES IDX 22 33 23 34 25 35REMARK H PARENTUSER                              x       y       z     vdW  Elec       q    TypeUSER                           _______ _______ _______ _____ _____    ______ ____ROOTATOM      1  C   UNL     1      39.275  46.979  15.776 -0.40 -0.03    +0.091 A  ATOM      2  N   UNL     1      38.363  46.122  15.240 -0.23 +0.07    -0.227 NA ATOM      3  C   UNL     1      37.775  46.457  14.072 -0.33 -0.06    +0.152 A  ATOM      4  C   UNL     1      38.077  47.626  13.394 -0.43 -0.01    +0.050 A  ATOM      5  C   UNL     1      39.029  48.492  13.930 -0.33 -0.01    +0.025 A  ATOM      6  C   UNL     1      39.643  48.171  15.143 -0.49 -0.03    +0.078 A  ENDROOTBRANCH   1   7ATOM      7  C   UNL     1      39.821  46.518  17.064 -0.47 -0.00    +0.005 A  ATOM      8  C   UNL     1      40.801  45.669  19.572 -0.38 +0.00    +0.075 A  ATOM      9  C   UNL     1      39.616  45.127  19.063 -0.41 -0.00    +0.017 A  ATOM     10  C   UNL     1      41.473  46.648  18.848 -0.41 +0.00    +0.136 A  ATOM     11  C   UNL     1      39.136  45.545  17.819 -0.41 -0.00    +0.011 A  ATOM     12  C   UNL     1      40.997  47.066  17.605 -0.48 -0.01    +0.050 A  ATOM     13  F   UNL     1      42.579  47.230  19.332 -0.19 -0.03    -0.206 F  BRANCH   8  14ATOM     14  C   UNL     1      41.238  45.268  20.920 -0.23 +0.03    +0.256 C  ATOM     15  C   UNL     1      37.962  45.213  25.548 -0.11 +0.01    +0.409 C  ATOM     16  N   UNL     1      38.645  45.169  24.351 -0.10 -0.02    -0.305 N  ATOM     17  C   UNL     1      38.426  46.128  23.270 -0.25 +0.02    +0.144 C  ATOM     18  C   UNL     1      39.657  44.136  24.140 -0.15 +0.00    +0.144 C  ATOM     19  C   UNL     1      38.922  45.621  21.907 -0.28 +0.01    +0.141 C  ATOM     20  C   UNL     1      40.790  44.620  23.231 -0.15 +0.01    +0.141 C  ATOM     21  N   UNL     1      40.313  45.140  21.948 -0.09 -0.02    -0.335 N  ATOM     22  O   UNL     1      38.087  44.382  26.440 -0.15 +0.01    -0.224 OA ATOM     23  O   UNL     1      42.444  45.073  21.080 -0.19 -0.07    -0.269 OA BRANCH  15  24ATOM     24  O   UNL     1      37.136  46.297  25.625 -0.64 -0.02    -0.453 OA ATOM     25  C   UNL     1      36.960  46.789  26.953 -0.22 -0.05    +0.284 C  ENDBRANCH  15  24ENDBRANCH   8  14ENDBRANCH   1   7BRANCH   6  26ATOM     26  C   UNL     1      40.636  49.048  15.687 -0.62 -0.02    +0.101 C  ATOM     27  N   UNL     1      41.442  49.756  16.130 -1.05 +0.01    -0.192 NA ENDBRANCH   6  26BRANCH   3  28ATOM     28  N   UNL     1      36.797  45.605  13.557 -0.28 +0.10    -0.235 NA BRANCH  28  29ATOM     29  C   UNL     1      35.676  45.511  14.192 -0.31 -0.08    +0.141 C  BRANCH  29  30ATOM     30  C   UNL     1      35.662  45.353  15.620 -0.29 -0.05    +0.079 A  ATOM     31  C   UNL     1      35.420  46.292  16.600 -0.24 -0.13    +0.140 A  ATOM     32  N   UNL     1      35.913  44.199  16.326 -0.13 +0.13    -0.333 N  ATOM     33  N   UNL     1      35.518  45.743  17.853 -0.22 +0.13    -0.245 NA ATOM     34  C   UNL     1      35.807  44.477  17.655 -0.18 -0.07    +0.199 A  ATOM     35  C   UNL     1      36.163  42.890  15.778 -0.40 -0.05    +0.151 C  ENDBRANCH  29  30ENDBRANCH  28  29ENDBRANCH   3  28TORSDOF 7TERENDMDL