REMARK SMILES CC(C)N1CCN(C(=O)c2ccc(-c3nc(N=Cc4cncn4C)ccc3C#N)cc2F)CC1
REMARK SMILES IDX 14 1 15 2 16 3 25 4 26 5 27 6 13 7 10 8 11 9 31 10 12 11
REMARK SMILES IDX 30 12 32 13 8 14 4 15 5 16 34 17 6 18 33 19 7 20 9 21 2 22
REMARK SMILES IDX 1 23 3 24 28 25 29 26 17 27 18 28 19 29 20 30 23 31 21 32
REMARK SMILES IDX 22 33 24 34
REMARK H PARENT
ROOT
ATOM      1  C   UNL     1       2.463   1.873   2.017  1.00  0.00     0.091 A 
ATOM      2  N   UNL     1       3.306   1.727   0.954  1.00  0.00    -0.227 NA
ATOM      3  C   UNL     1       4.381   2.541   0.867  1.00  0.00     0.152 A 
ATOM      4  C   UNL     1       4.661   3.513   1.813  1.00  0.00     0.050 A 
ATOM      5  C   UNL     1       3.815   3.647   2.909  1.00  0.00     0.025 A 
ATOM      6  C   UNL     1       2.696   2.816   3.023  1.00  0.00     0.078 A 
ENDROOT
BRANCH   1   7
ATOM      7  C   UNL     1       1.321   0.934   1.987  1.00  0.00     0.005 A 
ATOM      8  C   UNL     1      -0.819  -0.900   1.876  1.00  0.00     0.075 A 
ATOM      9  C   UNL     1      -1.075   0.453   2.113  1.00  0.00     0.017 A 
ATOM     10  C   UNL     1       0.487  -1.340   1.702  1.00  0.00     0.136 A 
ATOM     11  C   UNL     1      -0.011   1.363   2.152  1.00  0.00     0.011 A 
ATOM     12  C   UNL     1       1.546  -0.436   1.753  1.00  0.00     0.050 A 
ATOM     13  F   UNL     1       0.757  -2.629   1.451  1.00  0.00    -0.206 F 
BRANCH   8  14
ATOM     14  C   UNL     1      -1.922  -1.875   1.855  1.00  0.00     0.256 C 
ATOM     15  N   UNL     1      -4.952  -1.813  -1.285  1.00  0.00    -0.297 NA
ATOM     16  C   UNL     1      -5.235  -2.101   0.132  1.00  0.00     0.106 C 
ATOM     17  C   UNL     1      -3.543  -1.467  -1.537  1.00  0.00     0.106 C 
ATOM     18  C   UNL     1      -4.027  -2.675   0.890  1.00  0.00     0.135 C 
ATOM     19  C   UNL     1      -2.774  -0.906  -0.326  1.00  0.00     0.135 C 
ATOM     20  N   UNL     1      -2.884  -1.763   0.859  1.00  0.00    -0.336 N 
ATOM     21  O   UNL     1      -1.956  -2.718   2.746  1.00  0.00    -0.269 OA
BRANCH  15  22
ATOM     22  C   UNL     1      -5.923  -0.944  -1.968  1.00  0.00     0.050 C 
ATOM     23  C   UNL     1      -5.925   0.516  -1.493  1.00  0.00     0.024 C 
ATOM     24  C   UNL     1      -7.344  -1.519  -1.897  1.00  0.00     0.024 C 
ENDBRANCH  15  22
ENDBRANCH   8  14
ENDBRANCH   1   7
BRANCH   6  25
ATOM     25  C   UNL     1       1.852   2.946   4.172  1.00  0.00     0.101 C 
ATOM     26  N   UNL     1       1.165   3.074   5.098  1.00  0.00    -0.192 NA
ENDBRANCH   6  25
BRANCH   3  27
ATOM     27  N   UNL     1       5.217   2.415  -0.243  1.00  0.00    -0.235 NA
BRANCH  27  28
ATOM     28  C   UNL     1       5.305   1.256  -0.807  1.00  0.00     0.141 C 
BRANCH  28  29
ATOM     29  C   UNL     1       6.159   1.070  -1.948  1.00  0.00     0.079 A 
ATOM     30  C   UNL     1       6.887   2.005  -2.658  1.00  0.00     0.140 A 
ATOM     31  N   UNL     1       6.444  -0.119  -2.583  1.00  0.00    -0.333 N 
ATOM     32  N   UNL     1       7.598   1.422  -3.675  1.00  0.00    -0.245 NA
ATOM     33  C   UNL     1       7.313   0.144  -3.603  1.00  0.00     0.199 A 
ATOM     34  C   UNL     1       5.945  -1.425  -2.232  1.00  0.00     0.151 C 
ENDBRANCH  28  29
ENDBRANCH  27  28
ENDBRANCH   3  27
TORSDOF 7
