MODEL        10USER    Run = 10USERUSER    Estimated Free Energy of Binding    =  -8.68 kcal/mol  [=(1)+(2)+(3)-(4)]USERUSER    (1) Final Intermolecular Energy     = -10.47 kcal/molUSER        vdW + Hbond + desolv Energy     = -10.32 kcal/molUSER        Electrostatic Energy            =  -0.14 kcal/molUSER        Moving Ligand-Fixed Receptor    = -10.47 kcal/molUSER        Moving Ligand-Moving Receptor   =  +0.00 kcal/molUSER    (2) Final Total Internal Energy     =  -0.63 kcal/molUSER    (3) Torsional Free Energy           =  +1.79 kcal/molUSER    (4) Unbound System's Energy         =  -0.63 kcal/molUSERUSERREMARK SMILES CCCCc1c(C(=O)Nc2nc3ccccc3s2)ccnc1NREMARK SMILES IDX 4 1 3 2 2 3 1 4 5 5 6 6 22 7 19 8 21 9 20 10 7 11 9 12 8 13REMARK SMILES IDX 10 15 11 16 18 17 12 18 17 19 13 20 16 21 14 22 15 23 23 24REMARK H PARENT 9 14 23 25 23 26USER                              x       y       z     vdW  Elec       q    TypeUSER                           _______ _______ _______ _____ _____    ______ ____ROOTATOM      1  C   UNL     1      38.396  48.766  15.027 -0.51 -0.03    +0.040 C  ENDROOTBRANCH   1   2ATOM      2  C   UNL     1      38.341  47.909  13.756 -0.55 -0.00    +0.005 C  BRANCH   2   3ATOM      3  C   UNL     1      36.913  47.552  13.335 -0.67 +0.00    -0.003 C  ATOM      4  C   UNL     1      36.834  46.900  11.963 -0.77 -0.00    +0.004 C  ENDBRANCH   2   3ENDBRANCH   1   2BRANCH   1   5ATOM      5  C   UNL     1      39.535  48.378  15.943 -0.51 -0.00    +0.007 A  ATOM      6  C   UNL     1      39.596  47.127  16.579 -0.45 -0.01    +0.048 A  ATOM      7  C   UNL     1      40.587  49.255  16.212 -0.35 -0.03    +0.127 A  ATOM      8  C   UNL     1      40.634  46.807  17.450 -0.49 -0.00    +0.034 A  ATOM      9  N   UNL     1      41.618  48.952  17.023 -0.81 -0.02    -0.239 NA ATOM     10  C   UNL     1      41.618  47.749  17.633 -0.35 -0.01    +0.114 A  BRANCH   6  11ATOM     11  C   UNL     1      38.562  46.088  16.375 -0.27 -0.08    +0.257 C  ATOM     12  N   UNL     1      37.698  45.973  17.433 -0.19 +0.10    -0.298 N  ATOM     13  O   UNL     1      38.566  45.485  15.313 -0.23 +0.07    -0.269 OA ATOM     14  H   UNL     1      37.777  46.604  18.218 +0.09 -0.05    +0.172 HD BRANCH  12  15ATOM     15  C   UNL     1      36.681  45.065  17.575 -0.21 -0.06    +0.190 A  ATOM     16  N   UNL     1      35.864  45.136  18.598 -0.22 +0.06    -0.220 NA ATOM     17  S   UNL     1      36.420  43.789  16.485 -0.47 +0.03    -0.097 S  ATOM     18  C   UNL     1      34.943  44.103  18.527 -0.28 -0.02    +0.084 A  ATOM     19  C   UNL     1      35.087  43.251  17.430 -0.32 -0.02    +0.056 A  ATOM     20  C   UNL     1      33.907  43.853  19.448 -0.40 -0.00    +0.030 A  ATOM     21  C   UNL     1      34.230  42.157  17.221 -0.41 -0.01    +0.021 A  ATOM     22  C   UNL     1      33.048  42.766  19.250 -0.39 -0.00    +0.002 A  ATOM     23  C   UNL     1      33.210  41.931  18.150 -0.40 -0.00    +0.002 A  ENDBRANCH  12  15ENDBRANCH   6  11BRANCH   7  24ATOM     24  N   UNL     1      40.659  50.521  15.637 -0.26 +0.17    -0.383 N  ATOM     25  H   UNL     1      39.744  50.864  15.371 -0.42 -0.15    +0.158 HD ATOM     26  H   UNL     1      41.088  51.128  16.334 -0.48 -0.08    +0.158 HD ENDBRANCH   7  24ENDBRANCH   1   5TORSDOF 6TERENDMDL