MODEL        8USER    Run = 8USERUSER    Estimated Free Energy of Binding    =  -8.83 kcal/mol  [=(1)+(2)+(3)-(4)]USERUSER    (1) Final Intermolecular Energy     = -10.92 kcal/molUSER        vdW + Hbond + desolv Energy     = -10.56 kcal/molUSER        Electrostatic Energy            =  -0.35 kcal/molUSER        Moving Ligand-Fixed Receptor    = -10.92 kcal/molUSER        Moving Ligand-Moving Receptor   =  +0.00 kcal/molUSER    (2) Final Total Internal Energy     =  -1.79 kcal/molUSER    (3) Torsional Free Energy           =  +2.09 kcal/molUSER    (4) Unbound System's Energy         =  -1.79 kcal/molUSERUSERREMARK SMILES COc1ccc(O)c(C(=O)c2ccc(C(=O)N[C@@H]3CCCN(C(C)=O)C3)cc2)c1FREMARK SMILES IDX 11 1 12 2 13 3 14 4 27 5 28 6 9 7 10 8 8 9 3 10 4 11 29 12REMARK SMILES IDX 5 13 6 14 30 15 2 16 1 17 7 18 15 20 17 21 16 22 18 24 19 25REMARK SMILES IDX 26 26 20 27 22 28 21 29 23 30 24 31 25 32REMARK H PARENT 7 19 17 23USER                              x       y       z     vdW  Elec       q    TypeUSER                           _______ _______ _______ _____ _____    ______ ____ROOTATOM      1  C   UNL     1      33.125  43.355  17.336 -0.30 -0.01    +0.023 A  ATOM      2  C   UNL     1      34.014  42.674  16.497 -0.37 -0.01    +0.013 A  ATOM      3  C   UNL     1      35.330  43.126  16.365 -0.42 -0.01    +0.014 A  ATOM      4  C   UNL     1      35.771  44.242  17.090 -0.29 -0.01    +0.039 A  ATOM      5  C   UNL     1      34.881  44.923  17.930 -0.34 -0.01    +0.014 A  ATOM      6  C   UNL     1      33.564  44.472  18.059 -0.34 -0.00    +0.013 A  ENDROOTBRANCH   1   7ATOM      7  C   UNL     1      31.732  42.890  17.541 -0.22 -0.05    +0.199 C  ATOM      8  O   UNL     1      30.813  43.701  17.415 -0.18 +0.05    -0.288 OA BRANCH   7   9ATOM      9  C   UNL     1      31.388  41.511  17.950 -0.25 -0.02    +0.104 A  ATOM     10  C   UNL     1      31.617  39.604  19.452 -0.29 +0.02    +0.155 A  ATOM     11  C   UNL     1      30.685  38.895  18.689 -0.38 +0.01    +0.053 A  ATOM     12  C   UNL     1      31.963  40.908  19.069 -0.25 +0.00    +0.179 A  ATOM     13  C   UNL     1      30.128  39.477  17.547 -0.31 +0.01    +0.051 A  ATOM     14  C   UNL     1      30.490  40.769  17.175 -0.27 -0.02    +0.130 A  ATOM     15  F   UNL     1      32.888  41.565  19.787 -0.04 -0.04    -0.202 F  BRANCH  10  16ATOM     16  O   UNL     1      32.241  39.134  20.576 -0.99 -0.24    -0.494 OA ATOM     17  C   UNL     1      31.484  38.300  21.444 -0.33 +0.04    +0.278 C  ENDBRANCH  10  16BRANCH  14  18ATOM     18  O   UNL     1      29.923  41.251  16.025 -0.14 +0.17    -0.507 OA ATOM     19  H   UNL     1      30.009  42.233  16.036 +0.17 -0.13    +0.293 HD ENDBRANCH  14  18ENDBRANCH   7   9ENDBRANCH   1   7BRANCH   4  20ATOM     20  C   UNL     1      37.182  44.676  16.919 -0.23 -0.08    +0.251 C  ATOM     21  N   UNL     1      37.380  45.876  16.268 -0.12 +0.15    -0.348 N  ATOM     22  O   UNL     1      38.098  43.989  17.356 -0.19 +0.05    -0.269 OA ATOM     23  H   UNL     1      36.588  46.353  15.858 +0.12 -0.11    +0.164 HD BRANCH  21  24ATOM     24  C   UNL     1      38.721  46.301  15.858 -0.40 -0.03    +0.101 C  ATOM     25  C   UNL     1      39.038  47.696  16.422 -0.49 -0.01    +0.028 C  ATOM     26  C   UNL     1      38.837  46.286  14.321 -0.36 -0.04    +0.144 C  ATOM     27  C   UNL     1      38.881  48.820  15.392 -0.54 -0.01    +0.024 C  ATOM     28  N   UNL     1      37.915  47.262  13.717 -0.23 +0.11    -0.341 N  ATOM     29  C   UNL     1      37.761  48.545  14.398 -0.50 -0.07    +0.119 C  BRANCH  28  30ATOM     30  C   UNL     1      37.064  46.989  12.657 -0.52 -0.08    +0.219 C  ATOM     31  C   UNL     1      35.806  46.213  12.953 -0.53 -0.06    +0.114 C  ATOM     32  O   UNL     1      37.308  47.365  11.509 -1.03 +0.06    -0.275 OA ENDBRANCH  28  30ENDBRANCH  21  24ENDBRANCH   4  20TORSDOF 7TERENDMDL