MODEL        3USER    Run = 3USERUSER    Estimated Free Energy of Binding    =  -8.34 kcal/mol  [=(1)+(2)+(3)-(4)]USERUSER    (1) Final Intermolecular Energy     =  -9.53 kcal/molUSER        vdW + Hbond + desolv Energy     =  -9.46 kcal/molUSER        Electrostatic Energy            =  -0.07 kcal/molUSER        Moving Ligand-Fixed Receptor    =  -9.53 kcal/molUSER        Moving Ligand-Moving Receptor   =  +0.00 kcal/molUSER    (2) Final Total Internal Energy     =  -0.27 kcal/molUSER    (3) Torsional Free Energy           =  +1.19 kcal/molUSER    (4) Unbound System's Energy         =  -0.27 kcal/molUSERUSERREMARK SMILES Cc1c(C(=O)Nc2nc3cc(C#N)ccc3s2)ccnc1NREMARK SMILES IDX 4 1 5 2 6 3 3 5 2 6 21 7 18 8 20 9 19 10 1 11 22 12 7 15REMARK SMILES IDX 8 16 17 17 9 18 16 19 10 20 15 21 11 22 14 23 12 24 13 25REMARK H PARENT 6 4 22 13 22 14USER                              x       y       z     vdW  Elec       q    TypeUSER                           _______ _______ _______ _____ _____    ______ ____ROOTATOM      1  C   UNL     1      35.101  29.386  22.381 -0.32 -0.04    +0.257 C  ATOM      2  O   UNL     1      35.292  29.572  23.574 -0.21 -0.00    -0.269 OA ATOM      3  N   UNL     1      33.922  29.465  21.681 -0.23 +0.06    -0.298 N  ATOM      4  H   UNL     1      33.924  29.353  20.676 -0.44 -0.09    +0.172 HD ENDROOTBRANCH   1   5ATOM      5  C   UNL     1      36.268  29.036  21.533 -0.32 -0.01    +0.048 A  ATOM      6  C   UNL     1      37.339  29.931  21.373 -0.37 -0.00    +0.004 A  ATOM      7  C   UNL     1      38.410  29.485  20.601 -0.25 +0.02    +0.127 A  ATOM      8  C   UNL     1      36.283  27.782  20.923 -0.30 -0.01    +0.034 A  ATOM      9  N   UNL     1      38.433  28.287  19.986 -0.09 -0.02    -0.239 NA ATOM     10  C   UNL     1      37.382  27.461  20.159 -0.14 -0.03    +0.114 A  ATOM     11  C   UNL     1      37.347  31.281  22.030 -0.44 +0.00    +0.049 C  BRANCH   7  12ATOM     12  N   UNL     1      39.538  30.271  20.381 +0.05 -0.10    -0.383 N  ATOM     13  H   UNL     1      39.677  30.940  21.129 -0.45 +0.01    +0.158 HD ATOM     14  H   UNL     1      40.327  29.633  20.299 -0.35 +0.08    +0.158 HD ENDBRANCH   7  12ENDBRANCH   1   5BRANCH   3  15ATOM     15  C   UNL     1      32.680  29.757  22.185 -0.27 +0.01    +0.190 A  ATOM     16  N   UNL     1      31.902  30.623  21.582 -0.86 +0.00    -0.220 NA ATOM     17  S   UNL     1      32.051  29.029  23.586 -0.58 -0.01    -0.097 S  ATOM     18  C   UNL     1      30.710  30.742  22.277 -0.50 -0.01    +0.085 A  ATOM     19  C   UNL     1      30.602  29.940  23.415 -0.57 +0.01    +0.057 A  ATOM     20  C   UNL     1      29.633  31.583  21.930 -0.39 -0.01    +0.049 A  ATOM     21  C   UNL     1      29.455  29.947  24.223 -0.54 +0.01    +0.023 A  ATOM     22  C   UNL     1      28.481  31.600  22.729 -0.42 -0.00    +0.054 A  ATOM     23  C   UNL     1      28.397  30.789  23.862 -0.49 +0.01    +0.021 A  BRANCH  22  24ATOM     24  C   UNL     1      27.386  32.456  22.375 -0.39 -0.01    +0.099 C  ATOM     25  N   UNL     1      26.499  33.149  22.093 -0.59 +0.06    -0.192 NA ENDBRANCH  22  24ENDBRANCH   3  15TORSDOF 4TERENDMDL