REMARK SMILES CC(C)c1c(C(=O)Nc2nc3ccccc3s2)ccnc1N
REMARK SMILES IDX 4 1 5 2 18 3 19 4 20 5 21 6 2 7 1 8 3 9 6 10 8 11 7 12 9 14
REMARK SMILES IDX 10 15 17 16 11 17 16 18 12 19 15 20 13 21 14 22 22 23
REMARK H PARENT 8 13 22 24 22 25
ROOT
ATOM      1  C   UNL     1      -2.636   0.110   0.541  1.00  0.00     0.010 A 
ATOM      2  C   UNL     1      -1.529  -0.205   1.355  1.00  0.00     0.048 A 
ATOM      3  C   UNL     1      -1.560  -0.033   2.740  1.00  0.00     0.034 A 
ATOM      4  C   UNL     1      -2.718   0.463   3.287  1.00  0.00     0.114 A 
ATOM      5  N   UNL     1      -3.803   0.776   2.555  1.00  0.00    -0.239 NA
ATOM      6  C   UNL     1      -3.761   0.584   1.220  1.00  0.00     0.127 A 
ENDROOT
BRANCH   1   7
ATOM      7  C   UNL     1      -2.567  -0.072  -0.970  1.00  0.00     0.017 C 
ATOM      8  C   UNL     1      -3.305  -1.335  -1.420  1.00  0.00     0.012 C 
ATOM      9  C   UNL     1      -3.017   1.152  -1.777  1.00  0.00     0.012 C 
ENDBRANCH   1   7
BRANCH   2  10
ATOM     10  C   UNL     1      -0.277  -0.753   0.789  1.00  0.00     0.257 C 
ATOM     11  N   UNL     1       0.765   0.139   0.831  1.00  0.00    -0.298 N 
ATOM     12  O   UNL     1      -0.297  -1.896   0.357  1.00  0.00    -0.269 OA
ATOM     13  H   UNL     1       0.615   1.073   1.189  1.00  0.00     0.172 HD
BRANCH  11  14
ATOM     14  C   UNL     1       2.046  -0.065   0.388  1.00  0.00     0.190 A 
ATOM     15  N   UNL     1       2.940   0.890   0.472  1.00  0.00    -0.220 NA
ATOM     16  S   UNL     1       2.572  -1.535  -0.284  1.00  0.00    -0.097 S 
ATOM     17  C   UNL     1       4.148   0.441  -0.037  1.00  0.00     0.084 A 
ATOM     18  C   UNL     1       4.145  -0.875  -0.504  1.00  0.00     0.056 A 
ATOM     19  C   UNL     1       5.342   1.186  -0.118  1.00  0.00     0.030 A 
ATOM     20  C   UNL     1       5.293  -1.474  -1.049  1.00  0.00     0.021 A 
ATOM     21  C   UNL     1       6.492   0.600  -0.658  1.00  0.00     0.002 A 
ATOM     22  C   UNL     1       6.465  -0.713  -1.117  1.00  0.00     0.002 A 
ENDBRANCH  11  14
ENDBRANCH   2  10
BRANCH   6  23
ATOM     23  N   UNL     1      -4.947   0.924   0.583  1.00  0.00    -0.383 N 
ATOM     24  H   UNL     1      -5.321   0.151   0.048  1.00  0.00     0.158 HD
ATOM     25  H   UNL     1      -5.596   1.208   1.314  1.00  0.00     0.158 HD
ENDBRANCH   6  23
TORSDOF 4
