MODEL        2USER    Run = 2USERUSER    Estimated Free Energy of Binding    =  -6.71 kcal/mol  [=(1)+(2)+(3)-(4)]USERUSER    (1) Final Intermolecular Energy     = -10.29 kcal/molUSER        vdW + Hbond + desolv Energy     = -10.65 kcal/molUSER        Electrostatic Energy            =  -0.13 kcal/molUSER        Moving Ligand-Fixed Receptor    = -10.78 kcal/molUSER        Moving Ligand-Moving Receptor   =  +0.49 kcal/molUSER    (2) Final Total Internal Energy     =  -0.93 kcal/molUSER    (3) Torsional Free Energy           =  +3.58 kcal/molUSER    (4) Unbound System's Energy         =  -0.93 kcal/molUSERUSERREMARK SMILES COc1ccc(O)c(C(=O)c2ccc(C(=O)N[C@H]3CCNC(C)(C)CC3)cc2)c1FREMARK SMILES IDX 15 1 16 2 17 3 14 5 11 6 12 7 28 8 13 9 27 10 9 11 10 12REMARK SMILES IDX 8 13 3 14 4 15 29 16 5 17 6 18 30 19 2 20 1 21 7 22 18 24REMARK SMILES IDX 19 25 20 26 21 27 22 29 23 30 24 31 25 32 26 34REMARK H PARENT 17 4 7 23 21 28REMARK Flexibility Score:   49.900USER                              x       y       z     vdW  Elec       q    TypeUSER                           _______ _______ _______ _____ _____    ______ ____ROOTATOM      1  C   UNL     1      26.795  36.888  21.435 -0.19 -0.19    +0.251 C  ATOM      2  O   UNL     1      27.089  37.686  22.317 -0.26 +0.10    -0.269 OA ATOM      3  N   UNL     1      26.095  37.224  20.294 -0.07 +0.36    -0.349 N  ATOM      4  H   UNL     1      25.853  36.503  19.633 -0.36 -0.24    +0.164 HD ENDROOTBRANCH   1   5ATOM      5  C   UNL     1      27.189  35.460  21.571 -0.23 -0.03    +0.039 A  ATOM      6  C   UNL     1      28.054  32.813  21.869 -0.42 -0.01    +0.023 A  ATOM      7  C   UNL     1      28.271  33.736  22.898 -0.42 +0.00    +0.013 A  ATOM      8  C   UNL     1      27.380  33.205  20.706 -0.31 -0.01    +0.013 A  ATOM      9  C   UNL     1      27.851  35.060  22.741 -0.35 -0.00    +0.014 A  ATOM     10  C   UNL     1      26.957  34.529  20.550 -0.23 -0.01    +0.014 A  BRANCH   6  11ATOM     11  C   UNL     1      28.481  31.401  21.989 -0.38 -0.07    +0.199 C  ATOM     12  O   UNL     1      27.737  30.524  21.542 -0.36 +0.27    -0.288 OA BRANCH  11  13ATOM     13  C   UNL     1      29.745  30.987  22.642 -0.43 -0.01    +0.104 A  ATOM     14  C   UNL     1      32.073  30.259  22.544 -0.46 +0.01    +0.155 A  ATOM     15  C   UNL     1      32.118  30.213  23.941 -0.46 +0.01    +0.053 A  ATOM     16  C   UNL     1      30.880  30.636  21.909 -0.43 -0.02    +0.179 A  ATOM     17  C   UNL     1      30.978  30.529  24.685 -0.42 +0.03    +0.051 A  ATOM     18  C   UNL     1      29.802  30.902  24.041 -0.42 +0.05    +0.130 A  ATOM     19  F   UNL     1      30.844  30.629  20.566 +0.08 +0.05    -0.202 F  BRANCH  14  20ATOM     20  O   UNL     1      33.113  29.952  21.705 -0.78 +0.01    -0.494 OA ATOM     21  C   UNL     1      34.428  30.040  22.239 -0.27 -0.04    +0.278 C  ENDBRANCH  14  20BRANCH  18  22ATOM     22  O   UNL     1      28.729  31.167  24.851 -0.55 -0.46    -0.507 OA ATOM     23  H   UNL     1      27.916  30.839  24.401 +0.26 +0.14    +0.293 HD ENDBRANCH  18  22ENDBRANCH  11  13ENDBRANCH   6  11ENDBRANCH   1   5BRANCH   3  24ATOM     24  C   UNL     1      25.737  38.610  19.985 -0.29 -0.04    +0.083 C  BRANCH  24  25ATOM     25  C   UNL     1      24.357  38.958  20.559 -0.35 -0.03    +0.040 C  BRANCH  25  26ATOM     26  C   UNL     1      23.651  40.145  19.911 -0.34 -0.02    +0.083 C  BRANCH  26  27ATOM     27  N   UNL     1      24.613  41.166  19.519 -0.14 +0.06    -0.312 NA ATOM     28  H   UNL     1      24.140  41.912  19.008 +0.08 -0.02    +0.123 HD BRANCH  27  29ATOM     29  C   UNL     1      25.433  41.741  20.590 -0.51 -0.00    +0.013 C  ATOM     30  C   UNL     1      24.511  42.287  21.700 -0.68 -0.01    +0.028 C  ATOM     31  C   UNL     1      26.172  42.939  19.959 -0.41 -0.01    +0.028 C  BRANCH  29  32ATOM     32  C   UNL     1      26.454  40.769  21.229 -0.26 -0.00    +0.024 CG0ATOM     33  G   UNL     1      26.874  39.575  20.362 +0.00 +0.00    +0.000 G0 ENDBRANCH  29  32ENDBRANCH  27  29ENDBRANCH  26  27ENDBRANCH  25  26ENDBRANCH  24  25BRANCH  24  34ATOM     34  C   UNL     1      26.870  39.577  20.364 -0.29 -0.00    +0.027 CG0ATOM     35  G   UNL     1      26.452  40.770  21.233 +0.00 +0.00    +0.000 G0 ENDBRANCH  24  34ENDBRANCH   3  24TORSDOF 6TERENDMDL