REMARK SMILES COc1ccc(O)c(C(=O)c2ccc(C(=O)N[C@H]3CCNC(C)(C)CC3)cc2)c1F
REMARK SMILES IDX 15 1 16 2 17 3 14 5 11 6 12 7 28 8 13 9 27 10 9 11 10 12
REMARK SMILES IDX 8 13 3 14 4 15 29 16 5 17 6 18 30 19 2 20 1 21 7 22 18 24
REMARK SMILES IDX 19 25 20 26 21 27 22 29 23 30 24 31 25 32 26 34
REMARK H PARENT 17 4 7 23 21 28
REMARK Flexibility Score:   49.900
ROOT
ATOM      1  C   UNL     1      -1.010   0.385  -1.490  1.00  0.00     0.251 C 
ATOM      2  O   UNL     1      -0.971   0.171  -2.696  1.00  0.00    -0.269 OA
ATOM      3  N   UNL     1      -2.179   0.487  -0.763  1.00  0.00    -0.349 N 
ATOM      4  H   UNL     1      -2.132   0.707   0.219  1.00  0.00     0.164 HD
ENDROOT
BRANCH   1   5
ATOM      5  C   UNL     1       0.257   0.561  -0.730  1.00  0.00     0.039 A 
ATOM      6  C   UNL     1       2.709   0.841   0.593  1.00  0.00     0.023 A 
ATOM      7  C   UNL     1       2.577   1.282  -0.728  1.00  0.00     0.013 A 
ATOM      8  C   UNL     1       1.609   0.288   1.261  1.00  0.00     0.013 A 
ATOM      9  C   UNL     1       1.356   1.129  -1.391  1.00  0.00     0.014 A 
ATOM     10  C   UNL     1       0.387   0.137   0.598  1.00  0.00     0.014 A 
BRANCH   6  11
ATOM     11  C   UNL     1       3.981   0.981   1.336  1.00  0.00     0.199 C 
ATOM     12  O   UNL     1       3.940   1.404   2.494  1.00  0.00    -0.288 OA
BRANCH  11  13
ATOM     13  C   UNL     1       5.304   0.664   0.749  1.00  0.00     0.104 A 
ATOM     14  C   UNL     1       6.716  -0.548  -0.831  1.00  0.00     0.155 A 
ATOM     15  C   UNL     1       7.843   0.108  -0.328  1.00  0.00     0.053 A 
ATOM     16  C   UNL     1       5.457  -0.270  -0.278  1.00  0.00     0.179 A 
ATOM     17  C   UNL     1       7.708   1.019   0.723  1.00  0.00     0.051 A 
ATOM     18  C   UNL     1       6.452   1.285   1.262  1.00  0.00     0.130 A 
ATOM     19  F   UNL     1       4.393  -0.944  -0.744  1.00  0.00    -0.202 F 
BRANCH  14  20
ATOM     20  O   UNL     1       6.721  -1.475  -1.841  1.00  0.00    -0.494 OA
ATOM     21  C   UNL     1       7.972  -1.768  -2.451  1.00  0.00     0.278 C 
ENDBRANCH  14  20
BRANCH  18  22
ATOM     22  O   UNL     1       6.420   2.171   2.307  1.00  0.00    -0.507 OA
ATOM     23  H   UNL     1       5.518   2.148   2.701  1.00  0.00     0.293 HD
ENDBRANCH  18  22
ENDBRANCH  11  13
ENDBRANCH   6  11
ENDBRANCH   1   5
BRANCH   3  24
ATOM     24  C   UNL     1      -3.490   0.233  -1.365  1.00  0.00     0.083 C 
BRANCH  24  25
ATOM     25  C   UNL     1      -3.794  -1.270  -1.397  1.00  0.00     0.040 C 
BRANCH  25  26
ATOM     26  C   UNL     1      -4.225  -1.886  -0.070  1.00  0.00     0.083 C 
BRANCH  26  27
ATOM     27  N   UNL     1      -5.611  -1.552   0.228  1.00  0.00    -0.312 NA
ATOM     28  H   UNL     1      -6.077  -2.351   0.660  1.00  0.00     0.123 HD
BRANCH  27  29
ATOM     29  C   UNL     1      -5.838  -0.349   1.035  1.00  0.00     0.013 C 
ATOM     30  C   UNL     1      -5.747  -0.715   2.531  1.00  0.00     0.028 C 
ATOM     31  C   UNL     1      -7.288   0.088   0.743  1.00  0.00     0.028 C 
BRANCH  29  32
ATOM     32  C   UNL     1      -4.867   0.823   0.753  1.00  0.00     0.024 CG0
ATOM     33  G   UNL     1      -4.577   1.111  -0.725  1.00  0.00     0.000 G0
ENDBRANCH  29  32
ENDBRANCH  27  29
ENDBRANCH  26  27
ENDBRANCH  25  26
ENDBRANCH  24  25
BRANCH  24  34
ATOM     34  C   UNL     1      -4.577   1.111  -0.725  1.00  0.00     0.027 CG0
ATOM     35  G   UNL     1      -4.867   0.823   0.753  1.00  0.00     0.000 G0
ENDBRANCH  24  34
ENDBRANCH   3  24
TORSDOF 6
