REMARK SMILES Cc1c(C(=O)Nc2nc3cc(C#N)ccc3s2)ccnc1N
REMARK SMILES IDX 4 1 5 2 6 3 3 5 2 6 21 7 18 8 20 9 19 10 1 11 22 12 7 15
REMARK SMILES IDX 8 16 17 17 9 18 16 19 10 20 15 21 11 22 14 23 12 24 13 25
REMARK H PARENT 6 4 22 13 22 14
ROOT
ATOM      1  C   UNL     1      -1.242  -0.130   0.714  1.00  0.00     0.257 C 
ATOM      2  O   UNL     1      -1.329  -1.137   1.401  1.00  0.00    -0.269 OA
ATOM      3  N   UNL     1      -0.114   0.450   0.185  1.00  0.00    -0.298 N 
ATOM      4  H   UNL     1      -0.198   1.250  -0.427  1.00  0.00     0.172 HD
ENDROOT
BRANCH   1   5
ATOM      5  C   UNL     1      -2.492   0.592   0.370  1.00  0.00     0.048 A 
ATOM      6  C   UNL     1      -3.550  -0.065  -0.280  1.00  0.00     0.004 A 
ATOM      7  C   UNL     1      -4.701   0.687  -0.510  1.00  0.00     0.127 A 
ATOM      8  C   UNL     1      -2.597   1.934   0.735  1.00  0.00     0.034 A 
ATOM      9  N   UNL     1      -4.813   1.989  -0.184  1.00  0.00    -0.239 NA
ATOM     10  C   UNL     1      -3.772   2.584   0.431  1.00  0.00     0.114 A 
ATOM     11  C   UNL     1      -3.461  -1.512  -0.672  1.00  0.00     0.049 C 
BRANCH   7  12
ATOM     12  N   UNL     1      -5.824   0.146  -1.130  1.00  0.00    -0.383 N 
ATOM     13  H   UNL     1      -6.154  -0.681  -0.646  1.00  0.00     0.158 HD
ATOM     14  H   UNL     1      -6.531   0.878  -1.143  1.00  0.00     0.158 HD
ENDBRANCH   7  12
ENDBRANCH   1   5
BRANCH   3  15
ATOM     15  C   UNL     1       1.181   0.024   0.335  1.00  0.00     0.190 A 
ATOM     16  N   UNL     1       2.164   0.656  -0.259  1.00  0.00    -0.220 NA
ATOM     17  S   UNL     1       1.616  -1.312   1.291  1.00  0.00    -0.097 S 
ATOM     18  C   UNL     1       3.367   0.041   0.047  1.00  0.00     0.085 A 
ATOM     19  C   UNL     1       3.271  -1.066   0.892  1.00  0.00     0.057 A 
ATOM     20  C   UNL     1       4.638   0.439  -0.415  1.00  0.00     0.049 A 
ATOM     21  C   UNL     1       4.401  -1.795   1.294  1.00  0.00     0.023 A 
ATOM     22  C   UNL     1       5.775  -0.280  -0.022  1.00  0.00     0.054 A 
ATOM     23  C   UNL     1       5.653  -1.384   0.824  1.00  0.00     0.021 A 
BRANCH  22  24
ATOM     24  C   UNL     1       7.068   0.125  -0.492  1.00  0.00     0.099 C 
ATOM     25  N   UNL     1       8.116   0.450  -0.870  1.00  0.00    -0.192 NA
ENDBRANCH  22  24
ENDBRANCH   3  15
TORSDOF 4
