REMARK SMILES COC(=O)N1CCN(C(=O)c2ccc(-c3nc(N=Cc4cncn4C)ccc3C#N)cc2F)CC1
REMARK SMILES IDX 15 1 16 2 17 3 26 4 27 5 28 6 14 7 11 8 12 9 32 10 13 11
REMARK SMILES IDX 31 12 33 13 9 14 3 15 5 16 6 17 35 18 7 19 34 20 8 21 4 22
REMARK SMILES IDX 10 23 2 24 1 25 29 26 30 27 18 28 19 29 20 30 21 31 24 32
REMARK SMILES IDX 22 33 23 34 25 35
REMARK H PARENT
ROOT
ATOM      1  C   UNL     1      -2.561   0.634   1.570  1.00  0.00     0.091 A 
ATOM      2  N   UNL     1      -3.624  -0.080   1.108  1.00  0.00    -0.227 NA
ATOM      3  C   UNL     1      -4.830   0.120   1.681  1.00  0.00     0.152 A 
ATOM      4  C   UNL     1      -5.027   1.031   2.705  1.00  0.00     0.050 A 
ATOM      5  C   UNL     1      -3.943   1.780   3.162  1.00  0.00     0.025 A 
ATOM      6  C   UNL     1      -2.684   1.583   2.590  1.00  0.00     0.078 A 
ENDROOT
BRANCH   1   7
ATOM      7  C   UNL     1      -1.297   0.305   0.887  1.00  0.00     0.005 A 
ATOM      8  C   UNL     1       1.084  -0.389  -0.460  1.00  0.00     0.075 A 
ATOM      9  C   UNL     1      -0.012   0.097  -1.181  1.00  0.00     0.017 A 
ATOM     10  C   UNL     1       0.980  -0.555   0.917  1.00  0.00     0.136 A 
ATOM     11  C   UNL     1      -1.188   0.445  -0.511  1.00  0.00     0.011 A 
ATOM     12  C   UNL     1      -0.192  -0.207   1.589  1.00  0.00     0.050 A 
ATOM     13  F   UNL     1       1.990  -1.073   1.630  1.00  0.00    -0.206 F 
BRANCH   8  14
ATOM     14  C   UNL     1       2.280  -0.823  -1.203  1.00  0.00     0.256 C 
ATOM     15  C   UNL     1       7.511   1.247  -0.496  1.00  0.00     0.409 C 
ATOM     16  N   UNL     1       6.227   0.745  -0.523  1.00  0.00    -0.305 N 
ATOM     17  C   UNL     1       5.041   1.572  -0.305  1.00  0.00     0.144 C 
ATOM     18  C   UNL     1       6.017  -0.674  -0.802  1.00  0.00     0.144 C 
ATOM     19  C   UNL     1       3.801   0.753   0.086  1.00  0.00     0.141 C 
ATOM     20  C   UNL     1       4.696  -0.925  -1.535  1.00  0.00     0.141 C 
ATOM     21  N   UNL     1       3.538  -0.362  -0.838  1.00  0.00    -0.335 N 
ATOM     22  O   UNL     1       8.519   0.559  -0.614  1.00  0.00    -0.224 OA
ATOM     23  O   UNL     1       2.099  -1.588  -2.152  1.00  0.00    -0.269 OA
BRANCH  15  24
ATOM     24  O   UNL     1       7.527   2.602  -0.332  1.00  0.00    -0.453 OA
ATOM     25  C   UNL     1       8.840   3.159  -0.296  1.00  0.00     0.284 C 
ENDBRANCH  15  24
ENDBRANCH   8  14
ENDBRANCH   1   7
BRANCH   6  26
ATOM     26  C   UNL     1      -1.572   2.364   3.043  1.00  0.00     0.101 C 
ATOM     27  N   UNL     1      -0.669   2.994   3.411  1.00  0.00    -0.192 NA
ENDBRANCH   6  26
BRANCH   3  28
ATOM     28  N   UNL     1      -5.904  -0.657   1.245  1.00  0.00    -0.235 NA
BRANCH  28  29
ATOM     29  C   UNL     1      -5.843  -1.171   0.062  1.00  0.00     0.141 C 
BRANCH  29  30
ATOM     30  C   UNL     1      -6.904  -2.012  -0.419  1.00  0.00     0.079 A 
ATOM     31  C   UNL     1      -7.969  -2.554   0.269  1.00  0.00     0.140 A 
ATOM     32  N   UNL     1      -7.071  -2.480  -1.702  1.00  0.00    -0.333 N 
ATOM     33  N   UNL     1      -8.756  -3.321  -0.551  1.00  0.00    -0.245 NA
ATOM     34  C   UNL     1      -8.194  -3.250  -1.736  1.00  0.00     0.199 A 
ATOM     35  C   UNL     1      -6.261  -2.158  -2.850  1.00  0.00     0.151 C 
ENDBRANCH  29  30
ENDBRANCH  28  29
ENDBRANCH   3  28
TORSDOF 7
