REMARK SMILES Cn1cncc1C=Nc1ccc(C#N)c(-c2ccc(C(=O)N3CCN(S(C)(=O)=O)CC3)c(F)c2)n1
REMARK SMILES IDX 9 1 10 2 11 3 12 4 15 5 35 6 8 7 7 8 6 9 2 10 3 11 4 12 5 13
REMARK SMILES IDX 1 14 16 15 17 16 34 17 18 18 32 19 19 20 33 21 20 22 22 23
REMARK SMILES IDX 23 24 31 25 24 26 30 27 25 28 21 29 26 30 27 31 28 32 29 33
REMARK SMILES IDX 13 34 14 35
REMARK H PARENT
ROOT
ATOM      1  C   UNL     1       4.335   1.144   0.309  1.00  0.00     0.152 A 
ATOM      2  C   UNL     1       5.151   2.122   0.853  1.00  0.00     0.050 A 
ATOM      3  C   UNL     1       4.567   3.191   1.525  1.00  0.00     0.025 A 
ATOM      4  C   UNL     1       3.175   3.261   1.631  1.00  0.00     0.078 A 
ATOM      5  C   UNL     1       2.415   2.246   1.045  1.00  0.00     0.091 A 
ATOM      6  N   UNL     1       2.990   1.193   0.398  1.00  0.00    -0.227 NA
ENDROOT
BRANCH   1   7
ATOM      7  N   UNL     1       4.930   0.075  -0.367  1.00  0.00    -0.235 NA
BRANCH   7   8
ATOM      8  C   UNL     1       4.191  -0.921  -0.727  1.00  0.00     0.141 C 
BRANCH   8   9
ATOM      9  C   UNL     1       4.750  -2.046  -1.428  1.00  0.00     0.079 A 
ATOM     10  N   UNL     1       6.052  -2.251  -1.829  1.00  0.00    -0.333 N 
ATOM     11  C   UNL     1       6.113  -3.463  -2.457  1.00  0.00     0.199 A 
ATOM     12  N   UNL     1       4.941  -4.051  -2.489  1.00  0.00    -0.245 NA
ATOM     13  C   UNL     1       4.091  -3.183  -1.857  1.00  0.00     0.140 A 
ATOM     14  C   UNL     1       7.175  -1.365  -1.640  1.00  0.00     0.151 C 
ENDBRANCH   8   9
ENDBRANCH   7   8
ENDBRANCH   1   7
BRANCH   5  15
ATOM     15  C   UNL     1       0.941   2.182   1.069  1.00  0.00     0.005 A 
ATOM     16  C   UNL     1       0.138   3.240   0.603  1.00  0.00     0.011 A 
ATOM     17  C   UNL     1       0.295   1.026   1.544  1.00  0.00     0.050 A 
ATOM     18  C   UNL     1      -1.259   3.151   0.625  1.00  0.00     0.017 A 
ATOM     19  C   UNL     1      -1.095   0.938   1.563  1.00  0.00     0.136 A 
ATOM     20  C   UNL     1      -1.876   1.987   1.090  1.00  0.00     0.075 A 
ATOM     21  F   UNL     1      -1.659  -0.178   2.050  1.00  0.00    -0.206 F 
BRANCH  20  22
ATOM     22  C   UNL     1      -3.348   1.930   1.133  1.00  0.00     0.256 C 
ATOM     23  N   UNL     1      -4.015   0.898   0.481  1.00  0.00    -0.336 N 
ATOM     24  C   UNL     1      -3.397  -0.041  -0.463  1.00  0.00     0.136 C 
ATOM     25  C   UNL     1      -5.473   0.826   0.610  1.00  0.00     0.136 C 
ATOM     26  C   UNL     1      -4.384  -0.570  -1.514  1.00  0.00     0.123 C 
ATOM     27  C   UNL     1      -5.998  -0.602   0.425  1.00  0.00     0.123 C 
ATOM     28  N   UNL     1      -5.595  -1.166  -0.892  1.00  0.00    -0.199 NA
ATOM     29  O   UNL     1      -3.929   2.830   1.734  1.00  0.00    -0.269 OA
BRANCH  28  30
ATOM     30  S   UNL     1      -5.952  -2.782  -1.195  1.00  0.00     0.211 S 
ATOM     31  C   UNL     1      -4.705  -3.639  -0.253  1.00  0.00     0.176 C 
ATOM     32  O   UNL     1      -5.696  -3.036  -2.596  1.00  0.00    -0.213 OA
ATOM     33  O   UNL     1      -7.237  -3.074  -0.598  1.00  0.00    -0.213 OA
ENDBRANCH  28  30
ENDBRANCH  20  22
ENDBRANCH   5  15
BRANCH   4  34
ATOM     34  C   UNL     1       2.585   4.345   2.354  1.00  0.00     0.101 C 
ATOM     35  N   UNL     1       2.124   5.237   2.935  1.00  0.00    -0.192 NA
ENDBRANCH   4  34
TORSDOF 7
