REMARK SMILES Cn1cncc1C=Nc1ccc(C#N)c(-c2ccc(C(=O)N3CCC(F)CC3)c(F)c2)n1
REMARK SMILES IDX 9 1 10 2 11 3 12 4 15 5 32 6 8 7 7 8 6 9 2 10 3 11 4 12 5 13
REMARK SMILES IDX 1 14 16 15 17 16 31 17 18 18 29 19 19 20 30 21 20 22 22 23
REMARK SMILES IDX 23 24 28 25 24 26 27 27 25 28 21 29 26 30 13 31 14 32
REMARK H PARENT
ROOT
ATOM      1  C   UNL     1       3.339   0.750  -2.038  1.00  0.00     0.152 A 
ATOM      2  C   UNL     1       3.795   0.054  -3.145  1.00  0.00     0.050 A 
ATOM      3  C   UNL     1       3.024  -0.996  -3.634  1.00  0.00     0.025 A 
ATOM      4  C   UNL     1       1.808  -1.306  -3.015  1.00  0.00     0.078 A 
ATOM      5  C   UNL     1       1.405  -0.539  -1.917  1.00  0.00     0.091 A 
ATOM      6  N   UNL     1       2.168   0.478  -1.427  1.00  0.00    -0.227 NA
ENDROOT
BRANCH   1   7
ATOM      7  N   UNL     1       4.037   1.841  -1.542  1.00  0.00    -0.235 NA
BRANCH   7   8
ATOM      8  C   UNL     1       4.883   1.724  -0.565  1.00  0.00     0.141 C 
BRANCH   8   9
ATOM      9  C   UNL     1       5.305   0.564   0.183  1.00  0.00     0.079 A 
ATOM     10  N   UNL     1       6.433   0.506   0.979  1.00  0.00    -0.333 N 
ATOM     11  C   UNL     1       6.519  -0.742   1.524  1.00  0.00     0.199 A 
ATOM     12  N   UNL     1       5.514  -1.495   1.151  1.00  0.00    -0.245 NA
ATOM     13  C   UNL     1       4.758  -0.699   0.331  1.00  0.00     0.140 A 
ATOM     14  C   UNL     1       7.399   1.560   1.187  1.00  0.00     0.151 C 
ENDBRANCH   8   9
ENDBRANCH   7   8
ENDBRANCH   1   7
BRANCH   5  15
ATOM     15  C   UNL     1       0.152  -0.746  -1.169  1.00  0.00     0.005 A 
ATOM     16  C   UNL     1       0.187  -0.977   0.220  1.00  0.00     0.011 A 
ATOM     17  C   UNL     1      -1.103  -0.697  -1.797  1.00  0.00     0.050 A 
ATOM     18  C   UNL     1      -0.988  -1.167   0.955  1.00  0.00     0.017 A 
ATOM     19  C   UNL     1      -2.275  -0.885  -1.063  1.00  0.00     0.136 A 
ATOM     20  C   UNL     1      -2.225  -1.101   0.310  1.00  0.00     0.075 A 
ATOM     21  F   UNL     1      -3.446  -0.850  -1.714  1.00  0.00    -0.206 F 
BRANCH  20  22
ATOM     22  C   UNL     1      -3.451  -1.333   1.097  1.00  0.00     0.256 C 
ATOM     23  N   UNL     1      -4.467  -0.377   1.087  1.00  0.00    -0.338 N 
ATOM     24  C   UNL     1      -5.710  -0.694   1.791  1.00  0.00     0.123 C 
ATOM     25  C   UNL     1      -4.319   0.985   0.565  1.00  0.00     0.123 C 
ATOM     26  C   UNL     1      -6.888   0.066   1.201  1.00  0.00     0.059 C 
ATOM     27  C   UNL     1      -5.191   1.972   1.323  1.00  0.00     0.059 C 
ATOM     28  C   UNL     1      -6.660   1.571   1.265  1.00  0.00     0.170 C 
ATOM     29  O   UNL     1      -3.508  -2.369   1.755  1.00  0.00    -0.269 OA
ATOM     30  F   UNL     1      -7.264   2.056   2.387  1.00  0.00    -0.247 F 
ENDBRANCH  20  22
ENDBRANCH   5  15
BRANCH   4  31
ATOM     31  C   UNL     1       1.033  -2.401  -3.512  1.00  0.00     0.101 C 
ATOM     32  N   UNL     1       0.411  -3.282  -3.940  1.00  0.00    -0.192 NA
ENDBRANCH   4  31
TORSDOF 6
