REMARK SMILES CCCCc1c(C(=O)Nc2nc3ccccc3s2)ccnc1N
REMARK SMILES IDX 4 1 3 2 2 3 1 4 5 5 6 6 22 7 19 8 21 9 20 10 7 11 9 12 8 13
REMARK SMILES IDX 10 15 11 16 18 17 12 18 17 19 13 20 16 21 14 22 15 23 23 24
REMARK H PARENT 9 14 23 25 23 26
ROOT
ATOM      1  C   UNL     1      -2.165   0.968  -0.784  1.00  0.00     0.040 C 
ENDROOT
BRANCH   1   2
ATOM      2  C   UNL     1      -2.452   0.395   0.609  1.00  0.00     0.005 C 
BRANCH   2   3
ATOM      3  C   UNL     1      -2.338   1.439   1.722  1.00  0.00    -0.003 C 
ATOM      4  C   UNL     1      -0.909   1.892   1.981  1.00  0.00     0.004 C 
ENDBRANCH   2   3
ENDBRANCH   1   2
BRANCH   1   5
ATOM      5  C   UNL     1      -2.214  -0.084  -1.869  1.00  0.00     0.007 A 
ATOM      6  C   UNL     1      -1.052  -0.638  -2.433  1.00  0.00     0.048 A 
ATOM      7  C   UNL     1      -3.426  -0.555  -2.376  1.00  0.00     0.127 A 
ATOM      8  C   UNL     1      -1.121  -1.577  -3.459  1.00  0.00     0.034 A 
ATOM      9  N   UNL     1      -3.515  -1.488  -3.343  1.00  0.00    -0.239 NA
ATOM     10  C   UNL     1      -2.372  -1.969  -3.873  1.00  0.00     0.114 A 
BRANCH   6  11
ATOM     11  C   UNL     1       0.303  -0.250  -1.984  1.00  0.00     0.257 C 
ATOM     12  N   UNL     1       0.615  -0.727  -0.737  1.00  0.00    -0.298 N 
ATOM     13  O   UNL     1       0.990   0.404  -2.754  1.00  0.00    -0.269 OA
ATOM     14  H   UNL     1      -0.037  -1.327  -0.251  1.00  0.00     0.172 HD
BRANCH  12  15
ATOM     15  C   UNL     1       1.759  -0.487  -0.022  1.00  0.00     0.190 A 
ATOM     16  N   UNL     1       1.926  -1.018   1.165  1.00  0.00    -0.220 NA
ATOM     17  S   UNL     1       3.009   0.516  -0.584  1.00  0.00    -0.097 S 
ATOM     18  C   UNL     1       3.143  -0.612   1.687  1.00  0.00     0.084 A 
ATOM     19  C   UNL     1       3.888   0.240   0.869  1.00  0.00     0.056 A 
ATOM     20  C   UNL     1       3.670  -0.978   2.942  1.00  0.00     0.030 A 
ATOM     21  C   UNL     1       5.142   0.738   1.260  1.00  0.00     0.021 A 
ATOM     22  C   UNL     1       4.918  -0.488   3.342  1.00  0.00     0.002 A 
ATOM     23  C   UNL     1       5.642   0.359   2.509  1.00  0.00     0.002 A 
ENDBRANCH  12  15
ENDBRANCH   6  11
BRANCH   7  24
ATOM     24  N   UNL     1      -4.653  -0.103  -1.898  1.00  0.00    -0.383 N 
ATOM     25  H   UNL     1      -4.739   0.903  -1.980  1.00  0.00     0.158 HD
ATOM     26  H   UNL     1      -5.367  -0.576  -2.449  1.00  0.00     0.158 HD
ENDBRANCH   7  24
ENDBRANCH   1   5
TORSDOF 6
