MODEL        10USER    Run = 10USERUSER    Estimated Free Energy of Binding    =  -7.93 kcal/mol  [=(1)+(2)+(3)-(4)]USERUSER    (1) Final Intermolecular Energy     =  -9.13 kcal/molUSER        vdW + Hbond + desolv Energy     =  -8.99 kcal/molUSER        Electrostatic Energy            =  -0.14 kcal/molUSER        Moving Ligand-Fixed Receptor    =  -9.13 kcal/molUSER        Moving Ligand-Moving Receptor   =  +0.00 kcal/molUSER    (2) Final Total Internal Energy     =  -0.65 kcal/molUSER    (3) Torsional Free Energy           =  +1.19 kcal/molUSER    (4) Unbound System's Energy         =  -0.65 kcal/molUSERUSERREMARK SMILES CC(C)c1c(C(=O)Nc2nc3ccccc3s2)ccnc1NREMARK SMILES IDX 4 1 5 2 18 3 19 4 20 5 21 6 2 7 1 8 3 9 6 10 8 11 7 12 9 14REMARK SMILES IDX 10 15 17 16 11 17 16 18 12 19 15 20 13 21 14 22 22 23REMARK H PARENT 8 13 22 24 22 25USER                              x       y       z     vdW  Elec       q    TypeUSER                           _______ _______ _______ _____ _____    ______ ____ROOTATOM      1  C   UNL     1      36.301  46.206  14.467 -0.41 -0.01    +0.010 A  ATOM      2  C   UNL     1      37.586  46.543  13.996 -0.42 -0.02    +0.048 A  ATOM      3  C   UNL     1      37.783  47.126  12.743 -0.43 -0.01    +0.034 A  ATOM      4  C   UNL     1      36.668  47.359  11.975 -0.55 -0.04    +0.114 A  ATOM      5  N   UNL     1      35.420  47.058  12.379 -0.34 +0.16    -0.239 NA ATOM      6  C   UNL     1      35.248  46.514  13.602 -0.36 -0.09    +0.127 A  ENDROOTBRANCH   1   7ATOM      7  C   UNL     1      36.119  45.554  15.832 -0.40 -0.01    +0.017 C  ATOM      8  C   UNL     1      35.457  46.508  16.828 -0.38 -0.01    +0.012 C  ATOM      9  C   UNL     1      35.400  44.200  15.797 -0.40 -0.01    +0.012 C  ENDBRANCH   1   7BRANCH   2  10ATOM     10  C   UNL     1      38.799  46.314  14.811 -0.29 -0.07    +0.257 C  ATOM     11  N   UNL     1      38.803  47.034  15.980 -0.21 +0.11    -0.298 N  ATOM     12  O   UNL     1      39.641  45.541  14.379 -0.24 +0.04    -0.269 OA ATOM     13  H   UNL     1      38.042  47.668  16.183 +0.11 -0.10    +0.172 HD BRANCH  11  14ATOM     14  C   UNL     1      39.778  47.040  16.944 -0.34 -0.04    +0.190 A  ATOM     15  N   UNL     1      39.702  46.231  17.972 -0.30 +0.03    -0.220 NA ATOM     16  S   UNL     1      41.132  48.065  16.886 -0.64 +0.01    -0.097 S  ATOM     17  C   UNL     1      40.798  46.427  18.798 -0.41 -0.00    +0.084 A  ATOM     18  C   UNL     1      41.702  47.400  18.366 -0.49 -0.00    +0.056 A  ATOM     19  C   UNL     1      41.063  45.743  20.001 -0.38 +0.00    +0.030 A  ATOM     20  C   UNL     1      42.862  47.714  19.094 -0.48 +0.00    +0.021 A  ATOM     21  C   UNL     1      42.215  46.045  20.735 -0.34 +0.00    +0.002 A  ATOM     22  C   UNL     1      43.101  47.019  20.285 -0.43 +0.00    +0.002 A  ENDBRANCH  11  14ENDBRANCH   2  10BRANCH   6  23ATOM     23  N   UNL     1      33.916  46.271  13.908 -0.08 +0.36    -0.383 N  ATOM     24  H   UNL     1      33.571  46.909  14.614 -0.28 -0.29    +0.158 HD ATOM     25  H   UNL     1      33.397  46.374  13.039 -0.48 -0.14    +0.158 HD ENDBRANCH   6  23TORSDOF 4TERENDMDL