MODEL        4USER    Run = 4USERUSER    Estimated Free Energy of Binding    = -10.01 kcal/mol  [=(1)+(2)+(3)-(4)]USERUSER    (1) Final Intermolecular Energy     = -12.10 kcal/molUSER        vdW + Hbond + desolv Energy     = -12.01 kcal/molUSER        Electrostatic Energy            =  -0.09 kcal/molUSER        Moving Ligand-Fixed Receptor    = -12.10 kcal/molUSER        Moving Ligand-Moving Receptor   =  +0.00 kcal/molUSER    (2) Final Total Internal Energy     =  -1.16 kcal/molUSER    (3) Torsional Free Energy           =  +2.09 kcal/molUSER    (4) Unbound System's Energy         =  -1.16 kcal/molUSERUSERREMARK SMILES CC(C)N1CCN(C(=O)c2ccc(-c3nc(N=Cc4cncn4C)ccc3C#N)cc2F)CC1REMARK SMILES IDX 14 1 15 2 16 3 25 4 26 5 27 6 13 7 10 8 11 9 31 10 12 11REMARK SMILES IDX 30 12 32 13 8 14 4 15 5 16 34 17 6 18 33 19 7 20 9 21 2 22REMARK SMILES IDX 1 23 3 24 28 25 29 26 17 27 18 28 19 29 20 30 23 31 21 32REMARK SMILES IDX 22 33 24 34REMARK H PARENTUSER                              x       y       z     vdW  Elec       q    TypeUSER                           _______ _______ _______ _____ _____    ______ ____ROOTATOM      1  C   UNL     1      40.115  46.017  18.921 -0.37 -0.00    +0.091 A  ATOM      2  N   UNL     1      38.979  45.731  18.221 -0.27 +0.03    -0.227 NA ATOM      3  C   UNL     1      38.823  46.277  16.995 -0.31 -0.04    +0.152 A  ATOM      4  C   UNL     1      39.769  47.111  16.422 -0.45 -0.01    +0.050 A  ATOM      5  C   UNL     1      40.937  47.385  17.126 -0.48 -0.00    +0.025 A  ATOM      6  C   UNL     1      41.124  46.831  18.396 -0.46 -0.00    +0.078 A  ENDROOTBRANCH   1   7ATOM      7  C   UNL     1      40.157  45.371  20.251 -0.38 +0.00    +0.005 A  ATOM      8  C   UNL     1      40.250  44.069  22.751 -0.19 +0.00    +0.075 A  ATOM      9  C   UNL     1      39.401  45.164  22.569 -0.28 +0.00    +0.017 A  ATOM     10  C   UNL     1      41.050  43.628  21.704 -0.24 +0.01    +0.136 A  ATOM     11  C   UNL     1      39.346  45.798  21.321 -0.24 +0.00    +0.011 A  ATOM     12  C   UNL     1      41.004  44.267  20.467 -0.31 +0.00    +0.050 A  ATOM     13  F   UNL     1      41.856  42.566  21.847 -0.14 +0.01    -0.206 F  BRANCH   8  14ATOM     14  C   UNL     1      40.339  43.405  24.062 -0.13 +0.01    +0.256 C  ATOM     15  N   UNL     1      36.787  41.866  26.077 -0.21 +0.05    -0.297 NA ATOM     16  C   UNL     1      37.907  42.529  26.767 -0.31 -0.01    +0.106 C  ATOM     17  C   UNL     1      36.942  41.837  24.613 -0.34 -0.00    +0.106 C  ATOM     18  C   UNL     1      39.242  42.410  26.014 -0.20 -0.00    +0.135 C  ATOM     19  C   UNL     1      37.850  42.933  24.023 -0.31 +0.01    +0.135 C  ATOM     20  N   UNL     1      39.163  42.989  24.673 -0.07 -0.01    -0.336 N  ATOM     21  O   UNL     1      41.451  43.285  24.567 -0.12 +0.00    -0.269 OA BRANCH  15  22ATOM     22  C   UNL     1      35.441  42.238  26.538 -0.52 -0.01    +0.050 C  ATOM     23  C   UNL     1      35.410  43.323  27.624 -0.60 -0.01    +0.024 C  ATOM     24  C   UNL     1      34.643  41.012  27.002 -0.68 -0.01    +0.024 C  ENDBRANCH  15  22ENDBRANCH   8  14ENDBRANCH   1   7BRANCH   6  25ATOM     25  C   UNL     1      42.344  47.098  19.095 -0.53 +0.01    +0.101 C  ATOM     26  N   UNL     1      43.325  47.335  19.669 -0.40 -0.05    -0.192 NA ENDBRANCH   6  25BRANCH   3  27ATOM     27  N   UNL     1      37.642  46.014  16.300 -0.21 +0.10    -0.235 NA BRANCH  27  28ATOM     28  C   UNL     1      37.007  47.014  15.785 -0.36 -0.10    +0.141 C  BRANCH  28  29ATOM     29  C   UNL     1      36.956  47.181  14.358 -0.41 -0.05    +0.079 A  ATOM     30  C   UNL     1      36.945  48.345  13.614 -0.45 -0.07    +0.140 A  ATOM     31  N   UNL     1      36.918  46.183  13.409 -0.21 +0.14    -0.333 N  ATOM     32  N   UNL     1      36.914  48.080  12.269 -0.98 +0.06    -0.245 NA ATOM     33  C   UNL     1      36.900  46.772  12.177 -0.50 -0.07    +0.199 A  ATOM     34  C   UNL     1      36.921  44.762  13.651 -0.36 -0.05    +0.151 C  ENDBRANCH  28  29ENDBRANCH  27  28ENDBRANCH   3  27TORSDOF 7TERENDMDL