REMARK SMILES COc1ccc(O)c(C(=O)c2ccc(C(=O)N[C@@H]3CCC4(CCCC4)NC3)cc2)c1F
REMARK SMILES IDX 11 1 12 2 13 3 14 4 28 5 29 6 9 7 10 8 8 9 3 10 4 11 30 12
REMARK SMILES IDX 5 13 6 14 31 15 2 16 1 17 7 18 15 20 17 21 16 22 18 24 19 25
REMARK SMILES IDX 27 26 20 27 26 28 21 29 22 30 25 31 23 32 24 33
REMARK H PARENT 7 19 17 23 26 34
ROOT
ATOM      1  C   UNL     1       2.498  -0.034  -1.079  1.00  0.00     0.023 A 
ATOM      2  C   UNL     1       2.552   0.772   0.064  1.00  0.00     0.013 A 
ATOM      3  C   UNL     1       1.546   0.677   1.030  1.00  0.00     0.014 A 
ATOM      4  C   UNL     1       0.470  -0.204   0.851  1.00  0.00     0.039 A 
ATOM      5  C   UNL     1       0.416  -1.007  -0.296  1.00  0.00     0.014 A 
ATOM      6  C   UNL     1       1.422  -0.913  -1.262  1.00  0.00     0.013 A 
ENDROOT
BRANCH   1   7
ATOM      7  C   UNL     1       3.519   0.059  -2.148  1.00  0.00     0.199 C 
ATOM      8  O   UNL     1       3.153  -0.001  -3.323  1.00  0.00    -0.288 OA
BRANCH   7   9
ATOM      9  C   UNL     1       4.957   0.279  -1.880  1.00  0.00     0.104 A 
ATOM     10  C   UNL     1       6.944  -0.007  -0.495  1.00  0.00     0.155 A 
ATOM     11  C   UNL     1       7.686   0.741  -1.411  1.00  0.00     0.053 A 
ATOM     12  C   UNL     1       5.582  -0.236  -0.744  1.00  0.00     0.179 A 
ATOM     13  C   UNL     1       7.078   1.234  -2.569  1.00  0.00     0.051 A 
ATOM     14  C   UNL     1       5.728   0.991  -2.807  1.00  0.00     0.130 A 
ATOM     15  F   UNL     1       4.887  -0.990   0.124  1.00  0.00    -0.202 F 
BRANCH  10  16
ATOM     16  O   UNL     1       7.431  -0.556   0.661  1.00  0.00    -0.494 OA
ATOM     17  C   UNL     1       8.815  -0.377   0.936  1.00  0.00     0.278 C 
ENDBRANCH  10  16
BRANCH  14  18
ATOM     18  O   UNL     1       5.219   1.480  -3.979  1.00  0.00    -0.507 OA
ATOM     19  H   UNL     1       4.340   1.060  -4.126  1.00  0.00     0.293 HD
ENDBRANCH  14  18
ENDBRANCH   7   9
ENDBRANCH   1   7
BRANCH   4  20
ATOM     20  C   UNL     1      -0.579  -0.261   1.906  1.00  0.00     0.251 C 
ATOM     21  N   UNL     1      -1.838  -0.651   1.496  1.00  0.00    -0.348 N 
ATOM     22  O   UNL     1      -0.315   0.065   3.057  1.00  0.00    -0.269 OA
ATOM     23  H   UNL     1      -2.043  -0.620   0.507  1.00  0.00     0.164 HD
BRANCH  21  24
ATOM     24  C   UNL     1      -2.982  -0.585   2.409  1.00  0.00     0.096 C 
ATOM     25  C   UNL     1      -4.098  -1.527   1.933  1.00  0.00     0.028 C 
ATOM     26  C   UNL     1      -3.502   0.860   2.538  1.00  0.00     0.106 C 
ATOM     27  C   UNL     1      -5.344  -0.775   1.455  1.00  0.00     0.024 C 
ATOM     28  N   UNL     1      -4.053   1.375   1.276  1.00  0.00    -0.309 NA
ATOM     29  C   UNL     1      -5.008   0.479   0.610  1.00  0.00     0.018 C 
ATOM     30  C   UNL     1      -4.545   0.105  -0.812  1.00  0.00     0.022 C 
ATOM     31  C   UNL     1      -6.286   1.273   0.284  1.00  0.00     0.022 C 
ATOM     32  C   UNL     1      -5.826  -0.233  -1.575  1.00  0.00     0.002 C 
ATOM     33  C   UNL     1      -6.954   0.501  -0.851  1.00  0.00     0.002 C 
ATOM     34  H   UNL     1      -3.280   1.609   0.655  1.00  0.00     0.123 HD
ENDBRANCH  21  24
ENDBRANCH   4  20
TORSDOF 6
