MODEL        1USER    Run = 1USERUSER    Estimated Free Energy of Binding    =  -9.16 kcal/mol  [=(1)+(2)+(3)-(4)]USERUSER    (1) Final Intermolecular Energy     = -10.05 kcal/molUSER        vdW + Hbond + desolv Energy     = -10.06 kcal/molUSER        Electrostatic Energy            =  +0.01 kcal/molUSER        Moving Ligand-Fixed Receptor    = -10.05 kcal/molUSER        Moving Ligand-Moving Receptor   =  +0.00 kcal/molUSER    (2) Final Total Internal Energy     =  -0.83 kcal/molUSER    (3) Torsional Free Energy           =  +0.89 kcal/molUSER    (4) Unbound System's Energy         =  -0.83 kcal/molUSERUSERREMARK SMILES C=C1C=C(c2nnc3sc(C)cc3c2CCC)C[C@@H]1CREMARK SMILES IDX 5 1 6 2 7 3 8 4 9 5 10 6 11 7 12 8 13 9 14 10 4 11 2 12 3 13REMARK SMILES IDX 19 14 18 15 1 16 20 17 15 18 16 19 17 20REMARK H PARENTUSER                              x       y       z     vdW  Elec       q    TypeUSER                           _______ _______ _______ _____ _____    ______ ____ROOTATOM      1  C   UNL     1      39.058  46.471  16.141 -0.36 -0.03    +0.093 A  ATOM      2  N   UNL     1      38.429  45.696  17.068 -0.29 +0.04    -0.149 NA ATOM      3  N   UNL     1      38.941  45.464  18.266 -0.32 +0.02    -0.139 NA ATOM      4  C   UNL     1      40.120  46.034  18.550 -0.36 -0.01    +0.146 A  ATOM      5  S   UNL     1      40.861  45.812  20.062 -0.47 -0.01    -0.119 S  ATOM      6  C   UNL     1      42.184  46.803  19.631 -0.46 +0.00    +0.004 A  ATOM      7  C   UNL     1      43.285  47.044  20.605 -0.41 +0.02    +0.056 C  ATOM      8  C   UNL     1      42.049  47.288  18.345 -0.50 -0.00    +0.026 A  ATOM      9  C   UNL     1      40.845  46.841  17.688 -0.50 -0.00    +0.019 A  ATOM     10  C   UNL     1      40.303  47.081  16.394 -0.50 +0.00    -0.010 A  ENDROOTBRANCH   1  11ATOM     11  C   UNL     1      38.285  46.561  14.887 -0.47 +0.01    -0.019 C  ATOM     12  C   UNL     1      37.290  45.870  12.926 -0.52 +0.02    -0.052 C  ATOM     13  C   UNL     1      37.924  45.490  14.161 -0.47 -0.00    +0.009 C  ATOM     14  C   UNL     1      37.413  47.370  12.795 -0.63 -0.01    +0.020 C  ATOM     15  C   UNL     1      37.865  47.826  14.201 -0.56 -0.02    +0.046 C  ATOM     16  C   UNL     1      36.721  45.015  12.071 -0.59 -0.00    +0.013 C  ATOM     17  C   UNL     1      36.146  48.088  12.345 -0.66 -0.01    +0.013 C  ENDBRANCH   1  11BRANCH  10  18ATOM     18  C   UNL     1      41.013  47.991  15.423 -0.50 -0.00    +0.038 C  BRANCH  18  19ATOM     19  C   UNL     1      40.741  49.470  15.710 -0.73 -0.00    +0.001 C  ATOM     20  C   UNL     1      41.702  50.368  14.946 -0.75 -0.00    +0.004 C  ENDBRANCH  18  19ENDBRANCH  10  18TORSDOF 3TERENDMDL