MODEL        5USER    Run = 5USERUSER    Estimated Free Energy of Binding    =  -6.96 kcal/mol  [=(1)+(2)+(3)-(4)]USERUSER    (1) Final Intermolecular Energy     = -11.13 kcal/molUSER        vdW + Hbond + desolv Energy     = -11.53 kcal/molUSER        Electrostatic Energy            =  -0.07 kcal/molUSER        Moving Ligand-Fixed Receptor    = -11.60 kcal/molUSER        Moving Ligand-Moving Receptor   =  +0.47 kcal/molUSER    (2) Final Total Internal Energy     =  -2.95 kcal/molUSER    (3) Torsional Free Energy           =  +4.18 kcal/molUSER    (4) Unbound System's Energy         =  -2.95 kcal/molUSERUSERREMARK SMILES COc1ccc(O)c(C(=O)c2ccc(C(=O)N[C@@H]3CCCNC[C@H]3NC(=O)c3ccc(F)nc3)cc2)c1FREMARK SMILES IDX 15 1 16 2 17 3 14 5 11 6 12 7 36 8 13 9 35 10 9 11 10 12REMARK SMILES IDX 8 13 3 14 4 15 37 16 5 17 6 18 38 19 2 20 1 21 7 22 18 24REMARK SMILES IDX 19 25 24 27 23 28 22 29 21 31 20 32 25 34 26 35 27 37 28 38REMARK SMILES IDX 29 39 34 40 30 41 33 42 31 43 32 44REMARK H PARENT 17 4 7 23 22 30 25 36REMARK Flexibility Score:   88.900USER                              x       y       z     vdW  Elec       q    TypeUSER                           _______ _______ _______ _____ _____    ______ ____ROOTATOM      1  C   UNL     1      37.481  44.137  17.773 -0.14 -0.05    +0.251 C  ATOM      2  O   UNL     1      38.171  43.730  16.844 +0.05 +0.05    -0.269 OA ATOM      3  N   UNL     1      37.990  44.902  18.804 -0.16 +0.05    -0.347 N  ATOM      4  H   UNL     1      37.339  45.488  19.316 +0.09 -0.02    +0.164 HD ENDROOTBRANCH   1   5ATOM      5  C   UNL     1      36.018  43.847  17.808 -0.29 -0.01    +0.039 A  ATOM      6  C   UNL     1      33.281  43.227  17.783 -0.31 -0.01    +0.023 A  ATOM      7  C   UNL     1      33.846  43.876  18.887 -0.37 -0.00    +0.013 A  ATOM      8  C   UNL     1      34.079  42.905  16.680 -0.38 -0.01    +0.013 A  ATOM      9  C   UNL     1      35.212  44.173  18.906 -0.36 -0.00    +0.014 A  ATOM     10  C   UNL     1      35.444  43.208  16.700 -0.40 -0.01    +0.014 A  BRANCH   6  11ATOM     11  C   UNL     1      31.825  42.956  17.795 -0.23 -0.04    +0.199 C  ATOM     12  O   UNL     1      31.053  43.839  17.414 -0.21 +0.05    -0.288 OA BRANCH  11  13ATOM     13  C   UNL     1      31.251  41.653  18.195 -0.22 -0.01    +0.104 A  ATOM     14  C   UNL     1      31.286  39.624  19.548 -0.29 +0.02    +0.155 A  ATOM     15  C   UNL     1      30.126  39.182  18.910 -0.31 +0.01    +0.053 A  ATOM     16  C   UNL     1      31.836  40.863  19.186 -0.21 +0.01    +0.179 A  ATOM     17  C   UNL     1      29.514  39.979  17.939 -0.28 +0.00    +0.051 A  ATOM     18  C   UNL     1      30.066  41.211  17.596 -0.20 -0.02    +0.130 A  ATOM     19  F   UNL     1      32.930  41.296  19.834 -0.02 -0.05    -0.202 F  BRANCH  14  20ATOM     20  O   UNL     1      31.962  38.942  20.526 -0.93 -0.17    -0.494 OA ATOM     21  C   UNL     1      31.203  38.096  21.377 -0.36 +0.03    +0.278 C  ENDBRANCH  14  20BRANCH  18  22ATOM     22  O   UNL     1      29.387  41.942  16.658 -0.03 +0.14    -0.507 OA ATOM     23  H   UNL     1      29.713  42.870  16.705 +0.18 -0.09    +0.293 HD ENDBRANCH  18  22ENDBRANCH  11  13ENDBRANCH   6  11ENDBRANCH   1   5BRANCH   3  24ATOM     24  C   UNL     1      39.353  45.421  18.752 -0.41 -0.01    +0.106 C  BRANCH  24  25ATOM     25  C   UNL     1      39.951  45.523  20.167 -0.41 +0.00    +0.028 CG0ATOM     26  G   UNL     1      41.086  46.523  20.380 +0.00 +0.00    +0.000 G0 ENDBRANCH  24  25BRANCH  24  27ATOM     27  C   UNL     1      39.462  46.723  17.904 -0.35 -0.02    +0.118 C  BRANCH  27  28ATOM     28  C   UNL     1      40.895  47.336  17.885 -0.50 -0.01    +0.108 C  BRANCH  28  29ATOM     29  N   UNL     1      42.042  46.445  18.137 -0.15 +0.01    -0.315 NA ATOM     30  H   UNL     1      41.795  45.528  17.754 -0.03 +0.00    +0.122 HD BRANCH  29  31ATOM     31  C   UNL     1      42.338  46.291  19.558 -0.36 +0.02    +0.081 C  BRANCH  31  32ATOM     32  C   UNL     1      41.082  46.525  20.386 -0.03 +0.00    +0.017 CG0ATOM     33  G   UNL     1      39.950  45.522  20.166 +0.00 +0.00    +0.000 G0 ENDBRANCH  31  32ENDBRANCH  29  31ENDBRANCH  28  29ENDBRANCH  27  28BRANCH  27  34ATOM     34  N   UNL     1      38.895  46.540  16.554 -0.18 +0.10    -0.346 N  ATOM     35  C   UNL     1      38.583  47.632  15.763 -0.34 -0.12    +0.253 C  ATOM     36  H   UNL     1      38.290  45.738  16.440 +0.11 -0.05    +0.164 HD ATOM     37  O   UNL     1      38.834  48.792  16.067 -0.31 +0.17    -0.269 OA BRANCH  35  38ATOM     38  C   UNL     1      37.865  47.349  14.498 -0.44 -0.03    +0.058 A  ATOM     39  C   UNL     1      37.610  46.027  14.123 -0.42 -0.01    +0.020 A  ATOM     40  C   UNL     1      37.394  48.361  13.670 -0.41 -0.06    +0.128 A  ATOM     41  C   UNL     1      36.928  45.773  12.933 -0.49 -0.02    +0.061 A  ATOM     42  N   UNL     1      36.736  48.142  12.506 -0.97 +0.07    -0.227 NA ATOM     43  C   UNL     1      36.520  46.853  12.166 -0.50 -0.09    +0.212 A  ATOM     44  F   UNL     1      35.871  46.613  11.018 +0.02 +0.10    -0.185 F  ENDBRANCH  35  38ENDBRANCH  27  34ENDBRANCH  24  27ENDBRANCH   3  24TORSDOF 8TERENDMDL