REMARK SMILES COc1ccc(O)c(C(=O)c2ccc(S(=O)(=O)N[C@@H]3CCCN[C@H](C)[C@H]3NC(=O)c3ccncc3)cc2)c1F
REMARK SMILES IDX 18 1 15 3 16 4 17 5 14 6 11 7 12 8 37 9 13 10 36 11 9 12
REMARK SMILES IDX 10 13 8 14 3 15 4 16 38 17 5 18 6 19 39 20 2 21 1 22 7 23
REMARK SMILES IDX 19 25 26 27 24 28 25 29 23 30 22 32 21 33 20 34 27 36 28 37
REMARK SMILES IDX 29 39 30 40 31 41 35 42 32 43 34 44 33 45
REMARK H PARENT 18 2 7 24 23 31 27 38
REMARK Flexibility Score:   99.900
ROOT
ATOM      1  N   UNL     1      -1.957  -2.118   2.968  1.00  0.00    -0.206 NA
ATOM      2  H   UNL     1      -2.568  -2.931   3.004  1.00  0.00     0.141 HD
ENDROOT
BRANCH   1   3
ATOM      3  S   UNL     1      -0.591  -2.168   3.926  1.00  0.00     0.240 S 
ATOM      4  O   UNL     1      -0.600  -0.988   4.761  1.00  0.00    -0.207 OA
ATOM      5  O   UNL     1      -0.520  -3.501   4.478  1.00  0.00    -0.207 OA
BRANCH   3   6
ATOM      6  C   UNL     1       0.720  -2.011   2.740  1.00  0.00     0.082 A 
ATOM      7  C   UNL     1       2.690  -1.695   0.794  1.00  0.00     0.023 A 
ATOM      8  C   UNL     1       2.627  -0.807   1.875  1.00  0.00     0.013 A 
ATOM      9  C   UNL     1       1.797  -2.773   0.721  1.00  0.00     0.013 A 
ATOM     10  C   UNL     1       1.630  -0.955   2.843  1.00  0.00     0.022 A 
ATOM     11  C   UNL     1       0.812  -2.936   1.696  1.00  0.00     0.022 A 
BRANCH   7  12
ATOM     12  C   UNL     1       3.727  -1.576  -0.259  1.00  0.00     0.199 C 
ATOM     13  O   UNL     1       4.237  -2.611  -0.696  1.00  0.00    -0.288 OA
BRANCH  12  14
ATOM     14  C   UNL     1       4.222  -0.284  -0.792  1.00  0.00     0.104 A 
ATOM     15  C   UNL     1       3.938   2.086  -1.305  1.00  0.00     0.155 A 
ATOM     16  C   UNL     1       5.236   2.133  -1.816  1.00  0.00     0.053 A 
ATOM     17  C   UNL     1       3.440   0.874  -0.801  1.00  0.00     0.179 A 
ATOM     18  C   UNL     1       6.017   0.977  -1.841  1.00  0.00     0.051 A 
ATOM     19  C   UNL     1       5.509  -0.222  -1.345  1.00  0.00     0.130 A 
ATOM     20  F   UNL     1       2.177   0.845  -0.346  1.00  0.00    -0.202 F 
BRANCH  15  21
ATOM     21  O   UNL     1       3.089   3.158  -1.222  1.00  0.00    -0.494 OA
ATOM     22  C   UNL     1       3.410   4.288  -2.028  1.00  0.00     0.278 C 
ENDBRANCH  15  21
BRANCH  19  23
ATOM     23  O   UNL     1       6.339  -1.308  -1.433  1.00  0.00    -0.507 OA
ATOM     24  H   UNL     1       5.808  -2.112  -1.227  1.00  0.00     0.293 HD
ENDBRANCH  19  23
ENDBRANCH  12  14
ENDBRANCH   7  12
ENDBRANCH   3   6
ENDBRANCH   1   3
BRANCH   1  25
ATOM     25  C   UNL     1      -2.371  -0.881   2.282  1.00  0.00     0.094 CG0
ATOM     26  G   UNL     1      -3.693  -0.411   2.897  1.00  0.00     0.000 G0
BRANCH  25  27
ATOM     27  C   UNL     1      -2.342  -1.090   0.742  1.00  0.00     0.117 C 
BRANCH  27  28
ATOM     28  C   UNL     1      -3.666  -1.591   0.069  1.00  0.00     0.074 C 
ATOM     29  C   UNL     1      -3.837  -3.102   0.265  1.00  0.00     0.026 C 
BRANCH  28  30
ATOM     30  N   UNL     1      -4.943  -0.971   0.468  1.00  0.00    -0.312 NA
ATOM     31  H   UNL     1      -5.630  -1.147  -0.267  1.00  0.00     0.123 HD
BRANCH  30  32
ATOM     32  C   UNL     1      -4.877   0.451   0.752  1.00  0.00     0.081 C 
BRANCH  32  33
ATOM     33  C   UNL     1      -4.362   0.754   2.165  1.00  0.00     0.017 C 
BRANCH  33  34
ATOM     34  C   UNL     1      -3.693  -0.411   2.897  1.00  0.00     0.023 CG0
ATOM     35  G   UNL     1      -2.371  -0.881   2.282  1.00  0.00     0.000 G0
ENDBRANCH  33  34
ENDBRANCH  32  33
ENDBRANCH  30  32
ENDBRANCH  28  30
ENDBRANCH  27  28
BRANCH  27  36
ATOM     36  N   UNL     1      -1.809   0.109   0.068  1.00  0.00    -0.346 N 
ATOM     37  C   UNL     1      -1.160   0.016  -1.148  1.00  0.00     0.251 C 
ATOM     38  H   UNL     1      -2.147   1.011   0.369  1.00  0.00     0.164 HD
ATOM     39  O   UNL     1      -0.940  -1.051  -1.709  1.00  0.00    -0.269 OA
BRANCH  37  40
ATOM     40  C   UNL     1      -0.774   1.297  -1.799  1.00  0.00     0.042 A 
ATOM     41  C   UNL     1      -0.555   2.466  -1.071  1.00  0.00     0.034 A 
ATOM     42  C   UNL     1      -0.610   1.309  -3.185  1.00  0.00     0.034 A 
ATOM     43  C   UNL     1      -0.212   3.608  -1.772  1.00  0.00     0.112 A 
ATOM     44  C   UNL     1      -0.263   2.503  -3.790  1.00  0.00     0.112 A 
ATOM     45  N   UNL     1      -0.070   3.656  -3.115  1.00  0.00    -0.265 NA
ENDBRANCH  37  40
ENDBRANCH  27  36
ENDBRANCH  25  27
ENDBRANCH   1  25
TORSDOF 9
