MODEL        8USER    Run = 8USERUSER    Estimated Free Energy of Binding    =  -8.30 kcal/mol  [=(1)+(2)+(3)-(4)]USERUSER    (1) Final Intermolecular Energy     = -12.77 kcal/molUSER        vdW + Hbond + desolv Energy     = -13.40 kcal/molUSER        Electrostatic Energy            =  -0.44 kcal/molUSER        Moving Ligand-Fixed Receptor    = -13.85 kcal/molUSER        Moving Ligand-Moving Receptor   =  +1.07 kcal/molUSER    (2) Final Total Internal Energy     =  -2.59 kcal/molUSER    (3) Torsional Free Energy           =  +4.47 kcal/molUSER    (4) Unbound System's Energy         =  -2.59 kcal/molUSERUSERREMARK SMILES COc1ccc(O)c(C(=O)c2ccc(S(=O)(=O)N[C@@H]3CCCN[C@H](C)[C@H]3NC(=O)c3ccncc3)cc2)c1FREMARK SMILES IDX 18 1 15 3 16 4 17 5 14 6 11 7 12 8 37 9 13 10 36 11 9 12REMARK SMILES IDX 10 13 8 14 3 15 4 16 38 17 5 18 6 19 39 20 2 21 1 22 7 23REMARK SMILES IDX 19 25 26 27 24 28 25 29 23 30 22 32 21 33 20 34 27 36 28 37REMARK SMILES IDX 29 39 30 40 31 41 35 42 32 43 34 44 33 45REMARK H PARENT 18 2 7 24 23 31 27 38REMARK Flexibility Score:   99.900USER                              x       y       z     vdW  Elec       q    TypeUSER                           _______ _______ _______ _____ _____    ______ ____ROOTATOM      1  N   UNL     1      31.917  43.782  15.047 -0.24 +0.12    -0.206 NA ATOM      2  H   UNL     1      32.017  43.390  14.113 +0.08 -0.08    +0.141 HD ENDROOTBRANCH   1   3ATOM      3  S   UNL     1      30.648  44.841  15.281 -0.40 -0.13    +0.240 S  ATOM      4  O   UNL     1      30.971  45.664  16.424 -0.80 +0.02    -0.207 OA ATOM      5  O   UNL     1      30.337  45.407  13.988 -0.38 +0.19    -0.207 OA BRANCH   3   6ATOM      6  C   UNL     1      29.315  43.757  15.723 -0.22 -0.05    +0.082 A  ATOM      7  C   UNL     1      27.176  42.060  16.285 -0.23 -0.01    +0.023 A  ATOM      8  C   UNL     1      28.441  41.523  16.013 -0.30 -0.00    +0.013 A  ATOM      9  C   UNL     1      27.000  43.450  16.329 -0.25 -0.00    +0.013 A  ATOM     10  C   UNL     1      29.510  42.373  15.716 -0.27 -0.01    +0.022 A  ATOM     11  C   UNL     1      28.070  44.302  16.051 -0.26 -0.01    +0.022 A  BRANCH   7  12ATOM     12  C   UNL     1      26.011  41.199  16.603 -0.23 -0.02    +0.199 C  ATOM     13  O   UNL     1      25.232  40.911  15.690 -0.25 +0.03    -0.288 OA BRANCH  12  14ATOM     14  C   UNL     1      25.699  40.696  17.962 -0.21 -0.01    +0.104 A  ATOM     15  C   UNL     1      25.528  40.984  20.380 -0.27 -0.03    +0.155 A  ATOM     16  C   UNL     1      25.080  39.668  20.507 -0.30 -0.02    +0.053 A  ATOM     17  C   UNL     1      25.839  41.485  19.106 -0.18 -0.03    +0.179 A  ATOM     18  C   UNL     1      24.965  38.859  19.376 -0.30 -0.03    +0.051 A  ATOM     19  C   UNL     1      25.284  39.365  18.118 -0.28 -0.01    +0.130 A  ATOM     20  F   UNL     1      26.300  42.743  19.012 -0.07 +0.03    -0.202 F  BRANCH  15  21ATOM     21  O   UNL     1      25.668  41.868  21.417 -0.30 +0.09    -0.494 OA ATOM     22  C   UNL     1      24.512  42.621  21.773 -0.46 -0.09    +0.278 C  ENDBRANCH  15  21BRANCH  19  23ATOM     23  O   UNL     1      25.163  38.491  17.071 -0.70 -0.10    -0.507 OA ATOM     24  H   UNL     1      24.624  38.929  16.372 +0.00 -0.08    +0.293 HD ENDBRANCH  19  23ENDBRANCH  12  14ENDBRANCH   7  12ENDBRANCH   3   6ENDBRANCH   1   3BRANCH   1  25ATOM     25  C   UNL     1      32.962  43.596  16.070 -0.33 -0.05    +0.094 CG0ATOM     26  G   UNL     1      32.493  42.511  17.044 +0.00 +0.00    +0.000 G0 BRANCH  25  27ATOM     27  C   UNL     1      33.362  44.969  16.679 -0.30 -0.07    +0.117 C  BRANCH  27  28ATOM     28  C   UNL     1      34.009  44.950  18.107 -0.39 -0.03    +0.074 C  ATOM     29  C   UNL     1      34.066  46.364  18.697 -0.53 -0.02    +0.026 C  BRANCH  28  30ATOM     30  N   UNL     1      33.413  44.088  19.144 -0.21 +0.06    -0.312 NA ATOM     31  H   UNL     1      33.829  43.158  19.069 +0.09 -0.01    +0.123 HD BRANCH  30  32ATOM     32  C   UNL     1      31.966  43.985  19.105 -0.26 -0.00    +0.081 C  BRANCH  32  33ATOM     33  C   UNL     1      31.468  42.955  18.083 -0.33 -0.00    +0.017 C  BRANCH  33  34ATOM     34  C   UNL     1      32.490  42.501  17.040 -0.36 -0.01    +0.023 CG0ATOM     35  G   UNL     1      32.958  43.599  16.079 +0.00 +0.00    +0.000 G0 ENDBRANCH  33  34ENDBRANCH  32  33ENDBRANCH  30  32ENDBRANCH  28  30ENDBRANCH  27  28BRANCH  27  36ATOM     36  N   UNL     1      34.177  45.741  15.723 -0.07 +0.37    -0.346 N  ATOM     37  C   UNL     1      35.436  45.313  15.347 -0.23 -0.16    +0.251 C  ATOM     38  H   UNL     1      33.711  46.433  15.155 -0.21 -0.28    +0.164 HD ATOM     39  O   UNL     1      35.969  44.314  15.815 -0.23 +0.11    -0.269 OA BRANCH  37  40ATOM     40  C   UNL     1      36.119  46.098  14.284 -0.40 -0.03    +0.042 A  ATOM     41  C   UNL     1      37.404  46.614  14.449 -0.40 -0.02    +0.034 A  ATOM     42  C   UNL     1      35.446  46.300  13.078 -0.46 -0.02    +0.034 A  ATOM     43  C   UNL     1      37.946  47.341  13.404 -0.42 -0.03    +0.112 A  ATOM     44  C   UNL     1      36.077  47.040  12.095 -0.56 -0.06    +0.112 A  ATOM     45  N   UNL     1      37.309  47.573  12.235 -1.00 +0.05    -0.265 NA ENDBRANCH  37  40ENDBRANCH  27  36ENDBRANCH  25  27ENDBRANCH   1  25TORSDOF 9TERENDMDL