MODEL        7USER    Run = 7USERUSER    Estimated Free Energy of Binding    =  -9.80 kcal/mol  [=(1)+(2)+(3)-(4)]USERUSER    (1) Final Intermolecular Energy     = -11.59 kcal/molUSER        vdW + Hbond + desolv Energy     = -11.57 kcal/molUSER        Electrostatic Energy            =  -0.02 kcal/molUSER        Moving Ligand-Fixed Receptor    = -11.59 kcal/molUSER        Moving Ligand-Moving Receptor   =  +0.00 kcal/molUSER    (2) Final Total Internal Energy     =  -1.88 kcal/molUSER    (3) Torsional Free Energy           =  +1.79 kcal/molUSER    (4) Unbound System's Energy         =  -1.88 kcal/molUSERUSERREMARK SMILES CNC(=O)c1cc(-c2nc3ncc(F)cc3[nH]2)ccc1CN1CC[C@H](n2c(O)nc3ncccc32)[C@H](C)C1REMARK SMILES IDX 22 1 23 2 24 3 25 4 36 5 37 6 38 7 21 8 20 9 5 10 6 11 7 12REMARK SMILES IDX 19 13 18 14 3 15 2 16 1 17 4 19 8 20 9 21 17 22 10 23 16 24REMARK SMILES IDX 11 25 15 26 12 27 13 28 14 30 26 31 27 32 35 33 29 34 34 35REMARK SMILES IDX 30 36 33 37 31 38 32 39 28 40REMARK H PARENT 2 18 17 29 28 41USER                              x       y       z     vdW  Elec       q    TypeUSER                           _______ _______ _______ _____ _____    ______ ____ROOTATOM      1  N   UNL     1      40.075  42.848  24.848 -0.09 -0.01    -0.299 NA ATOM      2  C   UNL     1      38.949  42.601  23.947 -0.14 +0.01    +0.087 C  ATOM      3  C   UNL     1      37.594  42.855  24.594 -0.37 +0.00    +0.041 C  ATOM      4  C   UNL     1      37.398  41.949  25.822 -0.35 -0.01    +0.098 C  ATOM      5  C   UNL     1      38.730  41.635  26.558 -0.35 -0.00    +0.023 C  ATOM      6  C   UNL     1      38.601  41.369  28.059 -0.45 -0.00    +0.011 C  ATOM      7  C   UNL     1      39.788  42.710  26.276 -0.20 -0.00    +0.090 C  ENDROOTBRANCH   1   8ATOM      8  C   UNL     1      40.844  44.046  24.495 -0.13 +0.00    +0.120 C  BRANCH   8   9ATOM      9  C   UNL     1      40.557  44.538  23.089 -0.18 -0.00    -0.021 A  ATOM     10  C   UNL     1      39.573  45.503  22.796 -0.26 +0.00    +0.045 A  ATOM     11  C   UNL     1      39.332  45.865  21.457 -0.23 +0.00    +0.026 A  ATOM     12  C   UNL     1      40.069  45.312  20.400 -0.36 +0.00    +0.018 A  ATOM     13  C   UNL     1      41.307  44.000  22.024 -0.29 +0.00    +0.006 A  ATOM     14  C   UNL     1      41.070  44.385  20.699 -0.34 +0.00    +0.012 A  BRANCH  10  15ATOM     15  C   UNL     1      38.766  46.179  23.862 -0.22 +0.03    +0.251 C  ATOM     16  N   UNL     1      39.290  47.368  24.334 -0.15 -0.04    -0.355 N  ATOM     17  C   UNL     1      38.653  48.080  25.414 -0.30 +0.01    +0.143 C  ATOM     18  H   UNL     1      40.232  47.634  24.075 +0.07 +0.02    +0.163 HD ATOM     19  O   UNL     1      37.736  45.693  24.307 -0.55 -0.05    -0.269 OA ENDBRANCH  10  15BRANCH  12  20ATOM     20  C   UNL     1      39.768  45.734  19.029 -0.34 -0.01    +0.140 A  ATOM     21  N   UNL     1      40.606  46.358  18.218 -0.34 +0.01    -0.209 NA ATOM     22  N   UNL     1      38.548  45.562  18.409 -0.19 +0.05    -0.336 N  ATOM     23  C   UNL     1      39.915  46.584  17.063 -0.35 -0.03    +0.178 A  ATOM     24  C   UNL     1      38.617  46.099  17.152 -0.35 -0.02    +0.088 A  ATOM     25  N   UNL     1      40.405  47.205  15.965 -0.30 +0.04    -0.232 NA ATOM     26  C   UNL     1      37.706  46.216  16.105 -0.33 -0.03    +0.071 A  ATOM     27  C   UNL     1      39.515  47.317  14.951 -0.37 -0.04    +0.153 A  ATOM     28  C   UNL     1      38.204  46.855  14.974 -0.32 -0.06    +0.143 A  ATOM     29  H   UNL     1      37.732  45.140  18.829 +0.10 -0.02    +0.168 HD ATOM     30  F   UNL     1      37.413  47.025  13.907 -0.10 +0.09    -0.205 F  ENDBRANCH  12  20ENDBRANCH   8   9ENDBRANCH   1   8BRANCH   4  31ATOM     31  N   UNL     1      36.285  42.382  26.661 -0.23 +0.05    -0.289 N  ATOM     32  C   UNL     1      35.184  41.611  26.939 -0.33 -0.09    +0.296 A  ATOM     33  C   UNL     1      36.102  43.576  27.323 -0.40 -0.02    +0.091 A  ATOM     34  N   UNL     1      34.317  42.196  27.717 -0.33 +0.05    -0.175 NA ATOM     35  C   UNL     1      36.827  44.762  27.458 -0.38 -0.01    +0.032 A  ATOM     36  C   UNL     1      34.871  43.418  27.966 -0.45 -0.05    +0.181 A  ATOM     37  C   UNL     1      36.245  45.746  28.256 -0.32 -0.01    +0.022 A  ATOM     38  N   UNL     1      34.304  44.366  28.743 -0.50 +0.05    -0.235 NA ATOM     39  C   UNL     1      35.019  45.502  28.857 -0.32 -0.03    +0.114 A  BRANCH  32  40ATOM     40  O   UNL     1      34.995  40.385  26.493 -0.26 +0.28    -0.480 OA ATOM     41  H   UNL     1      35.893  40.012  26.566 -0.29 -0.19    +0.296 HD ENDBRANCH  32  40ENDBRANCH   4  31TORSDOF 6TERENDMDL