MODEL        2USER    Run = 2USERUSER    Estimated Free Energy of Binding    = -10.67 kcal/mol  [=(1)+(2)+(3)-(4)]USERUSER    (1) Final Intermolecular Energy     = -13.05 kcal/molUSER        vdW + Hbond + desolv Energy     = -12.91 kcal/molUSER        Electrostatic Energy            =  -0.14 kcal/molUSER        Moving Ligand-Fixed Receptor    = -13.05 kcal/molUSER        Moving Ligand-Moving Receptor   =  +0.00 kcal/molUSER    (2) Final Total Internal Energy     =  -2.35 kcal/molUSER    (3) Torsional Free Energy           =  +2.39 kcal/molUSER    (4) Unbound System's Energy         =  -2.35 kcal/molUSERUSERREMARK SMILES CN[C@H]1CN(c2ncccn2)CC[C@H]1Cc1c(F)ccc(-c2nnc(N)nc2-c2ccncc2)c1OREMARK SMILES IDX 16 1 17 2 18 3 19 4 20 5 21 6 35 7 15 8 14 9 3 10 4 11 5 12REMARK SMILES IDX 13 13 12 14 2 15 1 16 6 18 7 19 11 20 8 21 10 22 9 23 36 24REMARK SMILES IDX 22 26 23 27 28 28 24 29 27 30 25 31 29 32 30 33 34 34 31 35REMARK SMILES IDX 33 36 32 37 26 38REMARK H PARENT 2 17 36 25 26 39 26 40USER                              x       y       z     vdW  Elec       q    TypeUSER                           _______ _______ _______ _____ _____    ______ ____ROOTATOM      1  C   UNL     1      39.506  44.938  18.710 -0.40 -0.00    +0.031 A  ATOM      2  C   UNL     1      38.136  44.756  18.481 -0.29 -0.02    +0.130 A  ATOM      3  F   UNL     1      37.463  43.808  19.147 -0.06 +0.02    -0.207 F  ATOM      4  C   UNL     1      37.432  45.538  17.572 -0.34 -0.01    +0.040 A  ATOM      5  C   UNL     1      38.094  46.537  16.861 -0.37 -0.01    +0.017 A  ATOM      6  C   UNL     1      39.469  46.753  17.047 -0.43 -0.01    +0.047 A  ATOM      7  C   UNL     1      40.159  45.947  17.978 -0.38 -0.01    +0.131 A  ENDROOTBRANCH   1   8ATOM      8  C   UNL     1      40.212  44.058  19.717 -0.18 +0.00    +0.048 C  BRANCH   8   9ATOM      9  C   UNL     1      39.916  44.443  21.186 -0.35 +0.00    +0.014 C  ATOM     10  C   UNL     1      41.023  45.300  21.858 -0.27 +0.01    +0.076 C  ATOM     11  C   UNL     1      40.620  45.575  23.336 -0.16 +0.01    +0.138 C  ATOM     12  N   UNL     1      39.280  46.167  23.433 -0.14 -0.03    -0.339 N  ATOM     13  C   UNL     1      38.559  45.157  21.293 -0.35 +0.00    +0.027 C  ATOM     14  C   UNL     1      38.196  45.462  22.749 -0.26 +0.01    +0.120 C  BRANCH  10  15ATOM     15  N   UNL     1      41.395  46.454  21.009 -0.11 -0.03    -0.315 NA ATOM     16  C   UNL     1      42.744  46.976  21.160 -0.36 +0.02    +0.101 C  ATOM     17  H   UNL     1      41.251  46.205  20.030 +0.07 +0.01    +0.122 HD ENDBRANCH  10  15BRANCH  12  18ATOM     18  C   UNL     1      38.946  46.604  24.720 -0.16 +0.02    +0.225 A  ATOM     19  N   UNL     1      37.654  46.601  25.096 -0.77 -0.03    -0.221 NA ATOM     20  N   UNL     1      39.922  47.042  25.535 -0.09 -0.01    -0.221 NA ATOM     21  C   UNL     1      37.351  47.057  26.326 -0.29 -0.01    +0.117 A  ATOM     22  C   UNL     1      39.575  47.488  26.757 -0.17 +0.00    +0.117 A  ATOM     23  C   UNL     1      38.285  47.520  27.214 -0.22 -0.00    +0.040 A  ENDBRANCH  12  18ENDBRANCH   8   9ENDBRANCH   1   8BRANCH   7  24ATOM     24  O   UNL     1      41.505  46.177  18.118 -0.16 +0.01    -0.507 OA ATOM     25  H   UNL     1      41.849  46.650  17.345 -0.22 -0.05    +0.293 HD ENDBRANCH   7  24BRANCH   6  26ATOM     26  C   UNL     1      40.144  47.815  16.299 -0.44 -0.03    +0.123 A  ATOM     27  N   UNL     1      41.142  48.443  16.956 -0.69 +0.01    -0.144 NA ATOM     28  C   UNL     1      39.787  48.258  15.028 -0.47 -0.03    +0.103 A  ATOM     29  N   UNL     1      41.790  49.475  16.343 -1.02 -0.02    -0.111 NA ATOM     30  N   UNL     1      40.416  49.302  14.427 -0.34 +0.08    -0.210 NA ATOM     31  C   UNL     1      41.423  49.857  15.106 -0.46 -0.04    +0.240 A  BRANCH  28  32ATOM     32  C   UNL     1      38.681  47.695  14.241 -0.50 -0.00    +0.006 A  ATOM     33  C   UNL     1      38.662  46.351  13.853 -0.30 -0.01    +0.030 A  ATOM     34  C   UNL     1      37.617  48.508  13.830 -0.50 -0.01    +0.030 A  ATOM     35  C   UNL     1      37.590  45.881  13.112 -0.30 -0.03    +0.111 A  ATOM     36  C   UNL     1      36.589  47.947  13.090 -0.53 -0.05    +0.111 A  ATOM     37  N   UNL     1      36.548  46.648  12.729 -0.40 +0.12    -0.265 NA ENDBRANCH  28  32BRANCH  31  38ATOM     38  N   UNL     1      42.076  50.918  14.507 -0.28 +0.08    -0.366 N  ATOM     39  H   UNL     1      43.009  50.654  14.226 -0.07 -0.04    +0.159 HD ATOM     40  H   UNL     1      41.973  51.752  15.068 -0.15 -0.04    +0.159 HD ENDBRANCH  31  38ENDBRANCH   6  26TORSDOF 8TERENDMDL