MODEL        10USER    Run = 10USERUSER    Estimated Free Energy of Binding    = -10.19 kcal/mol  [=(1)+(2)+(3)-(4)]USERUSER    (1) Final Intermolecular Energy     = -11.98 kcal/molUSER        vdW + Hbond + desolv Energy     = -11.61 kcal/molUSER        Electrostatic Energy            =  -0.37 kcal/molUSER        Moving Ligand-Fixed Receptor    = -11.98 kcal/molUSER        Moving Ligand-Moving Receptor   =  +0.00 kcal/molUSER    (2) Final Total Internal Energy     =  -1.73 kcal/molUSER    (3) Torsional Free Energy           =  +1.79 kcal/molUSER    (4) Unbound System's Energy         =  -1.73 kcal/molUSERUSERREMARK SMILES CN(C)[C@H]1CN(Cc2ccc(-c3nc4ccccc4[nH]3)cc2)CC[C@@H]1n1c(O)nc2ncccc21REMARK SMILES IDX 4 1 5 2 6 3 23 4 24 5 25 6 2 7 1 8 3 9 26 10 27 11 35 12REMARK SMILES IDX 29 13 34 14 30 15 33 16 31 17 32 18 28 19 7 21 8 22 9 23REMARK SMILES IDX 22 24 10 25 21 26 11 27 12 28 13 29 20 30 14 31 19 32 15 33REMARK SMILES IDX 18 34 16 35 17 36REMARK H PARENT 28 20 20 37USER                              x       y       z     vdW  Elec       q    TypeUSER                           _______ _______ _______ _____ _____    ______ ____ROOTATOM      1  C   UNL     1      41.122  45.275  21.122 -0.32 +0.01    +0.093 C  ATOM      2  C   UNL     1      40.774  43.758  21.216 -0.21 +0.01    +0.106 C  ATOM      3  N   UNL     1      40.924  43.151  22.549 -0.16 -0.01    -0.297 NA ATOM      4  C   UNL     1      42.066  43.664  23.313 -0.22 +0.00    +0.087 C  ATOM      5  C   UNL     1      43.144  44.263  22.425 -0.26 +0.01    +0.043 C  ATOM      6  C   UNL     1      42.611  45.448  21.598 -0.25 +0.03    +0.112 C  ENDROOTBRANCH   1   7ATOM      7  N   UNL     1      40.899  45.836  19.744 -0.22 -0.02    -0.303 NA ATOM      8  C   UNL     1      40.606  44.784  18.761 -0.42 +0.00    +0.105 C  ATOM      9  C   UNL     1      42.055  46.604  19.256 -0.48 +0.01    +0.105 C  ENDBRANCH   1   7BRANCH   6  10ATOM     10  N   UNL     1      42.902  46.710  22.283 -0.14 -0.07    -0.288 N  ATOM     11  C   UNL     1      43.994  47.522  22.135 -0.15 +0.10    +0.296 A  ATOM     12  C   UNL     1      42.065  47.345  23.179 -0.22 +0.01    +0.091 A  ATOM     13  N   UNL     1      43.954  48.593  22.879 -0.53 -0.05    -0.175 NA ATOM     14  C   UNL     1      40.810  47.059  23.720 -0.22 +0.00    +0.032 A  ATOM     15  C   UNL     1      42.759  48.501  23.533 -0.29 +0.04    +0.181 A  ATOM     16  C   UNL     1      40.319  47.997  24.625 -0.29 +0.00    +0.022 A  ATOM     17  N   UNL     1      42.289  49.414  24.411 -0.56 -0.07    -0.235 NA ATOM     18  C   UNL     1      41.077  49.123  24.926 -0.17 +0.02    +0.114 A  BRANCH  11  19ATOM     19  O   UNL     1      45.012  47.294  21.333 -0.66 -0.52    -0.480 OA ATOM     20  H   UNL     1      45.104  48.163  20.897 -0.32 +0.12    +0.296 HD ENDBRANCH  11  19ENDBRANCH   6  10BRANCH   3  21ATOM     21  C   UNL     1      39.674  43.217  23.327 -0.23 +0.01    +0.120 C  BRANCH  21  22ATOM     22  C   UNL     1      38.428  43.092  22.475 -0.30 -0.00    -0.034 A  ATOM     23  C   UNL     1      37.843  44.228  21.902 -0.37 +0.00    +0.006 A  ATOM     24  C   UNL     1      37.834  41.844  22.252 -0.35 +0.00    +0.006 A  ATOM     25  C   UNL     1      36.689  44.114  21.121 -0.37 +0.00    +0.012 A  ATOM     26  C   UNL     1      36.678  41.733  21.468 -0.54 +0.00    +0.012 A  ATOM     27  C   UNL     1      36.091  42.867  20.889 -0.44 +0.00    +0.017 A  BRANCH  27  28ATOM     28  C   UNL     1      34.882  42.799  20.058 -0.31 +0.00    +0.138 A  ATOM     29  N   UNL     1      33.795  43.539  20.211 -0.71 -0.01    -0.229 NA ATOM     30  N   UNL     1      34.718  41.953  18.983 -0.15 +0.04    -0.338 N  ATOM     31  C   UNL     1      32.922  43.156  19.225 -0.34 -0.01    +0.089 A  ATOM     32  C   UNL     1      33.477  42.158  18.437 -0.36 -0.01    +0.066 A  ATOM     33  C   UNL     1      31.630  43.618  18.939 -0.27 -0.00    +0.030 A  ATOM     34  C   UNL     1      32.814  41.576  17.355 -0.20 -0.01    +0.028 A  ATOM     35  C   UNL     1      30.940  43.052  17.859 -0.26 -0.00    +0.002 A  ATOM     36  C   UNL     1      31.525  42.048  17.082 -0.30 -0.00    +0.002 A  ATOM     37  H   UNL     1      35.402  41.299  18.642 -0.01 -0.02    +0.168 HD ENDBRANCH  27  28ENDBRANCH  21  22ENDBRANCH   3  21TORSDOF 6TERENDMDL