REMARK SMILES CNC(=O)c1cc(-c2nc3ncc(F)cc3[nH]2)ccc1CN1CC[C@H](n2c(O)nc3ncccc32)[C@H](C)C1
REMARK SMILES IDX 22 1 23 2 24 3 25 4 36 5 37 6 38 7 21 8 20 9 5 10 6 11 7 12
REMARK SMILES IDX 19 13 18 14 3 15 2 16 1 17 4 19 8 20 9 21 17 22 10 23 16 24
REMARK SMILES IDX 11 25 15 26 12 27 13 28 14 30 26 31 27 32 35 33 29 34 34 35
REMARK SMILES IDX 30 36 33 37 31 38 32 39 28 40
REMARK H PARENT 2 18 17 29 28 41
ROOT
ATOM      1  N   UNL     1      -1.233  -1.332   0.039  1.00  0.00    -0.299 NA
ATOM      2  C   UNL     1      -2.288  -2.346   0.035  1.00  0.00     0.087 C 
ATOM      3  C   UNL     1      -3.675  -1.769  -0.214  1.00  0.00     0.041 C 
ATOM      4  C   UNL     1      -4.041  -0.740   0.870  1.00  0.00     0.098 C 
ATOM      5  C   UNL     1      -2.804   0.027   1.413  1.00  0.00     0.023 C 
ATOM      6  C   UNL     1      -3.084   1.443   1.922  1.00  0.00     0.011 C 
ATOM      7  C   UNL     1      -1.655   0.022   0.396  1.00  0.00     0.090 C 
ENDROOT
BRANCH   1   8
ATOM      8  C   UNL     1      -0.357  -1.407  -1.135  1.00  0.00     0.120 C 
BRANCH   8   9
ATOM      9  C   UNL     1       1.020  -0.822  -0.883  1.00  0.00    -0.021 A 
ATOM     10  C   UNL     1       2.080  -1.561  -0.321  1.00  0.00     0.045 A 
ATOM     11  C   UNL     1       3.311  -0.928  -0.069  1.00  0.00     0.026 A 
ATOM     12  C   UNL     1       3.526   0.420  -0.390  1.00  0.00     0.018 A 
ATOM     13  C   UNL     1       1.248   0.527  -1.220  1.00  0.00     0.006 A 
ATOM     14  C   UNL     1       2.484   1.138  -0.982  1.00  0.00     0.012 A 
BRANCH  10  15
ATOM     15  C   UNL     1       1.957  -3.016   0.015  1.00  0.00     0.251 C 
ATOM     16  N   UNL     1       3.078  -3.780  -0.252  1.00  0.00    -0.355 N 
ATOM     17  C   UNL     1       3.066  -5.207  -0.047  1.00  0.00     0.143 C 
ATOM     18  H   UNL     1       3.836  -3.380  -0.791  1.00  0.00     0.163 HD
ATOM     19  O   UNL     1       0.925  -3.498   0.460  1.00  0.00    -0.269 OA
ENDBRANCH  10  15
BRANCH  12  20
ATOM     20  C   UNL     1       4.833   1.018  -0.102  1.00  0.00     0.140 A 
ATOM     21  N   UNL     1       5.952   0.347   0.114  1.00  0.00    -0.209 NA
ATOM     22  N   UNL     1       5.063   2.373   0.013  1.00  0.00    -0.336 N 
ATOM     23  C   UNL     1       6.911   1.284   0.367  1.00  0.00     0.178 A 
ATOM     24  C   UNL     1       6.384   2.568   0.314  1.00  0.00     0.088 A 
ATOM     25  N   UNL     1       8.209   1.022   0.643  1.00  0.00    -0.232 NA
ATOM     26  C   UNL     1       7.161   3.700   0.546  1.00  0.00     0.071 A 
ATOM     27  C   UNL     1       8.959   2.127   0.869  1.00  0.00     0.153 A 
ATOM     28  C   UNL     1       8.496   3.437   0.833  1.00  0.00     0.143 A 
ATOM     29  H   UNL     1       4.364   3.096  -0.077  1.00  0.00     0.168 HD
ATOM     30  F   UNL     1       9.334   4.453   1.075  1.00  0.00    -0.205 F 
ENDBRANCH  12  20
ENDBRANCH   8   9
ENDBRANCH   1   8
BRANCH   4  31
ATOM     31  N   UNL     1      -5.192   0.075   0.498  1.00  0.00    -0.289 N 
ATOM     32  C   UNL     1      -6.339   0.177   1.246  1.00  0.00     0.296 A 
ATOM     33  C   UNL     1      -5.376   0.877  -0.608  1.00  0.00     0.091 A 
ATOM     34  N   UNL     1      -7.235   0.968   0.727  1.00  0.00    -0.175 NA
ATOM     35  C   UNL     1      -4.618   1.214  -1.731  1.00  0.00     0.032 A 
ATOM     36  C   UNL     1      -6.654   1.412  -0.425  1.00  0.00     0.181 A 
ATOM     37  C   UNL     1      -5.216   2.096  -2.629  1.00  0.00     0.022 A 
ATOM     38  N   UNL     1      -7.238   2.270  -1.290  1.00  0.00    -0.235 NA
ATOM     39  C   UNL     1      -6.490   2.579  -2.367  1.00  0.00     0.114 A 
BRANCH  32  40
ATOM     40  O   UNL     1      -6.543  -0.439   2.393  1.00  0.00    -0.480 OA
ATOM     41  H   UNL     1      -7.442  -0.134   2.619  1.00  0.00     0.296 HD
ENDBRANCH  32  40
ENDBRANCH   4  31
TORSDOF 6
