REMARK SMILES CN[C@H]1CN(c2ncccn2)CC[C@H]1Cc1c(F)ccc(-c2nnc(N)nc2-c2ccncc2)c1O
REMARK SMILES IDX 16 1 17 2 18 3 19 4 20 5 21 6 35 7 15 8 14 9 3 10 4 11 5 12
REMARK SMILES IDX 13 13 12 14 2 15 1 16 6 18 7 19 11 20 8 21 10 22 9 23 36 24
REMARK SMILES IDX 22 26 23 27 28 28 24 29 27 30 25 31 29 32 30 33 34 34 31 35
REMARK SMILES IDX 33 36 32 37 26 38
REMARK H PARENT 2 17 36 25 26 39 26 40
ROOT
ATOM      1  C   UNL     1      -0.917  -1.164   0.049  1.00  0.00     0.031 A 
ATOM      2  C   UNL     1      -1.121  -2.108   1.064  1.00  0.00     0.130 A 
ATOM      3  F   UNL     1      -0.366  -3.214   1.116  1.00  0.00    -0.207 F 
ATOM      4  C   UNL     1      -2.095  -1.938   2.042  1.00  0.00     0.040 A 
ATOM      5  C   UNL     1      -2.900  -0.801   2.025  1.00  0.00     0.017 A 
ATOM      6  C   UNL     1      -2.742   0.170   1.023  1.00  0.00     0.047 A 
ATOM      7  C   UNL     1      -1.744  -0.026   0.045  1.00  0.00     0.131 A 
ENDROOT
BRANCH   1   8
ATOM      8  C   UNL     1       0.164  -1.406  -0.981  1.00  0.00     0.048 C 
BRANCH   8   9
ATOM      9  C   UNL     1       1.456  -0.596  -0.718  1.00  0.00     0.014 C 
ATOM     10  C   UNL     1       2.302  -1.113   0.477  1.00  0.00     0.076 C 
ATOM     11  C   UNL     1       3.540  -0.186   0.657  1.00  0.00     0.138 C 
ATOM     12  N   UNL     1       4.304  -0.052  -0.590  1.00  0.00    -0.339 N 
ATOM     13  C   UNL     1       2.320  -0.531  -1.987  1.00  0.00     0.027 C 
ATOM     14  C   UNL     1       3.557   0.348  -1.782  1.00  0.00     0.120 C 
BRANCH  10  15
ATOM     15  N   UNL     1       2.531  -2.572   0.378  1.00  0.00    -0.315 NA
ATOM     16  C   UNL     1       3.872  -3.006   0.018  1.00  0.00     0.101 C 
ATOM     17  H   UNL     1       2.276  -3.008   1.265  1.00  0.00     0.122 HD
ENDBRANCH  10  15
BRANCH  12  18
ATOM     18  C   UNL     1       5.524   0.617  -0.436  1.00  0.00     0.225 A 
ATOM     19  N   UNL     1       6.104   1.172  -1.516  1.00  0.00    -0.221 NA
ATOM     20  N   UNL     1       6.096   0.662   0.780  1.00  0.00    -0.221 NA
ATOM     21  C   UNL     1       7.294   1.782  -1.353  1.00  0.00     0.117 A 
ATOM     22  C   UNL     1       7.285   1.283   0.899  1.00  0.00     0.117 A 
ATOM     23  C   UNL     1       7.941   1.870  -0.150  1.00  0.00     0.040 A 
ENDBRANCH  12  18
ENDBRANCH   8   9
ENDBRANCH   1   8
BRANCH   7  24
ATOM     24  O   UNL     1      -1.633   0.936  -0.928  1.00  0.00    -0.507 OA
ATOM     25  H   UNL     1      -0.812   0.816  -1.430  1.00  0.00     0.293 HD
ENDBRANCH   7  24
BRANCH   6  26
ATOM     26  C   UNL     1      -3.590   1.363   1.030  1.00  0.00     0.123 A 
ATOM     27  N   UNL     1      -3.127   2.399   1.762  1.00  0.00    -0.144 NA
ATOM     28  C   UNL     1      -4.836   1.471   0.418  1.00  0.00     0.103 A 
ATOM     29  N   UNL     1      -3.882   3.532   1.856  1.00  0.00    -0.111 NA
ATOM     30  N   UNL     1      -5.599   2.590   0.532  1.00  0.00    -0.210 NA
ATOM     31  C   UNL     1      -5.072   3.597   1.232  1.00  0.00     0.240 A 
BRANCH  28  32
ATOM     32  C   UNL     1      -5.471   0.392  -0.351  1.00  0.00     0.006 A 
ATOM     33  C   UNL     1      -4.939  -0.059  -1.564  1.00  0.00     0.030 A 
ATOM     34  C   UNL     1      -6.656  -0.201   0.102  1.00  0.00     0.030 A 
ATOM     35  C   UNL     1      -5.584  -1.081  -2.242  1.00  0.00     0.111 A 
ATOM     36  C   UNL     1      -7.229  -1.216  -0.646  1.00  0.00     0.111 A 
ATOM     37  N   UNL     1      -6.714  -1.675  -1.805  1.00  0.00    -0.265 NA
ENDBRANCH  28  32
BRANCH  31  38
ATOM     38  N   UNL     1      -5.834   4.744   1.354  1.00  0.00    -0.366 N 
ATOM     39  H   UNL     1      -5.603   5.242   2.202  1.00  0.00     0.159 HD
ATOM     40  H   UNL     1      -6.808   4.535   1.183  1.00  0.00     0.159 HD
ENDBRANCH  31  38
ENDBRANCH   6  26
TORSDOF 8
