REMARK SMILES CN(C)[C@H]1CN(Cc2ccc(-c3nc4ccccc4[nH]3)cc2)CC[C@@H]1n1c(O)nc2ncccc21
REMARK SMILES IDX 4 1 5 2 6 3 23 4 24 5 25 6 2 7 1 8 3 9 26 10 27 11 35 12
REMARK SMILES IDX 29 13 34 14 30 15 33 16 31 17 32 18 28 19 7 21 8 22 9 23
REMARK SMILES IDX 22 24 10 25 21 26 11 27 12 28 13 29 20 30 14 31 19 32 15 33
REMARK SMILES IDX 18 34 16 35 17 36
REMARK H PARENT 28 20 20 37
ROOT
ATOM      1  C   UNL     1       3.101  -1.581   0.549  1.00  0.00     0.093 C 
ATOM      2  C   UNL     1       1.865  -2.062   1.369  1.00  0.00     0.106 C 
ATOM      3  N   UNL     1       0.622  -1.301   1.154  1.00  0.00    -0.297 NA
ATOM      4  C   UNL     1       0.829   0.138   0.963  1.00  0.00     0.087 C 
ATOM      5  C   UNL     1       2.140   0.626   1.558  1.00  0.00     0.043 C 
ATOM      6  C   UNL     1       3.354  -0.073   0.918  1.00  0.00     0.112 C 
ENDROOT
BRANCH   1   7
ATOM      7  N   UNL     1       4.319  -2.433   0.784  1.00  0.00    -0.303 NA
ATOM      8  C   UNL     1       5.440  -2.042  -0.082  1.00  0.00     0.105 C 
ATOM      9  C   UNL     1       4.055  -3.863   0.568  1.00  0.00     0.105 C 
ENDBRANCH   1   7
BRANCH   6  10
ATOM     10  N   UNL     1       3.892   0.750  -0.168  1.00  0.00    -0.288 N 
ATOM     11  C   UNL     1       3.459   0.831  -1.464  1.00  0.00     0.296 A 
ATOM     12  C   UNL     1       4.924   1.660  -0.047  1.00  0.00     0.091 A 
ATOM     13  N   UNL     1       4.139   1.674  -2.191  1.00  0.00    -0.175 NA
ATOM     14  C   UNL     1       5.751   2.070   1.001  1.00  0.00     0.032 A 
ATOM     15  C   UNL     1       5.053   2.202  -1.325  1.00  0.00     0.181 A 
ATOM     16  C   UNL     1       6.697   3.039   0.674  1.00  0.00     0.022 A 
ATOM     17  N   UNL     1       5.969   3.140  -1.649  1.00  0.00    -0.235 NA
ATOM     18  C   UNL     1       6.761   3.524  -0.627  1.00  0.00     0.114 A 
BRANCH  11  19
ATOM     19  O   UNL     1       2.457   0.150  -1.978  1.00  0.00    -0.480 OA
ATOM     20  H   UNL     1       2.464   0.474  -2.899  1.00  0.00     0.296 HD
ENDBRANCH  11  19
ENDBRANCH   6  10
BRANCH   3  21
ATOM     21  C   UNL     1      -0.197  -1.882   0.075  1.00  0.00     0.120 C 
BRANCH  21  22
ATOM     22  C   UNL     1      -1.594  -1.302   0.001  1.00  0.00    -0.034 A 
ATOM     23  C   UNL     1      -2.481  -1.449   1.075  1.00  0.00     0.006 A 
ATOM     24  C   UNL     1      -2.028  -0.619  -1.141  1.00  0.00     0.006 A 
ATOM     25  C   UNL     1      -3.773  -0.920   1.005  1.00  0.00     0.012 A 
ATOM     26  C   UNL     1      -3.323  -0.089  -1.208  1.00  0.00     0.012 A 
ATOM     27  C   UNL     1      -4.213  -0.230  -0.134  1.00  0.00     0.017 A 
BRANCH  27  28
ATOM     28  C   UNL     1      -5.579   0.310  -0.157  1.00  0.00     0.138 A 
ATOM     29  N   UNL     1      -6.515   0.086   0.751  1.00  0.00    -0.229 NA
ATOM     30  N   UNL     1      -6.073   1.146  -1.135  1.00  0.00    -0.338 N 
ATOM     31  C   UNL     1      -7.625   0.782   0.344  1.00  0.00     0.089 A 
ATOM     32  C   UNL     1      -7.375   1.458  -0.841  1.00  0.00     0.066 A 
ATOM     33  C   UNL     1      -8.890   0.885   0.939  1.00  0.00     0.030 A 
ATOM     34  C   UNL     1      -8.324   2.251  -1.489  1.00  0.00     0.028 A 
ATOM     35  C   UNL     1      -9.864   1.673   0.312  1.00  0.00     0.002 A 
ATOM     36  C   UNL     1      -9.582   2.344  -0.882  1.00  0.00     0.002 A 
ATOM     37  H   UNL     1      -5.559   1.485  -1.931  1.00  0.00     0.168 HD
ENDBRANCH  27  28
ENDBRANCH  21  22
ENDBRANCH   3  21
TORSDOF 6
