
     RDKit          3D

 51 54  0  0  0  0  0  0  0  0999 V2000
    4.1890    1.3528   -1.0560 C   0  0  0  0  0  0  0  0  0  0  0  0
    5.4303    0.9652   -0.4326 N   0  0  0  0  0  0  0  0  0  0  0  0
    6.1972    1.7979    0.3337 C   0  0  0  0  0  0  0  0  0  0  0  0
    7.3288    1.2294    0.6780 N   0  0  0  0  0  0  0  0  0  0  0  0
    7.2914   -0.0151    0.1089 C   0  0  0  0  0  0  0  0  0  0  0  0
    6.1004   -0.2284   -0.5584 C   0  0  0  0  0  0  0  0  0  0  0  0
    5.6928   -1.4040   -1.2748 C   0  0  0  0  0  0  0  0  0  0  0  0
    4.6362   -2.1273   -1.0742 N   0  0  0  0  0  0  0  0  0  0  0  0
    3.7616   -1.8520   -0.0265 C   0  0  0  0  0  0  0  0  0  0  0  0
    4.0962   -2.1151    1.2938 C   0  0  0  0  0  0  0  0  0  0  0  0
    3.1437   -1.8896    2.2829 C   0  0  0  0  0  0  0  0  0  0  0  0
    1.8703   -1.4446    1.9205 C   0  0  0  0  0  0  0  0  0  0  0  0
    0.8929   -1.1996    2.9365 C   0  0  0  0  0  0  0  0  0  0  0  0
    0.0998   -1.0019    3.7603 N   0  0  0  0  0  0  0  0  0  0  0  0
    1.5986   -1.2355    0.5644 C   0  0  0  0  0  0  0  0  0  0  0  0
    0.2828   -0.8190    0.0457 C   0  0  0  0  0  0  0  0  0  0  0  0
    0.1474    0.3669   -0.6990 C   0  0  0  0  0  0  0  0  0  0  0  0
   -1.0980    0.7776   -1.1863 C   0  0  0  0  0  0  0  0  0  0  0  0
   -2.2331    0.0040   -0.9311 C   0  0  0  0  0  0  0  0  0  0  0  0
   -3.5307    0.4487   -1.4707 C   0  0  0  0  0  0  0  0  0  0  0  0
   -3.5868    0.6845   -2.6761 O   0  0  0  0  0  0  0  0  0  0  0  0
   -4.6071    0.6188   -0.6096 N   0  0  0  0  0  0  0  0  0  0  0  0
   -4.5336    0.5978    0.8569 C   0  0  0  0  0  0  0  0  0  0  0  0
   -5.6036    1.4959    1.5055 C   0  0  0  0  0  0  0  0  0  0  0  0
   -6.9887    1.2096    1.0996 N   0  0  0  0  0  0  0  0  0  0  0  0
   -7.0681    0.6297   -0.2540 C   0  0  0  0  0  0  0  0  0  0  0  0
   -5.8996    1.0011   -1.1811 C   0  0  0  0  0  0  0  0  0  0  0  0
   -2.1057   -1.1957   -0.2395 C   0  0  0  0  0  0  0  0  0  0  0  0
   -3.1657   -1.9903   -0.0334 F   0  0  0  0  0  0  0  0  0  0  0  0
   -0.8653   -1.6045    0.2503 C   0  0  0  0  0  0  0  0  0  0  0  0
    2.5429   -1.4104   -0.3999 N   0  0  0  0  0  0  0  0  0  0  0  0
    4.2993    2.3653   -1.4544 H   0  0  0  0  0  0  0  0  0  0  0  0
    3.9509    0.6722   -1.8757 H   0  0  0  0  0  0  0  0  0  0  0  0
    3.4075    1.3361   -0.2938 H   0  0  0  0  0  0  0  0  0  0  0  0
    5.8930    2.8035    0.5960 H   0  0  0  0  0  0  0  0  0  0  0  0
    8.1193   -0.7039    0.2239 H   0  0  0  0  0  0  0  0  0  0  0  0
    6.3822   -1.7441   -2.0675 H   0  0  0  0  0  0  0  0  0  0  0  0
    5.0809   -2.4935    1.5466 H   0  0  0  0  0  0  0  0  0  0  0  0
    3.3970   -2.0748    3.3248 H   0  0  0  0  0  0  0  0  0  0  0  0
    1.0216    0.9778   -0.9139 H   0  0  0  0  0  0  0  0  0  0  0  0
   -1.1823    1.6924   -1.7696 H   0  0  0  0  0  0  0  0  0  0  0  0
   -3.5399    0.9176    1.1856 H   0  0  0  0  0  0  0  0  0  0  0  0
   -4.6836   -0.4398    1.1760 H   0  0  0  0  0  0  0  0  0  0  0  0
   -5.5301    1.4278    2.5966 H   0  0  0  0  0  0  0  0  0  0  0  0
   -5.3908    2.5401    1.2449 H   0  0  0  0  0  0  0  0  0  0  0  0
   -7.4142    0.5557    1.7563 H   0  0  0  0  0  0  0  0  0  0  0  0
   -8.0147    0.9376   -0.7104 H   0  0  0  0  0  0  0  0  0  0  0  0
   -7.0998   -0.4632   -0.1568 H   0  0  0  0  0  0  0  0  0  0  0  0
   -5.8750    2.0843   -1.3520 H   0  0  0  0  0  0  0  0  0  0  0  0
   -6.0269    0.5159   -2.1554 H   0  0  0  0  0  0  0  0  0  0  0  0
   -0.8106   -2.5540    0.7776 H   0  0  0  0  0  0  0  0  0  0  0  0
  1  2  1  0
  2  3  1  0
  3  4  2  0
  4  5  1  0
  5  6  2  0
  6  7  1  0
  7  8  2  3
  8  9  1  0
  9 10  2  0
 10 11  1  0
 11 12  2  0
 12 13  1  0
 13 14  3  0
 12 15  1  0
 15 16  1  0
 16 17  2  0
 17 18  1  0
 18 19  2  0
 19 20  1  0
 20 21  2  0
 20 22  1  0
 22 23  1  0
 23 24  1  0
 24 25  1  0
 25 26  1  0
 26 27  1  0
 19 28  1  0
 28 29  1  0
 28 30  2  0
 15 31  2  0
  6  2  1  0
 31  9  1  0
 30 16  1  0
 27 22  1  0
  1 32  1  0
  1 33  1  0
  1 34  1  0
  3 35  1  0
  5 36  1  0
  7 37  1  0
 10 38  1  0
 11 39  1  0
 17 40  1  0
 18 41  1  0
 23 42  1  0
 23 43  1  0
 24 44  1  0
 24 45  1  0
 25 46  1  0
 26 47  1  0
 26 48  1  0
 27 49  1  0
 27 50  1  0
 30 51  1  0
M  END
$$$$
