
     RDKit          3D

 49 51  0  0  0  0  0  0  0  0999 V2000
    6.3869   -0.9352    3.3559 C   0  0  0  0  0  0  0  0  0  0  0  0
    5.3006   -0.9166    2.4387 O   0  0  0  0  0  0  0  0  0  0  0  0
    5.3153    0.0468    1.4671 C   0  0  0  0  0  0  0  0  0  0  0  0
    6.2818    1.0422    1.3273 C   0  0  0  0  0  0  0  0  0  0  0  0
    6.1923    1.9696    0.2811 C   0  0  0  0  0  0  0  0  0  0  0  0
    5.1586    1.9045   -0.6606 C   0  0  0  0  0  0  0  0  0  0  0  0
    5.0487    2.9307   -1.6186 N   0  0  0  0  0  0  0  0  0  0  0  0
    4.1446    0.9498   -0.4676 C   0  0  0  0  0  0  0  0  0  0  0  0
    2.9962    0.8917   -1.3982 C   0  0  0  0  0  0  0  0  0  0  0  0
    3.2089    0.9724   -2.6076 O   0  0  0  0  0  0  0  0  0  0  0  0
    1.5977    0.7694   -0.9088 C   0  0  0  0  0  0  0  0  0  0  0  0
    1.2006    1.2792    0.3327 C   0  0  0  0  0  0  0  0  0  0  0  0
   -0.1306    1.1565    0.7433 C   0  0  0  0  0  0  0  0  0  0  0  0
   -1.0726    0.5266   -0.0808 C   0  0  0  0  0  0  0  0  0  0  0  0
   -2.4763    0.4243    0.4045 C   0  0  0  0  0  0  0  0  0  0  0  0
   -2.9202    1.2674    1.1752 O   0  0  0  0  0  0  0  0  0  0  0  0
   -3.2020   -0.6625   -0.0388 N   0  0  0  0  0  0  0  0  0  0  0  0
   -4.6061   -0.8460    0.3216 C   0  0  0  0  0  0  0  0  0  0  0  0
   -5.0234   -2.3185    0.2005 C   0  0  0  0  0  0  0  0  0  0  0  0
   -5.7732   -2.5790   -1.1015 C   0  0  0  0  0  0  0  0  0  0  0  0
   -7.0030   -1.7942   -1.2026 N   0  0  0  0  0  0  0  0  0  0  0  0
   -6.9180   -0.4612   -0.6036 C   0  0  0  0  0  0  0  0  0  0  0  0
   -5.4955    0.0765   -0.5239 C   0  0  0  0  0  0  0  0  0  0  0  0
   -0.6824    0.0486   -1.3377 C   0  0  0  0  0  0  0  0  0  0  0  0
    0.6487    0.1717   -1.7488 C   0  0  0  0  0  0  0  0  0  0  0  0
    4.2489    0.0113    0.5629 C   0  0  0  0  0  0  0  0  0  0  0  0
    3.3174   -0.9487    0.6915 F   0  0  0  0  0  0  0  0  0  0  0  0
    6.2313   -1.7735    4.0417 H   0  0  0  0  0  0  0  0  0  0  0  0
    7.3381   -1.0995    2.8388 H   0  0  0  0  0  0  0  0  0  0  0  0
    6.4139   -0.0174    3.9524 H   0  0  0  0  0  0  0  0  0  0  0  0
    7.1159    1.1333    2.0158 H   0  0  0  0  0  0  0  0  0  0  0  0
    6.9459    2.7512    0.2063 H   0  0  0  0  0  0  0  0  0  0  0  0
    4.4816    2.6322   -2.4213 H   0  0  0  0  0  0  0  0  0  0  0  0
    5.9395    3.3104   -1.9237 H   0  0  0  0  0  0  0  0  0  0  0  0
    1.9034    1.7875    0.9875 H   0  0  0  0  0  0  0  0  0  0  0  0
   -0.4345    1.5559    1.7097 H   0  0  0  0  0  0  0  0  0  0  0  0
   -2.7642   -1.3488   -0.6367 H   0  0  0  0  0  0  0  0  0  0  0  0
   -4.7022   -0.5579    1.3766 H   0  0  0  0  0  0  0  0  0  0  0  0
   -5.6837   -2.5726    1.0408 H   0  0  0  0  0  0  0  0  0  0  0  0
   -4.1573   -2.9865    0.2781 H   0  0  0  0  0  0  0  0  0  0  0  0
   -5.1203   -2.3541   -1.9539 H   0  0  0  0  0  0  0  0  0  0  0  0
   -6.0312   -3.6410   -1.1719 H   0  0  0  0  0  0  0  0  0  0  0  0
   -7.2807   -1.7231   -2.1815 H   0  0  0  0  0  0  0  0  0  0  0  0
   -7.3500   -0.5039    0.4036 H   0  0  0  0  0  0  0  0  0  0  0  0
   -7.5447    0.2299   -1.1785 H   0  0  0  0  0  0  0  0  0  0  0  0
   -5.4996    1.0853   -0.0940 H   0  0  0  0  0  0  0  0  0  0  0  0
   -5.0892    0.1804   -1.5393 H   0  0  0  0  0  0  0  0  0  0  0  0
   -1.4008   -0.3914   -2.0229 H   0  0  0  0  0  0  0  0  0  0  0  0
    0.9448   -0.1939   -2.7307 H   0  0  0  0  0  0  0  0  0  0  0  0
  1  2  1  0
  2  3  1  0
  3  4  2  0
  4  5  1  0
  5  6  2  0
  6  7  1  0
  6  8  1  0
  8  9  1  0
  9 10  2  0
  9 11  1  0
 11 12  2  0
 12 13  1  0
 13 14  2  0
 14 15  1  0
 15 16  2  0
 15 17  1  0
 17 18  1  0
 18 19  1  0
 19 20  1  0
 20 21  1  0
 21 22  1  0
 22 23  1  0
 14 24  1  0
 24 25  2  0
  8 26  2  0
 26 27  1  0
 26  3  1  0
 25 11  1  0
 23 18  1  0
  1 28  1  0
  1 29  1  0
  1 30  1  0
  4 31  1  0
  5 32  1  0
  7 33  1  0
  7 34  1  0
 12 35  1  0
 13 36  1  0
 17 37  1  0
 18 38  1  0
 19 39  1  0
 19 40  1  0
 20 41  1  0
 20 42  1  0
 21 43  1  0
 22 44  1  0
 22 45  1  0
 23 46  1  0
 23 47  1  0
 24 48  1  0
 25 49  1  0
M  END
$$$$
