
     RDKit          3D

 52 55  0  0  0  0  0  0  0  0999 V2000
   -5.8804   -4.8281    1.6623 C   0  0  0  0  0  0  0  0  0  0  0  0
   -5.0577   -3.6983    1.3992 O   0  0  0  0  0  0  0  0  0  0  0  0
   -5.4647   -2.8408    0.4125 C   0  0  0  0  0  0  0  0  0  0  0  0
   -6.6105   -2.9946   -0.3711 C   0  0  0  0  0  0  0  0  0  0  0  0
   -6.9316   -2.0372   -1.3373 C   0  0  0  0  0  0  0  0  0  0  0  0
   -6.1045   -0.9337   -1.5297 C   0  0  0  0  0  0  0  0  0  0  0  0
   -6.5090   -0.0271   -2.4728 O   0  0  0  0  0  0  0  0  0  0  0  0
   -4.9298   -0.7836   -0.7836 C   0  0  0  0  0  0  0  0  0  0  0  0
   -4.0583    0.3860   -1.0281 C   0  0  0  0  0  0  0  0  0  0  0  0
   -4.5864    1.4256   -1.4263 O   0  0  0  0  0  0  0  0  0  0  0  0
   -2.5852    0.3480   -0.8677 C   0  0  0  0  0  0  0  0  0  0  0  0
   -1.8344   -0.7752   -1.2313 C   0  0  0  0  0  0  0  0  0  0  0  0
   -0.4433   -0.7560   -1.0929 C   0  0  0  0  0  0  0  0  0  0  0  0
    0.2054    0.3831   -0.5968 C   0  0  0  0  0  0  0  0  0  0  0  0
    1.6887    0.3506   -0.4738 C   0  0  0  0  0  0  0  0  0  0  0  0
    2.3491   -0.3638   -1.2190 O   0  0  0  0  0  0  0  0  0  0  0  0
    2.2412    1.1312    0.5203 N   0  0  0  0  0  0  0  0  0  0  0  0
    3.6863    1.2123    0.7136 C   0  0  0  0  0  0  0  0  0  0  0  0
    4.0128    1.6853    2.1371 C   0  0  0  0  0  0  0  0  0  0  0  0
    5.5225    1.8116    2.3392 C   0  0  0  0  0  0  0  0  0  0  0  0
    6.1169    2.7292    1.3662 N   0  0  0  0  0  0  0  0  0  0  0  0
    5.8101    2.3154   -0.0182 C   0  0  0  0  0  0  0  0  0  0  0  0
    6.6959    2.8584   -1.1120 C   0  0  0  0  0  0  0  0  0  0  0  0
    6.7983    1.4137   -0.7166 C   0  0  0  0  0  0  0  0  0  0  0  0
    4.3359    2.1435   -0.3231 C   0  0  0  0  0  0  0  0  0  0  0  0
   -0.5448    1.5199   -0.2707 C   0  0  0  0  0  0  0  0  0  0  0  0
   -1.9363    1.5015   -0.4092 C   0  0  0  0  0  0  0  0  0  0  0  0
   -4.6369   -1.7280    0.2018 C   0  0  0  0  0  0  0  0  0  0  0  0
   -3.5596   -1.5689    0.9882 F   0  0  0  0  0  0  0  0  0  0  0  0
   -6.8783   -4.5213    1.9927 H   0  0  0  0  0  0  0  0  0  0  0  0
   -5.9370   -5.4861    0.7890 H   0  0  0  0  0  0  0  0  0  0  0  0
   -5.4194   -5.3948    2.4770 H   0  0  0  0  0  0  0  0  0  0  0  0
   -7.2825   -3.8382   -0.2495 H   0  0  0  0  0  0  0  0  0  0  0  0
   -7.8340   -2.1458   -1.9350 H   0  0  0  0  0  0  0  0  0  0  0  0
   -5.9703    0.7892   -2.3578 H   0  0  0  0  0  0  0  0  0  0  0  0
   -2.3081   -1.6668   -1.6335 H   0  0  0  0  0  0  0  0  0  0  0  0
    0.1378   -1.6327   -1.3755 H   0  0  0  0  0  0  0  0  0  0  0  0
    1.6422    1.6512    1.1458 H   0  0  0  0  0  0  0  0  0  0  0  0
    4.0955    0.2018    0.5808 H   0  0  0  0  0  0  0  0  0  0  0  0
    3.5290    2.6513    2.3343 H   0  0  0  0  0  0  0  0  0  0  0  0
    3.6034    0.9770    2.8677 H   0  0  0  0  0  0  0  0  0  0  0  0
    5.7286    2.1817    3.3493 H   0  0  0  0  0  0  0  0  0  0  0  0
    5.9994    0.8273    2.2601 H   0  0  0  0  0  0  0  0  0  0  0  0
    5.7749    3.6760    1.5329 H   0  0  0  0  0  0  0  0  0  0  0  0
    6.2542    3.0878   -2.0748 H   0  0  0  0  0  0  0  0  0  0  0  0
    7.5155    3.5130   -0.8377 H   0  0  0  0  0  0  0  0  0  0  0  0
    6.4227    0.6685   -1.4086 H   0  0  0  0  0  0  0  0  0  0  0  0
    7.6822    1.0999   -0.1726 H   0  0  0  0  0  0  0  0  0  0  0  0
    3.8494    3.1278   -0.3004 H   0  0  0  0  0  0  0  0  0  0  0  0
    4.1844    1.7479   -1.3350 H   0  0  0  0  0  0  0  0  0  0  0  0
   -0.0656    2.4372    0.0584 H   0  0  0  0  0  0  0  0  0  0  0  0
   -2.5138    2.3923   -0.1676 H   0  0  0  0  0  0  0  0  0  0  0  0
  1  2  1  0
  2  3  1  0
  3  4  2  0
  4  5  1  0
  5  6  2  0
  6  7  1  0
  6  8  1  0
  8  9  1  0
  9 10  2  0
  9 11  1  0
 11 12  2  0
 12 13  1  0
 13 14  2  0
 14 15  1  0
 15 16  2  0
 15 17  1  0
 17 18  1  0
 18 19  1  0
 19 20  1  0
 20 21  1  0
 21 22  1  0
 22 23  1  0
 23 24  1  0
 22 25  1  0
 14 26  1  0
 26 27  2  0
  8 28  2  0
 28 29  1  0
 28  3  1  0
 27 11  1  0
 25 18  1  0
 24 22  1  0
  1 30  1  0
  1 31  1  0
  1 32  1  0
  4 33  1  0
  5 34  1  0
  7 35  1  0
 12 36  1  0
 13 37  1  0
 17 38  1  0
 18 39  1  0
 19 40  1  0
 19 41  1  0
 20 42  1  0
 20 43  1  0
 21 44  1  0
 23 45  1  0
 23 46  1  0
 24 47  1  0
 24 48  1  0
 25 49  1  0
 25 50  1  0
 26 51  1  0
 27 52  1  0
M  END
$$$$
