REMARK SMILES COc1cc(N2CCOCC2)ccc1-c1cc(C(C)=O)cnc1-c1ccc(CNCc2ccc(-c3cnn(C)c3)cc2)cc1
REMARK SMILES IDX 28 1 27 2 24 3 25 4 44 5 26 6 43 7 23 8 15 9 16 10 17 11
REMARK SMILES IDX 22 12 21 13 14 14 3 15 4 16 5 17 13 18 12 19 2 20 1 21 6 22
REMARK SMILES IDX 7 23 11 24 8 25 10 26 9 27 18 28 19 29 20 30 29 31 30 33
REMARK SMILES IDX 31 34 32 35 42 36 33 37 41 38 34 39 35 40 36 41 40 42 37 43
REMARK SMILES IDX 38 44 39 45
REMARK H PARENT 29 32
ROOT
ATOM      1  C   UNL     1       2.224  -1.307  -1.368  1.00  0.00     0.117 C 
ENDROOT
BRANCH   1   2
ATOM      2  C   UNL     1       1.190  -0.207  -1.391  1.00  0.00    -0.034 A 
ATOM      3  C   UNL     1      -0.764   1.855  -1.409  1.00  0.00     0.001 A 
ATOM      4  C   UNL     1      -1.070   0.560  -1.857  1.00  0.00     0.011 A 
ATOM      5  C   UNL     1       0.548   2.096  -0.965  1.00  0.00     0.011 A 
ATOM      6  C   UNL     1      -0.113  -0.461  -1.834  1.00  0.00     0.006 A 
ATOM      7  C   UNL     1       1.511   1.082  -0.950  1.00  0.00     0.006 A 
BRANCH   3   8
ATOM      8  C   UNL     1      -1.759   2.950  -1.424  1.00  0.00     0.078 A 
ATOM      9  C   UNL     1      -3.064   2.857  -0.899  1.00  0.00     0.012 A 
ATOM     10  C   UNL     1      -3.897   3.989  -1.026  1.00  0.00     0.024 A 
ATOM     11  C   UNL     1      -3.435   5.149  -1.643  1.00  0.00     0.036 A 
ATOM     12  N   UNL     1      -1.291   4.095  -2.001  1.00  0.00    -0.255 NA
ATOM     13  C   UNL     1      -2.130   5.153  -2.103  1.00  0.00     0.123 A 
BRANCH   9  14
ATOM     14  C   UNL     1      -3.592   1.666  -0.202  1.00  0.00     0.026 A 
ATOM     15  C   UNL     1      -4.641   0.891  -0.736  1.00  0.00     0.128 A 
ATOM     16  C   UNL     1      -5.126  -0.215  -0.022  1.00  0.00     0.073 A 
ATOM     17  C   UNL     1      -4.589  -0.596   1.222  1.00  0.00     0.040 A 
ATOM     18  C   UNL     1      -3.047   1.284   1.033  1.00  0.00     0.015 A 
ATOM     19  C   UNL     1      -3.531   0.167   1.724  1.00  0.00     0.027 A 
BRANCH  15  20
ATOM     20  O   UNL     1      -5.133   1.294  -1.954  1.00  0.00    -0.496 OA
ATOM     21  C   UNL     1      -5.939   0.366  -2.668  1.00  0.00     0.278 C 
ENDBRANCH  15  20
BRANCH  17  22
ATOM     22  N   UNL     1      -5.118  -1.721   1.876  1.00  0.00    -0.367 N 
ATOM     23  C   UNL     1      -4.300  -2.353   2.937  1.00  0.00     0.145 C 
ATOM     24  C   UNL     1      -6.527  -1.542   2.308  1.00  0.00     0.145 C 
ATOM     25  C   UNL     1      -4.957  -3.668   3.384  1.00  0.00     0.181 C 
ATOM     26  C   UNL     1      -7.098  -2.882   2.802  1.00  0.00     0.181 C 
ATOM     27  O   UNL     1      -6.297  -3.447   3.853  1.00  0.00    -0.378 OA
ENDBRANCH  17  22
ENDBRANCH   9  14
BRANCH  11  28
ATOM     28  C   UNL     1      -4.266   6.365  -1.819  1.00  0.00     0.161 C 
ATOM     29  C   UNL     1      -5.718   6.320  -1.419  1.00  0.00     0.093 C 
ATOM     30  O   UNL     1      -3.762   7.385  -2.284  1.00  0.00    -0.294 OA
ENDBRANCH  11  28
ENDBRANCH   3   8
ENDBRANCH   1   2
BRANCH   1  31
ATOM     31  N   UNL     1       2.215  -1.991  -0.077  1.00  0.00    -0.309 NA
ATOM     32  H   UNL     1       2.430  -1.316   0.653  1.00  0.00     0.123 HD
BRANCH  31  33
ATOM     33  C   UNL     1       3.169  -3.097  -0.019  1.00  0.00     0.117 C 
BRANCH  33  34
ATOM     34  C   UNL     1       4.614  -2.657  -0.001  1.00  0.00    -0.034 A 
ATOM     35  C   UNL     1       5.165  -2.061   1.141  1.00  0.00     0.006 A 
ATOM     36  C   UNL     1       5.425  -2.827  -1.130  1.00  0.00     0.006 A 
ATOM     37  C   UNL     1       6.502  -1.647   1.153  1.00  0.00     0.009 A 
ATOM     38  C   UNL     1       6.761  -2.411  -1.117  1.00  0.00     0.009 A 
ATOM     39  C   UNL     1       7.315  -1.819   0.025  1.00  0.00    -0.015 A 
BRANCH  39  40
ATOM     40  C   UNL     1       8.704  -1.393   0.023  1.00  0.00     0.020 A 
ATOM     41  C   UNL     1       9.541  -0.975  -1.040  1.00  0.00     0.143 A 
ATOM     42  C   UNL     1       9.528  -1.343   1.129  1.00  0.00     0.117 A 
ATOM     43  N   UNL     1      10.782  -0.685  -0.640  1.00  0.00    -0.181 NA
ATOM     44  N   UNL     1      10.747  -0.919   0.684  1.00  0.00    -0.275 N 
ATOM     45  C   UNL     1      11.940  -0.723   1.470  1.00  0.00     0.173 C 
ENDBRANCH  39  40
ENDBRANCH  33  34
ENDBRANCH  31  33
ENDBRANCH   1  31
TORSDOF 10
