MODEL        9USER    Run = 9USERUSER    Estimated Free Energy of Binding    = -11.66 kcal/mol  [=(1)+(2)+(3)-(4)]USERUSER    (1) Final Intermolecular Energy     = -14.64 kcal/molUSER        vdW + Hbond + desolv Energy     = -14.62 kcal/molUSER        Electrostatic Energy            =  -0.03 kcal/molUSER        Moving Ligand-Fixed Receptor    = -14.64 kcal/molUSER        Moving Ligand-Moving Receptor   =  +0.00 kcal/molUSER    (2) Final Total Internal Energy     =  -3.10 kcal/molUSER    (3) Torsional Free Energy           =  +2.98 kcal/molUSER    (4) Unbound System's Energy         =  -3.10 kcal/molUSERUSERREMARK SMILES COc1cc(N2CCOCC2)ccc1-c1cc(C(C)=O)cnc1-c1ccc(CNCc2ccc(-c3cnn(C)c3)cc2)cc1REMARK SMILES IDX 28 1 27 2 24 3 25 4 44 5 26 6 43 7 23 8 15 9 16 10 17 11REMARK SMILES IDX 22 12 21 13 14 14 3 15 4 16 5 17 13 18 12 19 2 20 1 21 6 22REMARK SMILES IDX 7 23 11 24 8 25 10 26 9 27 18 28 19 29 20 30 29 31 30 33REMARK SMILES IDX 31 34 32 35 42 36 33 37 41 38 34 39 35 40 36 41 40 42 37 43REMARK SMILES IDX 38 44 39 45REMARK H PARENT 29 32USER                              x       y       z     vdW  Elec       q    TypeUSER                           _______ _______ _______ _____ _____    ______ ____ROOTATOM      1  C   UNL     1      32.321  42.576  19.163 -0.34 -0.00    +0.117 C  ENDROOTBRANCH   1   2ATOM      2  C   UNL     1      33.745  43.059  19.292 -0.38 +0.00    -0.034 A  ATOM      3  C   UNL     1      36.428  43.971  19.507 -0.39 -0.00    +0.001 A  ATOM      4  C   UNL     1      36.135  42.609  19.327 -0.27 -0.00    +0.011 A  ATOM      5  C   UNL     1      35.344  44.863  19.590 -0.19 -0.00    +0.011 A  ATOM      6  C   UNL     1      34.815  42.161  19.206 -0.39 -0.00    +0.006 A  ATOM      7  C   UNL     1      34.023  44.419  19.479 -0.38 -0.00    +0.006 A  BRANCH   3   8ATOM      8  C   UNL     1      37.815  44.468  19.638 -0.31 -0.01    +0.078 A  ATOM      9  C   UNL     1      38.514  44.588  20.856 -0.36 +0.00    +0.012 A  ATOM     10  C   UNL     1      39.822  45.113  20.805 -0.34 +0.00    +0.024 A  ATOM     11  C   UNL     1      40.393  45.490  19.592 -0.40 +0.00    +0.036 A  ATOM     12  N   UNL     1      38.381  44.807  18.443 -0.22 +0.03    -0.255 NA ATOM     13  C   UNL     1      39.638  45.310  18.446 -0.35 -0.01    +0.123 A  BRANCH   9  14ATOM     14  C   UNL     1      37.971  44.168  22.165 -0.34 +0.00    +0.026 A  ATOM     15  C   UNL     1      37.546  42.847  22.410 -0.32 +0.01    +0.128 A  ATOM     16  C   UNL     1      37.012  42.505  23.661 -0.37 +0.01    +0.073 A  ATOM     17  C   UNL     1      36.894  43.442  24.705 -0.34 +0.00    +0.040 A  ATOM     18  C   UNL     1      37.865  45.103  23.206 -0.26 +0.00    +0.015 A  ATOM     19  C   UNL     1      37.346  44.741  24.455 -0.30 +0.00    +0.027 A  BRANCH  15  20ATOM     20  O   UNL     1      37.683  41.964  21.366 +0.01 -0.02    -0.496 OA ATOM     21  C   UNL     1      37.288  40.618  21.599 -0.19 +0.01    +0.278 C  ENDBRANCH  15  20BRANCH  17  22ATOM     22  N   UNL     1      36.359  43.026  25.935 -0.14 +0.03    -0.367 N  ATOM     23  C   UNL     1      35.393  43.925  26.609 -0.27 -0.03    +0.145 C  ATOM     24  C   UNL     1      35.879  41.621  25.924 -0.34 -0.04    +0.145 C  ATOM     25  C   UNL     1      35.082  43.391  28.016 -0.49 -0.05    +0.181 C  ATOM     26  C   UNL     1      35.526  41.176  27.353 -0.56 -0.07    +0.181 C  ATOM     27  O   UNL     1      34.563  42.052  27.961 -0.27 +0.14    -0.378 OA ENDBRANCH  17  22ENDBRANCH   9  14BRANCH  11  28ATOM     28  C   UNL     1      41.757  46.061  19.475 -0.38 +0.02    +0.161 C  ATOM     29  C   UNL     1      42.510  46.413  20.732 -0.36 +0.02    +0.093 C  ATOM     30  O   UNL     1      42.251  46.235  18.363 -0.32 -0.02    -0.294 OA ENDBRANCH  11  28ENDBRANCH   3   8ENDBRANCH   1   2BRANCH   1  31ATOM     31  N   UNL     1      31.710  43.102  17.944 -0.10 +0.06    -0.309 NA ATOM     32  H   UNL     1      30.728  42.836  17.929 +0.07 -0.02    +0.123 HD BRANCH  31  33ATOM     33  C   UNL     1      32.368  42.621  16.731 -0.26 -0.05    +0.117 C  BRANCH  33  34ATOM     34  C   UNL     1      33.353  43.602  16.140 -0.31 +0.02    -0.034 A  ATOM     35  C   UNL     1      32.912  44.811  15.588 -0.33 -0.00    +0.006 A  ATOM     36  C   UNL     1      34.724  43.314  16.124 -0.38 -0.00    +0.006 A  ATOM     37  C   UNL     1      33.825  45.716  15.033 -0.20 -0.01    +0.009 A  ATOM     38  C   UNL     1      35.635  44.218  15.568 -0.34 -0.00    +0.009 A  ATOM     39  C   UNL     1      35.197  45.430  15.019 -0.34 +0.01    -0.015 A  BRANCH  39  40ATOM     40  C   UNL     1      36.156  46.359  14.446 -0.41 -0.01    +0.020 A  ATOM     41  C   UNL     1      36.248  46.905  13.143 -0.48 -0.08    +0.143 A  ATOM     42  C   UNL     1      37.246  46.892  15.103 -0.33 -0.07    +0.117 A  ATOM     43  N   UNL     1      37.301  47.713  12.992 -0.93 +0.05    -0.181 NA ATOM     44  N   UNL     1      37.892  47.686  14.200 -0.29 +0.12    -0.275 N  ATOM     45  C   UNL     1      39.097  48.448  14.417 -0.43 -0.07    +0.173 C  ENDBRANCH  39  40ENDBRANCH  33  34ENDBRANCH  31  33ENDBRANCH   1  31TORSDOF 10TERENDMDL