MODEL        10USER    Run = 10USERUSER    Estimated Free Energy of Binding    = -11.59 kcal/mol  [=(1)+(2)+(3)-(4)]USERUSER    (1) Final Intermolecular Energy     = -13.38 kcal/molUSER        vdW + Hbond + desolv Energy     = -13.23 kcal/molUSER        Electrostatic Energy            =  -0.15 kcal/molUSER        Moving Ligand-Fixed Receptor    = -13.38 kcal/molUSER        Moving Ligand-Moving Receptor   =  +0.00 kcal/molUSER    (2) Final Total Internal Energy     =  -1.07 kcal/molUSER    (3) Torsional Free Energy           =  +1.79 kcal/molUSER    (4) Unbound System's Energy         =  -1.07 kcal/molUSERUSERREMARK SMILES Oc1nc2ccccc2n1C1CCN(Cc2ccc(-c3cnc4cc(N5CCC5)ccc4n3)cc2F)CC1REMARK SMILES IDX 11 1 12 2 13 3 14 4 37 5 38 6 10 7 2 8 3 9 4 10 9 11 5 12REMARK SMILES IDX 8 13 6 14 7 15 1 16 15 18 16 19 17 20 35 21 18 22 34 23REMARK SMILES IDX 19 24 36 25 20 26 21 27 33 28 22 29 32 30 23 31 31 32 24 33REMARK SMILES IDX 30 34 25 35 26 36 27 37 29 38 28 39REMARK H PARENT 1 17USER                              x       y       z     vdW  Elec       q    TypeUSER                           _______ _______ _______ _____ _____    ______ ____ROOTATOM      1  C   UNL     1      36.867  46.755  15.597 -0.39 -0.06    +0.095 C  ATOM      2  C   UNL     1      36.381  46.604  17.043 -0.26 -0.03    +0.041 C  ATOM      3  C   UNL     1      35.098  45.774  17.050 -0.36 -0.07    +0.087 C  ATOM      4  N   UNL     1      35.259  44.431  16.478 -0.12 +0.14    -0.299 NA ATOM      5  C   UNL     1      36.492  44.239  15.711 -0.38 -0.03    +0.087 C  ATOM      6  C   UNL     1      36.867  45.424  14.823 -0.42 -0.02    +0.041 C  ENDROOTBRANCH   1   7ATOM      7  N   UNL     1      38.122  47.487  15.496 -0.23 +0.15    -0.291 N  ATOM      8  C   UNL     1      38.445  48.348  14.482 -0.27 -0.14    +0.295 A  ATOM      9  N   UNL     1      39.630  48.878  14.607 -0.36 +0.08    -0.195 NA ATOM     10  C   UNL     1      40.120  48.337  15.770 -0.49 -0.03    +0.092 A  ATOM     11  C   UNL     1      39.201  47.460  16.354 -0.41 -0.03    +0.072 A  ATOM     12  C   UNL     1      41.361  48.555  16.387 -0.42 -0.00    +0.031 A  ATOM     13  C   UNL     1      39.476  46.784  17.551 -0.41 -0.01    +0.029 A  ATOM     14  C   UNL     1      41.649  47.885  17.582 -0.42 -0.00    +0.002 A  ATOM     15  C   UNL     1      40.719  47.015  18.151 -0.49 -0.00    +0.002 A  BRANCH   8  16ATOM     16  O   UNL     1      37.664  48.633  13.459 -0.50 +0.16    -0.480 OA ATOM     17  H   UNL     1      37.660  49.608  13.492 -0.28 -0.15    +0.296 HD ENDBRANCH   8  16ENDBRANCH   1   7BRANCH   4  18ATOM     18  C   UNL     1      34.032  44.000  15.792 -0.24 -0.06    +0.123 C  BRANCH  18  19ATOM     19  C   UNL     1      33.274  42.917  16.519 -0.34 -0.00    +0.002 A  ATOM     20  C   UNL     1      33.938  41.972  17.310 -0.40 -0.00    +0.009 A  ATOM     21  C   UNL     1      31.885  42.831  16.418 -0.23 -0.06    +0.128 A  ATOM     22  C   UNL     1      33.220  40.971  17.979 -0.37 -0.00    +0.011 A  ATOM     23  C   UNL     1      31.168  41.837  17.082 -0.27 -0.02    +0.050 A  ATOM     24  C   UNL     1      31.818  40.876  17.874 -0.38 -0.00    +0.005 A  ATOM     25  F   UNL     1      31.212  43.703  15.653 -0.06 +0.11    -0.207 F  BRANCH  24  26ATOM     26  C   UNL     1      31.044  39.823  18.560 -0.32 +0.00    +0.089 A  ATOM     27  C   UNL     1      29.859  39.288  18.069 -0.27 +0.03    +0.140 A  ATOM     28  N   UNL     1      31.539  39.389  19.747 -0.55 -0.05    -0.245 NA ATOM     29  N   UNL     1      29.150  38.325  18.707 -0.20 -0.09    -0.252 NA ATOM     30  C   UNL     1      30.849  38.431  20.401 -0.38 +0.01    +0.090 A  ATOM     31  C   UNL     1      29.650  37.896  19.881 -0.31 +0.01    +0.091 A  ATOM     32  C   UNL     1      31.323  37.955  21.614 -0.49 +0.00    +0.033 A  ATOM     33  C   UNL     1      28.975  36.915  20.599 -0.27 -0.00    +0.056 A  ATOM     34  C   UNL     1      30.634  36.969  22.326 -0.44 +0.00    +0.028 A  ATOM     35  C   UNL     1      29.439  36.442  21.833 -0.35 -0.00    +0.039 A  BRANCH  35  36ATOM     36  N   UNL     1      28.736  35.445  22.539 -0.15 -0.01    -0.371 N  ATOM     37  C   UNL     1      27.314  35.240  22.559 -0.30 -0.03    +0.118 C  ATOM     38  C   UNL     1      29.008  34.035  22.538 -0.29 +0.01    +0.118 C  ATOM     39  C   UNL     1      27.610  33.852  23.138 -0.42 +0.02    +0.043 C  ENDBRANCH  35  36ENDBRANCH  24  26ENDBRANCH  18  19ENDBRANCH   4  18TORSDOF 6TERENDMDL