REMARK SMILES CN1CCN(c2ccc3nc(-c4ccc([C@@H]5C[C@H]5CN5CCC(n6c(O)nc7ccccc76)CC5)cc4)cnc3c2)CC1
REMARK SMILES IDX 16 1 17 2 18 3 15 4 12 5 13 6 37 7 14 8 36 9 11 10 6 11 7 12
REMARK SMILES IDX 41 13 8 14 40 15 9 16 39 17 10 18 38 19 5 20 2 21 3 22 43 23
REMARK SMILES IDX 4 24 42 25 1 26 19 27 20 28 21 29 35 30 22 31 34 32 23 33
REMARK SMILES IDX 24 34 25 35 33 36 27 37 32 38 28 39 31 40 29 41 30 42 26 43
REMARK H PARENT 26 44
ROOT
ATOM      1  C   UNL     1      -2.128  -1.900  -0.589  1.00  0.00     0.024 C 
ATOM      2  C   UNL     1      -3.210  -1.198  -1.373  1.00  0.00     0.014 C 
ATOM      3  C   UNL     1      -3.124  -1.000   0.119  1.00  0.00     0.011 C 
ENDROOT
BRANCH   1   4
ATOM      4  C   UNL     1      -0.684  -1.488  -0.720  1.00  0.00    -0.045 A 
ATOM      5  C   UNL     1       2.103  -0.900  -0.956  1.00  0.00     0.002 A 
ATOM      6  C   UNL     1       1.480  -0.981   0.296  1.00  0.00     0.011 A 
ATOM      7  C   UNL     1       1.299  -1.079  -2.093  1.00  0.00     0.011 A 
ATOM      8  C   UNL     1       0.116  -1.274   0.411  1.00  0.00     0.005 A 
ATOM      9  C   UNL     1      -0.065  -1.371  -1.971  1.00  0.00     0.005 A 
BRANCH   5  10
ATOM     10  C   UNL     1       3.554  -0.701  -1.054  1.00  0.00     0.089 A 
ATOM     11  C   UNL     1       8.286   0.684  -0.289  1.00  0.00     0.039 A 
ATOM     12  C   UNL     1       7.454   1.487   0.503  1.00  0.00     0.028 A 
ATOM     13  C   UNL     1       7.635  -0.254  -1.107  1.00  0.00     0.056 A 
ATOM     14  C   UNL     1       6.061   1.332   0.503  1.00  0.00     0.033 A 
ATOM     15  C   UNL     1       6.252  -0.419  -1.129  1.00  0.00     0.091 A 
ATOM     16  C   UNL     1       5.445   0.382  -0.291  1.00  0.00     0.090 A 
ATOM     17  N   UNL     1       5.708  -1.350  -1.937  1.00  0.00    -0.252 NA
ATOM     18  N   UNL     1       4.102   0.241  -0.246  1.00  0.00    -0.245 NA
ATOM     19  C   UNL     1       4.360  -1.475  -1.880  1.00  0.00     0.140 A 
BRANCH  11  20
ATOM     20  N   UNL     1       9.663   0.820  -0.277  1.00  0.00    -0.369 N 
ATOM     21  N   UNL     1      12.653   0.677  -0.026  1.00  0.00    -0.303 NA
ATOM     22  C   UNL     1      11.731   0.739   1.126  1.00  0.00     0.105 C 
ATOM     23  C   UNL     1      11.926   0.791  -1.309  1.00  0.00     0.105 C 
ATOM     24  C   UNL     1      10.371   1.428   0.868  1.00  0.00     0.132 C 
ATOM     25  C   UNL     1      10.515   0.160  -1.283  1.00  0.00     0.132 C 
ATOM     26  C   UNL     1      13.701   1.690   0.059  1.00  0.00     0.105 C 
ENDBRANCH  11  20
ENDBRANCH   5  10
ENDBRANCH   1   4
BRANCH   3  27
ATOM     27  C   UNL     1      -4.148  -1.605   1.039  1.00  0.00     0.088 C 
BRANCH  27  28
ATOM     28  N   UNL     1      -5.496  -1.104   0.734  1.00  0.00    -0.303 NA
ATOM     29  C   UNL     1      -5.640   0.330   1.034  1.00  0.00     0.086 C 
ATOM     30  C   UNL     1      -6.524  -1.905   1.402  1.00  0.00     0.086 C 
ATOM     31  C   UNL     1      -7.079   0.762   1.348  1.00  0.00     0.041 C 
ATOM     32  C   UNL     1      -7.891  -1.586   0.795  1.00  0.00     0.041 C 
ATOM     33  C   UNL     1      -8.089  -0.078   0.561  1.00  0.00     0.095 C 
BRANCH  33  34
ATOM     34  N   UNL     1      -9.463   0.341   0.789  1.00  0.00    -0.291 N 
ATOM     35  C   UNL     1     -10.136   0.297   1.978  1.00  0.00     0.295 A 
ATOM     36  C   UNL     1     -10.347   0.826  -0.152  1.00  0.00     0.072 A 
ATOM     37  N   UNL     1     -11.374   0.701   1.890  1.00  0.00    -0.195 NA
ATOM     38  C   UNL     1     -10.247   1.093  -1.524  1.00  0.00     0.029 A 
ATOM     39  C   UNL     1     -11.527   1.034   0.566  1.00  0.00     0.092 A 
ATOM     40  C   UNL     1     -11.391   1.583  -2.167  1.00  0.00     0.002 A 
ATOM     41  C   UNL     1     -12.662   1.524  -0.099  1.00  0.00     0.031 A 
ATOM     42  C   UNL     1     -12.580   1.795  -1.470  1.00  0.00     0.002 A 
BRANCH  35  43
ATOM     43  O   UNL     1      -9.626  -0.122   3.117  1.00  0.00    -0.480 OA
ATOM     44  H   UNL     1     -10.393  -0.014   3.711  1.00  0.00     0.296 HD
ENDBRANCH  35  43
ENDBRANCH  33  34
ENDBRANCH  27  28
ENDBRANCH   3  27
TORSDOF 7
