REMARK SMILES Oc1nc2ccccc2n1C1CCN(Cc2ccc(-c3cnc4cc(N5CCC5)ccc4n3)cc2F)CC1
REMARK SMILES IDX 11 1 12 2 13 3 14 4 37 5 38 6 10 7 2 8 3 9 4 10 9 11 5 12
REMARK SMILES IDX 8 13 6 14 7 15 1 16 15 18 16 19 17 20 35 21 18 22 34 23
REMARK SMILES IDX 19 24 36 25 20 26 21 27 33 28 22 29 32 30 23 31 31 32 24 33
REMARK SMILES IDX 30 34 25 35 26 36 27 37 29 38 28 39
REMARK H PARENT 1 17
ROOT
ATOM      1  C   UNL     1      -5.815  -0.836   0.337  1.00  0.00     0.095 C 
ATOM      2  C   UNL     1      -5.415  -0.755   1.815  1.00  0.00     0.041 C 
ATOM      3  C   UNL     1      -4.169  -1.610   2.038  1.00  0.00     0.087 C 
ATOM      4  N   UNL     1      -3.015  -1.197   1.228  1.00  0.00    -0.299 NA
ATOM      5  C   UNL     1      -3.337  -0.285   0.129  1.00  0.00     0.087 C 
ATOM      6  C   UNL     1      -4.624  -0.634  -0.617  1.00  0.00     0.041 C 
ENDROOT
BRANCH   1   7
ATOM      7  N   UNL     1      -6.965  -0.002   0.016  1.00  0.00    -0.291 N 
ATOM      8  C   UNL     1      -8.181  -0.474  -0.399  1.00  0.00     0.295 A 
ATOM      9  N   UNL     1      -9.052   0.467  -0.633  1.00  0.00    -0.195 NA
ATOM     10  C   UNL     1      -8.375   1.629  -0.358  1.00  0.00     0.092 A 
ATOM     11  C   UNL     1      -7.063   1.373   0.052  1.00  0.00     0.072 A 
ATOM     12  C   UNL     1      -8.830   2.954  -0.443  1.00  0.00     0.031 A 
ATOM     13  C   UNL     1      -6.175   2.404   0.388  1.00  0.00     0.029 A 
ATOM     14  C   UNL     1      -7.953   3.993  -0.111  1.00  0.00     0.002 A 
ATOM     15  C   UNL     1      -6.648   3.718   0.298  1.00  0.00     0.002 A 
BRANCH   8  16
ATOM     16  O   UNL     1      -8.477  -1.748  -0.564  1.00  0.00    -0.480 OA
ATOM     17  H   UNL     1      -9.407  -1.689  -0.851  1.00  0.00     0.296 HD
ENDBRANCH   8  16
ENDBRANCH   1   7
BRANCH   4  18
ATOM     18  C   UNL     1      -2.197  -2.358   0.847  1.00  0.00     0.123 C 
BRANCH  18  19
ATOM     19  C   UNL     1      -0.783  -2.007   0.455  1.00  0.00     0.002 A 
ATOM     20  C   UNL     1      -0.376  -2.026  -0.884  1.00  0.00     0.009 A 
ATOM     21  C   UNL     1       0.157  -1.656   1.424  1.00  0.00     0.128 A 
ATOM     22  C   UNL     1       0.942  -1.699  -1.233  1.00  0.00     0.011 A 
ATOM     23  C   UNL     1       1.468  -1.330   1.080  1.00  0.00     0.050 A 
ATOM     24  C   UNL     1       1.897  -1.350  -0.258  1.00  0.00     0.005 A 
ATOM     25  F   UNL     1      -0.186  -1.647   2.721  1.00  0.00    -0.207 F 
BRANCH  24  26
ATOM     26  C   UNL     1       3.292  -1.014  -0.602  1.00  0.00     0.089 A 
ATOM     27  C   UNL     1       3.957  -1.511  -1.717  1.00  0.00     0.140 A 
ATOM     28  N   UNL     1       3.939  -0.182   0.253  1.00  0.00    -0.245 NA
ATOM     29  N   UNL     1       5.241  -1.203  -2.023  1.00  0.00    -0.252 NA
ATOM     30  C   UNL     1       5.218   0.138  -0.031  1.00  0.00     0.090 A 
ATOM     31  C   UNL     1       5.874  -0.373  -1.173  1.00  0.00     0.091 A 
ATOM     32  C   UNL     1       5.914   0.990   0.814  1.00  0.00     0.033 A 
ATOM     33  C   UNL     1       7.196  -0.016  -1.416  1.00  0.00     0.056 A 
ATOM     34  C   UNL     1       7.243   1.340   0.558  1.00  0.00     0.028 A 
ATOM     35  C   UNL     1       7.909   0.830  -0.558  1.00  0.00     0.039 A 
BRANCH  35  36
ATOM     36  N   UNL     1       9.248   1.177  -0.829  1.00  0.00    -0.371 N 
ATOM     37  C   UNL     1      10.242   1.596   0.120  1.00  0.00     0.118 C 
ATOM     38  C   UNL     1      10.198   0.414  -1.590  1.00  0.00     0.118 C 
ATOM     39  C   UNL     1      11.280   1.303  -0.969  1.00  0.00     0.043 C 
ENDBRANCH  35  36
ENDBRANCH  24  26
ENDBRANCH  18  19
ENDBRANCH   4  18
TORSDOF 6
