MODEL        6USER    Run = 6USERUSER    Estimated Free Energy of Binding    = -11.96 kcal/mol  [=(1)+(2)+(3)-(4)]USERUSER    (1) Final Intermolecular Energy     = -14.05 kcal/molUSER        vdW + Hbond + desolv Energy     = -13.99 kcal/molUSER        Electrostatic Energy            =  -0.06 kcal/molUSER        Moving Ligand-Fixed Receptor    = -14.05 kcal/molUSER        Moving Ligand-Moving Receptor   =  +0.00 kcal/molUSER    (2) Final Total Internal Energy     =  -1.21 kcal/molUSER    (3) Torsional Free Energy           =  +2.09 kcal/molUSER    (4) Unbound System's Energy         =  -1.21 kcal/molUSERUSERREMARK SMILES CN1CCN(c2ccc3nc(-c4ccc([C@@H]5C[C@H]5CN5CCC(n6c(O)nc7ccccc76)CC5)cc4)cnc3c2)CC1REMARK SMILES IDX 16 1 17 2 18 3 15 4 12 5 13 6 37 7 14 8 36 9 11 10 6 11 7 12REMARK SMILES IDX 41 13 8 14 40 15 9 16 39 17 10 18 38 19 5 20 2 21 3 22 43 23REMARK SMILES IDX 4 24 42 25 1 26 19 27 20 28 21 29 35 30 22 31 34 32 23 33REMARK SMILES IDX 24 34 25 35 33 36 27 37 32 38 28 39 31 40 29 41 30 42 26 43REMARK H PARENT 26 44USER                              x       y       z     vdW  Elec       q    TypeUSER                           _______ _______ _______ _____ _____    ______ ____ROOTATOM      1  C   UNL     1      41.472  45.949  21.900 -0.30 +0.00    +0.024 C  ATOM      2  C   UNL     1      42.283  46.967  21.136 -0.32 +0.00    +0.014 C  ATOM      3  C   UNL     1      41.149  46.251  20.448 -0.35 +0.00    +0.011 C  ENDROOTBRANCH   1   4ATOM      4  C   UNL     1      40.529  46.373  22.997 -0.21 -0.00    -0.045 A  ATOM      5  C   UNL     1      38.627  47.259  24.937 -0.32 +0.00    +0.002 A  ATOM      6  C   UNL     1      39.690  48.076  24.535 -0.34 +0.00    +0.011 A  ATOM      7  C   UNL     1      38.552  45.972  24.381 -0.28 +0.00    +0.011 A  ATOM      8  C   UNL     1      40.619  47.644  23.581 -0.25 +0.00    +0.005 A  ATOM      9  C   UNL     1      39.485  45.545  23.428 -0.25 +0.00    +0.005 A  BRANCH   5  10ATOM     10  C   UNL     1      37.601  47.769  25.855 -0.32 +0.00    +0.089 A  ATOM     11  C   UNL     1      34.327  48.345  29.576 -0.34 -0.00    +0.039 A  ATOM     12  C   UNL     1      34.696  46.994  29.513 -0.38 -0.01    +0.028 A  ATOM     13  C   UNL     1      34.900  49.183  28.605 -0.21 -0.00    +0.056 A  ATOM     14  C   UNL     1      35.611  46.522  28.562 -0.26 -0.01    +0.033 A  ATOM     15  C   UNL     1      35.804  48.733  27.645 -0.30 -0.01    +0.091 A  ATOM     16  C   UNL     1      36.182  47.372  27.633 -0.15 -0.02    +0.090 A  ATOM     17  N   UNL     1      36.314  49.606  26.755 -0.22 -0.00    -0.252 NA ATOM     18  N   UNL     1      37.081  46.889  26.747 -0.24 +0.03    -0.245 NA ATOM     19  C   UNL     1      37.212  49.103  25.873 -0.33 +0.01    +0.140 A  BRANCH  11  20ATOM     20  N   UNL     1      33.440  48.819  30.526 -0.11 +0.01    -0.369 N  ATOM     21  N   UNL     1      31.606  49.426  32.826 -0.08 -0.00    -0.303 NA ATOM     22  C   UNL     1      31.406  48.305  31.886 -0.33 -0.00    +0.105 C  ATOM     23  C   UNL     1      32.762  50.261  32.436 -0.10 +0.00    +0.105 C  ATOM     24  C   UNL     1      32.000  48.494  30.471 -0.33 +0.00    +0.132 C  ATOM     25  C   UNL     1      33.906  49.467  31.765 -0.13 -0.00    +0.132 C  ATOM     26  C   UNL     1      30.405  50.245  32.962 -0.23 +0.00    +0.105 C  ENDBRANCH  11  20ENDBRANCH   5  10ENDBRANCH   1   4BRANCH   3  27ATOM     27  C   UNL     1      41.417  45.211  19.396 -0.40 +0.01    +0.088 C  BRANCH  27  28ATOM     28  N   UNL     1      40.797  45.581  18.115 -0.24 +0.01    -0.303 NA ATOM     29  C   UNL     1      41.327  46.848  17.584 -0.38 -0.01    +0.086 C  ATOM     30  C   UNL     1      39.337  45.603  18.218 -0.43 -0.01    +0.086 C  ATOM     31  C   UNL     1      40.353  47.595  16.662 -0.57 -0.01    +0.041 C  ATOM     32  C   UNL     1      38.729  45.642  16.815 -0.40 -0.01    +0.041 C  ATOM     33  C   UNL     1      39.472  46.615  15.883 -0.45 -0.02    +0.095 C  BRANCH  33  34ATOM     34  N   UNL     1      38.575  47.285  14.955 -0.22 +0.11    -0.291 N  ATOM     35  C   UNL     1      38.307  48.625  14.913 -0.25 -0.18    +0.295 A  ATOM     36  C   UNL     1      37.808  46.694  13.973 -0.41 -0.03    +0.072 A  ATOM     37  N   UNL     1      37.432  48.952  14.001 -0.45 +0.12    -0.195 NA ATOM     38  C   UNL     1      37.650  45.372  13.536 -0.39 -0.01    +0.029 A  ATOM     39  C   UNL     1      37.106  47.759  13.403 -0.51 -0.04    +0.092 A  ATOM     40  C   UNL     1      36.746  45.147  12.489 -0.53 -0.00    +0.002 A  ATOM     41  C   UNL     1      36.204  47.510  12.357 -0.66 -0.02    +0.031 A  ATOM     42  C   UNL     1      36.033  46.195  11.908 -0.59 -0.00    +0.002 A  BRANCH  35  43ATOM     43  O   UNL     1      38.844  49.526  15.709 -0.14 +0.34    -0.480 OA ATOM     44  H   UNL     1      38.444  50.343  15.355 -0.30 -0.32    +0.296 HD ENDBRANCH  35  43ENDBRANCH  33  34ENDBRANCH  27  28ENDBRANCH   3  27TORSDOF 7TERENDMDL