REMARK SMILES CN1CCN(c2ccc3nc(-c4ccc(CN5CCC(n6c(O)nc7ccccc76)CC5)c(F)c4)cnc3c2)CC1
REMARK SMILES IDX 16 1 15 2 12 3 13 4 35 5 14 6 33 7 34 8 11 9 6 10 7 11 39 12
REMARK SMILES IDX 8 13 38 14 9 15 37 16 10 17 36 18 5 19 2 20 3 21 41 22 4 23
REMARK SMILES IDX 40 24 1 25 17 26 18 27 32 28 19 29 31 30 20 31 21 32 22 33
REMARK SMILES IDX 30 34 24 35 29 36 25 37 28 38 26 39 27 40 23 41
REMARK H PARENT 23 42
ROOT
ATOM      1  C   UNL     1       3.649   2.061   1.005  1.00  0.00     0.123 C 
ENDROOT
BRANCH   1   2
ATOM      2  C   UNL     1       2.216   1.698   0.704  1.00  0.00     0.002 A 
ATOM      3  C   UNL     1      -0.514   1.103   0.146  1.00  0.00     0.005 A 
ATOM      4  C   UNL     1       0.092   0.719   1.358  1.00  0.00     0.011 A 
ATOM      5  C   UNL     1       0.284   1.795  -0.779  1.00  0.00     0.050 A 
ATOM      6  C   UNL     1       1.433   1.010   1.635  1.00  0.00     0.009 A 
ATOM      7  C   UNL     1       1.621   2.084  -0.497  1.00  0.00     0.128 A 
ATOM      8  F   UNL     1       2.336   2.754  -1.412  1.00  0.00    -0.207 F 
BRANCH   3   9
ATOM      9  C   UNL     1      -1.934   0.799  -0.110  1.00  0.00     0.089 A 
ATOM     10  C   UNL     1      -6.815  -0.053   0.441  1.00  0.00     0.039 A 
ATOM     11  C   UNL     1      -6.274   0.196   1.704  1.00  0.00     0.028 A 
ATOM     12  C   UNL     1      -5.929  -0.001  -0.650  1.00  0.00     0.056 A 
ATOM     13  C   UNL     1      -4.909   0.460   1.865  1.00  0.00     0.033 A 
ATOM     14  C   UNL     1      -4.570   0.264  -0.510  1.00  0.00     0.091 A 
ATOM     15  C   UNL     1      -4.049   0.495   0.780  1.00  0.00     0.090 A 
ATOM     16  N   UNL     1      -3.773   0.296  -1.596  1.00  0.00    -0.252 NA
ATOM     17  N   UNL     1      -2.741   0.754   0.980  1.00  0.00    -0.245 NA
ATOM     18  C   UNL     1      -2.463   0.565  -1.373  1.00  0.00     0.140 A 
BRANCH  10  19
ATOM     19  N   UNL     1      -8.173  -0.315   0.216  1.00  0.00    -0.369 N 
ATOM     20  N   UNL     1     -10.881  -1.453   0.220  1.00  0.00    -0.303 NA
ATOM     21  C   UNL     1      -9.905  -1.759  -0.848  1.00  0.00     0.105 C 
ATOM     22  C   UNL     1     -10.588  -0.110   0.768  1.00  0.00     0.105 C 
ATOM     23  C   UNL     1      -8.435  -1.651  -0.375  1.00  0.00     0.132 C 
ATOM     24  C   UNL     1      -9.137   0.011   1.290  1.00  0.00     0.132 C 
ATOM     25  C   UNL     1     -12.246  -1.511  -0.299  1.00  0.00     0.105 C 
ENDBRANCH  10  19
ENDBRANCH   3   9
ENDBRANCH   1   2
BRANCH   1  26
ATOM     26  N   UNL     1       4.495   0.913   1.379  1.00  0.00    -0.299 NA
ATOM     27  C   UNL     1       4.668  -0.069   0.303  1.00  0.00     0.087 C 
ATOM     28  C   UNL     1       5.766   1.357   1.975  1.00  0.00     0.087 C 
ATOM     29  C   UNL     1       5.621   0.383  -0.803  1.00  0.00     0.041 C 
ATOM     30  C   UNL     1       7.024   0.830   1.281  1.00  0.00     0.041 C 
ATOM     31  C   UNL     1       6.902   1.018  -0.235  1.00  0.00     0.095 C 
BRANCH  31  32
ATOM     32  N   UNL     1       8.109   0.623  -0.950  1.00  0.00    -0.291 N 
ATOM     33  C   UNL     1       8.943   1.447  -1.678  1.00  0.00     0.295 A 
ATOM     34  C   UNL     1       8.624  -0.658  -1.040  1.00  0.00     0.072 A 
ATOM     35  N   UNL     1       9.922   0.785  -2.238  1.00  0.00    -0.195 NA
ATOM     36  C   UNL     1       8.235  -1.903  -0.523  1.00  0.00     0.029 A 
ATOM     37  C   UNL     1       9.752  -0.516  -1.850  1.00  0.00     0.092 A 
ATOM     38  C   UNL     1       9.030  -3.012  -0.839  1.00  0.00     0.002 A 
ATOM     39  C   UNL     1      10.534  -1.640  -2.157  1.00  0.00     0.031 A 
ATOM     40  C   UNL     1      10.164  -2.886  -1.642  1.00  0.00     0.002 A 
BRANCH  33  41
ATOM     41  O   UNL     1       8.822   2.755  -1.838  1.00  0.00    -0.480 OA
ATOM     42  H   UNL     1       8.233   3.119  -1.165  1.00  0.00     0.296 HD
ENDBRANCH  33  41
ENDBRANCH  31  32
ENDBRANCH   1  26
TORSDOF 6
