MODEL        3USER    Run = 3USERUSER    Estimated Free Energy of Binding    = -11.99 kcal/mol  [=(1)+(2)+(3)-(4)]USERUSER    (1) Final Intermolecular Energy     = -13.78 kcal/molUSER        vdW + Hbond + desolv Energy     = -13.48 kcal/molUSER        Electrostatic Energy            =  -0.30 kcal/molUSER        Moving Ligand-Fixed Receptor    = -13.78 kcal/molUSER        Moving Ligand-Moving Receptor   =  +0.00 kcal/molUSER    (2) Final Total Internal Energy     =  -1.58 kcal/molUSER    (3) Torsional Free Energy           =  +1.79 kcal/molUSER    (4) Unbound System's Energy         =  -1.58 kcal/molUSERUSERREMARK SMILES CN1CCN(c2ccc3nc(-c4ccc(CN5CCC(n6c(O)nc7ccccc76)CC5)c(F)c4)cnc3c2)CC1REMARK SMILES IDX 16 1 15 2 12 3 13 4 35 5 14 6 33 7 34 8 11 9 6 10 7 11 39 12REMARK SMILES IDX 8 13 38 14 9 15 37 16 10 17 36 18 5 19 2 20 3 21 41 22 4 23REMARK SMILES IDX 40 24 1 25 17 26 18 27 32 28 19 29 31 30 20 31 21 32 22 33REMARK SMILES IDX 30 34 24 35 29 36 25 37 28 38 26 39 27 40 23 41REMARK H PARENT 23 42USER                              x       y       z     vdW  Elec       q    TypeUSER                           _______ _______ _______ _____ _____    ______ ____ROOTATOM      1  C   UNL     1      38.553  48.499  14.080 -0.43 -0.05    +0.123 C  ENDROOTBRANCH   1   2ATOM      2  C   UNL     1      37.471  47.583  14.595 -0.49 -0.00    +0.002 A  ATOM      3  C   UNL     1      35.363  45.914  15.540 -0.35 -0.00    +0.005 A  ATOM      4  C   UNL     1      36.201  46.617  16.427 -0.36 -0.01    +0.011 A  ATOM      5  C   UNL     1      35.608  46.071  14.166 -0.39 -0.03    +0.050 A  ATOM      6  C   UNL     1      37.238  47.438  15.966 -0.36 -0.01    +0.009 A  ATOM      7  C   UNL     1      36.642  46.892  13.711 -0.41 -0.07    +0.128 A  ATOM      8  F   UNL     1      36.828  47.012  12.389 -0.20 +0.08    -0.207 F  BRANCH   3   9ATOM      9  C   UNL     1      34.268  45.072  16.054 -0.26 -0.06    +0.089 A  ATOM     10  C   UNL     1      31.644  41.314  18.017 -0.32 -0.01    +0.039 A  ATOM     11  C   UNL     1      32.983  40.923  17.959 -0.39 -0.01    +0.028 A  ATOM     12  C   UNL     1      31.340  42.607  17.552 -0.25 -0.01    +0.056 A  ATOM     13  C   UNL     1      33.963  41.777  17.439 -0.37 -0.01    +0.033 A  ATOM     14  C   UNL     1      32.301  43.471  17.036 -0.25 -0.03    +0.091 A  ATOM     15  C   UNL     1      33.643  43.042  16.974 -0.29 -0.04    +0.090 A  ATOM     16  N   UNL     1      31.944  44.696  16.603 -0.39 +0.09    -0.252 NA ATOM     17  N   UNL     1      34.618  43.832  16.482 -0.18 +0.11    -0.245 NA ATOM     18  C   UNL     1      32.940  45.477  16.118 -0.17 -0.12    +0.140 A  BRANCH  10  19ATOM     19  N   UNL     1      30.621  40.508  18.533 -0.06 +0.01    -0.369 N  ATOM     20  N   UNL     1      28.695  38.350  19.045 -0.14 -0.08    -0.303 NA ATOM     21  C   UNL     1      28.335  39.551  18.262 -0.25 +0.02    +0.105 C  ATOM     22  C   UNL     1      29.755  38.708  20.014 -0.31 +0.01    +0.105 C  ATOM     23  C   UNL     1      29.549  40.201  17.554 -0.29 +0.01    +0.132 C  ATOM     24  C   UNL     1      31.000  39.318  19.327 -0.36 +0.02    +0.132 C  ATOM     25  C   UNL     1      27.523  37.818  19.738 -0.26 -0.01    +0.105 C  ENDBRANCH  10  19ENDBRANCH   3   9ENDBRANCH   1   2BRANCH   1  26ATOM     26  N   UNL     1      39.922  47.996  14.297 -0.21 +0.06    -0.299 NA ATOM     27  C   UNL     1      40.690  48.777  15.273 -0.61 -0.02    +0.087 C  ATOM     28  C   UNL     1      39.923  46.550  14.574 -0.37 -0.01    +0.087 C  ATOM     29  C   UNL     1      40.278  48.534  16.725 -0.34 -0.01    +0.041 C  ATOM     30  C   UNL     1      40.595  46.144  15.887 -0.34 -0.00    +0.041 C  ATOM     31  C   UNL     1      40.094  47.037  17.028 -0.49 -0.02    +0.095 C  BRANCH  31  32ATOM     32  N   UNL     1      40.625  46.641  18.327 -0.29 +0.02    -0.291 N  ATOM     33  C   UNL     1      41.853  46.984  18.855 -0.31 +0.01    +0.295 A  ATOM     34  C   UNL     1      39.994  45.833  19.256 -0.37 -0.00    +0.072 A  ATOM     35  N   UNL     1      42.055  46.436  20.025 -0.30 -0.03    -0.195 NA ATOM     36  C   UNL     1      38.750  45.185  19.299 -0.37 -0.00    +0.029 A  ATOM     37  C   UNL     1      40.916  45.728  20.299 -0.32 +0.01    +0.092 A  ATOM     38  C   UNL     1      38.452  44.431  20.441 -0.36 -0.00    +0.002 A  ATOM     39  C   UNL     1      40.600  44.965  21.433 -0.28 +0.00    +0.031 A  ATOM     40  C   UNL     1      39.360  44.322  21.495 -0.30 +0.00    +0.002 A  BRANCH  33  41ATOM     41  O   UNL     1      42.766  47.761  18.296 -0.28 -0.00    -0.480 OA ATOM     42  H   UNL     1      43.271  47.263  17.641 -0.38 -0.09    +0.296 HD ENDBRANCH  33  41ENDBRANCH  31  32ENDBRANCH   1  26TORSDOF 6TERENDMDL