MODEL        6USER    Run = 6USERUSER    Estimated Free Energy of Binding    = -10.11 kcal/mol  [=(1)+(2)+(3)-(4)]USERUSER    (1) Final Intermolecular Energy     = -12.79 kcal/molUSER        vdW + Hbond + desolv Energy     = -12.20 kcal/molUSER        Electrostatic Energy            =  -0.60 kcal/molUSER        Moving Ligand-Fixed Receptor    = -12.79 kcal/molUSER        Moving Ligand-Moving Receptor   =  +0.00 kcal/molUSER    (2) Final Total Internal Energy     =  -2.39 kcal/molUSER    (3) Torsional Free Energy           =  +2.68 kcal/molUSER    (4) Unbound System's Energy         =  -2.39 kcal/molUSERUSERREMARK SMILES COc1ccc(O)c(C(=O)c2ccc(C(=O)N[C@@H]3CCN(c4cn[nH]c4)C[C@H]3NC(=O)c3ccncc3)cc2)c1FREMARK SMILES IDX 11 1 12 2 13 3 14 4 38 5 39 6 9 7 10 8 8 9 3 10 4 11 40 12REMARK SMILES IDX 5 13 6 14 41 15 2 16 1 17 7 18 15 20 17 21 16 22 18 24 19 25REMARK SMILES IDX 28 26 20 27 27 28 21 29 29 30 30 31 31 33 32 34 33 35 37 36REMARK SMILES IDX 34 37 36 38 35 39 22 40 23 41 26 42 24 43 25 44REMARK H PARENT 7 19 17 23 29 32 25 45USER                              x       y       z     vdW  Elec       q    TypeUSER                           _______ _______ _______ _____ _____    ______ ____ROOTATOM      1  C   UNL     1      41.210  44.693  21.351 -0.30 +0.00    +0.023 A  ATOM      2  C   UNL     1      40.098  44.573  22.194 -0.25 +0.00    +0.013 A  ATOM      3  C   UNL     1      38.803  44.506  21.667 -0.32 +0.00    +0.014 A  ATOM      4  C   UNL     1      38.607  44.548  20.284 -0.34 -0.00    +0.039 A  ATOM      5  C   UNL     1      39.716  44.699  19.441 -0.39 -0.00    +0.014 A  ATOM      6  C   UNL     1      41.009  44.786  19.971 -0.38 +0.00    +0.013 A  ENDROOTBRANCH   1   7ATOM      7  C   UNL     1      42.555  44.803  21.980 -0.19 +0.04    +0.199 C  ATOM      8  O   UNL     1      43.179  43.774  22.238 -0.20 -0.05    -0.288 OA BRANCH   7   9ATOM      9  C   UNL     1      43.177  46.082  22.380 -0.19 +0.03    +0.104 A  ATOM     10  C   UNL     1      43.031  48.372  23.200 -0.29 +0.04    +0.155 A  ATOM     11  C   UNL     1      44.423  48.472  23.163 -0.20 +0.01    +0.053 A  ATOM     12  C   UNL     1      42.419  47.178  22.792 -0.19 +0.03    +0.179 A  ATOM     13  C   UNL     1      45.190  47.396  22.708 -0.24 +0.03    +0.051 A  ATOM     14  C   UNL     1      44.568  46.216  22.307 -0.16 +0.09    +0.130 A  ATOM     15  F   UNL     1      41.078  47.107  22.791 -0.05 -0.02    -0.202 F  BRANCH  10  16ATOM     16  O   UNL     1      42.175  49.358  23.610 -0.78 -0.18    -0.494 OA ATOM     17  C   UNL     1      41.634  49.250  24.920 -0.23 +0.06    +0.278 C  ENDBRANCH  10  16BRANCH  14  18ATOM     18  O   UNL     1      45.386  45.223  21.840 -0.08 -0.68    -0.507 OA ATOM     19  H   UNL     1      45.081  44.378  22.237 +0.10 +0.19    +0.293 HD ENDBRANCH  14  18ENDBRANCH   7   9ENDBRANCH   1   7BRANCH   4  20ATOM     20  C   UNL     1      37.250  44.481  19.666 -0.23 -0.02    +0.251 C  ATOM     21  N   UNL     1      37.198  44.173  18.318 -0.11 +0.07    -0.347 N  ATOM     22  O   UNL     1      36.257  44.718  20.346 -0.25 +0.02    -0.269 OA ATOM     23  H   UNL     1      38.047  44.345  17.791 +0.10 -0.03    +0.164 HD BRANCH  21  24ATOM     24  C   UNL     1      35.930  44.210  17.574 -0.30 -0.04    +0.108 C  ATOM     25  C   UNL     1      36.065  43.628  16.157 -0.43 -0.02    +0.048 C  ATOM     26  C   UNL     1      35.350  45.648  17.493 -0.34 -0.07    +0.124 C  ATOM     27  C   UNL     1      36.836  44.546  15.212 -0.34 -0.04    +0.119 C  ATOM     28  C   UNL     1      36.211  46.514  16.555 -0.32 -0.11    +0.143 C  ATOM     29  N   UNL     1      36.249  45.900  15.210 -0.11 +0.23    -0.367 N  BRANCH  26  30ATOM     30  N   UNL     1      33.967  45.637  17.001 -0.12 +0.30    -0.345 N  ATOM     31  C   UNL     1      33.059  44.684  17.397 -0.20 -0.11    +0.251 C  ATOM     32  H   UNL     1      33.782  46.281  16.241 -0.24 -0.28    +0.164 HD ATOM     33  O   UNL     1      33.309  43.877  18.286 -0.19 +0.07    -0.269 OA BRANCH  31  34ATOM     34  C   UNL     1      31.733  44.662  16.710 -0.25 -0.01    +0.042 A  ATOM     35  C   UNL     1      30.695  43.801  17.068 -0.24 -0.01    +0.034 A  ATOM     36  C   UNL     1      31.530  45.570  15.668 -0.38 -0.02    +0.034 A  ATOM     37  C   UNL     1      29.508  43.880  16.358 -0.21 -0.04    +0.112 A  ATOM     38  C   UNL     1      30.306  45.571  15.023 -0.37 -0.06    +0.112 A  ATOM     39  N   UNL     1      29.292  44.741  15.342 -0.16 +0.17    -0.265 NA ENDBRANCH  31  34ENDBRANCH  26  30BRANCH  29  40ATOM     40  C   UNL     1      36.386  46.695  14.106 -0.41 -0.05    +0.075 A  ATOM     41  C   UNL     1      37.511  47.438  13.669 -0.41 -0.06    +0.160 A  ATOM     42  C   UNL     1      35.448  46.916  13.127 -0.42 -0.09    +0.131 A  ATOM     43  N   UNL     1      37.291  48.087  12.520 -0.95 +0.02    -0.182 NA ATOM     44  N   UNL     1      36.028  47.755  12.216 -0.43 +0.15    -0.284 N  ATOM     45  H   UNL     1      35.624  48.128  11.362 -0.22 -0.15    +0.189 HD ENDBRANCH  29  40ENDBRANCH  21  24ENDBRANCH   4  20TORSDOF 9TERENDMDL