REMARK SMILES COc1ccc(O)c(C(=O)c2ccc(C(=O)N[C@@H]3CCN(c4cn[nH]c4)C[C@H]3NC(=O)c3ccncc3)cc2)c1F
REMARK SMILES IDX 11 1 12 2 13 3 14 4 38 5 39 6 9 7 10 8 8 9 3 10 4 11 40 12
REMARK SMILES IDX 5 13 6 14 41 15 2 16 1 17 7 18 15 20 17 21 16 22 18 24 19 25
REMARK SMILES IDX 28 26 20 27 27 28 21 29 29 30 30 31 31 33 32 34 33 35 37 36
REMARK SMILES IDX 34 37 36 38 35 39 22 40 23 41 26 42 24 43 25 44
REMARK H PARENT 7 19 17 23 29 32 25 45
ROOT
ATOM      1  C   UNL     1       4.144  -1.200   0.886  1.00  0.00     0.023 A 
ATOM      2  C   UNL     1       3.096  -1.917   0.295  1.00  0.00     0.013 A 
ATOM      3  C   UNL     1       1.776  -1.458   0.380  1.00  0.00     0.014 A 
ATOM      4  C   UNL     1       1.492  -0.264   1.050  1.00  0.00     0.039 A 
ATOM      5  C   UNL     1       2.535   0.438   1.667  1.00  0.00     0.014 A 
ATOM      6  C   UNL     1       3.852  -0.034   1.599  1.00  0.00     0.013 A 
ENDROOT
BRANCH   1   7
ATOM      7  C   UNL     1       5.517  -1.768   0.795  1.00  0.00     0.199 C 
ATOM      8  O   UNL     1       5.652  -2.977   0.610  1.00  0.00    -0.288 OA
BRANCH   7   9
ATOM      9  C   UNL     1       6.751  -0.976   0.976  1.00  0.00     0.104 A 
ATOM     10  C   UNL     1       8.045   1.070   0.696  1.00  0.00     0.155 A 
ATOM     11  C   UNL     1       9.111   0.488   1.386  1.00  0.00     0.053 A 
ATOM     12  C   UNL     1       6.877   0.323   0.484  1.00  0.00     0.179 A 
ATOM     13  C   UNL     1       9.012  -0.829   1.843  1.00  0.00     0.051 A 
ATOM     14  C   UNL     1       7.846  -1.558   1.625  1.00  0.00     0.130 A 
ATOM     15  F   UNL     1       5.875   0.877  -0.218  1.00  0.00    -0.202 F 
BRANCH  10  16
ATOM     16  O   UNL     1       8.027   2.341   0.190  1.00  0.00    -0.494 OA
ATOM     17  C   UNL     1       9.188   3.138   0.383  1.00  0.00     0.278 C 
ENDBRANCH  10  16
BRANCH  14  18
ATOM     18  O   UNL     1       7.843  -2.852   2.071  1.00  0.00    -0.507 OA
ATOM     19  H   UNL     1       7.097  -3.315   1.630  1.00  0.00     0.293 HD
ENDBRANCH  14  18
ENDBRANCH   7   9
ENDBRANCH   1   7
BRANCH   4  20
ATOM     20  C   UNL     1       0.105   0.273   1.172  1.00  0.00     0.251 C 
ATOM     21  N   UNL     1      -0.808  -0.150   0.222  1.00  0.00    -0.347 N 
ATOM     22  O   UNL     1      -0.167   1.066   2.067  1.00  0.00    -0.269 OA
ATOM     23  H   UNL     1      -0.416  -0.500  -0.645  1.00  0.00     0.164 HD
BRANCH  21  24
ATOM     24  C   UNL     1      -2.165   0.414   0.162  1.00  0.00     0.108 C 
ATOM     25  C   UNL     1      -3.012   0.033   1.388  1.00  0.00     0.048 C 
ATOM     26  C   UNL     1      -2.908  -0.006  -1.135  1.00  0.00     0.124 C 
ATOM     27  C   UNL     1      -3.443  -1.431   1.377  1.00  0.00     0.119 C 
ATOM     28  C   UNL     1      -3.266  -1.503  -1.079  1.00  0.00     0.143 C 
ATOM     29  N   UNL     1      -4.113  -1.766   0.105  1.00  0.00    -0.367 N 
BRANCH  26  30
ATOM     30  N   UNL     1      -4.138   0.775  -1.320  1.00  0.00    -0.345 N 
ATOM     31  C   UNL     1      -4.121   2.056  -1.817  1.00  0.00     0.251 C 
ATOM     32  H   UNL     1      -4.968   0.360  -0.914  1.00  0.00     0.164 HD
ATOM     33  O   UNL     1      -3.099   2.567  -2.263  1.00  0.00    -0.269 OA
BRANCH  31  34
ATOM     34  C   UNL     1      -5.404   2.820  -1.806  1.00  0.00     0.042 A 
ATOM     35  C   UNL     1      -6.547   2.394  -1.128  1.00  0.00     0.034 A 
ATOM     36  C   UNL     1      -5.441   4.032  -2.499  1.00  0.00     0.034 A 
ATOM     37  C   UNL     1      -7.677   3.194  -1.187  1.00  0.00     0.112 A 
ATOM     38  C   UNL     1      -6.618   4.759  -2.495  1.00  0.00     0.112 A 
ATOM     39  N   UNL     1      -7.739   4.363  -1.858  1.00  0.00    -0.265 NA
ENDBRANCH  31  34
ENDBRANCH  26  30
BRANCH  29  40
ATOM     40  C   UNL     1      -5.031  -2.778   0.070  1.00  0.00     0.075 A 
ATOM     41  C   UNL     1      -5.609  -3.504   1.142  1.00  0.00     0.160 A 
ATOM     42  C   UNL     1      -5.645  -3.297  -1.044  1.00  0.00     0.131 A 
ATOM     43  N   UNL     1      -6.498  -4.415   0.733  1.00  0.00    -0.182 NA
ATOM     44  N   UNL     1      -6.497  -4.270  -0.600  1.00  0.00    -0.284 N 
ATOM     45  H   UNL     1      -7.113  -4.862  -1.149  1.00  0.00     0.189 HD
ENDBRANCH  29  40
ENDBRANCH  21  24
ENDBRANCH   4  20
TORSDOF 9
