REMARK SMILES CC1=C[C@@H]2[C@H](N1)C(F)=CN2Cc1ccc(C(=O)O)c(C)c1O
REMARK SMILES IDX 12 1 13 2 14 3 15 4 19 5 20 6 21 7 11 8 10 9 2 10 3 11 6 12
REMARK SMILES IDX 4 13 5 14 7 15 9 16 1 17 8 19 22 20 16 22 17 23 18 24
REMARK H PARENT 6 18 22 21 18 25
ROOT
ATOM      1  C   UNL     1       0.999  -0.201  -0.718  1.00  0.00     0.013 A 
ATOM      2  C   UNL     1       0.831  -0.295   0.670  1.00  0.00     0.010 A 
ATOM      3  C   UNL     1       1.887  -0.686   1.491  1.00  0.00     0.016 A 
ATOM      4  C   UNL     1       3.139  -1.001   0.942  1.00  0.00     0.066 A 
ATOM      5  C   UNL     1       3.340  -0.931  -0.455  1.00  0.00     0.006 A 
ATOM      6  C   UNL     1       4.660  -1.321  -1.067  1.00  0.00     0.049 C 
ATOM      7  C   UNL     1       2.269  -0.480  -1.253  1.00  0.00     0.124 A 
ENDROOT
BRANCH   1   8
ATOM      8  C   UNL     1      -0.122   0.277  -1.622  1.00  0.00     0.156 C 
BRANCH   8   9
ATOM      9  N   UNL     1      -1.448   0.048  -1.063  1.00  0.00    -0.362 N 
ATOM     10  C   UNL     1      -3.370   1.870   0.913  1.00  0.00     0.006 C 
ATOM     11  C   UNL     1      -2.336   2.031   0.072  1.00  0.00     0.021 C 
ATOM     12  N   UNL     1      -4.221   0.860   0.493  1.00  0.00    -0.378 N 
ATOM     13  C   UNL     1      -2.454   1.119  -1.116  1.00  0.00     0.136 C 
ATOM     14  C   UNL     1      -3.829   0.383  -0.840  1.00  0.00     0.167 C 
ATOM     15  C   UNL     1      -3.407  -1.054  -0.813  1.00  0.00     0.140 C 
ATOM     16  C   UNL     1      -2.085  -1.179  -0.972  1.00  0.00     0.119 C 
ATOM     17  C   UNL     1      -3.633   2.632   2.165  1.00  0.00     0.063 C 
ATOM     18  H   UNL     1      -5.209   0.993   0.677  1.00  0.00     0.161 HD
ATOM     19  F   UNL     1      -4.251  -2.096  -0.730  1.00  0.00    -0.208 F 
ENDBRANCH   8   9
ENDBRANCH   1   8
BRANCH   7  20
ATOM     20  O   UNL     1       2.422  -0.276  -2.602  1.00  0.00    -0.507 OA
ATOM     21  H   UNL     1       3.363  -0.147  -2.801  1.00  0.00     0.293 HD
ENDBRANCH   7  20
BRANCH   4  22
ATOM     22  C   UNL     1       4.248  -1.357   1.870  1.00  0.00     0.336 C 
ATOM     23  O   UNL     1       5.439  -1.192   1.682  1.00  0.00    -0.246 OA
BRANCH  22  24
ATOM     24  O   UNL     1       3.800  -1.926   3.004  1.00  0.00    -0.478 OA
ATOM     25  H   UNL     1       4.616  -2.122   3.510  1.00  0.00     0.297 HD
ENDBRANCH  22  24
ENDBRANCH   4  22
TORSDOF 5
