MODEL        7USER    Run = 7USERUSER    Estimated Free Energy of Binding    =  -8.56 kcal/mol  [=(1)+(2)+(3)-(4)]USERUSER    (1) Final Intermolecular Energy     = -11.24 kcal/molUSER        vdW + Hbond + desolv Energy     = -11.11 kcal/molUSER        Electrostatic Energy            =  -0.13 kcal/molUSER        Moving Ligand-Fixed Receptor    = -11.24 kcal/molUSER        Moving Ligand-Moving Receptor   =  +0.00 kcal/molUSER    (2) Final Total Internal Energy     =  -3.47 kcal/molUSER    (3) Torsional Free Energy           =  +2.68 kcal/molUSER    (4) Unbound System's Energy         =  -3.47 kcal/molUSERUSERREMARK SMILES CC[C@H](O)[C@@H](N)c1ccc(C(=O)Nc2nc(-c3ccccc3F)cs2)cc1NREMARK SMILES IDX 7 1 8 2 9 3 10 4 26 5 27 6 5 7 3 8 2 9 1 10 4 11 6 13 28 16REMARK SMILES IDX 11 19 13 20 12 21 14 23 15 24 25 25 16 26 24 27 17 28 18 29REMARK SMILES IDX 22 30 19 31 21 32 20 33 23 34REMARK H PARENT 4 12 6 14 6 15 28 17 28 18 13 22USER                              x       y       z     vdW  Elec       q    TypeUSER                           _______ _______ _______ _____ _____    ______ ____ROOTATOM      1  C   UNL     1      39.734  46.096  17.861 -0.45 +0.00    -0.006 A  ATOM      2  C   UNL     1      38.483  45.547  18.202 -0.39 -0.00    +0.008 A  ATOM      3  C   UNL     1      38.231  45.082  19.492 -0.32 -0.00    +0.014 A  ATOM      4  C   UNL     1      39.220  45.181  20.474 -0.34 +0.00    +0.042 A  ATOM      5  C   UNL     1      40.478  45.696  20.142 -0.35 +0.00    +0.039 A  ATOM      6  C   UNL     1      40.758  46.108  18.832 -0.45 -0.00    +0.037 A  ENDROOTBRANCH   1   7ATOM      7  C   UNL     1      39.919  46.657  16.457 -0.45 -0.02    +0.112 C  BRANCH   7   8ATOM      8  C   UNL     1      40.145  48.200  16.454 -0.48 -0.04    +0.135 C  BRANCH   8   9ATOM      9  C   UNL     1      39.878  48.889  15.108 -0.60 -0.01    +0.030 C  ATOM     10  C   UNL     1      41.118  49.457  14.428 -0.69 -0.00    +0.007 C  ENDBRANCH   8   9BRANCH   8  11ATOM     11  O   UNL     1      41.498  48.486  16.849 -0.77 +0.00    -0.391 OA ATOM     12  H   UNL     1      42.013  47.720  16.538 -0.37 -0.03    +0.211 HD ENDBRANCH   8  11ENDBRANCH   7   8BRANCH   7  13ATOM     13  N   UNL     1      41.037  45.973  15.748 -0.13 -0.03    -0.322 NA ATOM     14  H   UNL     1      41.720  46.693  15.501 +0.12 +0.03    +0.119 HD ATOM     15  H   UNL     1      41.515  45.396  16.444 -0.03 +0.02    +0.119 HD ENDBRANCH   7  13ENDBRANCH   1   7BRANCH   6  16ATOM     16  N   UNL     1      42.001  46.712  18.564 -0.24 -0.01    -0.398 N  ATOM     17  H   UNL     1      41.976  47.703  18.836 +0.07 +0.00    +0.156 HD ATOM     18  H   UNL     1      42.313  46.606  17.605 -0.41 -0.04    +0.156 HD ENDBRANCH   6  16BRANCH   4  19ATOM     19  C   UNL     1      38.903  44.713  21.852 -0.23 +0.01    +0.257 C  ATOM     20  N   UNL     1      38.421  45.690  22.689 -0.20 -0.03    -0.298 N  ATOM     21  O   UNL     1      39.062  43.524  22.103 -0.17 -0.01    -0.269 OA ATOM     22  H   UNL     1      38.210  46.609  22.327 +0.07 +0.03    +0.172 HD BRANCH  20  23ATOM     23  C   UNL     1      38.078  45.555  24.009 -0.17 +0.03    +0.190 A  ATOM     24  N   UNL     1      37.299  44.575  24.402 -0.30 -0.03    -0.220 NA ATOM     25  S   UNL     1      38.590  46.630  25.223 -0.34 -0.01    -0.105 S  ATOM     26  C   UNL     1      37.075  44.661  25.772 -0.29 -0.00    +0.086 A  ATOM     27  C   UNL     1      37.718  45.720  26.385 -0.26 -0.01    +0.097 A  BRANCH  26  28ATOM     28  C   UNL     1      36.247  43.671  26.457 -0.38 -0.00    +0.037 A  ATOM     29  C   UNL     1      36.215  42.354  25.968 -0.43 -0.00    +0.013 A  ATOM     30  C   UNL     1      35.466  43.972  27.580 -0.42 -0.03    +0.132 A  ATOM     31  C   UNL     1      35.437  41.373  26.592 -0.59 -0.00    +0.001 A  ATOM     32  C   UNL     1      34.687  42.995  28.204 -0.46 -0.01    +0.040 A  ATOM     33  C   UNL     1      34.674  41.693  27.712 -0.51 -0.00    +0.003 A  ATOM     34  F   UNL     1      35.425  45.213  28.087 -0.13 +0.07    -0.206 F  ENDBRANCH  26  28ENDBRANCH  20  23ENDBRANCH   4  19TORSDOF 9TERENDMDL