REMARK SMILES CC[C@H](O)[C@@H](N)c1ccc(C(=O)Nc2nc(-c3cccc(C(F)(F)F)c3)cs2)cc1N
REMARK SMILES IDX 7 1 8 2 9 3 10 4 29 5 30 6 5 7 3 8 2 9 1 10 4 11 6 13 31 16
REMARK SMILES IDX 11 19 13 20 12 21 14 23 15 24 28 25 16 26 27 27 17 28 18 29
REMARK SMILES IDX 26 30 19 31 21 32 20 33 22 34 23 35 24 36 25 37
REMARK H PARENT 4 12 6 14 6 15 31 17 31 18 13 22
ROOT
ATOM      1  C   UNL     1      -3.960   0.404   0.546  1.00  0.00    -0.006 A 
ATOM      2  C   UNL     1      -3.641   0.160   1.899  1.00  0.00     0.008 A 
ATOM      3  C   UNL     1      -2.357   0.391   2.401  1.00  0.00     0.014 A 
ATOM      4  C   UNL     1      -1.355   0.879   1.564  1.00  0.00     0.042 A 
ATOM      5  C   UNL     1      -1.653   1.141   0.225  1.00  0.00     0.039 A 
ATOM      6  C   UNL     1      -2.921   0.852  -0.303  1.00  0.00     0.037 A 
ENDROOT
BRANCH   1   7
ATOM      7  C   UNL     1      -5.385   0.202   0.015  1.00  0.00     0.112 C 
BRANCH   7   8
ATOM      8  C   UNL     1      -5.549  -0.998  -0.980  1.00  0.00     0.135 C 
BRANCH   8   9
ATOM      9  C   UNL     1      -4.864  -2.323  -0.612  1.00  0.00     0.030 C 
ATOM     10  C   UNL     1      -5.387  -2.987   0.649  1.00  0.00     0.007 C 
ENDBRANCH   8   9
BRANCH   8  11
ATOM     11  O   UNL     1      -5.083  -0.597  -2.286  1.00  0.00    -0.391 OA
ATOM     12  H   UNL     1      -5.299  -1.325  -2.898  1.00  0.00     0.211 HD
ENDBRANCH   8  11
ENDBRANCH   7   8
BRANCH   7  13
ATOM     13  N   UNL     1      -6.420   0.167   1.065  1.00  0.00    -0.322 NA
ATOM     14  H   UNL     1      -6.298  -0.646   1.662  1.00  0.00     0.119 HD
ATOM     15  H   UNL     1      -6.316   0.993   1.654  1.00  0.00     0.119 HD
ENDBRANCH   7  13
ENDBRANCH   1   7
BRANCH   6  16
ATOM     16  N   UNL     1      -3.145   1.233  -1.641  1.00  0.00    -0.398 N 
ATOM     17  H   UNL     1      -3.874   0.653  -2.080  1.00  0.00     0.156 HD
ATOM     18  H   UNL     1      -3.438   2.205  -1.701  1.00  0.00     0.156 HD
ENDBRANCH   6  16
BRANCH   4  19
ATOM     19  C   UNL     1      -0.004   1.134   2.140  1.00  0.00     0.257 C 
ATOM     20  N   UNL     1       1.040   0.926   1.268  1.00  0.00    -0.298 N 
ATOM     21  O   UNL     1       0.064   1.462   3.318  1.00  0.00    -0.269 OA
ATOM     22  H   UNL     1       0.866   0.544   0.350  1.00  0.00     0.172 HD
BRANCH  20  23
ATOM     23  C   UNL     1       2.376   1.098   1.522  1.00  0.00     0.190 A 
ATOM     24  N   UNL     1       3.275   0.795   0.615  1.00  0.00    -0.220 NA
ATOM     25  S   UNL     1       2.979   1.720   2.985  1.00  0.00    -0.105 S 
ATOM     26  C   UNL     1       4.550   1.069   1.094  1.00  0.00     0.084 A 
ATOM     27  C   UNL     1       4.577   1.571   2.381  1.00  0.00     0.097 A 
BRANCH  26  28
ATOM     28  C   UNL     1       5.730   0.809   0.271  1.00  0.00     0.002 A 
ATOM     29  C   UNL     1       6.986   1.357   0.566  1.00  0.00     0.010 A 
ATOM     30  C   UNL     1       5.609  -0.010  -0.864  1.00  0.00     0.023 A 
ATOM     31  C   UNL     1       8.093   1.084  -0.244  1.00  0.00     0.001 A 
ATOM     32  C   UNL     1       6.711  -0.285  -1.692  1.00  0.00     0.056 A 
ATOM     33  C   UNL     1       7.958   0.264  -1.363  1.00  0.00     0.013 A 
BRANCH  32  34
ATOM     34  C   UNL     1       6.556  -1.189  -2.889  1.00  0.00     0.416 C 
ATOM     35  F   UNL     1       6.659  -2.506  -2.560  1.00  0.00    -0.166 F 
ATOM     36  F   UNL     1       7.496  -0.971  -3.851  1.00  0.00    -0.166 F 
ATOM     37  F   UNL     1       5.352  -1.051  -3.511  1.00  0.00    -0.166 F 
ENDBRANCH  32  34
ENDBRANCH  26  28
ENDBRANCH  20  23
ENDBRANCH   4  19
TORSDOF 10
