MODEL        1USER    Run = 1USERUSER    Estimated Free Energy of Binding    =  -7.67 kcal/mol  [=(1)+(2)+(3)-(4)]USERUSER    (1) Final Intermolecular Energy     =  -9.16 kcal/molUSER        vdW + Hbond + desolv Energy     =  -8.71 kcal/molUSER        Electrostatic Energy            =  -0.45 kcal/molUSER        Moving Ligand-Fixed Receptor    =  -9.16 kcal/molUSER        Moving Ligand-Moving Receptor   =  +0.00 kcal/molUSER    (2) Final Total Internal Energy     =  -0.36 kcal/molUSER    (3) Torsional Free Energy           =  +1.49 kcal/molUSER    (4) Unbound System's Energy         =  -0.36 kcal/molUSERUSERREMARK SMILES CC1=C[C@@H]2[C@H](N1)C(F)=CN2Cc1ccc(C(=O)O)c(C)c1OREMARK SMILES IDX 12 1 13 2 14 3 15 4 19 5 20 6 21 7 11 8 10 9 2 10 3 11 6 12REMARK SMILES IDX 4 13 5 14 7 15 9 16 1 17 8 19 22 20 16 22 17 23 18 24REMARK H PARENT 6 18 22 21 18 25USER                              x       y       z     vdW  Elec       q    TypeUSER                           _______ _______ _______ _____ _____    ______ ____ROOTATOM      1  C   UNL     1      36.219  46.006  16.129 -0.35 -0.01    +0.013 A  ATOM      2  C   UNL     1      36.600  44.830  15.468 -0.36 -0.00    +0.010 A  ATOM      3  C   UNL     1      36.201  43.583  15.946 -0.41 -0.01    +0.016 A  ATOM      4  C   UNL     1      35.415  43.481  17.104 -0.31 -0.02    +0.066 A  ATOM      5  C   UNL     1      35.025  44.645  17.804 -0.32 -0.00    +0.006 A  ATOM      6  C   UNL     1      34.231  44.551  19.080 -0.43 -0.01    +0.049 C  ATOM      7  C   UNL     1      35.399  45.893  17.265 -0.28 -0.09    +0.124 A  ENDROOTBRANCH   1   8ATOM      8  C   UNL     1      36.596  47.374  15.592 -0.32 -0.15    +0.156 C  BRANCH   8   9ATOM      9  N   UNL     1      38.002  47.701  15.789 -0.18 +0.22    -0.362 N  ATOM     10  C   UNL     1      40.283  46.533  17.875 -0.55 -0.00    +0.006 C  ATOM     11  C   UNL     1      39.109  46.160  17.342 -0.47 -0.00    +0.021 C  ATOM     12  N   UNL     1      41.029  47.297  16.992 -0.22 +0.05    -0.378 N  ATOM     13  C   UNL     1      38.989  46.618  15.916 -0.40 -0.04    +0.136 C  ATOM     14  C   UNL     1      40.385  47.326  15.672 -0.43 -0.03    +0.167 C  ATOM     15  C   UNL     1      39.963  48.712  15.291 -0.53 -0.05    +0.140 C  ATOM     16  C   UNL     1      38.634  48.851  15.344 -0.46 -0.07    +0.119 C  ATOM     17  C   UNL     1      40.787  46.216  19.240 -0.45 +0.00    +0.063 C  ATOM     18  H   UNL     1      42.035  47.177  17.026 -0.42 -0.05    +0.161 HD ATOM     19  F   UNL     1      40.798  49.673  14.863 -0.19 +0.07    -0.208 F  ENDBRANCH   8   9ENDBRANCH   1   8BRANCH   7  20ATOM     20  O   UNL     1      34.962  47.069  17.822 -0.21 +0.56    -0.507 OA ATOM     21  H   UNL     1      34.339  47.499  17.214 -0.23 -0.74    +0.293 HD ENDBRANCH   7  20BRANCH   4  22ATOM     22  C   UNL     1      34.969  42.127  17.538 -0.22 -0.12    +0.336 C  ATOM     23  O   UNL     1      35.474  41.434  18.401 -0.48 +0.05    -0.246 OA BRANCH  22  24ATOM     24  O   UNL     1      33.900  41.697  16.843 -0.13 +0.27    -0.478 OA ATOM     25  H   UNL     1      34.183  40.830  16.484 -0.36 -0.28    +0.297 HD ENDBRANCH  22  24ENDBRANCH   4  22TORSDOF 5TERENDMDL