MODEL        10USER    Run = 10USERUSER    Estimated Free Energy of Binding    =  -9.54 kcal/mol  [=(1)+(2)+(3)-(4)]USERUSER    (1) Final Intermolecular Energy     = -12.52 kcal/molUSER        vdW + Hbond + desolv Energy     = -12.36 kcal/molUSER        Electrostatic Energy            =  -0.16 kcal/molUSER        Moving Ligand-Fixed Receptor    = -12.52 kcal/molUSER        Moving Ligand-Moving Receptor   =  +0.00 kcal/molUSER    (2) Final Total Internal Energy     =  -2.73 kcal/molUSER    (3) Torsional Free Energy           =  +2.98 kcal/molUSER    (4) Unbound System's Energy         =  -2.73 kcal/molUSERUSERREMARK SMILES CC[C@H](O)[C@@H](N)c1ccc(C(=O)Nc2nc(-c3cccc(C(F)(F)F)c3)cs2)cc1NREMARK SMILES IDX 7 1 8 2 9 3 10 4 29 5 30 6 5 7 3 8 2 9 1 10 4 11 6 13 31 16REMARK SMILES IDX 11 19 13 20 12 21 14 23 15 24 28 25 16 26 27 27 17 28 18 29REMARK SMILES IDX 26 30 19 31 21 32 20 33 22 34 23 35 24 36 25 37REMARK H PARENT 4 12 6 14 6 15 31 17 31 18 13 22USER                              x       y       z     vdW  Elec       q    TypeUSER                           _______ _______ _______ _____ _____    ______ ____ROOTATOM      1  C   UNL     1      38.844  46.946  16.354 -0.43 +0.00    -0.006 A  ATOM      2  C   UNL     1      37.767  46.088  16.664 -0.37 -0.00    +0.008 A  ATOM      3  C   UNL     1      37.757  45.319  17.831 -0.36 -0.00    +0.014 A  ATOM      4  C   UNL     1      38.824  45.390  18.726 -0.38 -0.00    +0.042 A  ATOM      5  C   UNL     1      39.893  46.243  18.445 -0.42 -0.00    +0.039 A  ATOM      6  C   UNL     1      39.942  46.970  17.246 -0.46 -0.01    +0.037 A  ENDROOTBRANCH   1   7ATOM      7  C   UNL     1      38.823  47.829  15.100 -0.49 -0.05    +0.112 C  BRANCH   7   8ATOM      8  C   UNL     1      37.534  47.685  14.219 -0.48 -0.07    +0.135 C  BRANCH   8   9ATOM      9  C   UNL     1      37.499  46.540  13.195 -0.55 -0.01    +0.030 C  ATOM     10  C   UNL     1      36.568  46.761  12.017 -0.77 -0.00    +0.007 C  ENDBRANCH   8   9BRANCH   8  11ATOM     11  O   UNL     1      37.299  48.925  13.518 -0.52 +0.17    -0.391 OA ATOM     12  H   UNL     1      37.798  49.616  13.992 -0.40 -0.16    +0.211 HD ENDBRANCH   8  11ENDBRANCH   7   8BRANCH   7  13ATOM     13  N   UNL     1      39.136  49.247  15.356 -0.18 +0.20    -0.322 NA ATOM     14  H   UNL     1      39.773  49.607  14.652 -0.21 -0.08    +0.119 HD ATOM     15  H   UNL     1      38.274  49.789  15.290 -0.43 -0.11    +0.119 HD ENDBRANCH   7  13ENDBRANCH   1   7BRANCH   6  16ATOM     16  N   UNL     1      41.020  47.865  17.098 -0.24 +0.05    -0.398 N  ATOM     17  H   UNL     1      41.871  47.380  16.780 -0.43 -0.03    +0.156 HD ATOM     18  H   UNL     1      40.802  48.593  16.423 +0.10 -0.02    +0.156 HD ENDBRANCH   6  16BRANCH   4  19ATOM     19  C   UNL     1      38.768  44.572  19.971 -0.25 -0.01    +0.257 C  ATOM     20  N   UNL     1      37.534  44.029  20.245 -0.18 +0.01    -0.298 N  ATOM     21  O   UNL     1      39.786  44.484  20.645 -0.21 -0.01    -0.269 OA ATOM     22  H   UNL     1      36.736  44.266  19.673 +0.11 -0.02    +0.172 HD BRANCH  20  23ATOM     23  C   UNL     1      37.201  43.227  21.306 -0.28 +0.01    +0.190 A  ATOM     24  N   UNL     1      37.147  43.715  22.524 -0.25 -0.02    -0.220 NA ATOM     25  S   UNL     1      36.817  41.578  21.150 -0.63 -0.00    -0.105 S  ATOM     26  C   UNL     1      36.775  42.722  23.421 -0.32 +0.01    +0.084 A  ATOM     27  C   UNL     1      36.565  41.484  22.844 -0.44 +0.00    +0.097 A  BRANCH  26  28ATOM     28  C   UNL     1      36.652  43.012  24.849 -0.37 +0.00    +0.002 A  ATOM     29  C   UNL     1      36.223  42.052  25.776 -0.43 -0.00    +0.010 A  ATOM     30  C   UNL     1      36.961  44.300  25.317 -0.32 +0.00    +0.023 A  ATOM     31  C   UNL     1      36.120  42.366  27.134 -0.50 -0.00    +0.001 A  ATOM     32  C   UNL     1      36.852  44.632  26.678 -0.33 -0.01    +0.056 A  ATOM     33  C   UNL     1      36.437  43.647  27.584 -0.43 -0.00    +0.013 A  BRANCH  32  34ATOM     34  C   UNL     1      37.217  46.016  27.155 -0.16 -0.07    +0.416 C  ATOM     35  F   UNL     1      38.536  46.123  27.474 -0.07 +0.02    -0.166 F  ATOM     36  F   UNL     1      36.532  46.396  28.270 -0.14 +0.04    -0.166 F  ATOM     37  F   UNL     1      36.975  46.982  26.226 -0.13 +0.02    -0.166 F  ENDBRANCH  32  34ENDBRANCH  26  28ENDBRANCH  20  23ENDBRANCH   4  19TORSDOF 10TERENDMDL