
     RDKit          3D

 40 42  0  0  0  0  0  0  0  0999 V2000
   -3.4146    4.2452   -0.0000 C   0  0  0  0  0  0  0  0  0  0  0  0
   -3.4220    2.7252    0.0524 C   0  0  0  0  0  0  0  0  0  0  0  0
   -2.0710    2.2320   -0.2050 N   0  0  0  0  0  0  0  0  0  0  0  0
   -1.9704    0.8116   -0.1911 C   0  0  0  0  0  0  0  0  0  0  0  0
   -3.0700    0.0499   -0.0121 N   0  0  0  0  0  0  0  0  0  0  0  0
   -2.8935   -1.2841    0.0038 C   0  0  0  0  0  0  0  0  0  0  0  0
   -3.9922   -2.1140    0.1908 C   0  0  0  0  0  0  0  0  0  0  0  0
   -3.8589   -3.5031    0.2213 C   0  0  0  0  0  0  0  0  0  0  0  0
   -2.6033   -4.0740    0.0619 C   0  0  0  0  0  0  0  0  0  0  0  0
   -1.4924   -3.2508   -0.1274 C   0  0  0  0  0  0  0  0  0  0  0  0
   -1.6135   -1.8671   -0.1602 C   0  0  0  0  0  0  0  0  0  0  0  0
   -0.5159   -1.1160   -0.3499 N   0  0  0  0  0  0  0  0  0  0  0  0
   -0.6903    0.2240   -0.3944 C   0  0  0  0  0  0  0  0  0  0  0  0
    0.4157    1.0958   -0.6055 N   0  0  0  0  0  0  0  0  0  0  0  0
    1.6881    0.7695   -0.6311 C   0  0  0  0  0  0  0  0  0  0  0  0
    2.5018   -0.2698   -0.2873 C   0  0  0  0  0  0  0  0  0  0  0  0
    3.7069    0.4068   -0.6758 C   0  0  0  0  0  0  0  0  0  0  0  0
    5.0175    0.1438   -0.6405 C   0  0  0  0  0  0  0  0  0  0  0  0
    5.6289   -1.3243    0.0129 S   0  0  0  0  0  0  0  0  0  0  0  0
    5.1928   -1.3291    1.6387 N   0  0  0  0  0  0  0  0  0  0  0  0
    4.9439   -2.4637   -0.5550 O   0  0  0  0  0  0  0  0  0  0  0  0
    7.0737   -1.2652    0.0328 O   0  0  0  0  0  0  0  0  0  0  0  0
    2.8997    1.5820   -1.1615 C   0  0  0  0  0  0  0  0  0  0  0  0
    3.2067    3.2114   -0.4191 Cl  0  0  0  0  0  0  0  0  0  0  0  0
   -4.4196    4.6381    0.1819 H   0  0  0  0  0  0  0  0  0  0  0  0
   -2.7416    4.6614    0.7573 H   0  0  0  0  0  0  0  0  0  0  0  0
   -3.0781    4.6023   -0.9792 H   0  0  0  0  0  0  0  0  0  0  0  0
   -3.7714    2.4046    1.0413 H   0  0  0  0  0  0  0  0  0  0  0  0
   -4.1205    2.3532   -0.7068 H   0  0  0  0  0  0  0  0  0  0  0  0
   -1.4112    2.5733    0.4949 H   0  0  0  0  0  0  0  0  0  0  0  0
   -4.9751   -1.6661    0.3158 H   0  0  0  0  0  0  0  0  0  0  0  0
   -4.7336   -4.1316    0.3683 H   0  0  0  0  0  0  0  0  0  0  0  0
   -2.4834   -5.1543    0.0819 H   0  0  0  0  0  0  0  0  0  0  0  0
   -0.5084   -3.6960   -0.2561 H   0  0  0  0  0  0  0  0  0  0  0  0
    0.0695    1.9433   -1.0580 H   0  0  0  0  0  0  0  0  0  0  0  0
    2.2974   -1.2436    0.1554 H   0  0  0  0  0  0  0  0  0  0  0  0
    5.7387    0.8567   -1.0136 H   0  0  0  0  0  0  0  0  0  0  0  0
    4.5243   -2.0849    1.7968 H   0  0  0  0  0  0  0  0  0  0  0  0
    6.0362   -1.4411    2.2037 H   0  0  0  0  0  0  0  0  0  0  0  0
    2.9091    1.7490   -2.2455 H   0  0  0  0  0  0  0  0  0  0  0  0
  1  2  1  0
  2  3  1  0
  3  4  1  0
  4  5  2  0
  5  6  1  0
  6  7  2  0
  7  8  1  0
  8  9  2  0
  9 10  1  0
 10 11  2  0
 11 12  1  0
 12 13  2  0
 13 14  1  0
 14 15  1  0
 15 16  2  0
 16 17  1  0
 17 18  2  3
 18 19  1  0
 19 20  1  0
 19 21  2  0
 19 22  2  0
 17 23  1  0
 23 24  1  0
 13  4  1  0
 23 15  1  0
 11  6  1  0
  1 25  1  0
  1 26  1  0
  1 27  1  0
  2 28  1  0
  2 29  1  0
  3 30  1  0
  7 31  1  0
  8 32  1  0
  9 33  1  0
 10 34  1  0
 14 35  1  0
 16 36  1  0
 18 37  1  0
 20 38  1  0
 20 39  1  0
 23 40  1  0
M  END
$$$$
