
     RDKit          3D

 44 46  0  0  0  0  0  0  0  0999 V2000
   -3.3677   -2.1494    1.1672 C   0  0  0  0  0  0  0  0  0  0  0  0
   -3.3658   -1.0917    0.0563 C   0  0  0  0  0  0  0  0  0  0  0  0
   -2.2110   -0.2056    0.1614 N   0  0  0  0  0  0  0  0  0  0  0  0
   -0.9423   -0.6355   -0.1651 C   0  0  0  0  0  0  0  0  0  0  0  0
   -0.7083   -1.7646   -0.5727 O   0  0  0  0  0  0  0  0  0  0  0  0
   -0.0271    0.3790    0.0217 N   0  0  0  0  0  0  0  0  0  0  0  0
    1.3731    0.3070   -0.1122 C   0  0  0  0  0  0  0  0  0  0  0  0
    2.0770   -0.8836   -0.2833 C   0  0  0  0  0  0  0  0  0  0  0  0
    3.4735   -0.8738   -0.4005 C   0  0  0  0  0  0  0  0  0  0  0  0
    4.2015    0.3239   -0.3441 C   0  0  0  0  0  0  0  0  0  0  0  0
    5.6671    0.3298   -0.4718 C   0  0  0  0  0  0  0  0  0  0  0  0
    6.4766    0.9508    0.4867 C   0  0  0  0  0  0  0  0  0  0  0  0
    7.8531    0.9296    0.3222 C   0  0  0  0  0  0  0  0  0  0  0  0
    8.4762    0.3434   -0.7203 N   0  0  0  0  0  0  0  0  0  0  0  0
    7.6854   -0.2517   -1.6369 C   0  0  0  0  0  0  0  0  0  0  0  0
    6.3017   -0.2856   -1.5572 C   0  0  0  0  0  0  0  0  0  0  0  0
    3.4838    1.5150   -0.1628 C   0  0  0  0  0  0  0  0  0  0  0  0
    2.0883    1.5070   -0.0468 C   0  0  0  0  0  0  0  0  0  0  0  0
   -4.6468   -0.2705    0.0745 C   0  0  0  0  0  0  0  0  0  0  0  0
   -5.0140    0.4673    1.2168 C   0  0  0  0  0  0  0  0  0  0  0  0
   -6.1841    1.2297    1.2365 C   0  0  0  0  0  0  0  0  0  0  0  0
   -7.0082    1.2697    0.1155 C   0  0  0  0  0  0  0  0  0  0  0  0
   -6.6652    0.5465   -1.0254 C   0  0  0  0  0  0  0  0  0  0  0  0
   -5.4948   -0.2154   -1.0402 C   0  0  0  0  0  0  0  0  0  0  0  0
   -5.1711   -0.9274   -2.1604 O   0  0  0  0  0  0  0  0  0  0  0  0
   -3.3379   -1.6965    2.1644 H   0  0  0  0  0  0  0  0  0  0  0  0
   -4.2626   -2.7787    1.1075 H   0  0  0  0  0  0  0  0  0  0  0  0
   -2.4942   -2.8051    1.0891 H   0  0  0  0  0  0  0  0  0  0  0  0
   -3.2687   -1.6270   -0.8952 H   0  0  0  0  0  0  0  0  0  0  0  0
   -2.2759    0.5457    0.8277 H   0  0  0  0  0  0  0  0  0  0  0  0
   -0.4256    1.3012    0.1069 H   0  0  0  0  0  0  0  0  0  0  0  0
    1.5705   -1.8433   -0.3237 H   0  0  0  0  0  0  0  0  0  0  0  0
    3.9889   -1.8246   -0.5249 H   0  0  0  0  0  0  0  0  0  0  0  0
    6.0475    1.4337    1.3586 H   0  0  0  0  0  0  0  0  0  0  0  0
    8.5097    1.3974    1.0502 H   0  0  0  0  0  0  0  0  0  0  0  0
    8.2081   -0.7161   -2.4682 H   0  0  0  0  0  0  0  0  0  0  0  0
    5.7306   -0.7760   -2.3392 H   0  0  0  0  0  0  0  0  0  0  0  0
    4.0071    2.4684   -0.1250 H   0  0  0  0  0  0  0  0  0  0  0  0
    1.5741    2.4549    0.0874 H   0  0  0  0  0  0  0  0  0  0  0  0
   -4.3906    0.4497    2.1078 H   0  0  0  0  0  0  0  0  0  0  0  0
   -6.4530    1.7898    2.1288 H   0  0  0  0  0  0  0  0  0  0  0  0
   -7.9196    1.8617    0.1313 H   0  0  0  0  0  0  0  0  0  0  0  0
   -7.3207    0.5851   -1.8901 H   0  0  0  0  0  0  0  0  0  0  0  0
   -5.8384   -0.7644   -2.8466 H   0  0  0  0  0  0  0  0  0  0  0  0
  1  2  1  0
  2  3  1  0
  3  4  1  0
  4  5  2  0
  4  6  1  0
  6  7  1  0
  7  8  2  0
  8  9  1  0
  9 10  2  0
 10 11  1  0
 11 12  2  0
 12 13  1  0
 13 14  2  0
 14 15  1  0
 15 16  2  0
 10 17  1  0
 17 18  2  0
  2 19  1  0
 19 20  2  0
 20 21  1  0
 21 22  2  0
 22 23  1  0
 23 24  2  0
 24 25  1  0
 18  7  1  0
 24 19  1  0
 16 11  1  0
  1 26  1  0
  1 27  1  0
  1 28  1  0
  2 29  1  0
  3 30  1  0
  6 31  1  0
  8 32  1  0
  9 33  1  0
 12 34  1  0
 13 35  1  0
 15 36  1  0
 16 37  1  0
 17 38  1  0
 18 39  1  0
 20 40  1  0
 21 41  1  0
 22 42  1  0
 23 43  1  0
 25 44  1  0
M  END
$$$$
