
     RDKit          3D

 45 47  0  0  0  0  0  0  0  0999 V2000
    2.8529    1.3764    3.6293 C   0  0  0  0  0  2  0  0  0  0  0  0
    2.7225    1.1837    2.2115 C   0  0  0  0  0  0  0  0  0  0  0  0
    3.1547    2.1696    1.3186 C   0  0  0  0  0  0  0  0  0  0  0  0
    3.7007    3.3590    1.7195 O   0  0  0  0  0  0  0  0  0  0  0  0
    3.0527    1.9760   -0.0539 C   0  0  0  0  0  0  0  0  0  0  0  0
    2.5061    0.7915   -0.5518 C   0  0  0  0  0  0  0  0  0  0  0  0
    2.0419   -0.2242    0.3057 C   0  0  0  0  0  0  0  0  0  0  0  0
    1.4281   -1.4480   -0.2743 C   0  0  0  0  0  0  0  0  0  0  0  0
    0.3364   -1.3644   -1.1711 C   0  0  0  0  0  0  0  0  0  0  0  0
   -0.1971   -0.1347   -1.4830 O   0  0  0  0  0  0  0  0  0  0  0  0
   -1.5158    0.0460   -0.9407 C   0  0  1  0  0  0  0  0  0  0  0  0
   -1.4366    1.0403    0.2238 C   0  0  0  0  0  0  0  0  0  0  0  0
   -2.8198    1.4262    0.7327 C   0  0  0  0  0  0  0  0  0  0  0  0
   -3.7056    1.9625   -0.3902 C   0  0  2  0  0  0  0  0  0  0  0  0
   -5.0088    2.1915    0.1326 O   0  0  0  0  0  0  0  0  0  0  0  0
   -3.7880    0.9774   -1.5552 C   0  0  0  0  0  0  0  0  0  0  0  0
   -2.4038    0.5953   -2.0632 C   0  0  0  0  0  0  0  0  0  0  0  0
   -0.1855   -2.4955   -1.8214 C   0  0  0  0  0  0  0  0  0  0  0  0
    0.3393   -3.7562   -1.5582 C   0  0  0  0  0  0  0  0  0  0  0  0
    1.3779   -3.8680   -0.6501 C   0  0  0  0  0  0  0  0  0  0  0  0
    1.8888   -5.1066   -0.3772 O   0  0  0  0  0  0  0  0  0  0  0  0
    1.9086   -2.7434   -0.0084 C   0  0  0  0  0  0  0  0  0  0  0  0
    2.9139   -3.0038    0.8945 O   0  0  0  0  0  0  0  0  0  0  0  0
    2.1740   -0.0058    1.6937 C   0  0  0  0  0  0  0  0  0  0  0  0
    1.7739   -1.0206    2.5367 O   0  0  0  0  0  0  0  0  0  0  0  0
    2.9578    1.5194    4.6807 H   0  0  0  0  0  0  0  0  0  0  0  0
    3.7273    3.3803    2.6901 H   0  0  0  0  0  0  0  0  0  0  0  0
    3.3962    2.7458   -0.7399 H   0  0  0  0  0  0  0  0  0  0  0  0
    2.4336    0.6656   -1.6316 H   0  0  0  0  0  0  0  0  0  0  0  0
   -1.9509   -0.8961   -0.5755 H   0  0  0  0  0  0  0  0  0  0  0  0
   -0.8527    0.6066    1.0435 H   0  0  0  0  0  0  0  0  0  0  0  0
   -0.8894    1.9384   -0.0908 H   0  0  0  0  0  0  0  0  0  0  0  0
   -2.7318    2.1783    1.5262 H   0  0  0  0  0  0  0  0  0  0  0  0
   -3.3000    0.5566    1.2008 H   0  0  0  0  0  0  0  0  0  0  0  0
   -3.3101    2.9234   -0.7403 H   0  0  0  0  0  0  0  0  0  0  0  0
   -5.5552    2.5543   -0.5856 H   0  0  0  0  0  0  0  0  0  0  0  0
   -4.3792    1.4147   -2.3695 H   0  0  0  0  0  0  0  0  0  0  0  0
   -4.3337    0.0771   -1.2434 H   0  0  0  0  0  0  0  0  0  0  0  0
   -2.4911   -0.1500   -2.8633 H   0  0  0  0  0  0  0  0  0  0  0  0
   -1.9223    1.4686   -2.5232 H   0  0  0  0  0  0  0  0  0  0  0  0
   -0.9935   -2.3898   -2.5389 H   0  0  0  0  0  0  0  0  0  0  0  0
   -0.0548   -4.6385   -2.0513 H   0  0  0  0  0  0  0  0  0  0  0  0
    2.6167   -4.9296    0.2529 H   0  0  0  0  0  0  0  0  0  0  0  0
    2.8520   -2.2973    1.5680 H   0  0  0  0  0  0  0  0  0  0  0  0
    1.6700   -0.6521    3.4321 H   0  0  0  0  0  0  0  0  0  0  0  0
  1  2  1  0
  2  3  2  0
  3  4  1  0
  3  5  1  0
  5  6  2  0
  6  7  1  0
  7  8  1  0
  8  9  1  0
  9 10  1  0
 10 11  1  0
 11 12  1  0
 12 13  1  0
 13 14  1  0
 14 15  1  0
 14 16  1  0
 16 17  1  0
  9 18  2  0
 18 19  1  0
 19 20  2  0
 20 21  1  0
 20 22  1  0
 22 23  1  0
  7 24  2  0
 24 25  1  0
 24  2  1  0
 22  8  2  0
 17 11  1  0
  1 26  1  0
  4 27  1  0
  5 28  1  0
  6 29  1  0
 11 30  1  1
 12 31  1  0
 12 32  1  0
 13 33  1  0
 13 34  1  0
 14 35  1  6
 15 36  1  0
 16 37  1  0
 16 38  1  0
 17 39  1  0
 17 40  1  0
 18 41  1  0
 19 42  1  0
 21 43  1  0
 23 44  1  0
 25 45  1  0
M  RAD  1   1   3
M  END
$$$$
