
     RDKit          3D

 50 52  0  0  0  0  0  0  0  0999 V2000
   -4.2631    3.4304    4.2161 C   0  0  0  0  0  0  0  0  0  0  0  0
   -3.2508    3.4425    3.1726 N   0  0  0  0  0  0  0  0  0  0  0  0
   -3.1792    2.1672    2.4834 C   0  0  0  0  0  0  0  0  0  0  0  0
   -2.2604    2.1284    1.3664 N   0  0  0  0  0  0  0  0  0  0  0  0
   -2.0544    0.9965    0.6434 C   0  0  0  0  0  0  0  0  0  0  0  0
   -3.0675    0.1438    0.3024 N   0  0  0  0  0  0  0  0  0  0  0  0
   -2.5599   -0.8987   -0.4395 C   0  0  0  0  0  0  0  0  0  0  0  0
   -3.3483   -2.0123   -0.9935 C   0  0  0  0  0  0  0  0  0  0  0  0
   -2.7172   -2.8315   -1.9462 C   0  0  0  0  0  0  0  0  0  0  0  0
   -3.4070   -3.8942   -2.5069 C   0  0  0  0  0  0  0  0  0  0  0  0
   -4.6774   -4.2045   -2.1885 N   0  0  0  0  0  0  0  0  0  0  0  0
   -5.2763   -3.4155   -1.2672 C   0  0  0  0  0  0  0  0  0  0  0  0
   -4.6706   -2.3253   -0.6473 C   0  0  0  0  0  0  0  0  0  0  0  0
   -5.6063   -1.4559    0.5158 Cl  0  0  0  0  0  0  0  0  0  0  0  0
   -1.2580   -0.7284   -0.6043 N   0  0  0  0  0  0  0  0  0  0  0  0
   -0.9277    0.4550    0.0531 C   0  0  0  0  0  0  0  0  0  0  0  0
    0.4379    0.9802    0.0936 C   0  0  0  0  0  0  0  0  0  0  0  0
    0.7634    1.9823    0.7230 O   0  0  0  0  0  0  0  0  0  0  0  0
    1.3179    0.2057   -0.6329 N   0  0  0  0  0  0  0  0  0  0  0  0
    2.7565    0.4114   -0.6048 C   0  0  0  0  0  0  0  0  0  0  0  0
    3.4172   -0.1853   -1.8567 C   0  0  0  0  0  0  0  0  0  0  0  0
    4.8325   -0.7106   -1.5932 C   0  0  0  0  0  0  0  0  0  0  0  0
    5.5154    0.1431   -0.6260 N   0  0  0  0  0  0  0  0  0  0  0  0
    6.9423   -0.1558   -0.5459 C   0  0  0  0  0  0  0  0  0  0  0  0
    4.8880    0.0854    0.7033 C   0  0  0  0  0  0  0  0  0  0  0  0
    3.3774   -0.1732    0.6627 C   0  0  0  0  0  0  0  0  0  0  0  0
   -5.2616    3.2408    3.8087 H   0  0  0  0  0  0  0  0  0  0  0  0
   -4.2843    4.4045    4.7145 H   0  0  0  0  0  0  0  0  0  0  0  0
   -4.0386    2.6766    4.9778 H   0  0  0  0  0  0  0  0  0  0  0  0
   -3.4798    4.1498    2.4767 H   0  0  0  0  0  0  0  0  0  0  0  0
   -4.1815    1.9067    2.1207 H   0  0  0  0  0  0  0  0  0  0  0  0
   -2.8816    1.3945    3.2038 H   0  0  0  0  0  0  0  0  0  0  0  0
   -1.4096    2.6485    1.6081 H   0  0  0  0  0  0  0  0  0  0  0  0
   -4.0412    0.2663    0.5329 H   0  0  0  0  0  0  0  0  0  0  0  0
   -1.6923   -2.6405   -2.2539 H   0  0  0  0  0  0  0  0  0  0  0  0
   -2.9392   -4.5381   -3.2467 H   0  0  0  0  0  0  0  0  0  0  0  0
   -6.2990   -3.6994   -1.0312 H   0  0  0  0  0  0  0  0  0  0  0  0
    0.9270   -0.6640   -0.9833 H   0  0  0  0  0  0  0  0  0  0  0  0
    2.9279    1.4964   -0.6002 H   0  0  0  0  0  0  0  0  0  0  0  0
    2.8170   -1.0067   -2.2681 H   0  0  0  0  0  0  0  0  0  0  0  0
    3.4455    0.5881   -2.6354 H   0  0  0  0  0  0  0  0  0  0  0  0
    5.3700   -0.7262   -2.5494 H   0  0  0  0  0  0  0  0  0  0  0  0
    4.7922   -1.7485   -1.2370 H   0  0  0  0  0  0  0  0  0  0  0  0
    7.4213   -0.0103   -1.5203 H   0  0  0  0  0  0  0  0  0  0  0  0
    7.1301   -1.1853   -0.2206 H   0  0  0  0  0  0  0  0  0  0  0  0
    7.4397    0.5251    0.1538 H   0  0  0  0  0  0  0  0  0  0  0  0
    5.3419   -0.6947    1.3284 H   0  0  0  0  0  0  0  0  0  0  0  0
    5.0739    1.0423    1.2059 H   0  0  0  0  0  0  0  0  0  0  0  0
    2.9106    0.2481    1.5611 H   0  0  0  0  0  0  0  0  0  0  0  0
    3.1871   -1.2546    0.6959 H   0  0  0  0  0  0  0  0  0  0  0  0
  1  2  1  0
  2  3  1  0
  3  4  1  0
  4  5  1  0
  5  6  1  0
  6  7  1  0
  7  8  1  0
  8  9  2  0
  9 10  1  0
 10 11  2  0
 11 12  1  0
 12 13  2  0
 13 14  1  0
  7 15  2  0
 15 16  1  0
 16 17  1  0
 17 18  2  0
 17 19  1  0
 19 20  1  0
 20 21  1  0
 21 22  1  0
 22 23  1  0
 23 24  1  0
 23 25  1  0
 25 26  1  0
 16  5  2  0
 26 20  1  0
 13  8  1  0
  1 27  1  0
  1 28  1  0
  1 29  1  0
  2 30  1  0
  3 31  1  0
  3 32  1  0
  4 33  1  0
  6 34  1  0
  9 35  1  0
 10 36  1  0
 12 37  1  0
 19 38  1  0
 20 39  1  0
 21 40  1  0
 21 41  1  0
 22 42  1  0
 22 43  1  0
 24 44  1  0
 24 45  1  0
 24 46  1  0
 25 47  1  0
 25 48  1  0
 26 49  1  0
 26 50  1  0
M  END
$$$$
