MODEL        1USER    Run = 1USERUSER    Estimated Free Energy of Binding    =  -6.14 kcal/mol  [=(1)+(2)+(3)-(4)]USERUSER    (1) Final Intermolecular Energy     = -10.61 kcal/molUSER        vdW + Hbond + desolv Energy     = -10.76 kcal/molUSER        Electrostatic Energy            =  -0.25 kcal/molUSER        Moving Ligand-Fixed Receptor    = -11.01 kcal/molUSER        Moving Ligand-Moving Receptor   =  +0.39 kcal/molUSER    (2) Final Total Internal Energy     =  -2.69 kcal/molUSER    (3) Torsional Free Energy           =  +4.47 kcal/molUSER    (4) Unbound System's Energy         =  -2.69 kcal/molUSERUSERREMARK SMILES COc1ccc(O)c(C(=O)c2ccc(NC[C@@H]3CCCNC[C@@H]3NC(=O)c3ccncc3)cc2)c1FREMARK SMILES IDX 16 1 15 2 14 4 11 5 12 6 34 7 13 8 33 9 9 10 10 11 8 12 3 13REMARK SMILES IDX 4 14 35 15 5 16 6 17 36 18 2 19 1 20 7 21 17 23 18 24 23 26REMARK SMILES IDX 22 27 21 28 20 30 19 31 24 33 25 34 26 36 27 37 28 38 32 39REMARK SMILES IDX 29 40 31 41 30 42REMARK H PARENT 15 3 7 22 21 29 24 35REMARK Flexibility Score:   99.900USER                              x       y       z     vdW  Elec       q    TypeUSER                           _______ _______ _______ _____ _____    ______ ____ROOTATOM      1  C   UNL     1      39.461  48.621  14.962 -0.50 -0.05    +0.118 C  ENDROOTBRANCH   1   2ATOM      2  N   UNL     1      40.894  48.420  14.732 -0.24 +0.05    -0.385 N  ATOM      3  H   UNL     1      41.333  47.827  15.430 +0.12 -0.01    +0.160 HD BRANCH   2   4ATOM      4  C   UNL     1      41.725  49.427  14.250 -0.58 -0.00    +0.034 A  ATOM      5  C   UNL     1      43.482  51.492  13.434 -0.20 -0.01    +0.023 A  ATOM      6  C   UNL     1      43.295  50.363  12.633 -0.49 -0.01    +0.014 A  ATOM      7  C   UNL     1      42.838  51.567  14.670 +0.41 -0.00    +0.014 A  ATOM      8  C   UNL     1      42.431  49.340  13.044 -0.04 -0.00    +0.026 A  ATOM      9  C   UNL     1      41.975  50.538  15.068 -0.54 -0.00    +0.026 A  BRANCH   5  10ATOM     10  C   UNL     1      44.431  52.534  12.977 -0.09 -0.08    +0.199 C  ATOM     11  O   UNL     1      44.792  53.406  13.770 -0.22 +0.07    -0.288 OA BRANCH  10  12ATOM     12  C   UNL     1      44.935  52.621  11.588 -0.30 -0.05    +0.104 A  ATOM     13  C   UNL     1      44.607  53.076   9.214 -0.28 -0.05    +0.155 A  ATOM     14  C   UNL     1      45.951  52.780   8.976 -0.18 -0.01    +0.053 A  ATOM     15  C   UNL     1      44.109  52.985  10.524 -0.31 -0.11    +0.179 A  ATOM     16  C   UNL     1      46.778  52.382  10.028 -0.28 -0.01    +0.051 A  ATOM     17  C   UNL     1      46.268  52.289  11.321 -0.28 -0.04    +0.130 A  ATOM     18  F   UNL     1      42.806  53.230  10.733 -0.03 +0.24    -0.202 F  BRANCH  13  19ATOM     19  O   UNL     1      43.698  53.458   8.264 -0.38 -0.02    -0.494 OA ATOM     20  C   UNL     1      43.768  54.800   7.797 -0.13 -0.11    +0.278 C  ENDBRANCH  13  19BRANCH  17  21ATOM     21  O   UNL     1      47.137  51.860  12.288 -0.15 +0.14    -0.507 OA ATOM     22  H   UNL     1      46.607  51.592  13.073 -0.36 -0.13    +0.293 HD ENDBRANCH  17  21ENDBRANCH  10  12ENDBRANCH   5  10ENDBRANCH   2   4ENDBRANCH   1   2BRANCH   1  23ATOM     23  C   UNL     1      38.595  47.840  13.941 -0.52 -0.01    +0.032 C  BRANCH  23  24ATOM     24  C   UNL     1      37.190  48.470  13.848 -0.63 -0.00    +0.009 CG0ATOM     25  G   UNL     1      36.094  47.711  13.099 +0.00 +0.00    +0.000 G0 ENDBRANCH  23  24BRANCH  23  26ATOM     26  C   UNL     1      38.624  46.327  14.258 -0.41 -0.03    +0.101 C  BRANCH  26  27ATOM     27  C   UNL     1      37.528  45.561  13.480 -0.42 -0.03    +0.106 C  BRANCH  27  28ATOM     28  N   UNL     1      36.226  45.478  14.156 -0.18 +0.15    -0.315 NA ATOM     29  H   UNL     1      35.757  44.637  13.812 +0.09 -0.05    +0.122 HD BRANCH  28  30ATOM     30  C   UNL     1      35.361  46.624  13.871 -0.47 -0.06    +0.081 C  BRANCH  30  31ATOM     31  C   UNL     1      36.094  47.710  13.095 -0.63 -0.01    +0.016 CG0ATOM     32  G   UNL     1      37.190  48.469  13.844 +0.00 +0.00    +0.000 G0 ENDBRANCH  30  31ENDBRANCH  28  30ENDBRANCH  27  28ENDBRANCH  26  27BRANCH  26  33ATOM     33  N   UNL     1      38.502  46.037  15.685 -0.14 +0.11    -0.348 N  ATOM     34  C   UNL     1      39.582  45.922  16.527 -0.25 -0.04    +0.251 C  ATOM     35  H   UNL     1      37.565  45.806  15.993 +0.12 -0.07    +0.164 HD ATOM     36  O   UNL     1      40.741  46.049  16.147 -0.30 +0.01    -0.269 OA BRANCH  34  37ATOM     37  C   UNL     1      39.294  45.608  17.951 -0.40 -0.01    +0.042 A  ATOM     38  C   UNL     1      38.071  45.008  18.255 -0.36 -0.01    +0.034 A  ATOM     39  C   UNL     1      40.207  45.862  18.975 -0.43 -0.00    +0.034 A  ATOM     40  C   UNL     1      37.802  44.709  19.577 -0.27 -0.01    +0.112 A  ATOM     41  C   UNL     1      39.841  45.524  20.266 -0.30 +0.00    +0.112 A  ATOM     42  N   UNL     1      38.660  44.959  20.590 -0.21 -0.00    -0.265 NA ENDBRANCH  34  37ENDBRANCH  26  33ENDBRANCH  23  26ENDBRANCH   1  23TORSDOF 9TERENDMDL