MODEL        2USER    Run = 2USERUSER    Estimated Free Energy of Binding    =  -7.33 kcal/mol  [=(1)+(2)+(3)-(4)]USERUSER    (1) Final Intermolecular Energy     = -11.51 kcal/molUSER        vdW + Hbond + desolv Energy     = -11.87 kcal/molUSER        Electrostatic Energy            =  -0.22 kcal/molUSER        Moving Ligand-Fixed Receptor    = -12.09 kcal/molUSER        Moving Ligand-Moving Receptor   =  +0.58 kcal/molUSER    (2) Final Total Internal Energy     =  -2.63 kcal/molUSER    (3) Torsional Free Energy           =  +4.18 kcal/molUSER    (4) Unbound System's Energy         =  -2.63 kcal/molUSERUSERREMARK SMILES COc1ccc(O)c(C(=O)c2ccc(C(=O)N[C@@H]3CCCNC[C@H]3NC(=O)c3ccncc3)cc2)c1FREMARK SMILES IDX 15 1 16 2 17 3 14 5 11 6 12 7 35 8 13 9 34 10 9 11 10 12REMARK SMILES IDX 8 13 3 14 4 15 36 16 5 17 6 18 37 19 2 20 1 21 7 22 18 24REMARK SMILES IDX 19 25 24 27 23 28 22 29 21 31 20 32 25 34 26 35 27 37 28 38REMARK SMILES IDX 29 39 33 40 30 41 32 42 31 43REMARK H PARENT 17 4 7 23 22 30 25 36REMARK Flexibility Score:   88.900USER                              x       y       z     vdW  Elec       q    TypeUSER                           _______ _______ _______ _____ _____    ______ ____ROOTATOM      1  C   UNL     1      38.850  45.854  16.768 -0.28 -0.06    +0.251 C  ATOM      2  O   UNL     1      38.349  44.736  16.701 -0.19 +0.06    -0.269 OA ATOM      3  N   UNL     1      38.428  46.920  16.000 -0.17 +0.14    -0.347 N  ATOM      4  H   UNL     1      39.018  47.740  15.962 +0.12 -0.07    +0.164 HD ENDROOTBRANCH   1   5ATOM      5  C   UNL     1      40.020  46.101  17.655 -0.44 -0.00    +0.039 A  ATOM      6  C   UNL     1      42.184  46.701  19.334 -0.48 +0.00    +0.023 A  ATOM      7  C   UNL     1      41.759  47.631  18.379 -0.48 -0.00    +0.013 A  ATOM      8  C   UNL     1      41.528  45.470  19.448 -0.39 +0.00    +0.013 A  ATOM      9  C   UNL     1      40.688  47.327  17.534 -0.51 -0.00    +0.014 A  ATOM     10  C   UNL     1      40.454  45.165  18.602 -0.44 -0.00    +0.014 A  BRANCH   6  11ATOM     11  C   UNL     1      43.269  47.101  20.256 -0.31 +0.07    +0.199 C  ATOM     12  O   UNL     1      44.359  47.407  19.771 -0.31 -0.21    -0.288 OA BRANCH  11  13ATOM     13  C   UNL     1      43.113  47.204  21.726 -0.30 +0.02    +0.104 A  ATOM     14  C   UNL     1      41.766  47.077  23.758 -0.14 +0.02    +0.155 A  ATOM     15  C   UNL     1      42.889  47.403  24.524 -0.15 +0.01    +0.053 A  ATOM     16  C   UNL     1      41.891  46.978  22.362 -0.15 +0.02    +0.179 A  ATOM     17  C   UNL     1      44.124  47.605  23.902 -0.20 +0.01    +0.051 A  ATOM     18  C   UNL     1      44.234  47.491  22.518 -0.25 +0.05    +0.130 A  ATOM     19  F   UNL     1      40.811  46.627  21.645 -0.01 -0.02    -0.202 F  BRANCH  14  20ATOM     20  O   UNL     1      40.511  46.842  24.254 -0.02 -0.04    -0.494 OA ATOM     21  C   UNL     1      40.019  45.508  24.171 -0.09 +0.02    +0.278 C  ENDBRANCH  14  20BRANCH  18  22ATOM     22  O   UNL     1      45.489  47.675  22.000 -0.53 -0.38    -0.507 OA ATOM     23  H   UNL     1      45.432  48.409  21.343 -0.30 +0.12    +0.293 HD ENDBRANCH  18  22ENDBRANCH  11  13ENDBRANCH   6  11ENDBRANCH   1   5BRANCH   3  24ATOM     24  C   UNL     1      37.477  46.725  14.898 -0.40 -0.05    +0.106 C  BRANCH  24  25ATOM     25  C   UNL     1      37.694  47.804  13.829 -0.59 -0.01    +0.028 CG0ATOM     26  G   UNL     1      37.340  47.396  12.389 +0.00 +0.00    +0.000 G0 ENDBRANCH  24  25BRANCH  24  27ATOM     27  C   UNL     1      36.022  46.660  15.443 -0.33 -0.11    +0.118 C  BRANCH  27  28ATOM     28  C   UNL     1      34.933  46.426  14.370 -0.29 -0.10    +0.108 C  BRANCH  28  29ATOM     29  N   UNL     1      35.378  45.938  13.060 -0.15 +0.18    -0.315 NA ATOM     30  H   UNL     1      36.063  45.196  13.182 +0.08 -0.05    +0.122 HD BRANCH  29  31ATOM     31  C   UNL     1      35.898  46.944  12.141 -0.63 -0.05    +0.081 C  BRANCH  31  32ATOM     32  C   UNL     1      37.335  47.396  12.392 -0.59 -0.00    +0.017 CG0ATOM     33  G   UNL     1      37.693  47.809  13.829 +0.00 +0.00    +0.000 G0 ENDBRANCH  31  32ENDBRANCH  29  31ENDBRANCH  28  29ENDBRANCH  27  28BRANCH  27  34ATOM     34  N   UNL     1      35.928  45.660  16.515 -0.11 +0.22    -0.346 N  ATOM     35  C   UNL     1      35.198  45.895  17.657 -0.27 -0.16    +0.251 C  ATOM     36  H   UNL     1      36.172  44.711  16.280 +0.12 -0.07    +0.164 HD ATOM     37  O   UNL     1      34.656  46.963  17.909 -0.54 +0.30    -0.269 OA BRANCH  35  38ATOM     38  C   UNL     1      35.060  44.755  18.597 -0.34 -0.01    +0.042 A  ATOM     39  C   UNL     1      33.835  44.089  18.653 -0.35 -0.01    +0.034 A  ATOM     40  C   UNL     1      36.103  44.356  19.434 -0.36 -0.01    +0.034 A  ATOM     41  C   UNL     1      33.711  43.032  19.532 -0.31 -0.00    +0.112 A  ATOM     42  C   UNL     1      35.877  43.286  20.281 -0.36 -0.00    +0.112 A  ATOM     43  N   UNL     1      34.706  42.612  20.344 -0.42 -0.02    -0.265 NA ENDBRANCH  35  38ENDBRANCH  27  34ENDBRANCH  24  27ENDBRANCH   3  24TORSDOF 8TERENDMDL