MODEL        3USER    Run = 3USERUSER    Estimated Free Energy of Binding    =  -7.35 kcal/mol  [=(1)+(2)+(3)-(4)]USERUSER    (1) Final Intermolecular Energy     = -11.82 kcal/molUSER        vdW + Hbond + desolv Energy     = -11.99 kcal/molUSER        Electrostatic Energy            =  -0.12 kcal/molUSER        Moving Ligand-Fixed Receptor    = -12.11 kcal/molUSER        Moving Ligand-Moving Receptor   =  +0.29 kcal/molUSER    (2) Final Total Internal Energy     =  -2.27 kcal/molUSER    (3) Torsional Free Energy           =  +4.47 kcal/molUSER    (4) Unbound System's Energy         =  -2.27 kcal/molUSERUSERREMARK SMILES COc1ccc(O)c(C(=O)c2ccc(CO[C@@H]3CCCNC[C@@H]3NC(=O)c3ccncc3)cc2)c1FREMARK SMILES IDX 16 1 15 2 14 3 11 4 12 5 34 6 13 7 33 8 9 9 10 10 8 11 3 12REMARK SMILES IDX 4 13 35 14 5 15 6 16 36 17 2 18 1 19 7 20 17 22 18 23 23 25REMARK SMILES IDX 22 26 21 27 20 29 19 30 24 32 25 33 26 35 27 36 28 37 32 38REMARK SMILES IDX 29 39 31 40 30 41REMARK H PARENT 7 21 21 28 24 34REMARK Flexibility Score:   99.900USER                              x       y       z     vdW  Elec       q    TypeUSER                           _______ _______ _______ _____ _____    ______ ____ROOTATOM      1  O   UNL     1      36.639  45.412  15.686 -0.13 +0.18    -0.371 OA ENDROOTBRANCH   1   2ATOM      2  C   UNL     1      35.688  45.013  16.671 -0.25 -0.10    +0.196 C  BRANCH   2   3ATOM      3  C   UNL     1      36.430  44.696  17.943 -0.32 +0.01    -0.022 A  ATOM      4  C   UNL     1      37.830  44.078  20.300 -0.34 -0.00    +0.023 A  ATOM      5  C   UNL     1      38.528  44.288  19.106 -0.32 -0.00    +0.012 A  ATOM      6  C   UNL     1      36.437  44.210  20.322 -0.37 -0.00    +0.012 A  ATOM      7  C   UNL     1      37.829  44.588  17.936 -0.35 -0.00    +0.007 A  ATOM      8  C   UNL     1      35.741  44.511  19.149 -0.36 -0.00    +0.007 A  BRANCH   4   9ATOM      9  C   UNL     1      38.530  43.791  21.575 -0.24 +0.01    +0.199 C  ATOM     10  O   UNL     1      39.729  43.499  21.547 -0.09 -0.01    -0.288 OA BRANCH   9  11ATOM     11  C   UNL     1      37.851  43.774  22.887 -0.28 +0.01    +0.104 A  ATOM     12  C   UNL     1      37.088  44.886  24.919 -0.19 +0.02    +0.155 A  ATOM     13  C   UNL     1      36.535  43.684  25.366 -0.32 +0.00    +0.053 A  ATOM     14  C   UNL     1      37.750  44.916  23.682 -0.19 +0.02    +0.179 A  ATOM     15  C   UNL     1      36.660  42.526  24.594 -0.36 +0.00    +0.051 A  ATOM     16  C   UNL     1      37.325  42.570  23.371 -0.33 +0.01    +0.130 A  ATOM     17  F   UNL     1      38.309  46.069  23.279 -0.11 -0.03    -0.202 F  BRANCH  12  18ATOM     18  O   UNL     1      37.044  46.077  25.592 -0.61 -0.01    -0.494 OA ATOM     19  C   UNL     1      38.146  46.393  26.434 -0.19 -0.01    +0.278 C  ENDBRANCH  12  18BRANCH  16  20ATOM     20  O   UNL     1      37.429  41.385  22.693 -0.19 -0.05    -0.507 OA ATOM     21  H   UNL     1      36.646  40.834  22.927 +0.20 +0.01    +0.293 HD ENDBRANCH  16  20ENDBRANCH   9  11ENDBRANCH   4   9ENDBRANCH   2   3ENDBRANCH   1   2BRANCH   1  22ATOM     22  C   UNL     1      36.598  46.824  15.387 -0.35 -0.11    +0.142 C  BRANCH  22  23ATOM     23  C   UNL     1      35.473  46.968  14.352 -0.28 -0.03    +0.035 CG0ATOM     24  G   UNL     1      35.526  46.139  13.073 +0.00 +0.00    +0.000 G0 ENDBRANCH  22  23BRANCH  22  25ATOM     25  C   UNL     1      38.001  47.292  14.932 -0.43 -0.06    +0.125 C  BRANCH  25  26ATOM     26  C   UNL     1      38.288  46.851  13.475 -0.37 -0.03    +0.108 C  BRANCH  26  27ATOM     27  N   UNL     1      37.500  47.494  12.426 -0.90 +0.05    -0.315 NA ATOM     28  H   UNL     1      38.126  47.738  11.656 +0.06 +0.03    +0.122 HD BRANCH  27  29ATOM     29  C   UNL     1      36.375  46.705  11.943 -0.69 -0.04    +0.081 C  BRANCH  29  30ATOM     30  C   UNL     1      35.527  46.141  13.074 -0.49 -0.01    +0.018 CG0ATOM     31  G   UNL     1      35.475  46.970  14.352 +0.00 +0.00    +0.000 G0 ENDBRANCH  29  30ENDBRANCH  27  29ENDBRANCH  26  27ENDBRANCH  25  26BRANCH  25  32ATOM     32  N   UNL     1      39.034  46.890  15.897 -0.18 +0.11    -0.345 N  ATOM     33  C   UNL     1      39.971  47.791  16.361 -0.39 -0.07    +0.251 C  ATOM     34  H   UNL     1      38.738  46.183  16.559 +0.11 -0.05    +0.164 HD ATOM     35  O   UNL     1      40.083  48.934  15.938 -0.42 +0.09    -0.269 OA BRANCH  33  36ATOM     36  C   UNL     1      40.848  47.318  17.466 -0.49 -0.01    +0.042 A  ATOM     37  C   UNL     1      41.882  48.150  17.893 -0.34 -0.00    +0.034 A  ATOM     38  C   UNL     1      40.686  46.063  18.053 -0.47 -0.00    +0.034 A  ATOM     39  C   UNL     1      42.705  47.697  18.907 -0.42 +0.01    +0.112 A  ATOM     40  C   UNL     1      41.565  45.702  19.060 -0.35 +0.01    +0.112 A  ATOM     41  N   UNL     1      42.565  46.494  19.502 -0.26 -0.06    -0.265 NA ENDBRANCH  33  36ENDBRANCH  25  32ENDBRANCH  22  25ENDBRANCH   1  22TORSDOF 9TERENDMDL