MODEL        7USER    Run = 7USERUSER    Estimated Free Energy of Binding    = -12.11 kcal/mol  [=(1)+(2)+(3)-(4)]USERUSER    (1) Final Intermolecular Energy     = -13.90 kcal/molUSER        vdW + Hbond + desolv Energy     = -13.70 kcal/molUSER        Electrostatic Energy            =  -0.20 kcal/molUSER        Moving Ligand-Fixed Receptor    = -13.90 kcal/molUSER        Moving Ligand-Moving Receptor   =  +0.00 kcal/molUSER    (2) Final Total Internal Energy     =  -1.68 kcal/molUSER    (3) Torsional Free Energy           =  +1.79 kcal/molUSER    (4) Unbound System's Energy         =  -1.68 kcal/molUSERUSERREMARK SMILES Oc1nc2ccccc2n1C1CCN(Cc2ccc(-c3cc4ccccc4nc3-c3ccccc3)cc2)CC1REMARK SMILES IDX 11 1 12 2 13 3 14 4 38 5 39 6 10 7 2 8 3 9 4 10 9 11 5 12REMARK SMILES IDX 8 13 6 14 7 15 1 16 15 18 16 19 17 20 37 21 18 22 36 23REMARK SMILES IDX 19 24 20 25 21 26 29 27 22 28 28 29 23 30 27 31 24 32 26 33REMARK SMILES IDX 25 34 30 35 31 36 35 37 32 38 34 39 33 40REMARK H PARENT 1 17USER                              x       y       z     vdW  Elec       q    TypeUSER                           _______ _______ _______ _____ _____    ______ ____ROOTATOM      1  C   UNL     1      27.756  41.668  16.398 -0.24 -0.02    +0.095 C  ATOM      2  C   UNL     1      28.670  40.996  15.363 -0.38 -0.01    +0.041 C  ATOM      3  C   UNL     1      30.070  40.667  15.871 -0.35 -0.02    +0.087 C  ATOM      4  N   UNL     1      30.708  41.753  16.619 -0.15 +0.11    -0.299 NA ATOM      5  C   UNL     1      29.890  42.137  17.773 -0.14 -0.01    +0.087 C  ATOM      6  C   UNL     1      28.467  42.565  17.423 -0.23 -0.01    +0.041 C  ENDROOTBRANCH   1   7ATOM      7  N   UNL     1      26.746  40.780  16.971 -0.11 +0.00    -0.291 N  ATOM      8  C   UNL     1      26.107  39.799  16.251 -0.14 +0.07    +0.295 A  ATOM      9  N   UNL     1      25.221  39.136  16.938 -0.71 -0.02    -0.195 NA ATOM     10  C   UNL     1      25.275  39.698  18.185 -0.27 -0.01    +0.092 A  ATOM     11  C   UNL     1      26.227  40.727  18.249 -0.20 -0.00    +0.072 A  ATOM     12  C   UNL     1      24.523  39.365  19.324 -0.32 -0.01    +0.031 A  ATOM     13  C   UNL     1      26.453  41.428  19.439 -0.23 -0.00    +0.029 A  ATOM     14  C   UNL     1      24.742  40.066  20.511 -0.36 -0.00    +0.002 A  ATOM     15  C   UNL     1      25.694  41.080  20.565 -0.39 -0.00    +0.002 A  BRANCH   8  16ATOM     16  O   UNL     1      26.336  39.521  14.984 -0.64 -0.20    -0.480 OA ATOM     17  H   UNL     1      25.432  39.346  14.664 +0.11 +0.01    +0.296 HD ENDBRANCH   8  16ENDBRANCH   1   7BRANCH   4  18ATOM     18  C   UNL     1      31.082  42.882  15.751 -0.33 -0.06    +0.120 C  BRANCH  18  19ATOM     19  C   UNL     1      32.466  43.423  16.040 -0.31 +0.02    -0.034 A  ATOM     20  C   UNL     1      32.829  44.717  15.647 -0.33 -0.00    +0.006 A  ATOM     21  C   UNL     1      33.408  42.631  16.709 -0.32 -0.00    +0.006 A  ATOM     22  C   UNL     1      34.110  45.207  15.917 -0.31 -0.01    +0.009 A  ATOM     23  C   UNL     1      34.691  43.119  16.969 -0.38 -0.00    +0.009 A  ATOM     24  C   UNL     1      35.063  44.412  16.573 -0.30 +0.01    -0.016 A  BRANCH  24  25ATOM     25  C   UNL     1      36.410  44.927  16.856 -0.33 -0.00    +0.009 A  ATOM     26  C   UNL     1      36.955  44.750  18.137 -0.33 -0.01    +0.021 A  ATOM     27  C   UNL     1      37.220  45.567  15.903 -0.30 -0.03    +0.079 A  ATOM     28  C   UNL     1      38.252  45.185  18.434 -0.39 -0.00    +0.001 A  ATOM     29  N   UNL     1      38.490  45.983  16.175 -0.21 +0.07    -0.247 NA ATOM     30  C   UNL     1      38.818  45.015  19.709 -0.38 -0.00    +0.010 A  ATOM     31  C   UNL     1      38.990  45.800  17.407 -0.37 -0.01    +0.071 A  ATOM     32  C   UNL     1      40.115  45.454  19.970 -0.39 +0.00    +0.001 A  ATOM     33  C   UNL     1      40.281  46.227  17.692 -0.46 -0.00    +0.029 A  ATOM     34  C   UNL     1      40.849  46.062  18.958 -0.47 +0.00    +0.002 A  BRANCH  27  35ATOM     35  C   UNL     1      36.794  45.858  14.521 -0.40 -0.00    +0.001 A  ATOM     36  C   UNL     1      36.938  44.890  13.512 -0.43 -0.00    +0.010 A  ATOM     37  C   UNL     1      36.255  47.106  14.162 -0.45 -0.01    +0.010 A  ATOM     38  C   UNL     1      36.536  45.150  12.199 -0.53 -0.00    +0.001 A  ATOM     39  C   UNL     1      35.854  47.368  12.849 -0.61 -0.00    +0.001 A  ATOM     40  C   UNL     1      35.991  46.388  11.868 -0.60 -0.00    +0.000 A  ENDBRANCH  27  35ENDBRANCH  24  25ENDBRANCH  18  19ENDBRANCH   4  18TORSDOF 6TERENDMDL