MODEL        5USER    Run = 5USERUSER    Estimated Free Energy of Binding    = -12.01 kcal/mol  [=(1)+(2)+(3)-(4)]USERUSER    (1) Final Intermolecular Energy     = -13.80 kcal/molUSER        vdW + Hbond + desolv Energy     = -13.73 kcal/molUSER        Electrostatic Energy            =  -0.08 kcal/molUSER        Moving Ligand-Fixed Receptor    = -13.80 kcal/molUSER        Moving Ligand-Moving Receptor   =  +0.00 kcal/molUSER    (2) Final Total Internal Energy     =  -0.64 kcal/molUSER    (3) Torsional Free Energy           =  +1.79 kcal/molUSER    (4) Unbound System's Energy         =  -0.64 kcal/molUSERUSERREMARK SMILES Cn1ccc2ccc3c4[nH]c5c(CCCN[C@H]6CC[C@H](O)CC6)cccc5c4c4c(c3c21)C(=O)NC4=OREMARK SMILES IDX 15 1 14 2 13 3 12 4 2 5 3 6 32 7 4 8 31 9 5 10 30 11 8 12REMARK SMILES IDX 6 13 29 14 33 15 7 16 9 17 28 18 36 19 35 20 10 21 27 22REMARK SMILES IDX 11 23 26 24 25 25 24 26 1 27 34 28 37 29 16 32 17 34 23 35REMARK SMILES IDX 18 36 22 37 19 38 20 39 21 40REMARK H PARENT 35 30 10 31 16 33 21 41USER                              x       y       z     vdW  Elec       q    TypeUSER                           _______ _______ _______ _____ _____    ______ ____ROOTATOM      1  C   UNL     1      40.005  46.465  22.861 -0.23 +0.01    +0.081 C  ENDROOTBRANCH   1   2ATOM      2  C   UNL     1      40.150  44.941  22.903 -0.25 +0.00    +0.020 C  BRANCH   2   3ATOM      3  C   UNL     1      41.073  44.395  21.808 -0.30 +0.00    +0.039 C  BRANCH   3   4ATOM      4  C   UNL     1      41.511  45.428  20.799 -0.33 -0.00    -0.024 A  ATOM      5  N   UNL     1      36.089  46.537  14.121 -0.18 +0.23    -0.350 N  ATOM      6  C   UNL     1      34.775  46.171  13.947 -0.24 -0.07    +0.086 A  ATOM      7  C   UNL     1      36.493  46.301  15.430 -0.34 -0.04    +0.057 A  ATOM      8  C   UNL     1      34.378  45.494  15.068 -0.29 -0.02    +0.028 A  ATOM      9  C   UNL     1      37.676  46.628  16.193 -0.37 -0.01    +0.022 A  ATOM     10  C   UNL     1      35.471  45.499  15.973 -0.34 -0.00    +0.000 A  ATOM     11  C   UNL     1      38.668  47.579  15.905 -0.41 -0.03    +0.063 A  ATOM     12  C   UNL     1      37.848  45.894  17.407 -0.37 -0.00    +0.009 A  ATOM     13  C   UNL     1      35.650  44.884  17.223 -0.31 -0.00    +0.011 A  ATOM     14  C   UNL     1      39.837  47.703  16.666 -0.44 -0.02    +0.063 A  ATOM     15  C   UNL     1      38.704  48.704  14.955 -0.31 -0.15    +0.259 C  ATOM     16  C   UNL     1      36.852  45.041  17.906 -0.34 -0.00    +0.012 A  ATOM     17  C   UNL     1      39.057  46.040  18.158 -0.37 -0.01    +0.055 A  ATOM     18  C   UNL     1      40.084  46.922  17.798 -0.44 -0.00    +0.022 A  ATOM     19  C   UNL     1      40.631  48.792  16.100 -0.44 -0.05    +0.259 C  ATOM     20  N   UNL     1      39.947  49.244  15.020 -0.29 +0.13    -0.288 N  ATOM     21  N   UNL     1      39.477  45.416  19.312 -0.18 +0.02    -0.354 N  ATOM     22  C   UNL     1      41.138  46.784  18.763 -0.47 -0.00    +0.008 A  ATOM     23  C   UNL     1      40.729  45.831  19.697 -0.39 +0.00    +0.050 A  ATOM     24  C   UNL     1      42.407  47.375  18.937 -0.54 +0.00    +0.011 A  ATOM     25  C   UNL     1      43.208  47.001  20.020 -0.42 +0.00    +0.001 A  ATOM     26  C   UNL     1      42.766  46.047  20.930 -0.26 +0.00    +0.006 A  ATOM     27  C   UNL     1      36.919  46.854  12.978 -0.55 -0.06    +0.149 C  ATOM     28  O   UNL     1      37.778  49.156  14.313 -0.32 +0.19    -0.269 OA ATOM     29  O   UNL     1      41.665  49.259  16.529 -1.03 -0.04    -0.269 OA ATOM     30  H   UNL     1      40.182  50.114  14.568 -0.13 -0.12    +0.173 HD ATOM     31  H   UNL     1      38.946  44.717  19.808 +0.10 -0.01    +0.167 HD ENDBRANCH   3   4ENDBRANCH   2   3ENDBRANCH   1   2BRANCH   1  32ATOM     32  N   UNL     1      39.716  46.958  24.209 -0.12 -0.03    -0.314 NA ATOM     33  H   UNL     1      40.008  46.271  24.903 +0.05 +0.01    +0.122 HD BRANCH  32  34ATOM     34  C   UNL     1      38.297  47.292  24.400 -0.33 +0.01    +0.053 C  ATOM     35  C   UNL     1      37.614  46.428  25.482 -0.35 +0.00    +0.021 C  ATOM     36  C   UNL     1      38.229  48.796  24.734 -0.45 +0.00    +0.021 C  ATOM     37  C   UNL     1      37.625  47.098  26.855 -0.34 -0.00    +0.033 C  ATOM     38  C   UNL     1      36.941  49.140  25.469 -0.50 +0.00    +0.033 C  ATOM     39  C   UNL     1      36.872  48.434  26.827 -0.35 -0.01    +0.114 C  BRANCH  39  40ATOM     40  O   UNL     1      35.495  48.218  27.135 -0.11 +0.09    -0.393 OA ATOM     41  H   UNL     1      35.423  47.347  27.561 -0.43 -0.09    +0.210 HD ENDBRANCH  39  40ENDBRANCH  32  34ENDBRANCH   1  32TORSDOF 6TERENDMDL