REMARK SMILES CC(C)c1ccccc1Cc1cncnc(N)n[nH]c1-c1ccc([N+](=O)[O-])cc1
REMARK SMILES IDX 11 1 12 2 13 3 14 4 15 5 16 6 18 7 19 8 20 9 10 11 9 12 4 13
REMARK SMILES IDX 5 14 6 15 8 16 7 17 2 18 1 19 3 20 21 21 22 22 29 23 23 24
REMARK SMILES IDX 28 25 24 26 25 27 26 28 27 29 17 30
REMARK H PARENT 19 10 17 31 17 32
ROOT
ATOM      1  C   UNL     1       0.747   1.533   0.764  1.00  0.00     0.000 A 
ATOM      2  C   UNL     1       0.569   2.892   0.784  1.00  0.00     0.119 A 
ATOM      3  N   UNL     1       1.145   4.120   0.812  1.00  0.00    -0.244 NA
ATOM      4  C   UNL     1       2.437   4.505   0.735  1.00  0.00     0.225 A 
ATOM      5  N   UNL     1       3.563   3.876   0.307  1.00  0.00    -0.200 NA
ATOM      6  C   UNL     1       3.628   2.977  -0.703  1.00  0.00     0.239 A 
ATOM      7  N   UNL     1       3.944   1.687  -0.425  1.00  0.00    -0.136 NA
ATOM      8  N   UNL     1       3.230   1.346   0.900  1.00  0.00    -0.274 N 
ATOM      9  C   UNL     1       1.933   0.849   0.789  1.00  0.00     0.069 A 
ATOM     10  H   UNL     1       3.085   2.335   1.236  1.00  0.00     0.190 HD
ENDROOT
BRANCH   1  11
ATOM     11  C   UNL     1      -0.580   0.730   0.770  1.00  0.00     0.075 C 
BRANCH  11  12
ATOM     12  C   UNL     1      -1.285   0.446  -0.565  1.00  0.00    -0.040 A 
ATOM     13  C   UNL     1      -2.515  -0.260  -0.611  1.00  0.00    -0.042 A 
ATOM     14  C   UNL     1      -3.094  -0.529  -1.868  1.00  0.00     0.004 A 
ATOM     15  C   UNL     1      -2.493  -0.116  -3.053  1.00  0.00     0.000 A 
ATOM     16  C   UNL     1      -0.723   0.891  -1.776  1.00  0.00     0.004 A 
ATOM     17  C   UNL     1      -1.311   0.606  -3.006  1.00  0.00     0.000 A 
BRANCH  13  18
ATOM     18  C   UNL     1      -3.231  -0.733   0.648  1.00  0.00     0.013 C 
ATOM     19  C   UNL     1      -4.645  -0.150   0.744  1.00  0.00     0.012 C 
ATOM     20  C   UNL     1      -3.264  -2.263   0.735  1.00  0.00     0.012 C 
ENDBRANCH  13  18
ENDBRANCH  11  12
ENDBRANCH   1  11
BRANCH   9  21
ATOM     21  C   UNL     1       1.957  -0.635   0.723  1.00  0.00     0.000 A 
ATOM     22  C   UNL     1       2.062  -1.391   1.900  1.00  0.00     0.017 A 
ATOM     23  C   UNL     1       1.931  -1.281  -0.519  1.00  0.00     0.017 A 
ATOM     24  C   UNL     1       2.109  -2.783   1.845  1.00  0.00     0.086 A 
ATOM     25  C   UNL     1       1.972  -2.676  -0.591  1.00  0.00     0.086 A 
ATOM     26  C   UNL     1       2.053  -3.416   0.595  1.00  0.00     0.269 A 
BRANCH  26  27
ATOM     27  N   UNL     1       2.088  -4.880   0.532  1.00  0.00     0.062 N 
ATOM     28  O   UNL     1       2.320  -5.511   1.578  1.00  0.00    -0.258 OA
ATOM     29  O   UNL     1       1.862  -5.426  -0.560  1.00  0.00    -0.258 OA
ENDBRANCH  26  27
ENDBRANCH   9  21
BRANCH   6  30
ATOM     30  N   UNL     1       2.687   3.085  -1.700  1.00  0.00    -0.367 N 
ATOM     31  H   UNL     1       2.051   3.734  -1.212  1.00  0.00     0.159 HD
ATOM     32  H   UNL     1       2.239   2.185  -1.545  1.00  0.00     0.159 HD
ENDBRANCH   6  30
TORSDOF 6
