REMARK SMILES COc1ccc(C#C[Si](C)(C)[O-])cc1C=C1C(N)=NC(NC(=O)/C=C/CC(C)C)=C1C
REMARK SMILES IDX 16 1 17 2 18 3 19 4 20 5 30 6 31 7 15 10 14 11 3 12 4 13
REMARK SMILES IDX 5 14 13 15 6 16 2 17 1 18 7 19 8 20 9 21 10 22 11 23 12 24
REMARK SMILES IDX 21 25 22 26 23 28 24 29 25 30 26 31 27 32 28 33 29 34
REMARK H PARENT 18 8 18 9 21 27
ROOT
ATOM      1  C   UNL     1      -0.313   1.648   0.115  1.00  0.00     0.024 C 
ATOM      2  C   UNL     1       0.490   2.745  -0.478  1.00  0.00     0.133 C 
ATOM      3  N   UNL     1       0.114   4.105  -0.652  1.00  0.00    -0.383 N 
ATOM      4  N   UNL     1       1.611   2.278  -0.822  1.00  0.00    -0.213 NA
ATOM      5  C   UNL     1       1.749   0.862  -0.535  1.00  0.00     0.138 C 
ATOM      6  C   UNL     1       0.607   0.503   0.011  1.00  0.00     0.003 C 
ATOM      7  C   UNL     1       0.181  -0.867   0.368  1.00  0.00     0.049 C 
ATOM      8  H   UNL     1      -0.714   4.287  -1.284  1.00  0.00     0.158 HD
ATOM      9  H   UNL     1       0.642   4.870  -0.173  1.00  0.00     0.158 HD
ENDROOT
BRANCH   1  10
ATOM     10  C   UNL     1      -1.513   1.815   0.547  1.00  0.00     0.024 C 
BRANCH  10  11
ATOM     11  C   UNL     1      -2.444   0.894   1.159  1.00  0.00     0.018 A 
ATOM     12  C   UNL     1      -2.224   0.214   2.339  1.00  0.00     0.126 A 
ATOM     13  C   UNL     1      -3.166  -0.665   2.847  1.00  0.00     0.048 A 
ATOM     14  C   UNL     1      -4.353  -0.876   2.175  1.00  0.00     0.021 A 
ATOM     15  C   UNL     1      -3.647   0.682   0.475  1.00  0.00     0.029 A 
ATOM     16  C   UNL     1      -4.575  -0.196   0.995  1.00  0.00     0.025 A 
BRANCH  12  17
ATOM     17  O   UNL     1      -1.058   0.405   3.027  1.00  0.00    -0.496 OA
ATOM     18  C   UNL     1      -0.733  -0.234   4.233  1.00  0.00     0.278 C 
ENDBRANCH  12  17
BRANCH  16  19
ATOM     19  C   UNL     1      -5.840  -0.446   0.316  1.00  0.00    -0.076 C 
BRANCH  19  20
ATOM     20  C   UNL     1      -6.899  -0.648  -0.231  1.00  0.00    -0.146 C 
BRANCH  20  21
ATOM     21  Si  UNL     1      -8.506  -0.945  -1.026  1.00  0.00     0.036 Si
ATOM     22  C   UNL     1      -9.663  -1.667   0.243  1.00  0.00    -0.013 C 
ATOM     23  C   UNL     1      -9.237   0.621  -1.733  1.00  0.00    -0.013 C 
ATOM     24  O   UNL     1      -8.245  -2.047  -2.322  1.00  0.00    -0.849 OA
ENDBRANCH  20  21
ENDBRANCH  19  20
ENDBRANCH  16  19
ENDBRANCH  10  11
ENDBRANCH   1  10
BRANCH   5  25
ATOM     25  N   UNL     1       2.986   0.244  -0.763  1.00  0.00    -0.307 N 
ATOM     26  C   UNL     1       3.458  -1.027  -0.445  1.00  0.00     0.249 C 
ATOM     27  H   UNL     1       3.710   0.850  -1.284  1.00  0.00     0.171 HD
ATOM     28  O   UNL     1       2.759  -1.831   0.158  1.00  0.00    -0.270 OA
BRANCH  26  29
ATOM     29  C   UNL     1       4.819  -1.481  -0.810  1.00  0.00     0.067 C 
BRANCH  29  30
ATOM     30  C   UNL     1       5.685  -0.756  -1.448  1.00  0.00    -0.021 C 
BRANCH  30  31
ATOM     31  C   UNL     1       7.047  -1.313  -1.773  1.00  0.00     0.030 C 
BRANCH  31  32
ATOM     32  C   UNL     1       8.037  -0.397  -1.087  1.00  0.00    -0.014 C 
ATOM     33  C   UNL     1       9.448  -0.861  -1.345  1.00  0.00     0.007 C 
ATOM     34  C   UNL     1       7.890   1.001  -1.644  1.00  0.00     0.007 C 
ENDBRANCH  31  32
ENDBRANCH  30  31
ENDBRANCH  29  30
ENDBRANCH  26  29
ENDBRANCH   5  25
TORSDOF 11
