REMARK SMILES Cc1ccc(S(=O)(=O)Nc2ncccc2-c2ccnc3[nH]ccc23)cc1C
REMARK SMILES IDX 9 1 6 3 7 4 8 5 5 6 2 7 3 8 26 9 4 10 25 11 1 12 27 13 10 14
REMARK SMILES IDX 11 15 15 16 12 17 14 18 13 19 16 20 17 21 24 22 18 23 23 24
REMARK SMILES IDX 20 25 19 26 22 27 21 28
REMARK H PARENT 9 2 21 29
ROOT
ATOM      1  N   UNL     1       0.298   2.431   0.155  1.00  0.00    -0.263 N 
ATOM      2  H   UNL     1       0.831   3.293   0.277  1.00  0.00     0.182 HD
ENDROOT
BRANCH   1   3
ATOM      3  S   UNL     1       0.205   1.718   1.690  1.00  0.00     0.263 S 
ATOM      4  O   UNL     1       0.966   2.569   2.582  1.00  0.00    -0.201 OA
ATOM      5  O   UNL     1      -1.150   1.315   1.999  1.00  0.00    -0.201 OA
BRANCH   3   6
ATOM      6  C   UNL     1       1.179   0.253   1.435  1.00  0.00     0.088 A 
ATOM      7  C   UNL     1       2.735  -2.034   1.013  1.00  0.00    -0.048 A 
ATOM      8  C   UNL     1       1.353  -2.138   1.241  1.00  0.00     0.005 A 
ATOM      9  C   UNL     1       3.346  -0.763   1.015  1.00  0.00    -0.047 A 
ATOM     10  C   UNL     1       0.576  -1.001   1.460  1.00  0.00     0.022 A 
ATOM     11  C   UNL     1       2.557   0.378   1.229  1.00  0.00     0.026 A 
ATOM     12  C   UNL     1       3.534  -3.288   0.779  1.00  0.00     0.044 C 
ATOM     13  C   UNL     1       4.825  -0.604   0.790  1.00  0.00     0.044 C 
ENDBRANCH   3   6
ENDBRANCH   1   3
BRANCH   1  14
ATOM     14  C   UNL     1      -0.955   2.798  -0.393  1.00  0.00     0.147 A 
ATOM     15  N   UNL     1      -1.186   4.114  -0.198  1.00  0.00    -0.238 NA
ATOM     16  C   UNL     1      -1.822   1.905  -1.034  1.00  0.00     0.026 A 
ATOM     17  C   UNL     1      -2.370   4.586  -0.638  1.00  0.00     0.113 A 
ATOM     18  C   UNL     1      -3.032   2.457  -1.482  1.00  0.00     0.014 A 
ATOM     19  C   UNL     1      -3.317   3.806  -1.277  1.00  0.00     0.021 A 
BRANCH  16  20
ATOM     20  C   UNL     1      -1.503   0.498  -1.299  1.00  0.00    -0.002 A 
ATOM     21  C   UNL     1      -0.375   0.104  -2.037  1.00  0.00     0.030 A 
ATOM     22  C   UNL     1      -2.345  -0.536  -0.830  1.00  0.00     0.027 A 
ATOM     23  C   UNL     1      -0.147  -1.244  -2.277  1.00  0.00     0.114 A 
ATOM     24  C   UNL     1      -3.529  -0.625  -0.039  1.00  0.00     0.030 A 
ATOM     25  C   UNL     1      -1.997  -1.844  -1.155  1.00  0.00     0.137 A 
ATOM     26  N   UNL     1      -0.934  -2.262  -1.866  1.00  0.00    -0.239 NA
ATOM     27  C   UNL     1      -3.869  -1.957   0.072  1.00  0.00     0.085 A 
ATOM     28  N   UNL     1      -2.932  -2.683  -0.615  1.00  0.00    -0.346 N 
ATOM     29  H   UNL     1      -2.902  -3.688  -0.713  1.00  0.00     0.167 HD
ENDBRANCH  16  20
ENDBRANCH   1  14
TORSDOF 4
