MODEL        8USER    Run = 8USERUSER    Estimated Free Energy of Binding    =  -9.62 kcal/mol  [=(1)+(2)+(3)-(4)]USERUSER    (1) Final Intermolecular Energy     = -10.82 kcal/molUSER        vdW + Hbond + desolv Energy     = -10.71 kcal/molUSER        Electrostatic Energy            =  -0.10 kcal/molUSER        Moving Ligand-Fixed Receptor    = -10.82 kcal/molUSER        Moving Ligand-Moving Receptor   =  +0.00 kcal/molUSER    (2) Final Total Internal Energy     =  -1.20 kcal/molUSER    (3) Torsional Free Energy           =  +1.19 kcal/molUSER    (4) Unbound System's Energy         =  -1.20 kcal/molUSERUSERREMARK SMILES Cc1ccc(S(=O)(=O)Nc2ncccc2-c2ccnc3[nH]ccc23)cc1CREMARK SMILES IDX 9 1 6 3 7 4 8 5 5 6 2 7 3 8 26 9 4 10 25 11 1 12 27 13 10 14REMARK SMILES IDX 11 15 15 16 12 17 14 18 13 19 16 20 17 21 24 22 18 23 23 24REMARK SMILES IDX 20 25 19 26 22 27 21 28REMARK H PARENT 9 2 21 29USER                              x       y       z     vdW  Elec       q    TypeUSER                           _______ _______ _______ _____ _____    ______ ____ROOTATOM      1  N   UNL     1      39.084  47.450  17.229 -0.21 +0.09    -0.263 N  ATOM      2  H   UNL     1      39.140  47.755  18.201 +0.14 -0.06    +0.182 HD ENDROOTBRANCH   1   3ATOM      3  S   UNL     1      40.681  47.164  16.736 -0.49 -0.04    +0.263 S  ATOM      4  O   UNL     1      40.662  45.923  15.990 -0.38 +0.00    -0.201 OA ATOM      5  O   UNL     1      41.285  48.364  16.198 -0.74 +0.01    -0.201 OA BRANCH   3   6ATOM      6  C   UNL     1      41.450  46.804  18.298 -0.46 -0.00    +0.088 A  ATOM      7  C   UNL     1      42.631  46.221  20.767 -0.29 -0.01    -0.048 A  ATOM      8  C   UNL     1      43.015  47.360  20.039 -0.41 +0.00    +0.005 A  ATOM      9  C   UNL     1      41.653  45.355  20.237 -0.33 -0.01    -0.047 A  ATOM     10  C   UNL     1      42.434  47.649  18.804 -0.50 +0.00    +0.022 A  ATOM     11  C   UNL     1      41.068  45.655  18.997 -0.44 +0.00    +0.026 A  ATOM     12  C   UNL     1      43.283  45.950  22.096 -0.27 +0.02    +0.044 C  ATOM     13  C   UNL     1      41.222  44.116  20.974 -0.36 +0.00    +0.044 C  ENDBRANCH   3   6ENDBRANCH   1   3BRANCH   1  14ATOM     14  C   UNL     1      38.255  46.302  17.207 -0.29 -0.05    +0.147 A  ATOM     15  N   UNL     1      38.381  45.609  18.358 -0.25 +0.04    -0.238 NA ATOM     16  C   UNL     1      37.434  45.949  16.129 -0.35 -0.01    +0.026 A  ATOM     17  C   UNL     1      37.672  44.465  18.450 -0.27 -0.02    +0.113 A  ATOM     18  C   UNL     1      36.711  44.757  16.288 -0.33 -0.01    +0.014 A  ATOM     19  C   UNL     1      36.834  44.001  17.453 -0.30 -0.01    +0.021 A  BRANCH  16  20ATOM     20  C   UNL     1      37.261  46.769  14.925 -0.41 +0.00    -0.002 A  ATOM     21  C   UNL     1      37.219  48.172  14.965 -0.48 -0.02    +0.030 A  ATOM     22  C   UNL     1      37.107  46.167  13.655 -0.45 -0.01    +0.027 A  ATOM     23  C   UNL     1      37.022  48.888  13.792 -0.35 -0.07    +0.114 A  ATOM     24  C   UNL     1      37.120  44.840  13.133 -0.41 -0.01    +0.030 A  ATOM     25  C   UNL     1      36.907  47.011  12.566 -0.54 -0.05    +0.137 A  ATOM     26  N   UNL     1      36.851  48.355  12.563 -0.85 +0.06    -0.239 NA ATOM     27  C   UNL     1      36.912  44.915  11.772 -0.44 -0.03    +0.085 A  ATOM     28  N   UNL     1      36.779  46.239  11.444 -0.32 +0.12    -0.346 N  ATOM     29  H   UNL     1      36.625  46.618  10.521 +0.06 -0.07    +0.167 HD ENDBRANCH  16  20ENDBRANCH   1  14TORSDOF 4TERENDMDL