REMARK SMILES C=NCCC(=CC[C@H]1N=C(N)N1CCCO)c1ccccc1NC(C)=O
REMARK SMILES IDX 7 1 6 2 5 3 4 4 3 5 2 6 1 7 17 8 18 9 22 10 19 11 21 12
REMARK SMILES IDX 20 13 23 14 24 15 25 17 26 18 8 19 9 20 12 21 10 22 11 23
REMARK SMILES IDX 13 26 14 27 15 28 16 29
REMARK H PARENT 23 16 11 24 11 25 16 30
ROOT
ATOM      1  C   UNL     1       0.306  -0.295  -1.962  1.00  0.00     0.077 C 
ENDROOT
BRANCH   1   2
ATOM      2  C   UNL     1      -0.433   0.611  -1.006  1.00  0.00    -0.019 C 
BRANCH   2   3
ATOM      3  C   UNL     1      -1.212   0.256   0.035  1.00  0.00    -0.041 C 
BRANCH   3   4
ATOM      4  C   UNL     1      -1.905   1.286   0.902  1.00  0.00     0.059 C 
BRANCH   4   5
ATOM      5  C   UNL     1      -1.088   1.654   2.145  1.00  0.00     0.146 C 
BRANCH   5   6
ATOM      6  N   UNL     1      -1.773   2.746   2.851  1.00  0.00    -0.301 NA
ATOM      7  C   UNL     1      -1.087   3.217   3.831  1.00  0.00     0.134 C 
ENDBRANCH   5   6
ENDBRANCH   4   5
ENDBRANCH   3   4
BRANCH   3   8
ATOM      8  C   UNL     1      -1.460  -1.160   0.381  1.00  0.00     0.001 A 
ATOM      9  C   UNL     1      -0.546  -1.790   1.243  1.00  0.00     0.010 A 
ATOM     10  C   UNL     1      -2.565  -1.886  -0.125  1.00  0.00     0.048 A 
ATOM     11  C   UNL     1      -0.723  -3.121   1.614  1.00  0.00     0.001 A 
ATOM     12  C   UNL     1      -2.728  -3.220   0.264  1.00  0.00     0.027 A 
ATOM     13  C   UNL     1      -1.813  -3.832   1.127  1.00  0.00     0.002 A 
BRANCH  10  14
ATOM     14  N   UNL     1      -3.455  -1.234  -1.013  1.00  0.00    -0.326 N 
ATOM     15  C   UNL     1      -4.591  -1.744  -1.611  1.00  0.00     0.221 C 
ATOM     16  H   UNL     1      -3.210  -0.279  -1.245  1.00  0.00     0.169 HD
ATOM     17  C   UNL     1      -5.257  -0.737  -2.515  1.00  0.00     0.114 C 
ATOM     18  O   UNL     1      -5.051  -2.874  -1.488  1.00  0.00    -0.275 OA
ENDBRANCH  10  14
ENDBRANCH   3   8
ENDBRANCH   2   3
ENDBRANCH   1   2
BRANCH   1  19
ATOM     19  C   UNL     1       1.759  -0.439  -1.515  1.00  0.00     0.210 C 
ATOM     20  N   UNL     1       2.639  -0.935  -2.567  1.00  0.00    -0.227 NA
ATOM     21  N   UNL     1       2.519   0.762  -1.623  1.00  0.00    -0.320 N 
ATOM     22  C   UNL     1       3.303   0.150  -2.526  1.00  0.00     0.195 C 
ATOM     23  N   UNL     1       4.382   0.662  -3.105  1.00  0.00    -0.370 N 
ATOM     24  H   UNL     1       4.283   1.640  -3.347  1.00  0.00     0.159 HD
ATOM     25  H   UNL     1       4.678   0.110  -3.903  1.00  0.00     0.159 HD
BRANCH  21  26
ATOM     26  C   UNL     1       3.010   1.452  -0.443  1.00  0.00     0.124 C 
BRANCH  26  27
ATOM     27  C   UNL     1       4.069   0.670   0.340  1.00  0.00     0.050 C 
BRANCH  27  28
ATOM     28  C   UNL     1       4.467   1.407   1.611  1.00  0.00     0.158 C 
BRANCH  28  29
ATOM     29  O   UNL     1       3.374   1.442   2.521  1.00  0.00    -0.396 OA
ATOM     30  H   UNL     1       3.288   0.548   2.897  1.00  0.00     0.210 HD
ENDBRANCH  28  29
ENDBRANCH  27  28
ENDBRANCH  26  27
ENDBRANCH  21  26
ENDBRANCH   1  19
TORSDOF 12
