MODEL        7USER    Run = 7USERUSER    Estimated Free Energy of Binding    =  -9.40 kcal/mol  [=(1)+(2)+(3)-(4)]USERUSER    (1) Final Intermolecular Energy     = -11.78 kcal/molUSER        vdW + Hbond + desolv Energy     = -11.17 kcal/molUSER        Electrostatic Energy            =  -0.61 kcal/molUSER        Moving Ligand-Fixed Receptor    = -11.78 kcal/molUSER        Moving Ligand-Moving Receptor   =  +0.00 kcal/molUSER    (2) Final Total Internal Energy     =  -1.73 kcal/molUSER    (3) Torsional Free Energy           =  +2.39 kcal/molUSER    (4) Unbound System's Energy         =  -1.73 kcal/molUSERUSERREMARK SMILES O=C(O)CCC(=O)Cc1ccc(-c2ccc3ncccc3c2)cc1OREMARK SMILES IDX 5 1 4 2 2 3 1 4 3 5 6 7 7 8 8 9 9 10 10 11 24 12 11 13 23 14REMARK SMILES IDX 12 15 25 16 13 18 14 19 22 20 15 21 21 22 16 23 20 24 17 25REMARK SMILES IDX 19 26 18 27REMARK H PARENT 3 6 25 17USER                              x       y       z     vdW  Elec       q    TypeUSER                           _______ _______ _______ _____ _____    ______ ____ROOTATOM      1  C   UNL     1      42.899  47.957  22.571 -0.33 +0.02    +0.087 C  ENDROOTBRANCH   1   2ATOM      2  C   UNL     1      44.131  47.365  23.235 -0.23 +0.04    +0.130 C  BRANCH   2   3ATOM      3  C   UNL     1      45.242  47.180  22.243 -0.14 +0.23    +0.303 C  ATOM      4  O   UNL     1      46.426  47.013  22.480 -0.48 -0.23    -0.252 OA BRANCH   3   5ATOM      5  O   UNL     1      44.791  47.187  20.974 -0.54 -0.55    -0.481 OA ATOM      6  H   UNL     1      44.571  48.127  20.802 -0.37 +0.04    +0.296 HD ENDBRANCH   3   5ENDBRANCH   2   3ENDBRANCH   1   2BRANCH   1   7ATOM      7  C   UNL     1      41.873  46.881  22.289 -0.22 +0.02    +0.137 C  ATOM      8  O   UNL     1      40.822  46.835  22.935 -0.15 -0.03    -0.299 OA BRANCH   7   9ATOM      9  C   UNL     1      42.138  45.900  21.165 -0.30 +0.02    +0.115 C  BRANCH   9  10ATOM     10  C   UNL     1      41.411  46.246  19.893 -0.41 +0.00    +0.001 A  ATOM     11  C   UNL     1      40.178  45.644  19.612 -0.40 -0.00    +0.008 A  ATOM     12  C   UNL     1      41.944  47.136  18.957 -0.41 +0.00    +0.119 A  ATOM     13  C   UNL     1      39.495  45.941  18.428 -0.43 -0.00    +0.009 A  ATOM     14  C   UNL     1      41.267  47.434  17.774 -0.47 -0.01    +0.055 A  ATOM     15  C   UNL     1      40.026  46.841  17.492 -0.47 +0.00    -0.015 A  BRANCH  12  16ATOM     16  O   UNL     1      43.161  47.704  19.214 -0.28 -0.05    -0.508 OA ATOM     17  H   UNL     1      43.105  48.193  20.052 -0.35 -0.04    +0.293 HD ENDBRANCH  12  16BRANCH  15  18ATOM     18  C   UNL     1      39.305  47.151  16.247 -0.45 +0.01    -0.018 A  ATOM     19  C   UNL     1      39.715  48.198  15.413 -0.54 -0.00    +0.011 A  ATOM     20  C   UNL     1      38.181  46.406  15.856 -0.38 -0.01    +0.019 A  ATOM     21  C   UNL     1      39.021  48.489  14.232 -0.46 -0.01    +0.029 A  ATOM     22  C   UNL     1      37.486  46.701  14.668 -0.42 -0.00    +0.001 A  ATOM     23  C   UNL     1      37.910  47.760  13.840 -0.48 -0.03    +0.070 A  ATOM     24  C   UNL     1      36.361  45.967  14.269 -0.41 -0.01    +0.012 A  ATOM     25  N   UNL     1      37.278  48.080  12.697 -0.92 +0.04    -0.256 NA ATOM     26  C   UNL     1      35.706  46.293  13.088 -0.52 -0.01    +0.021 A  ATOM     27  C   UNL     1      36.197  47.348  12.344 -0.60 -0.06    +0.112 A  ENDBRANCH  15  18ENDBRANCH   9  10ENDBRANCH   7   9ENDBRANCH   1   7TORSDOF 8TERENDMDL