REMARK SMILES N=NC(=CNc1ccc(C(=O)O)c(N)c1)NCc1ccccc1Cl
REMARK SMILES IDX 4 1 3 2 2 3 1 4 16 6 17 8 18 9 19 10 23 11 20 12 22 13 21 14
REMARK SMILES IDX 24 15 5 16 6 18 7 19 15 20 8 21 13 22 9 23 14 24 10 27 11 28
REMARK SMILES IDX 12 29
REMARK H PARENT 1 5 16 7 5 17 14 25 14 26 12 30
ROOT
ATOM      1  C   UNL     1       0.395  -1.859   0.138  1.00  0.00     0.132 C 
ENDROOT
BRANCH   1   2
ATOM      2  C   UNL     1      -0.819  -2.372  -0.166  1.00  0.00     0.164 C 
BRANCH   2   3
ATOM      3  N   UNL     1      -0.922  -3.749  -0.223  1.00  0.00    -0.139 NA
BRANCH   3   4
ATOM      4  N   UNL     1      -2.057  -4.193  -0.499  1.00  0.00    -0.203 NA
ATOM      5  H   UNL     1      -2.054  -5.220  -0.540  1.00  0.00     0.214 HD
ENDBRANCH   3   4
ENDBRANCH   2   3
BRANCH   2   6
ATOM      6  N   UNL     1      -1.894  -1.517  -0.450  1.00  0.00    -0.363 N 
ATOM      7  H   UNL     1      -2.594  -2.127  -0.877  1.00  0.00     0.162 HD
BRANCH   6   8
ATOM      8  C   UNL     1      -2.527  -0.772   0.636  1.00  0.00     0.152 C 
BRANCH   8   9
ATOM      9  C   UNL     1      -3.647   0.069   0.076  1.00  0.00    -0.010 A 
ATOM     10  C   UNL     1      -4.954  -0.454   0.066  1.00  0.00     0.007 A 
ATOM     11  C   UNL     1      -3.434   1.344  -0.471  1.00  0.00     0.046 A 
ATOM     12  C   UNL     1      -6.017   0.283  -0.459  1.00  0.00     0.000 A 
ATOM     13  C   UNL     1      -4.502   2.079  -0.996  1.00  0.00     0.021 A 
ATOM     14  C   UNL     1      -5.792   1.550  -0.988  1.00  0.00     0.002 A 
ATOM     15  Cl  UNL     1      -1.864   2.066  -0.528  1.00  0.00    -0.084 Cl
ENDBRANCH   8   9
ENDBRANCH   6   8
ENDBRANCH   2   6
ENDBRANCH   1   2
BRANCH   1  16
ATOM     16  N   UNL     1       0.743  -0.528   0.151  1.00  0.00    -0.358 N 
ATOM     17  H   UNL     1       0.022   0.072  -0.249  1.00  0.00     0.166 HD
BRANCH  16  18
ATOM     18  C   UNL     1       1.982   0.070   0.419  1.00  0.00     0.040 A 
ATOM     19  C   UNL     1       2.137   1.437   0.158  1.00  0.00     0.027 A 
ATOM     20  C   UNL     1       3.080  -0.622   0.950  1.00  0.00     0.052 A 
ATOM     21  C   UNL     1       3.352   2.086   0.393  1.00  0.00     0.020 A 
ATOM     22  C   UNL     1       4.300   0.017   1.245  1.00  0.00     0.048 A 
ATOM     23  C   UNL     1       4.443   1.379   0.918  1.00  0.00     0.082 A 
BRANCH  22  24
ATOM     24  N   UNL     1       5.387  -0.785   1.649  1.00  0.00    -0.398 N 
ATOM     25  H   UNL     1       5.130  -1.584   2.217  1.00  0.00     0.156 HD
ATOM     26  H   UNL     1       6.149  -0.239   2.063  1.00  0.00     0.156 HD
ENDBRANCH  22  24
BRANCH  23  27
ATOM     27  C   UNL     1       5.727   2.082   1.182  1.00  0.00     0.337 C 
ATOM     28  O   UNL     1       6.651   1.665   1.859  1.00  0.00    -0.246 OA
BRANCH  27  29
ATOM     29  O   UNL     1       5.799   3.287   0.586  1.00  0.00    -0.478 OA
ATOM     30  H   UNL     1       6.690   3.615   0.828  1.00  0.00     0.297 HD
ENDBRANCH  27  29
ENDBRANCH  23  27
ENDBRANCH  16  18
ENDBRANCH   1  16
TORSDOF 11
