REMARK SMILES O=C(O)CCC(=O)Cc1ccc(-c2ccc3ncccc3c2)cc1O
REMARK SMILES IDX 5 1 4 2 2 3 1 4 3 5 6 7 7 8 8 9 9 10 10 11 24 12 11 13 23 14
REMARK SMILES IDX 12 15 25 16 13 18 14 19 22 20 15 21 21 22 16 23 20 24 17 25
REMARK SMILES IDX 19 26 18 27
REMARK H PARENT 3 6 25 17
ROOT
ATOM      1  C   UNL     1      -4.330  -0.109   1.089  1.00  0.00     0.087 C 
ENDROOT
BRANCH   1   2
ATOM      2  C   UNL     1      -5.437   0.023   0.056  1.00  0.00     0.130 C 
BRANCH   2   3
ATOM      3  C   UNL     1      -5.908   1.444  -0.051  1.00  0.00     0.303 C 
ATOM      4  O   UNL     1      -5.379   2.437   0.417  1.00  0.00    -0.252 OA
BRANCH   3   5
ATOM      5  O   UNL     1      -7.033   1.548  -0.784  1.00  0.00    -0.481 OA
ATOM      6  H   UNL     1      -7.236   2.507  -0.780  1.00  0.00     0.296 HD
ENDBRANCH   3   5
ENDBRANCH   2   3
ENDBRANCH   1   2
BRANCH   1   7
ATOM      7  C   UNL     1      -3.888  -1.550   1.219  1.00  0.00     0.137 C 
ATOM      8  O   UNL     1      -4.280  -2.241   2.164  1.00  0.00    -0.299 OA
BRANCH   7   9
ATOM      9  C   UNL     1      -3.002  -2.140   0.140  1.00  0.00     0.115 C 
BRANCH   9  10
ATOM     10  C   UNL     1      -1.638  -1.505   0.082  1.00  0.00     0.001 A 
ATOM     11  C   UNL     1      -0.646  -1.907   0.986  1.00  0.00     0.008 A 
ATOM     12  C   UNL     1      -1.333  -0.495  -0.833  1.00  0.00     0.119 A 
ATOM     13  C   UNL     1       0.622  -1.318   0.959  1.00  0.00     0.009 A 
ATOM     14  C   UNL     1      -0.069   0.097  -0.863  1.00  0.00     0.055 A 
ATOM     15  C   UNL     1       0.932  -0.309   0.034  1.00  0.00    -0.015 A 
BRANCH  12  16
ATOM     16  O   UNL     1      -2.307  -0.079  -1.698  1.00  0.00    -0.508 OA
ATOM     17  H   UNL     1      -1.931   0.598  -2.286  1.00  0.00     0.293 HD
ENDBRANCH  12  16
BRANCH  15  18
ATOM     18  C   UNL     1       2.267   0.309   0.008  1.00  0.00    -0.018 A 
ATOM     19  C   UNL     1       2.427   1.694   0.132  1.00  0.00     0.011 A 
ATOM     20  C   UNL     1       3.424  -0.471  -0.142  1.00  0.00     0.019 A 
ATOM     21  C   UNL     1       3.701   2.276   0.103  1.00  0.00     0.029 A 
ATOM     22  C   UNL     1       4.703   0.116  -0.171  1.00  0.00     0.001 A 
ATOM     23  C   UNL     1       4.848   1.512  -0.047  1.00  0.00     0.070 A 
ATOM     24  C   UNL     1       5.865  -0.653  -0.324  1.00  0.00     0.012 A 
ATOM     25  N   UNL     1       6.048   2.118  -0.070  1.00  0.00    -0.256 NA
ATOM     26  C   UNL     1       7.107  -0.031  -0.347  1.00  0.00     0.021 A 
ATOM     27  C   UNL     1       7.146   1.344  -0.218  1.00  0.00     0.112 A 
ENDBRANCH  15  18
ENDBRANCH   9  10
ENDBRANCH   7   9
ENDBRANCH   1   7
TORSDOF 8
