MODEL        5USER    Run = 5USERUSER    Estimated Free Energy of Binding    =  -9.53 kcal/mol  [=(1)+(2)+(3)-(4)]USERUSER    (1) Final Intermolecular Energy     = -11.92 kcal/molUSER        vdW + Hbond + desolv Energy     = -11.94 kcal/molUSER        Electrostatic Energy            =  +0.03 kcal/molUSER        Moving Ligand-Fixed Receptor    = -11.92 kcal/molUSER        Moving Ligand-Moving Receptor   =  +0.00 kcal/molUSER    (2) Final Total Internal Energy     =  -2.16 kcal/molUSER    (3) Torsional Free Energy           =  +2.39 kcal/molUSER    (4) Unbound System's Energy         =  -2.16 kcal/molUSERUSERREMARK SMILES O=Cc1ccccc1CCNc1cnccc1C1=CC=C(C(=O)NC2CC2)[C@@H]1FREMARK SMILES IDX 10 1 9 2 8 3 3 4 4 5 5 6 7 7 6 8 2 9 1 10 11 11 12 13 13 14REMARK SMILES IDX 17 15 14 16 16 17 15 18 18 19 19 20 28 21 20 22 21 23 29 24REMARK SMILES IDX 22 25 24 26 23 27 25 29 26 30 27 31REMARK H PARENT 11 12 24 28USER                              x       y       z     vdW  Elec       q    TypeUSER                           _______ _______ _______ _____ _____    ______ ____ROOTATOM      1  C   UNL     1      38.870  48.220  15.996 -0.41 -0.06    +0.118 C  ENDROOTBRANCH   1   2ATOM      2  C   UNL     1      39.758  46.970  15.955 -0.50 -0.01    +0.057 C  BRANCH   2   3ATOM      3  C   UNL     1      39.982  46.363  17.326 -0.45 +0.01    -0.036 A  ATOM      4  C   UNL     1      40.964  46.797  18.236 -0.50 -0.00    +0.018 A  ATOM      5  C   UNL     1      41.106  46.161  19.480 -0.43 +0.00    +0.012 A  ATOM      6  C   UNL     1      40.270  45.104  19.836 -0.41 +0.00    +0.001 A  ATOM      7  C   UNL     1      39.144  45.297  17.710 -0.39 -0.00    +0.004 A  ATOM      8  C   UNL     1      39.287  44.674  18.952 -0.39 -0.00    +0.000 A  BRANCH   4   9ATOM      9  C   UNL     1      41.897  47.922  17.975 -0.30 -0.01    +0.260 C  ATOM     10  O   UNL     1      41.681  48.812  17.165 -0.87 -0.03    -0.298 OA ENDBRANCH   4   9ENDBRANCH   2   3ENDBRANCH   1   2BRANCH   1  11ATOM     11  N   UNL     1      37.478  47.889  15.689 -0.17 +0.29    -0.383 N  ATOM     12  H   UNL     1      36.840  48.603  16.052 +0.07 -0.22    +0.160 HD BRANCH  11  13ATOM     13  C   UNL     1      37.054  47.429  14.437 -0.44 -0.04    +0.060 A  ATOM     14  C   UNL     1      37.271  48.148  13.251 -0.35 -0.05    +0.137 A  ATOM     15  C   UNL     1      36.461  46.146  14.290 -0.42 -0.00    +0.007 A  ATOM     16  N   UNL     1      36.922  47.752  12.002 -1.02 +0.07    -0.263 NA ATOM     17  C   UNL     1      36.101  45.728  12.991 -0.45 -0.01    +0.031 A  ATOM     18  C   UNL     1      36.342  46.551  11.904 -0.57 -0.05    +0.112 A  BRANCH  15  19ATOM     19  C   UNL     1      36.242  45.186  15.406 -0.41 -0.00    +0.000 C  ATOM     20  C   UNL     1      36.372  43.843  15.365 -0.44 -0.00    +0.008 C  ATOM     21  C   UNL     1      35.867  45.583  16.824 -0.24 -0.14    +0.233 C  ATOM     22  C   UNL     1      36.174  43.277  16.676 -0.43 -0.00    +0.013 C  ATOM     23  C   UNL     1      35.896  44.266  17.534 -0.33 -0.02    +0.055 C  ATOM     24  F   UNL     1      34.597  46.084  16.858 -0.04 +0.26    -0.237 F  BRANCH  23  25ATOM     25  C   UNL     1      35.701  44.207  18.988 -0.25 -0.05    +0.250 C  ATOM     26  N   UNL     1      36.412  43.211  19.619 -0.14 +0.03    -0.349 N  ATOM     27  O   UNL     1      34.933  44.979  19.550 -0.29 +0.07    -0.270 OA ATOM     28  H   UNL     1      36.920  42.538  19.060 +0.13 -0.02    +0.164 HD BRANCH  26  29ATOM     29  C   UNL     1      36.308  42.978  21.024 -0.45 +0.00    +0.082 C  ATOM     30  C   UNL     1      37.530  42.635  21.830 -0.44 +0.00    +0.027 C  ATOM     31  C   UNL     1      36.479  41.593  21.586 -0.61 +0.00    +0.027 C  ENDBRANCH  26  29ENDBRANCH  23  25ENDBRANCH  15  19ENDBRANCH  11  13ENDBRANCH   1  11TORSDOF 8TERENDMDL