REMARK SMILES Cc1cc(CSc2nnc(-c3ccc4c(c3)CCCN4)o2)ccc1[N+](=O)[O-]
REMARK SMILES IDX 5 1 4 2 2 3 3 4 24 5 23 6 22 7 1 8 25 9 26 10 27 11 6 12
REMARK SMILES IDX 7 13 8 14 21 15 9 16 10 17 11 18 12 19 16 20 13 21 15 22
REMARK SMILES IDX 14 23 17 24 20 25 18 26 19 27
REMARK H PARENT 20 28
ROOT
ATOM      1  C   UNL     1      -3.436  -1.374  -1.785  1.00  0.00     0.115 C 
ENDROOT
BRANCH   1   2
ATOM      2  C   UNL     1      -4.328  -0.585  -0.852  1.00  0.00    -0.037 A 
ATOM      3  C   UNL     1      -6.220  -0.515   0.709  1.00  0.00     0.027 A 
ATOM      4  C   UNL     1      -5.370  -1.226  -0.156  1.00  0.00     0.015 A 
ATOM      5  C   UNL     1      -6.008   0.869   0.842  1.00  0.00     0.272 A 
ATOM      6  C   UNL     1      -4.966   1.523   0.175  1.00  0.00     0.086 A 
ATOM      7  C   UNL     1      -4.128   0.792  -0.668  1.00  0.00     0.012 A 
ATOM      8  C   UNL     1      -7.327  -1.249   1.412  1.00  0.00     0.052 C 
BRANCH   5   9
ATOM      9  N   UNL     1      -6.879   1.681   1.681  1.00  0.00     0.062 N 
ATOM     10  O   UNL     1      -6.339   2.348   2.575  1.00  0.00    -0.258 OA
ATOM     11  O   UNL     1      -8.094   1.656   1.435  1.00  0.00    -0.258 OA
ENDBRANCH   5   9
ENDBRANCH   1   2
BRANCH   1  12
ATOM     12  S   UNL     1      -2.177  -2.345  -0.912  1.00  0.00    -0.061 SA
BRANCH  12  13
ATOM     13  C   UNL     1      -0.849  -1.229  -0.874  1.00  0.00     0.277 A 
ATOM     14  N   UNL     1      -0.924   0.058  -1.138  1.00  0.00    -0.101 NA
ATOM     15  O   UNL     1       0.428  -1.623  -0.569  1.00  0.00    -0.411 OA
ATOM     16  N   UNL     1       0.350   0.567  -1.006  1.00  0.00    -0.107 NA
ATOM     17  C   UNL     1       1.124  -0.447  -0.670  1.00  0.00     0.248 A 
BRANCH  17  18
ATOM     18  C   UNL     1       2.556  -0.489  -0.407  1.00  0.00     0.039 A 
ATOM     19  C   UNL     1       3.220  -1.684  -0.101  1.00  0.00     0.016 A 
ATOM     20  C   UNL     1       3.307   0.694  -0.451  1.00  0.00     0.019 A 
ATOM     21  C   UNL     1       4.599  -1.694   0.136  1.00  0.00     0.027 A 
ATOM     22  C   UNL     1       4.689   0.691  -0.197  1.00  0.00    -0.024 A 
ATOM     23  C   UNL     1       5.354  -0.520   0.054  1.00  0.00     0.037 A 
ATOM     24  C   UNL     1       5.451   1.992  -0.246  1.00  0.00     0.039 C 
ATOM     25  N   UNL     1       6.719  -0.562   0.371  1.00  0.00    -0.385 N 
ATOM     26  C   UNL     1       6.817   1.878   0.420  1.00  0.00     0.026 C 
ATOM     27  C   UNL     1       7.506   0.598  -0.027  1.00  0.00     0.113 C 
ATOM     28  H   UNL     1       7.147  -1.451   0.123  1.00  0.00     0.160 HD
ENDBRANCH  17  18
ENDBRANCH  12  13
ENDBRANCH   1  12
TORSDOF 5
