MODEL        7USER    Run = 7USERUSER    Estimated Free Energy of Binding    =  -7.92 kcal/mol  [=(1)+(2)+(3)-(4)]USERUSER    (1) Final Intermolecular Energy     = -11.50 kcal/molUSER        vdW + Hbond + desolv Energy     = -11.23 kcal/molUSER        Electrostatic Energy            =  -0.27 kcal/molUSER        Moving Ligand-Fixed Receptor    = -11.50 kcal/molUSER        Moving Ligand-Moving Receptor   =  +0.00 kcal/molUSER    (2) Final Total Internal Energy     =  -2.77 kcal/molUSER    (3) Torsional Free Energy           =  +3.58 kcal/molUSER    (4) Unbound System's Energy         =  -2.77 kcal/molUSERUSERREMARK SMILES C=NCCC(=CC[C@H]1N=C(N)N1CCCO)c1ccccc1NC(C)=OREMARK SMILES IDX 7 1 6 2 5 3 4 4 3 5 2 6 1 7 17 8 18 9 22 10 19 11 21 12REMARK SMILES IDX 20 13 23 14 24 15 25 17 26 18 8 19 9 20 12 21 10 22 11 23REMARK SMILES IDX 13 26 14 27 15 28 16 29REMARK H PARENT 23 16 11 24 11 25 16 30USER                              x       y       z     vdW  Elec       q    TypeUSER                           _______ _______ _______ _____ _____    ______ ____ROOTATOM      1  C   UNL     1      35.299  45.901  15.238 -0.37 -0.06    +0.077 C  ENDROOTBRANCH   1   2ATOM      2  C   UNL     1      36.534  46.459  15.905 -0.43 +0.01    -0.019 C  BRANCH   2   3ATOM      3  C   UNL     1      37.818  46.106  15.697 -0.41 +0.02    -0.041 C  BRANCH   3   4ATOM      4  C   UNL     1      38.350  45.811  14.311 -0.42 -0.02    +0.059 C  BRANCH   4   5ATOM      5  C   UNL     1      37.732  46.713  13.238 -0.43 -0.04    +0.146 C  BRANCH   5   6ATOM      6  N   UNL     1      38.196  48.091  13.459 -0.57 +0.08    -0.301 NA ATOM      7  C   UNL     1      37.261  48.874  13.866 -0.44 -0.08    +0.134 C  ENDBRANCH   5   6ENDBRANCH   4   5ENDBRANCH   3   4BRANCH   3   8ATOM      8  C   UNL     1      38.793  46.010  16.804 -0.41 -0.00    +0.001 A  ATOM      9  C   UNL     1      38.526  45.088  17.830 -0.38 -0.00    +0.010 A  ATOM     10  C   UNL     1      39.961  46.809  16.862 -0.45 -0.01    +0.048 A  ATOM     11  C   UNL     1      39.407  44.942  18.900 -0.41 -0.00    +0.001 A  ATOM     12  C   UNL     1      40.835  46.644  17.942 -0.50 -0.00    +0.027 A  ATOM     13  C   UNL     1      40.559  45.718  18.953 -0.46 -0.00    +0.002 A  BRANCH  10  14ATOM     14  N   UNL     1      40.191  47.749  15.829 -0.26 +0.07    -0.326 N  ATOM     15  C   UNL     1      41.034  48.844  15.842 -0.49 -0.03    +0.221 C  ATOM     16  H   UNL     1      39.653  47.601  14.983 +0.13 -0.04    +0.169 HD ATOM     17  C   UNL     1      40.979  49.618  14.549 -0.56 -0.03    +0.114 C  ATOM     18  O   UNL     1      41.751  49.217  16.764 -1.00 -0.05    -0.275 OA ENDBRANCH  10  14ENDBRANCH   3   8ENDBRANCH   2   3ENDBRANCH   1   2BRANCH   1  19ATOM     19  C   UNL     1      34.368  45.307  16.292 -0.23 -0.16    +0.210 C  ATOM     20  N   UNL     1      33.462  44.297  15.757 -0.19 +0.13    -0.227 NA ATOM     21  N   UNL     1      34.938  44.224  17.023 -0.09 +0.14    -0.320 N  ATOM     22  C   UNL     1      33.990  43.420  16.513 -0.28 -0.09    +0.195 C  ATOM     23  N   UNL     1      33.809  42.138  16.803 -0.14 +0.19    -0.370 N  ATOM     24  H   UNL     1      34.674  41.622  16.904 -0.25 -0.09    +0.159 HD ATOM     25  H   UNL     1      33.184  41.688  16.142 -0.48 -0.14    +0.159 HD BRANCH  21  26ATOM     26  C   UNL     1      35.238  44.345  18.439 -0.31 -0.04    +0.124 C  BRANCH  26  27ATOM     27  C   UNL     1      34.390  43.438  19.335 -0.43 -0.01    +0.050 C  BRANCH  27  28ATOM     28  C   UNL     1      35.135  42.156  19.679 -0.35 -0.01    +0.158 C  BRANCH  28  29ATOM     29  O   UNL     1      35.786  41.641  18.523 -0.31 +0.07    -0.396 OA ATOM     30  H   UNL     1      35.184  40.988  18.124 -0.32 -0.06    +0.210 HD ENDBRANCH  28  29ENDBRANCH  27  28ENDBRANCH  26  27ENDBRANCH  21  26ENDBRANCH   1  19TORSDOF 12TERENDMDL