MODEL        1USER    Run = 1USERUSER    Estimated Free Energy of Binding    =  -8.19 kcal/mol  [=(1)+(2)+(3)-(4)]USERUSER    (1) Final Intermolecular Energy     = -10.28 kcal/molUSER        vdW + Hbond + desolv Energy     =  -9.95 kcal/molUSER        Electrostatic Energy            =  -0.33 kcal/molUSER        Moving Ligand-Fixed Receptor    = -10.28 kcal/molUSER        Moving Ligand-Moving Receptor   =  +0.00 kcal/molUSER    (2) Final Total Internal Energy     =  -2.45 kcal/molUSER    (3) Torsional Free Energy           =  +2.09 kcal/molUSER    (4) Unbound System's Energy         =  -2.45 kcal/molUSERUSERREMARK SMILES O=S(=O)(NCc1ccc(F)cc1)c1cccc(Oc2ccccc2)c1OREMARK SMILES IDX 1 1 2 2 3 3 4 4 5 6 6 7 7 8 12 9 8 10 11 11 9 12 10 13 13 14REMARK SMILES IDX 14 15 25 16 15 17 17 18 16 19 26 20 18 22 19 23 20 24 24 25REMARK SMILES IDX 21 26 23 27 22 28REMARK H PARENT 4 5 26 21USER                              x       y       z     vdW  Elec       q    TypeUSER                           _______ _______ _______ _____ _____    ______ ____ROOTATOM      1  O   UNL     1      33.915  47.298  18.726 -1.17 +0.15    -0.207 OA ATOM      2  S   UNL     1      34.130  45.920  18.344 -0.52 -0.15    +0.244 S  ATOM      3  O   UNL     1      33.679  44.808  19.152 -0.37 +0.06    -0.207 OA ENDROOTBRANCH   2   4ATOM      4  N   UNL     1      33.358  45.730  16.857 -0.18 +0.20    -0.207 NA ATOM      5  H   UNL     1      33.236  46.618  16.373 -0.36 -0.33    +0.141 HD BRANCH   4   6ATOM      6  C   UNL     1      33.726  44.565  16.058 -0.29 -0.08    +0.134 C  BRANCH   6   7ATOM      7  C   UNL     1      33.166  43.306  16.678 -0.31 +0.01    -0.033 A  ATOM      8  C   UNL     1      34.018  42.395  17.324 -0.40 -0.00    +0.008 A  ATOM      9  C   UNL     1      31.785  43.053  16.655 -0.31 -0.00    +0.008 A  ATOM     10  C   UNL     1      33.500  41.244  17.920 -0.34 -0.01    +0.039 A  ATOM     11  C   UNL     1      31.271  41.901  17.254 -0.28 -0.01    +0.039 A  ATOM     12  C   UNL     1      32.132  41.008  17.878 -0.30 -0.03    +0.123 A  ATOM     13  F   UNL     1      31.635  39.904  18.452 -0.10 +0.00    -0.207 F  ENDBRANCH   6   7ENDBRANCH   4   6ENDBRANCH   2   4BRANCH   2  14ATOM     14  C   UNL     1      35.831  45.629  17.953 -0.25 -0.06    +0.128 A  ATOM     15  C   UNL     1      36.551  44.676  18.692 -0.33 -0.01    +0.026 A  ATOM     16  C   UNL     1      36.459  46.326  16.924 -0.21 -0.11    +0.178 A  ATOM     17  C   UNL     1      37.885  44.405  18.382 -0.34 -0.00    +0.006 A  ATOM     18  C   UNL     1      37.802  46.063  16.633 -0.26 -0.07    +0.170 A  ATOM     19  C   UNL     1      38.510  45.090  17.343 -0.32 -0.01    +0.051 A  BRANCH  16  20ATOM     20  O   UNL     1      35.802  47.289  16.214 -0.01 +0.69    -0.503 OA ATOM     21  H   UNL     1      34.905  47.376  16.589 -0.04 -0.67    +0.293 HD ENDBRANCH  16  20BRANCH  18  22ATOM     22  O   UNL     1      38.373  46.752  15.582 -0.11 +0.18    -0.453 OA BRANCH  22  23ATOM     23  C   UNL     1      37.752  46.646  14.357 -0.34 -0.05    +0.127 A  ATOM     24  C   UNL     1      37.274  47.754  13.653 -0.53 -0.02    +0.047 A  ATOM     25  C   UNL     1      37.545  45.358  13.865 -0.39 -0.02    +0.047 A  ATOM     26  C   UNL     1      36.620  47.569  12.433 -0.67 -0.00    +0.004 A  ATOM     27  C   UNL     1      36.890  45.176  12.646 -0.53 -0.00    +0.004 A  ATOM     28  C   UNL     1      36.432  46.282  11.930 -0.66 -0.00    +0.000 A  ENDBRANCH  22  23ENDBRANCH  18  22ENDBRANCH   2  14TORSDOF 7TERENDMDL