MODEL        10USER    Run = 10USERUSER    Estimated Free Energy of Binding    =  -8.93 kcal/mol  [=(1)+(2)+(3)-(4)]USERUSER    (1) Final Intermolecular Energy     = -12.21 kcal/molUSER        vdW + Hbond + desolv Energy     = -11.95 kcal/molUSER        Electrostatic Energy            =  -0.26 kcal/molUSER        Moving Ligand-Fixed Receptor    = -12.21 kcal/molUSER        Moving Ligand-Moving Receptor   =  +0.00 kcal/molUSER    (2) Final Total Internal Energy     =  -1.78 kcal/molUSER    (3) Torsional Free Energy           =  +3.28 kcal/molUSER    (4) Unbound System's Energy         =  -1.78 kcal/molUSERUSERREMARK SMILES N=NC(=CNc1ccc(C(=O)O)c(N)c1)NCc1ccccc1ClREMARK SMILES IDX 4 1 3 2 2 3 1 4 16 6 17 8 18 9 19 10 23 11 20 12 22 13 21 14REMARK SMILES IDX 24 15 5 16 6 18 7 19 15 20 8 21 13 22 9 23 14 24 10 27 11 28REMARK SMILES IDX 12 29REMARK H PARENT 1 5 16 7 5 17 14 25 14 26 12 30USER                              x       y       z     vdW  Elec       q    TypeUSER                           _______ _______ _______ _____ _____    ______ ____ROOTATOM      1  C   UNL     1      35.992  46.833  14.251 -0.40 -0.10    +0.132 C  ENDROOTBRANCH   1   2ATOM      2  C   UNL     1      37.030  47.196  13.463 -0.49 -0.07    +0.164 C  BRANCH   2   3ATOM      3  N   UNL     1      36.733  47.563  12.164 -1.00 +0.05    -0.139 NA BRANCH   3   4ATOM      4  N   UNL     1      37.642  47.370  11.329 -0.80 +0.02    -0.203 NA ATOM      5  H   UNL     1      37.512  47.958  10.496 -0.31 -0.07    +0.214 HD ENDBRANCH   3   4ENDBRANCH   2   3BRANCH   2   6ATOM      6  N   UNL     1      38.341  47.148  13.958 -0.19 +0.11    -0.363 N  ATOM      7  H   UNL     1      38.916  46.976  13.131 +0.11 -0.02    +0.162 HD BRANCH   6   8ATOM      8  C   UNL     1      38.885  48.302  14.670 -0.47 -0.07    +0.152 C  BRANCH   8   9ATOM      9  C   UNL     1      39.654  47.826  15.876 -0.52 +0.00    -0.010 A  ATOM     10  C   UNL     1      39.237  46.653  16.533 -0.44 -0.00    +0.007 A  ATOM     11  C   UNL     1      40.754  48.527  16.396 -0.53 -0.01    +0.046 A  ATOM     12  C   UNL     1      39.910  46.186  17.664 -0.47 -0.00    +0.000 A  ATOM     13  C   UNL     1      41.425  48.056  17.530 -0.48 -0.00    +0.021 A  ATOM     14  C   UNL     1      41.005  46.886  18.161 -0.52 -0.00    +0.002 A  ATOM     15  Cl  UNL     1      41.330  49.991  15.678 -0.89 +0.01    -0.084 Cl ENDBRANCH   8   9ENDBRANCH   6   8ENDBRANCH   2   6ENDBRANCH   1   2BRANCH   1  16ATOM     16  N   UNL     1      35.706  45.563  14.697 -0.13 +0.22    -0.358 N  ATOM     17  H   UNL     1      35.640  44.885  13.938 +0.12 -0.08    +0.166 HD BRANCH  16  18ATOM     18  C   UNL     1      35.291  45.133  15.964 -0.30 -0.02    +0.040 A  ATOM     19  C   UNL     1      35.469  43.786  16.306 -0.36 -0.01    +0.027 A  ATOM     20  C   UNL     1      34.717  45.980  16.923 -0.28 -0.05    +0.052 A  ATOM     21  C   UNL     1      35.063  43.296  17.550 -0.34 -0.01    +0.020 A  ATOM     22  C   UNL     1      34.346  45.524  18.203 -0.41 -0.03    +0.048 A  ATOM     23  C   UNL     1      34.484  44.154  18.496 -0.29 -0.02    +0.082 A  BRANCH  22  24ATOM     24  N   UNL     1      33.655  46.415  19.049 -0.16 +0.24    -0.398 N  ATOM     25  H   UNL     1      33.200  45.974  19.840 -0.42 -0.10    +0.156 HD ATOM     26  H   UNL     1      33.027  47.041  18.536 -0.38 -0.14    +0.156 HD ENDBRANCH  22  24BRANCH  23  27ATOM     27  C   UNL     1      34.073  43.626  19.825 -0.21 -0.02    +0.337 C  ATOM     28  O   UNL     1      34.761  42.965  20.582 -0.53 -0.03    -0.246 OA BRANCH  27  29ATOM     29  O   UNL     1      32.806  43.949  20.149 -0.57 -0.00    -0.478 OA ATOM     30  H   UNL     1      32.902  44.764  20.684 -0.30 -0.07    +0.297 HD ENDBRANCH  27  29ENDBRANCH  23  27ENDBRANCH  16  18ENDBRANCH   1  16TORSDOF 11TERENDMDL