MODEL        8USER    Run = 8USERUSER    Estimated Free Energy of Binding    =  -9.63 kcal/mol  [=(1)+(2)+(3)-(4)]USERUSER    (1) Final Intermolecular Energy     = -11.42 kcal/molUSER        vdW + Hbond + desolv Energy     = -11.37 kcal/molUSER        Electrostatic Energy            =  -0.05 kcal/molUSER        Moving Ligand-Fixed Receptor    = -11.42 kcal/molUSER        Moving Ligand-Moving Receptor   =  +0.00 kcal/molUSER    (2) Final Total Internal Energy     =  -2.29 kcal/molUSER    (3) Torsional Free Energy           =  +1.79 kcal/molUSER    (4) Unbound System's Energy         =  -2.29 kcal/molUSERUSERREMARK SMILES CC(C)c1ccccc1Cc1cncnc(N)n[nH]c1-c1ccc([N+](=O)[O-])cc1REMARK SMILES IDX 11 1 12 2 13 3 14 4 15 5 16 6 18 7 19 8 20 9 10 11 9 12 4 13REMARK SMILES IDX 5 14 6 15 8 16 7 17 2 18 1 19 3 20 21 21 22 22 29 23 23 24REMARK SMILES IDX 28 25 24 26 25 27 26 28 27 29 17 30REMARK H PARENT 19 10 17 31 17 32USER                              x       y       z     vdW  Elec       q    TypeUSER                           _______ _______ _______ _____ _____    ______ ____ROOTATOM      1  C   UNL     1      38.001  44.974  18.186 -0.38 -0.00    +0.000 A  ATOM      2  C   UNL     1      38.148  44.414  19.428 -0.28 -0.01    +0.119 A  ATOM      3  N   UNL     1      37.553  44.017  20.581 -0.22 +0.00    -0.244 NA ATOM      4  C   UNL     1      36.254  43.968  20.947 -0.21 +0.00    +0.225 A  ATOM      5  N   UNL     1      35.095  43.992  20.239 -0.29 +0.01    -0.200 NA ATOM      6  C   UNL     1      34.911  43.455  19.010 -0.21 -0.04    +0.239 A  ATOM      7  N   UNL     1      34.667  44.275  17.957 -0.21 +0.05    -0.136 NA ATOM      8  N   UNL     1      35.567  45.513  18.159 -0.19 +0.12    -0.274 N  ATOM      9  C   UNL     1      36.847  45.438  17.614 -0.30 -0.02    +0.069 A  ATOM     10  H   UNL     1      35.734  45.393  19.193 +0.11 -0.04    +0.190 HD ENDROOTBRANCH   1  11ATOM     11  C   UNL     1      39.335  45.125  17.408 -0.24 -0.01    +0.075 C  BRANCH  11  12ATOM     12  C   UNL     1      40.444  46.011  17.996 -0.45 +0.00    -0.040 A  ATOM     13  C   UNL     1      40.812  47.235  17.378 -0.48 +0.01    -0.042 A  ATOM     14  C   UNL     1      41.866  47.985  17.938 -0.44 -0.00    +0.004 A  ATOM     15  C   UNL     1      42.543  47.558  19.076 -0.52 +0.00    +0.000 A  ATOM     16  C   UNL     1      41.115  45.626  19.171 -0.45 +0.00    +0.004 A  ATOM     17  C   UNL     1      42.159  46.382  19.700 -0.43 +0.00    +0.000 A  BRANCH  13  18ATOM     18  C   UNL     1      40.106  47.765  16.136 -0.60 -0.00    +0.013 C  ATOM     19  C   UNL     1      40.571  49.184  15.788 -0.69 -0.00    +0.012 C  ATOM     20  C   UNL     1      40.287  46.823  14.941 -0.49 -0.00    +0.012 C  ENDBRANCH  13  18ENDBRANCH  11  12ENDBRANCH   1  11BRANCH   9  21ATOM     21  C   UNL     1      36.849  45.987  16.233 -0.37 -0.00    +0.000 A  ATOM     22  C   UNL     1      36.857  45.119  15.131 -0.36 -0.01    +0.017 A  ATOM     23  C   UNL     1      36.899  47.371  16.030 -0.33 -0.01    +0.017 A  ATOM     24  C   UNL     1      36.883  45.626  13.832 -0.38 -0.04    +0.086 A  ATOM     25  C   UNL     1      36.920  47.895  14.735 -0.41 -0.07    +0.086 A  ATOM     26  C   UNL     1      36.904  47.016  13.645 -0.31 -0.13    +0.269 A  BRANCH  26  27ATOM     27  N   UNL     1      36.917  47.554  12.282 -0.64 -0.02    +0.062 N  ATOM     28  O   UNL     1      37.679  47.034  11.449 -0.89 +0.04    -0.258 OA ATOM     29  O   UNL     1      36.149  48.493  12.015 -0.78 +0.12    -0.258 OA ENDBRANCH  26  27ENDBRANCH   9  21BRANCH   6  30ATOM     30  N   UNL     1      35.701  42.382  18.669 -0.11 +0.06    -0.367 N  ATOM     31  H   UNL     1      36.566  42.704  19.129 +0.11 -0.02    +0.159 HD ATOM     32  H   UNL     1      35.859  42.648  17.700 +0.10 -0.05    +0.159 HD ENDBRANCH   6  30TORSDOF 6TERENDMDL