REMARK SMILES O=Cc1ccccc1CCNc1cnccc1C1=CC=C(C(=O)NC2CC2)[C@@H]1F
REMARK SMILES IDX 10 1 9 2 8 3 3 4 4 5 5 6 7 7 6 8 2 9 1 10 11 11 12 13 13 14
REMARK SMILES IDX 17 15 14 16 16 17 15 18 18 19 19 20 28 21 20 22 21 23 29 24
REMARK SMILES IDX 22 25 24 26 23 27 25 29 26 30 27 31
REMARK H PARENT 11 12 24 28
ROOT
ATOM      1  C   UNL     1      -2.338  -0.716  -0.141  1.00  0.00     0.118 C 
ENDROOT
BRANCH   1   2
ATOM      2  C   UNL     1      -3.055   0.554   0.335  1.00  0.00     0.057 C 
BRANCH   2   3
ATOM      3  C   UNL     1      -4.067   0.282   1.430  1.00  0.00    -0.036 A 
ATOM      4  C   UNL     1      -5.391  -0.138   1.201  1.00  0.00     0.018 A 
ATOM      5  C   UNL     1      -6.262  -0.351   2.282  1.00  0.00     0.012 A 
ATOM      6  C   UNL     1      -5.825  -0.163   3.593  1.00  0.00     0.001 A 
ATOM      7  C   UNL     1      -3.646   0.458   2.763  1.00  0.00     0.004 A 
ATOM      8  C   UNL     1      -4.516   0.239   3.833  1.00  0.00     0.000 A 
BRANCH   4   9
ATOM      9  C   UNL     1      -5.960  -0.388  -0.147  1.00  0.00     0.260 C 
ATOM     10  O   UNL     1      -5.295  -0.421  -1.172  1.00  0.00    -0.298 OA
ENDBRANCH   4   9
ENDBRANCH   2   3
ENDBRANCH   1   2
BRANCH   1  11
ATOM     11  N   UNL     1      -1.097  -0.389  -0.845  1.00  0.00    -0.383 N 
ATOM     12  H   UNL     1      -0.345  -1.034  -0.586  1.00  0.00     0.160 HD
BRANCH  11  13
ATOM     13  C   UNL     1      -1.044  -0.081  -2.210  1.00  0.00     0.060 A 
ATOM     14  C   UNL     1      -2.196   0.084  -2.995  1.00  0.00     0.137 A 
ATOM     15  C   UNL     1       0.195   0.180  -2.854  1.00  0.00     0.007 A 
ATOM     16  N   UNL     1      -2.224   0.416  -4.310  1.00  0.00    -0.263 NA
ATOM     17  C   UNL     1       0.169   0.531  -4.220  1.00  0.00     0.031 A 
ATOM     18  C   UNL     1      -1.038   0.628  -4.891  1.00  0.00     0.112 A 
BRANCH  15  19
ATOM     19  C   UNL     1       1.518   0.164  -2.173  1.00  0.00     0.000 C 
ATOM     20  C   UNL     1       2.736   0.148  -2.756  1.00  0.00     0.008 C 
ATOM     21  C   UNL     1       1.714   0.205  -0.667  1.00  0.00     0.233 C 
ATOM     22  C   UNL     1       3.773   0.240  -1.759  1.00  0.00     0.013 C 
ATOM     23  C   UNL     1       3.203   0.288  -0.548  1.00  0.00     0.055 C 
ATOM     24  F   UNL     1       1.282  -0.960  -0.099  1.00  0.00    -0.237 F 
BRANCH  23  25
ATOM     25  C   UNL     1       3.830   0.467   0.767  1.00  0.00     0.250 C 
ATOM     26  N   UNL     1       5.104  -0.046   0.866  1.00  0.00    -0.349 N 
ATOM     27  O   UNL     1       3.221   1.006   1.684  1.00  0.00    -0.270 OA
ATOM     28  H   UNL     1       5.478  -0.588   0.099  1.00  0.00     0.164 HD
BRANCH  26  29
ATOM     29  C   UNL     1       5.847  -0.001   2.085  1.00  0.00     0.082 C 
ATOM     30  C   UNL     1       6.870   1.077   2.312  1.00  0.00     0.027 C 
ATOM     31  C   UNL     1       7.312  -0.341   2.102  1.00  0.00     0.027 C 
ENDBRANCH  26  29
ENDBRANCH  23  25
ENDBRANCH  15  19
ENDBRANCH  11  13
ENDBRANCH   1  11
TORSDOF 8
