MODEL        2USER    Run = 2USERUSER    Estimated Free Energy of Binding    =  -9.76 kcal/mol  [=(1)+(2)+(3)-(4)]USERUSER    (1) Final Intermolecular Energy     = -11.25 kcal/molUSER        vdW + Hbond + desolv Energy     = -11.19 kcal/molUSER        Electrostatic Energy            =  -0.07 kcal/molUSER        Moving Ligand-Fixed Receptor    = -11.25 kcal/molUSER        Moving Ligand-Moving Receptor   =  +0.00 kcal/molUSER    (2) Final Total Internal Energy     =  -0.81 kcal/molUSER    (3) Torsional Free Energy           =  +1.49 kcal/molUSER    (4) Unbound System's Energy         =  -0.81 kcal/molUSERUSERREMARK SMILES Cc1cc(CSc2nnc(-c3ccc4c(c3)CCCN4)o2)ccc1[N+](=O)[O-]REMARK SMILES IDX 5 1 4 2 2 3 3 4 24 5 23 6 22 7 1 8 25 9 26 10 27 11 6 12REMARK SMILES IDX 7 13 8 14 21 15 9 16 10 17 11 18 12 19 16 20 13 21 15 22REMARK SMILES IDX 14 23 17 24 20 25 18 26 19 27REMARK H PARENT 20 28USER                              x       y       z     vdW  Elec       q    TypeUSER                           _______ _______ _______ _____ _____    ______ ____ROOTATOM      1  C   UNL     1      40.631  45.913  17.077 -0.40 -0.01    +0.115 C  ENDROOTBRANCH   1   2ATOM      2  C   UNL     1      39.730  46.439  15.981 -0.42 +0.01    -0.037 A  ATOM      3  C   UNL     1      37.855  46.092  14.437 -0.40 -0.01    +0.027 A  ATOM      4  C   UNL     1      38.700  45.632  15.462 -0.29 -0.00    +0.015 A  ATOM      5  C   UNL     1      38.085  47.383  13.930 -0.28 -0.09    +0.272 A  ATOM      6  C   UNL     1      39.090  48.210  14.445 -0.44 -0.03    +0.086 A  ATOM      7  C   UNL     1      39.907  47.734  15.471 -0.53 -0.00    +0.012 A  ATOM      8  C   UNL     1      36.784  45.180  13.909 -0.46 -0.02    +0.052 C  BRANCH   5   9ATOM      9  N   UNL     1      37.283  47.910  12.834 -0.50 -0.01    +0.062 N  ATOM     10  O   UNL     1      36.540  48.869  13.088 -0.69 +0.11    -0.258 OA ATOM     11  O   UNL     1      37.407  47.370  11.725 -1.07 +0.04    -0.258 OA ENDBRANCH   5   9ENDBRANCH   1   2BRANCH   1  12ATOM     12  S   UNL     1      40.213  46.567  18.716 -0.50 +0.00    -0.061 SA BRANCH  12  13ATOM     13  C   UNL     1      38.996  45.443  19.233 -0.22 -0.02    +0.277 A  ATOM     14  N   UNL     1      38.081  44.898  18.460 -0.32 +0.02    -0.101 NA ATOM     15  O   UNL     1      38.884  45.036  20.537 -0.17 -0.00    -0.411 OA ATOM     16  N   UNL     1      37.314  44.083  19.265 -0.29 +0.01    -0.107 NA ATOM     17  C   UNL     1      37.812  44.185  20.482 -0.20 -0.00    +0.248 A  BRANCH  17  18ATOM     18  C   UNL     1      37.394  43.550  21.724 -0.37 +0.00    +0.039 A  ATOM     19  C   UNL     1      36.941  42.224  21.765 -0.49 +0.00    +0.016 A  ATOM     20  C   UNL     1      37.433  44.273  22.924 -0.33 +0.00    +0.019 A  ATOM     21  C   UNL     1      36.557  41.638  22.975 -0.49 +0.00    +0.027 A  ATOM     22  C   UNL     1      37.033  43.693  24.140 -0.32 -0.00    -0.024 A  ATOM     23  C   UNL     1      36.633  42.348  24.178 -0.38 +0.00    +0.037 A  ATOM     24  C   UNL     1      37.084  44.517  25.403 -0.36 +0.00    +0.039 C  ATOM     25  N   UNL     1      36.169  41.747  25.356 -0.18 +0.06    -0.385 N  ATOM     26  C   UNL     1      36.268  43.889  26.526 -0.45 -0.00    +0.026 C  ATOM     27  C   UNL     1      36.555  42.397  26.602 -0.41 -0.02    +0.113 C  ATOM     28  H   UNL     1      36.312  40.740  25.360 -0.22 -0.09    +0.160 HD ENDBRANCH  17  18ENDBRANCH  12  13ENDBRANCH   1  12TORSDOF 5TERENDMDL