REMARK SMILES O=S(=O)(NCc1ccc(F)cc1)c1cccc(Oc2ccccc2)c1O
REMARK SMILES IDX 1 1 2 2 3 3 4 4 5 6 6 7 7 8 12 9 8 10 11 11 9 12 10 13 13 14
REMARK SMILES IDX 14 15 25 16 15 17 17 18 16 19 26 20 18 22 19 23 20 24 24 25
REMARK SMILES IDX 21 26 23 27 22 28
REMARK H PARENT 4 5 26 21
ROOT
ATOM      1  O   UNL     1      -1.111  -1.776  -2.618  1.00  0.00    -0.207 OA
ATOM      2  S   UNL     1      -1.030  -0.360  -2.336  1.00  0.00     0.244 S 
ATOM      3  O   UNL     1      -0.758   0.624  -3.360  1.00  0.00    -0.207 OA
ENDROOT
BRANCH   2   4
ATOM      4  N   UNL     1      -2.530   0.067  -1.696  1.00  0.00    -0.207 NA
ATOM      5  H   UNL     1      -3.063   0.657  -2.332  1.00  0.00     0.141 HD
BRANCH   4   6
ATOM      6  C   UNL     1      -3.254  -0.960  -0.952  1.00  0.00     0.134 C 
BRANCH   6   7
ATOM      7  C   UNL     1      -4.368  -0.336  -0.145  1.00  0.00    -0.033 A 
ATOM      8  C   UNL     1      -4.108   0.194   1.129  1.00  0.00     0.008 A 
ATOM      9  C   UNL     1      -5.665  -0.238  -0.676  1.00  0.00     0.008 A 
ATOM     10  C   UNL     1      -5.130   0.795   1.866  1.00  0.00     0.039 A 
ATOM     11  C   UNL     1      -6.684   0.364   0.064  1.00  0.00     0.039 A 
ATOM     12  C   UNL     1      -6.408   0.873   1.327  1.00  0.00     0.123 A 
ATOM     13  F   UNL     1      -7.388   1.451   2.034  1.00  0.00    -0.207 F 
ENDBRANCH   6   7
ENDBRANCH   4   6
ENDBRANCH   2   4
BRANCH   2  14
ATOM     14  C   UNL     1       0.083  -0.045  -0.996  1.00  0.00     0.128 A 
ATOM     15  C   UNL     1      -0.228   0.966  -0.071  1.00  0.00     0.026 A 
ATOM     16  C   UNL     1       1.251  -0.786  -0.846  1.00  0.00     0.178 A 
ATOM     17  C   UNL     1       0.617   1.212   1.013  1.00  0.00     0.006 A 
ATOM     18  C   UNL     1       2.103  -0.520   0.232  1.00  0.00     0.170 A 
ATOM     19  C   UNL     1       1.779   0.461   1.173  1.00  0.00     0.051 A 
BRANCH  16  20
ATOM     20  O   UNL     1       1.605  -1.746  -1.749  1.00  0.00    -0.503 OA
ATOM     21  H   UNL     1       2.440  -2.149  -1.443  1.00  0.00     0.293 HD
ENDBRANCH  16  20
BRANCH  18  22
ATOM     22  O   UNL     1       3.232  -1.303   0.361  1.00  0.00    -0.453 OA
BRANCH  22  23
ATOM     23  C   UNL     1       4.434  -0.645   0.501  1.00  0.00     0.127 A 
ATOM     24  C   UNL     1       4.808   0.429  -0.311  1.00  0.00     0.047 A 
ATOM     25  C   UNL     1       5.319  -1.147   1.455  1.00  0.00     0.047 A 
ATOM     26  C   UNL     1       6.059   1.024  -0.137  1.00  0.00     0.004 A 
ATOM     27  C   UNL     1       6.569  -0.550   1.626  1.00  0.00     0.004 A 
ATOM     28  C   UNL     1       6.936   0.537   0.832  1.00  0.00     0.000 A 
ENDBRANCH  22  23
ENDBRANCH  18  22
ENDBRANCH   2  14
TORSDOF 7
