MODEL        2USER    Run = 2USERUSER    Estimated Free Energy of Binding    =  -9.91 kcal/mol  [=(1)+(2)+(3)-(4)]USERUSER    (1) Final Intermolecular Energy     = -13.19 kcal/molUSER        vdW + Hbond + desolv Energy     = -11.39 kcal/molUSER        Electrostatic Energy            =  -1.80 kcal/molUSER        Moving Ligand-Fixed Receptor    = -13.19 kcal/molUSER        Moving Ligand-Moving Receptor   =  +0.00 kcal/molUSER    (2) Final Total Internal Energy     =  -1.21 kcal/molUSER    (3) Torsional Free Energy           =  +3.28 kcal/molUSER    (4) Unbound System's Energy         =  -1.21 kcal/molUSERUSERREMARK SMILES COc1ccc(C#C[Si](C)(C)[O-])cc1C=C1C(N)=NC(NC(=O)/C=C/CC(C)C)=C1CREMARK SMILES IDX 16 1 17 2 18 3 19 4 20 5 30 6 31 7 15 10 14 11 3 12 4 13REMARK SMILES IDX 5 14 13 15 6 16 2 17 1 18 7 19 8 20 9 21 10 22 11 23 12 24REMARK SMILES IDX 21 25 22 26 23 28 24 29 25 30 26 31 27 32 28 33 29 34REMARK H PARENT 18 8 18 9 21 27USER                              x       y       z     vdW  Elec       q    TypeUSER                           _______ _______ _______ _____ _____    ______ ____ROOTATOM      1  C   UNL     1      36.928  30.582  23.107 -0.46 +0.00    +0.024 C  ATOM      2  C   UNL     1      36.524  31.398  24.278 -0.39 +0.01    +0.133 C  ATOM      3  N   UNL     1      37.346  32.231  25.085 -0.27 +0.00    -0.383 N  ATOM      4  N   UNL     1      35.286  31.241  24.466 -0.12 -0.03    -0.213 NA ATOM      5  C   UNL     1      34.675  30.342  23.504 -0.20 +0.00    +0.138 C  ATOM      6  C   UNL     1      35.654  29.957  22.714 -0.47 -0.00    +0.003 C  ATOM      7  C   UNL     1      35.590  28.935  21.648 -0.41 -0.01    +0.049 C  ATOM      8  H   UNL     1      38.128  31.753  25.612 -0.33 -0.02    +0.158 HD ATOM      9  H   UNL     1      37.168  33.260  25.144 -0.12 -0.02    +0.158 HD ENDROOTBRANCH   1  10ATOM     10  C   UNL     1      38.140  30.525  22.680 -0.47 +0.00    +0.024 C  BRANCH  10  11ATOM     11  C   UNL     1      39.097  29.441  22.665 -0.30 +0.00    +0.018 A  ATOM     12  C   UNL     1      39.279  28.561  21.619 -0.17 +0.04    +0.126 A  ATOM     13  C   UNL     1      40.209  27.538  21.695 -0.15 +0.03    +0.048 A  ATOM     14  C   UNL     1      40.979  27.382  22.830 -0.17 +0.02    +0.021 A  ATOM     15  C   UNL     1      39.875  29.286  23.818 -0.26 +0.01    +0.029 A  ATOM     16  C   UNL     1      40.798  28.262  23.878 -0.25 +0.02    +0.025 A  BRANCH  12  17ATOM     17  O   UNL     1      38.532  28.693  20.481 -0.01 -0.06    -0.496 OA ATOM     18  C   UNL     1      38.015  27.619  19.740 -0.08 -0.02    +0.278 C  ENDBRANCH  12  17BRANCH  16  19ATOM     19  C   UNL     1      41.630  28.064  25.058 -0.24 -0.05    -0.076 C  BRANCH  19  20ATOM     20  C   UNL     1      42.324  27.882  26.031 -0.19 -0.10    -0.146 C  BRANCH  20  21ATOM     21  Si  UNL     1      43.384  27.586  27.477 -0.30 +0.03    +0.036 Si ATOM     22  C   UNL     1      45.000  26.875  26.883 -0.08 -0.01    -0.013 C  ATOM     23  C   UNL     1      43.697  29.151  28.447 -0.28 -0.01    -0.013 C  ATOM     24  O   UNL     1      42.560  26.476  28.503 -0.33 -1.68    -0.849 OA ENDBRANCH  20  21ENDBRANCH  19  20ENDBRANCH  16  19ENDBRANCH  10  11ENDBRANCH   1  10BRANCH   5  25ATOM     25  N   UNL     1      33.284  30.170  23.529 -0.24 -0.03    -0.307 N  ATOM     26  C   UNL     1      32.327  30.221  22.519 -0.45 +0.01    +0.249 C  ATOM     27  H   UNL     1      32.869  29.951  24.500 +0.20 +0.06    +0.171 HD ATOM     28  O   UNL     1      32.639  30.471  21.362 -1.08 +0.00    -0.270 OA BRANCH  26  29ATOM     29  C   UNL     1      30.889  29.982  22.777 -0.61 -0.00    +0.067 C  BRANCH  29  30ATOM     30  C   UNL     1      30.358  29.926  23.959 -0.62 -0.01    -0.021 C  BRANCH  30  31ATOM     31  C   UNL     1      28.934  30.371  24.171 -0.61 +0.01    +0.030 C  BRANCH  31  32ATOM     32  C   UNL     1      28.072  29.267  23.599 -0.67 +0.00    -0.014 C  ATOM     33  C   UNL     1      27.176  28.692  24.667 -0.73 +0.00    +0.007 C  ATOM     34  C   UNL     1      27.197  29.835  22.504 -0.51 -0.00    +0.007 C  ENDBRANCH  31  32ENDBRANCH  30  31ENDBRANCH  29  30ENDBRANCH  26  29ENDBRANCH   5  25TORSDOF 11TERENDMDL