
     RDKit          3D

 73 77  0  0  0  0  0  0  0  0999 V2000
    8.6013    3.3539   -0.8316 C   0  0  0  0  0  0  0  0  0  0  0  0
    7.4638    2.5419   -0.5635 O   0  0  0  0  0  0  0  0  0  0  0  0
    7.4137    1.9269    0.6563 C   0  0  0  0  0  0  0  0  0  0  0  0
    8.4199    1.9377    1.6198 C   0  0  0  0  0  0  0  0  0  0  0  0
    8.2314    1.2579    2.8207 C   0  0  0  0  0  0  0  0  0  0  0  0
    9.2184    1.2768    3.7319 F   0  0  0  0  0  0  0  0  0  0  0  0
    7.0530    0.5619    3.0800 C   0  0  0  0  0  0  0  0  0  0  0  0
    6.9494   -0.0832    4.2864 O   0  0  0  0  0  0  0  0  0  0  0  0
    6.0347    0.5436    2.1173 C   0  0  0  0  0  0  0  0  0  0  0  0
    4.7851   -0.2121    2.3883 C   0  0  0  0  0  0  0  0  0  0  0  0
    4.6858   -0.9106    3.3954 O   0  0  0  0  0  0  0  0  0  0  0  0
    3.6372   -0.1590    1.4737 C   0  0  0  0  0  0  0  0  0  0  0  0
    2.6948    0.8614    1.6102 C   0  0  0  0  0  0  0  0  0  0  0  0
    1.5890    0.8854    0.7589 C   0  0  0  0  0  0  0  0  0  0  0  0
    1.4239   -0.1117   -0.2143 C   0  0  0  0  0  0  0  0  0  0  0  0
    0.2218   -0.0505   -1.0895 C   0  0  0  0  0  0  0  0  0  0  0  0
   -0.3463    1.0180   -1.2957 O   0  0  0  0  0  0  0  0  0  0  0  0
   -0.2444   -1.2525   -1.5894 N   0  0  0  0  0  0  0  0  0  0  0  0
   -1.4914   -1.3248   -2.3659 C   0  0  1  0  0  0  0  0  0  0  0  0
   -1.5411   -2.6041   -3.2042 C   0  0  0  0  0  0  0  0  0  0  0  0
   -2.4352   -3.6571   -2.5628 C   0  0  2  0  0  0  0  0  0  0  0  0
   -2.4005   -4.7634   -3.3539 F   0  0  0  0  0  0  0  0  0  0  0  0
   -3.8337   -3.2307   -2.4427 N   0  0  0  0  0  0  0  0  0  0  0  0
   -4.4639   -4.0094   -1.3540 C   0  0  0  0  0  0  0  0  0  0  0  0
   -6.0122   -3.9560   -1.4475 C   0  0  0  0  0  0  0  0  0  0  0  0
   -6.0178   -5.4128   -1.1433 N   0  0  0  0  0  0  0  0  0  0  0  0
   -4.6735   -5.4911   -1.7767 C   0  0  0  0  0  0  0  0  0  0  0  0
   -3.9656   -1.7858   -2.1641 C   0  0  0  0  0  0  0  0  0  0  0  0
   -2.7429   -1.1617   -1.4543 C   0  0  0  0  0  0  0  0  0  0  0  0
   -2.9477    0.2475   -1.1051 N   0  0  0  0  0  0  0  0  0  0  0  0
   -3.8044    0.6027   -0.0823 C   0  0  0  0  0  0  0  0  0  0  0  0
   -4.5261   -0.2050    0.4947 O   0  0  0  0  0  0  0  0  0  0  0  0
   -3.8140    2.0186    0.3341 C   0  0  0  0  0  0  0  0  0  0  0  0
   -4.4749    2.3951    1.4850 C   0  0  0  0  0  0  0  0  0  0  0  0
   -4.5577    3.6721    1.9255 N   0  0  0  0  0  0  0  0  0  0  0  0
   -3.9579    4.6009    1.1597 C   0  0  0  0  0  0  0  0  0  0  0  0
   -4.0160    5.9288    1.5146 O   0  0  0  0  0  0  0  0  0  0  0  0
   -4.8071    6.1633    2.6714 C   0  0  0  0  0  0  0  0  0  0  0  0
   -3.2847    4.3499    0.0271 N   0  0  0  0  0  0  0  0  0  0  0  0
   -3.2317    3.0553   -0.3655 C   0  0  0  0  0  0  0  0  0  0  0  0
    2.3840   -1.1273   -0.3460 C   0  0  0  0  0  0  0  0  0  0  0  0
    3.4888   -1.1567    0.5085 C   0  0  0  0  0  0  0  0  0  0  0  0
    6.2243    1.2295    0.9067 C   0  0  0  0  0  0  0  0  0  0  0  0
    9.5134    2.7491   -0.8851 H   0  0  0  0  0  0  0  0  0  0  0  0
    8.6974    4.1535   -0.0912 H   0  0  0  0  0  0  0  0  0  0  0  0
    8.4548    3.8209   -1.8120 H   0  0  0  0  0  0  0  0  0  0  0  0
    9.3646    2.4532    1.4783 H   0  0  0  0  0  0  0  0  0  0  0  0
    6.1038   -0.5859    4.2989 H   0  0  0  0  0  0  0  0  0  0  0  0
    2.8113    1.6279    2.3747 H   0  0  0  0  0  0  0  0  0  0  0  0
    0.8496    1.6770    0.8652 H   0  0  0  0  0  0  0  0  0  0  0  0
    0.0783   -2.1022   -1.1361 H   0  0  0  0  0  0  0  0  0  0  0  0
   -1.4521   -0.4806   -3.0683 H   0  0  0  0  0  0  0  0  0  0  0  0
   -1.9368   -2.3697   -4.2043 H   0  0  0  0  0  0  0  0  0  0  0  0
   -0.5373   -3.0171   -3.3770 H   0  0  0  0  0  0  0  0  0  0  0  0
   -2.0026   -3.9386   -1.5933 H   0  0  0  0  0  0  0  0  0  0  0  0
   -4.0591   -3.8634   -0.3436 H   0  0  0  0  0  0  0  0  0  0  0  0
   -6.4278   -3.7194   -2.4367 H   0  0  0  0  0  0  0  0  0  0  0  0
   -6.5089   -3.3360   -0.6950 H   0  0  0  0  0  0  0  0  0  0  0  0
   -6.7443   -5.9434   -1.6258 H   0  0  0  0  0  0  0  0  0  0  0  0
   -4.7218   -5.6918   -2.8565 H   0  0  0  0  0  0  0  0  0  0  0  0
   -3.9949   -6.2142   -1.3126 H   0  0  0  0  0  0  0  0  0  0  0  0
   -4.8903   -1.5675   -1.6192 H   0  0  0  0  0  0  0  0  0  0  0  0
   -4.0965   -1.2799   -3.1298 H   0  0  0  0  0  0  0  0  0  0  0  0
   -2.5770   -1.6941   -0.5081 H   0  0  0  0  0  0  0  0  0  0  0  0
   -2.1238    0.8364   -1.2393 H   0  0  0  0  0  0  0  0  0  0  0  0
   -4.9787    1.6631    2.1113 H   0  0  0  0  0  0  0  0  0  0  0  0
   -4.9017    7.2485    2.7997 H   0  0  0  0  0  0  0  0  0  0  0  0
   -5.8229    5.7604    2.5635 H   0  0  0  0  0  0  0  0  0  0  0  0
   -4.3157    5.7588    3.5647 H   0  0  0  0  0  0  0  0  0  0  0  0
   -2.6931    2.9015   -1.2957 H   0  0  0  0  0  0  0  0  0  0  0  0
    2.2967   -1.8912   -1.1139 H   0  0  0  0  0  0  0  0  0  0  0  0
    4.2248   -1.9514    0.4193 H   0  0  0  0  0  0  0  0  0  0  0  0
    5.4603    1.2327    0.1326 H   0  0  0  0  0  0  0  0  0  0  0  0
  1  2  1  0
  2  3  1  0
  3  4  2  0
  4  5  1  0
  5  6  1  0
  5  7  2  0
  7  8  1  0
  7  9  1  0
  9 10  1  0
 10 11  2  0
 10 12  1  0
 12 13  2  0
 13 14  1  0
 14 15  2  0
 15 16  1  0
 16 17  2  0
 16 18  1  0
 18 19  1  0
 19 20  1  0
 20 21  1  0
 21 22  1  0
 21 23  1  0
 23 24  1  0
 24 25  1  0
 25 26  1  0
 26 27  1  0
 23 28  1  0
 28 29  1  0
 29 30  1  0
 30 31  1  0
 31 32  2  0
 31 33  1  0
 33 34  2  0
 34 35  1  0
 35 36  2  0
 36 37  1  0
 37 38  1  0
 36 39  1  0
 39 40  2  0
 15 41  1  0
 41 42  2  0
  9 43  2  0
 43  3  1  0
 42 12  1  0
 29 19  1  0
 40 33  1  0
 27 24  1  0
  1 44  1  0
  1 45  1  0
  1 46  1  0
  4 47  1  0
  8 48  1  0
 13 49  1  0
 14 50  1  0
 18 51  1  0
 19 52  1  6
 20 53  1  0
 20 54  1  0
 21 55  1  1
 24 56  1  0
 25 57  1  0
 25 58  1  0
 26 59  1  0
 27 60  1  0
 27 61  1  0
 28 62  1  0
 28 63  1  0
 29 64  1  0
 30 65  1  0
 34 66  1  0
 38 67  1  0
 38 68  1  0
 38 69  1  0
 40 70  1  0
 41 71  1  0
 42 72  1  0
 43 73  1  0
M  END
$$$$
