
     RDKit          3D

 84 89  0  0  0  0  0  0  0  0999 V2000
   10.7716   -0.9986   -1.0031 C   0  0  0  0  0  0  0  0  0  0  0  0
    9.3543   -1.0495   -0.8669 O   0  0  0  0  0  0  0  0  0  0  0  0
    8.8425   -2.0616   -0.1043 C   0  0  0  0  0  0  0  0  0  0  0  0
    9.5828   -3.0075    0.6003 C   0  0  0  0  0  0  0  0  0  0  0  0
    8.9210   -3.9916    1.3298 C   0  0  0  0  0  0  0  0  0  0  0  0
    9.6544   -4.9050    1.9833 F   0  0  0  0  0  0  0  0  0  0  0  0
    7.5294   -4.0423    1.3806 C   0  0  0  0  0  0  0  0  0  0  0  0
    6.9518   -5.0536    2.1024 O   0  0  0  0  0  0  0  0  0  0  0  0
    6.7782   -3.0713    0.7081 C   0  0  0  0  0  0  0  0  0  0  0  0
    5.2965   -3.0992    0.7921 C   0  0  0  0  0  0  0  0  0  0  0  0
    4.7394   -4.1695    1.0235 O   0  0  0  0  0  0  0  0  0  0  0  0
    4.4718   -1.8812    0.6274 C   0  0  0  0  0  0  0  0  0  0  0  0
    4.8469   -0.6660    1.2061 C   0  0  0  0  0  0  0  0  0  0  0  0
    4.0446    0.4631    1.0237 C   0  0  0  0  0  0  0  0  0  0  0  0
    2.8588    0.3934    0.2752 C   0  0  0  0  0  0  0  0  0  0  0  0
    2.0756    1.6538    0.1104 C   0  0  0  0  0  0  0  0  0  0  0  0
    2.5879    2.7326    0.3968 O   0  0  0  0  0  0  0  0  0  0  0  0
    0.7838    1.5532   -0.3559 N   0  0  0  0  0  0  0  0  0  0  0  0
   -0.0616    2.7336   -0.5108 C   0  0  2  0  0  0  0  0  0  0  0  0
   -0.6044    3.2149    0.8406 C   0  0  0  0  0  0  0  0  0  0  0  0
   -1.5195    4.4307    0.6668 C   0  0  0  0  0  0  0  0  0  0  0  0
   -2.6172    4.1664   -0.2861 N   0  0  0  0  0  0  0  0  0  0  0  0
   -3.5807    5.2917   -0.4292 C   0  0  0  0  0  0  0  0  0  0  0  0
   -4.4232    5.4922    0.8236 C   0  0  0  0  0  0  0  0  0  0  0  0
   -3.8141    6.6923    1.5260 C   0  0  0  0  0  0  0  0  0  0  0  0
   -2.8034    7.2352    0.6721 O   0  0  0  0  0  0  0  0  0  0  0  0
   -3.0126    6.6963   -0.6372 C   0  0  0  0  0  0  0  0  0  0  0  0
   -2.0560    3.7914   -1.6054 C   0  0  0  0  0  0  0  0  0  0  0  0
   -1.2311    2.4921   -1.4891 C   0  0  0  0  0  0  0  0  0  0  0  0
   -2.1137    1.4013   -1.0368 N   0  0  0  0  0  0  0  0  0  0  0  0
   -1.9888    0.1036   -1.4666 C   0  0  0  0  0  0  0  0  0  0  0  0
   -1.0806   -0.2831   -2.1967 O   0  0  0  0  0  0  0  0  0  0  0  0
   -3.0245   -0.8404   -1.0281 C   0  0  0  0  0  0  0  0  0  0  0  0
   -3.4645   -1.8389   -1.8628 C   0  0  0  0  0  0  0  0  0  0  0  0
   -4.4475   -2.7078   -1.5338 N   0  0  0  0  0  0  0  0  0  0  0  0
   -4.9911   -2.6026   -0.3074 C   0  0  0  0  0  0  0  0  0  0  0  0
   -6.0222   -3.4433    0.0376 N   0  0  0  0  0  0  0  0  0  0  0  0
   -6.4660   -4.4485   -0.9262 C   0  0  0  0  0  0  0  0  0  0  0  0
   -7.7662   -5.0934   -0.4138 C   0  0  0  0  0  0  0  0  0  0  0  0
   -7.6510   -5.7173    0.8774 O   0  0  0  0  0  0  0  0  0  0  0  0
   -6.5494   -5.2296    1.6521 C   0  0  0  0  0  0  0  0  0  0  0  0
   -6.2592   -3.7307    1.4517 C   0  0  0  0  0  0  0  0  0  0  0  0
   -4.5878   -1.6761    0.5843 N   0  0  0  0  0  0  0  0  0  0  0  0
   -3.6197   -0.8117    0.2077 C   0  0  0  0  0  0  0  0  0  0  0  0
    2.4827   -0.8335   -0.2883 C   0  0  0  0  0  0  0  0  0  0  0  0
    3.2792   -1.9706   -0.1002 C   0  0  0  0  0  0  0  0  0  0  0  0
    7.4436   -2.1013   -0.0561 C   0  0  0  0  0  0  0  0  0  0  0  0
   11.2529   -0.8029   -0.0388 H   0  0  0  0  0  0  0  0  0  0  0  0
   11.1564   -1.9160   -1.4606 H   0  0  0  0  0  0  0  0  0  0  0  0
   11.0168   -0.1650   -1.6713 H   0  0  0  0  0  0  0  0  0  0  0  0
   10.6660   -3.0213    0.6046 H   0  0  0  0  0  0  0  0  0  0  0  0
    5.9921   -5.0656    1.8896 H   0  0  0  0  0  0  0  0  0  0  0  0
    5.7537   -0.5746    1.8016 H   0  0  0  0  0  0  0  0  0  0  0  0
    4.3475    1.4099    1.4729 H   0  0  0  0  0  0  0  0  0  0  0  0
    0.3569    0.6527   -0.5319 H   0  0  0  0  0  0  0  0  0  0  0  0
    0.5742    3.5269   -0.9305 H   0  0  0  0  0  0  0  0  0  0  0  0
   -1.1531    2.4079    1.3459 H   0  0  0  0  0  0  0  0  0  0  0  0
    0.2235    3.4850    1.5071 H   0  0  0  0  0  0  0  0  0  0  0  0
   -1.9246    4.6664    1.6550 H   0  0  0  0  0  0  0  0  0  0  0  0
   -0.9079    5.2836    0.3457 H   0  0  0  0  0  0  0  0  0  0  0  0
   -4.2509    5.0391   -1.2579 H   0  0  0  0  0  0  0  0  0  0  0  0
   -5.4626    5.7197    0.5454 H   0  0  0  0  0  0  0  0  0  0  0  0
   -4.4703    4.6126    1.4755 H   0  0  0  0  0  0  0  0  0  0  0  0
   -4.5644    7.4654    1.7135 H   0  0  0  0  0  0  0  0  0  0  0  0
   -3.3640    6.4239    2.4821 H   0  0  0  0  0  0  0  0  0  0  0  0
   -2.0781    6.7268   -1.2032 H   0  0  0  0  0  0  0  0  0  0  0  0
   -3.7395    7.3339   -1.1488 H   0  0  0  0  0  0  0  0  0  0  0  0
   -2.8739    3.6084   -2.3144 H   0  0  0  0  0  0  0  0  0  0  0  0
   -1.4401    4.5976   -2.0223 H   0  0  0  0  0  0  0  0  0  0  0  0
   -0.8340    2.2199   -2.4742 H   0  0  0  0  0  0  0  0  0  0  0  0
   -2.8921    1.7045   -0.4577 H   0  0  0  0  0  0  0  0  0  0  0  0
   -3.0522   -1.9673   -2.8602 H   0  0  0  0  0  0  0  0  0  0  0  0
   -5.6920   -5.2175   -1.0462 H   0  0  0  0  0  0  0  0  0  0  0  0
   -6.6648   -3.9977   -1.9074 H   0  0  0  0  0  0  0  0  0  0  0  0
   -8.5571   -4.3363   -0.3422 H   0  0  0  0  0  0  0  0  0  0  0  0
   -8.1107   -5.8581   -1.1180 H   0  0  0  0  0  0  0  0  0  0  0  0
   -6.7701   -5.4277    2.7041 H   0  0  0  0  0  0  0  0  0  0  0  0
   -5.6728   -5.8284    1.3891 H   0  0  0  0  0  0  0  0  0  0  0  0
   -5.4034   -3.4660    2.0815 H   0  0  0  0  0  0  0  0  0  0  0  0
   -7.1224   -3.1452    1.7809 H   0  0  0  0  0  0  0  0  0  0  0  0
   -3.3383   -0.0949    0.9727 H   0  0  0  0  0  0  0  0  0  0  0  0
    1.5892   -0.9315   -0.8974 H   0  0  0  0  0  0  0  0  0  0  0  0
    2.9757   -2.9208   -0.5398 H   0  0  0  0  0  0  0  0  0  0  0  0
    6.8931   -1.3599   -0.6333 H   0  0  0  0  0  0  0  0  0  0  0  0
  1  2  1  0
  2  3  1  0
  3  4  2  0
  4  5  1  0
  5  6  1  0
  5  7  2  0
  7  8  1  0
  7  9  1  0
  9 10  1  0
 10 11  2  0
 10 12  1  0
 12 13  2  0
 13 14  1  0
 14 15  2  0
 15 16  1  0
 16 17  2  0
 16 18  1  0
 18 19  1  0
 19 20  1  0
 20 21  1  0
 21 22  1  0
 22 23  1  0
 23 24  1  0
 24 25  1  0
 25 26  1  0
 26 27  1  0
 22 28  1  0
 28 29  1  0
 29 30  1  0
 30 31  1  0
 31 32  2  0
 31 33  1  0
 33 34  2  0
 34 35  1  0
 35 36  2  0
 36 37  1  0
 37 38  1  0
 38 39  1  0
 39 40  1  0
 40 41  1  0
 41 42  1  0
 36 43  1  0
 43 44  2  0
 15 45  1  0
 45 46  2  0
  9 47  2  0
 47  3  1  0
 46 12  1  0
 29 19  1  0
 44 33  1  0
 27 23  1  0
 42 37  1  0
  1 48  1  0
  1 49  1  0
  1 50  1  0
  4 51  1  0
  8 52  1  0
 13 53  1  0
 14 54  1  0
 18 55  1  0
 19 56  1  6
 20 57  1  0
 20 58  1  0
 21 59  1  0
 21 60  1  0
 23 61  1  0
 24 62  1  0
 24 63  1  0
 25 64  1  0
 25 65  1  0
 27 66  1  0
 27 67  1  0
 28 68  1  0
 28 69  1  0
 29 70  1  0
 30 71  1  0
 34 72  1  0
 38 73  1  0
 38 74  1  0
 39 75  1  0
 39 76  1  0
 41 77  1  0
 41 78  1  0
 42 79  1  0
 42 80  1  0
 44 81  1  0
 45 82  1  0
 46 83  1  0
 47 84  1  0
M  END
$$$$
