
     RDKit          3D

 74 78  0  0  0  0  0  0  0  0999 V2000
    6.8772    5.7477   -0.2447 C   0  0  0  0  0  0  0  0  0  0  0  0
    6.5647    4.3605   -0.3123 O   0  0  0  0  0  0  0  0  0  0  0  0
    5.4771    3.9353    0.4003 C   0  0  0  0  0  0  0  0  0  0  0  0
    4.5711    4.7524    1.0798 C   0  0  0  0  0  0  0  0  0  0  0  0
    3.4922    4.1769    1.7537 C   0  0  0  0  0  0  0  0  0  0  0  0
    2.6304    4.9708    2.4060 F   0  0  0  0  0  0  0  0  0  0  0  0
    3.2906    2.8015    1.7538 C   0  0  0  0  0  0  0  0  0  0  0  0
    2.2078    2.2580    2.3824 O   0  0  0  0  0  0  0  0  0  0  0  0
    4.2062    1.9891    1.0910 C   0  0  0  0  0  0  0  0  0  0  0  0
    4.0480    0.5287    1.0736 C   0  0  0  0  0  0  0  0  0  0  0  0
    4.6617   -0.1320    1.9077 O   0  0  0  0  0  0  0  0  0  0  0  0
    3.1852   -0.1309    0.0514 C   0  0  0  0  0  0  0  0  0  0  0  0
    2.5174    0.5884   -0.9501 C   0  0  0  0  0  0  0  0  0  0  0  0
    1.7416   -0.0831   -1.9008 C   0  0  0  0  0  0  0  0  0  0  0  0
    1.6211   -1.4750   -1.8395 C   0  0  0  0  0  0  0  0  0  0  0  0
    0.6124   -2.3157   -3.0327 S   0  0  0  0  0  0  0  0  0  0  0  0
    0.6283   -1.5310   -4.2459 O   0  0  0  0  0  0  0  0  0  0  0  0
    0.9251   -3.7241   -3.0176 O   0  0  0  0  0  0  0  0  0  0  0  0
   -0.9172   -2.1010   -2.3701 N   0  0  0  0  0  0  0  0  0  0  0  0
   -1.3791   -3.0364   -1.3017 C   0  0  2  0  0  0  0  0  0  0  0  0
   -2.2397   -4.1336   -1.9294 C   0  0  0  0  0  0  0  0  0  0  0  0
   -3.2236   -4.6982   -0.9100 C   0  0  0  0  0  0  0  0  0  0  0  0
   -4.2058   -3.6946   -0.4689 N   0  0  0  0  0  0  0  0  0  0  0  0
   -4.7551   -4.0702    0.8641 C   0  0  0  0  0  0  0  0  0  0  0  0
   -5.6178   -5.3605    0.7981 C   0  0  0  0  0  0  0  0  0  0  0  0
   -6.8110   -4.5370    0.5219 N   0  0  0  0  0  0  0  0  0  0  0  0
   -6.1238   -3.3711    1.1111 C   0  0  0  0  0  0  0  0  0  0  0  0
   -3.6535   -2.3265   -0.4183 C   0  0  0  0  0  0  0  0  0  0  0  0
   -2.1295   -2.2499   -0.1928 C   0  0  0  0  0  0  0  0  0  0  0  0
   -1.6572   -0.8635   -0.1354 N   0  0  0  0  0  0  0  0  0  0  0  0
   -1.8218   -0.0720    0.9755 C   0  0  0  0  0  0  0  0  0  0  0  0
   -2.3532   -0.4688    2.0051 O   0  0  0  0  0  0  0  0  0  0  0  0
   -1.3108    1.3070    0.8987 C   0  0  0  0  0  0  0  0  0  0  0  0
   -1.0914    1.9949   -0.2724 C   0  0  0  0  0  0  0  0  0  0  0  0
   -0.6227    3.2622   -0.3290 N   0  0  0  0  0  0  0  0  0  0  0  0
   -0.3916    3.8591    0.8517 C   0  0  0  0  0  0  0  0  0  0  0  0
    0.1143    5.1369    0.8949 O   0  0  0  0  0  0  0  0  0  0  0  0
    0.1990    5.7496   -0.3852 C   0  0  0  0  0  0  0  0  0  0  0  0
   -0.5557    3.2842    2.0532 N   0  0  0  0  0  0  0  0  0  0  0  0
   -1.0378    2.0177    2.0474 C   0  0  0  0  0  0  0  0  0  0  0  0
    2.2932   -2.2047   -0.8566 C   0  0  0  0  0  0  0  0  0  0  0  0
    3.0700   -1.5294    0.0884 C   0  0  0  0  0  0  0  0  0  0  0  0
    5.2979    2.5497    0.4146 C   0  0  0  0  0  0  0  0  0  0  0  0
    7.0438    6.0691    0.7894 H   0  0  0  0  0  0  0  0  0  0  0  0
    6.0980    6.3470   -0.7302 H   0  0  0  0  0  0  0  0  0  0  0  0
    7.8126    5.9065   -0.7924 H   0  0  0  0  0  0  0  0  0  0  0  0
    4.6709    5.8329    1.1090 H   0  0  0  0  0  0  0  0  0  0  0  0
    1.6092    2.9860    2.6540 H   0  0  0  0  0  0  0  0  0  0  0  0
    2.5943    1.6721   -1.0181 H   0  0  0  0  0  0  0  0  0  0  0  0
    1.2480    0.4837   -2.6882 H   0  0  0  0  0  0  0  0  0  0  0  0
   -1.6042   -1.7894   -3.0602 H   0  0  0  0  0  0  0  0  0  0  0  0
   -0.5026   -3.4871   -0.8210 H   0  0  0  0  0  0  0  0  0  0  0  0
   -2.7931   -3.7549   -2.7988 H   0  0  0  0  0  0  0  0  0  0  0  0
   -1.5960   -4.9362   -2.3055 H   0  0  0  0  0  0  0  0  0  0  0  0
   -2.6562   -5.1052   -0.0614 H   0  0  0  0  0  0  0  0  0  0  0  0
   -3.7522   -5.5366   -1.3760 H   0  0  0  0  0  0  0  0  0  0  0  0
   -4.0411   -4.0237    1.6927 H   0  0  0  0  0  0  0  0  0  0  0  0
   -5.6752   -5.8848    1.7606 H   0  0  0  0  0  0  0  0  0  0  0  0
   -5.3941   -6.1051    0.0301 H   0  0  0  0  0  0  0  0  0  0  0  0
   -7.6592   -4.8271    1.0027 H   0  0  0  0  0  0  0  0  0  0  0  0
   -6.3491   -3.2303    2.1758 H   0  0  0  0  0  0  0  0  0  0  0  0
   -6.3227   -2.4274    0.5977 H   0  0  0  0  0  0  0  0  0  0  0  0
   -4.1697   -1.7062    0.3245 H   0  0  0  0  0  0  0  0  0  0  0  0
   -3.8834   -1.8497   -1.3823 H   0  0  0  0  0  0  0  0  0  0  0  0
   -1.9077   -2.7116    0.7794 H   0  0  0  0  0  0  0  0  0  0  0  0
   -1.1425   -0.5558   -0.9531 H   0  0  0  0  0  0  0  0  0  0  0  0
   -1.2990    1.5606   -1.2433 H   0  0  0  0  0  0  0  0  0  0  0  0
    0.5783    6.7660   -0.2434 H   0  0  0  0  0  0  0  0  0  0  0  0
    0.9051    5.2170   -1.0311 H   0  0  0  0  0  0  0  0  0  0  0  0
   -0.7843    5.8276   -0.8597 H   0  0  0  0  0  0  0  0  0  0  0  0
   -1.1888    1.5807    3.0305 H   0  0  0  0  0  0  0  0  0  0  0  0
    2.2196   -3.2893   -0.8158 H   0  0  0  0  0  0  0  0  0  0  0  0
    3.5901   -2.0984    0.8574 H   0  0  0  0  0  0  0  0  0  0  0  0
    6.0166    1.9088   -0.0926 H   0  0  0  0  0  0  0  0  0  0  0  0
  1  2  1  0
  2  3  1  0
  3  4  2  0
  4  5  1  0
  5  6  1  0
  5  7  2  0
  7  8  1  0
  7  9  1  0
  9 10  1  0
 10 11  2  0
 10 12  1  0
 12 13  2  0
 13 14  1  0
 14 15  2  0
 15 16  1  0
 16 17  2  0
 16 18  2  0
 16 19  1  0
 19 20  1  0
 20 21  1  0
 21 22  1  0
 22 23  1  0
 23 24  1  0
 24 25  1  0
 25 26  1  0
 26 27  1  0
 23 28  1  0
 28 29  1  0
 29 30  1  0
 30 31  1  0
 31 32  2  0
 31 33  1  0
 33 34  2  0
 34 35  1  0
 35 36  2  0
 36 37  1  0
 37 38  1  0
 36 39  1  0
 39 40  2  0
 15 41  1  0
 41 42  2  0
  9 43  2  0
 43  3  1  0
 42 12  1  0
 29 20  1  0
 40 33  1  0
 27 24  1  0
  1 44  1  0
  1 45  1  0
  1 46  1  0
  4 47  1  0
  8 48  1  0
 13 49  1  0
 14 50  1  0
 19 51  1  0
 20 52  1  1
 21 53  1  0
 21 54  1  0
 22 55  1  0
 22 56  1  0
 24 57  1  0
 25 58  1  0
 25 59  1  0
 26 60  1  0
 27 61  1  0
 27 62  1  0
 28 63  1  0
 28 64  1  0
 29 65  1  0
 30 66  1  0
 34 67  1  0
 38 68  1  0
 38 69  1  0
 38 70  1  0
 40 71  1  0
 41 72  1  0
 42 73  1  0
 43 74  1  0
M  END
$$$$
