
     RDKit          3D

 68 74  0  0  0  0  0  0  0  0999 V2000
    4.9930   -0.3943   -3.3249 O   0  0  0  0  0  0  0  0  0  0  0  0
    5.6849    0.2226   -2.3889 C   0  0  0  0  0  0  0  0  0  0  0  0
    6.7424    0.9322   -2.6710 N   0  0  0  0  0  0  0  0  0  0  0  0
    7.1567    1.4215   -1.4556 C   0  0  0  0  0  0  0  0  0  0  0  0
    8.2474    2.2545   -1.1614 C   0  0  0  0  0  0  0  0  0  0  0  0
    8.4690    2.6351    0.1675 C   0  0  0  0  0  0  0  0  0  0  0  0
    7.6228    2.1944    1.1859 C   0  0  0  0  0  0  0  0  0  0  0  0
    6.5304    1.3614    0.9146 C   0  0  0  0  0  0  0  0  0  0  0  0
    6.3236    0.9886   -0.4212 C   0  0  0  0  0  0  0  0  0  0  0  0
    5.3824    0.2055   -1.0561 N   0  0  0  0  0  0  0  0  0  0  0  0
    4.2643   -0.4860   -0.4316 C   0  0  0  0  0  0  0  0  0  0  0  0
    2.9040    0.1112   -0.8298 C   0  0  0  0  0  0  0  0  0  0  0  0
    1.8447   -0.9715   -1.0354 C   0  0  0  0  0  0  0  0  0  0  0  0
    1.8551   -2.0126   -0.0029 N   0  0  0  0  0  0  0  0  0  0  0  0
    1.3373   -1.5693    1.3033 C   0  0  0  0  0  0  0  0  0  0  0  0
   -0.1040   -1.1090    1.2663 C   0  0  0  0  0  0  0  0  0  0  0  0
   -0.4544    0.1799    1.6841 C   0  0  0  0  0  0  0  0  0  0  0  0
   -1.7875    0.5995    1.6435 C   0  0  0  0  0  0  0  0  0  0  0  0
   -2.8051   -0.2499    1.1777 C   0  0  0  0  0  0  0  0  0  0  0  0
   -4.2003    0.2185    1.1255 C   0  0  0  0  0  0  0  0  0  0  0  0
   -4.6685    0.6866    2.3176 N   0  0  0  0  0  0  0  0  0  0  0  0
   -5.9516    1.0835    2.3683 C   0  0  0  0  0  0  0  0  0  0  0  0
   -6.4760    1.5568    3.5650 C   0  0  0  0  0  0  0  0  0  0  0  0
   -7.8039    1.9746    3.6618 C   0  0  0  0  0  0  0  0  0  0  0  0
   -8.6219    1.9182    2.5414 C   0  0  0  0  0  0  0  0  0  0  0  0
   -8.1046    1.4444    1.3350 C   0  0  0  0  0  0  0  0  0  0  0  0
   -6.7841    1.0255    1.2290 C   0  0  0  0  0  0  0  0  0  0  0  0
   -6.3237    0.5788    0.0479 N   0  0  0  0  0  0  0  0  0  0  0  0
   -5.0195    0.1859   -0.0146 C   0  0  0  0  0  0  0  0  0  0  0  0
   -4.5883   -0.2349   -1.3612 C   0  0  0  0  0  0  0  0  0  0  0  0
   -5.3408   -1.1773   -2.0852 C   0  0  0  0  0  0  0  0  0  0  0  0
   -4.9526   -1.5880   -3.3636 C   0  0  0  0  0  0  0  0  0  0  0  0
   -3.8052   -1.0568   -3.9469 C   0  0  0  0  0  0  0  0  0  0  0  0
   -3.0521   -0.1110   -3.2564 C   0  0  0  0  0  0  0  0  0  0  0  0
   -3.4436    0.3007   -1.9788 C   0  0  0  0  0  0  0  0  0  0  0  0
   -2.4464   -1.5495    0.7859 C   0  0  0  0  0  0  0  0  0  0  0  0
   -1.1149   -1.9728    0.8270 C   0  0  0  0  0  0  0  0  0  0  0  0
    3.1643   -2.6728    0.1296 C   0  0  0  0  0  0  0  0  0  0  0  0
    4.3065   -2.0041   -0.6416 C   0  0  0  0  0  0  0  0  0  0  0  0
    5.4905   -0.1460   -4.1256 H   0  0  0  0  0  0  0  0  0  0  0  0
    8.8991    2.5953   -1.9581 H   0  0  0  0  0  0  0  0  0  0  0  0
    9.3104    3.2815    0.4047 H   0  0  0  0  0  0  0  0  0  0  0  0
    7.8156    2.5047    2.2116 H   0  0  0  0  0  0  0  0  0  0  0  0
    5.8799    1.0268    1.7151 H   0  0  0  0  0  0  0  0  0  0  0  0
    4.3762   -0.3245    0.6489 H   0  0  0  0  0  0  0  0  0  0  0  0
    2.9720    0.7055   -1.7483 H   0  0  0  0  0  0  0  0  0  0  0  0
    2.5798    0.8113   -0.0491 H   0  0  0  0  0  0  0  0  0  0  0  0
    2.0063   -1.4523   -2.0100 H   0  0  0  0  0  0  0  0  0  0  0  0
    0.8575   -0.5035   -1.1286 H   0  0  0  0  0  0  0  0  0  0  0  0
    1.9766   -0.7839    1.7267 H   0  0  0  0  0  0  0  0  0  0  0  0
    1.3704   -2.4066    2.0145 H   0  0  0  0  0  0  0  0  0  0  0  0
    0.3046    0.8712    2.0423 H   0  0  0  0  0  0  0  0  0  0  0  0
   -2.0365    1.6057    1.9771 H   0  0  0  0  0  0  0  0  0  0  0  0
   -5.8338    1.5975    4.4415 H   0  0  0  0  0  0  0  0  0  0  0  0
   -8.1930    2.3397    4.6089 H   0  0  0  0  0  0  0  0  0  0  0  0
   -9.6583    2.2397    2.6005 H   0  0  0  0  0  0  0  0  0  0  0  0
   -8.7430    1.4011    0.4556 H   0  0  0  0  0  0  0  0  0  0  0  0
   -6.2465   -1.5954   -1.6480 H   0  0  0  0  0  0  0  0  0  0  0  0
   -5.5502   -2.3179   -3.9034 H   0  0  0  0  0  0  0  0  0  0  0  0
   -3.5028   -1.3731   -4.9419 H   0  0  0  0  0  0  0  0  0  0  0  0
   -2.1606    0.3128   -3.7119 H   0  0  0  0  0  0  0  0  0  0  0  0
   -2.8430    1.0534   -1.4715 H   0  0  0  0  0  0  0  0  0  0  0  0
   -3.2042   -2.2510    0.4419 H   0  0  0  0  0  0  0  0  0  0  0  0
   -0.8644   -2.9809    0.5030 H   0  0  0  0  0  0  0  0  0  0  0  0
    3.4640   -2.7560    1.1830 H   0  0  0  0  0  0  0  0  0  0  0  0
    3.0610   -3.7045   -0.2293 H   0  0  0  0  0  0  0  0  0  0  0  0
    4.2264   -2.2584   -1.7053 H   0  0  0  0  0  0  0  0  0  0  0  0
    5.2663   -2.4120   -0.3007 H   0  0  0  0  0  0  0  0  0  0  0  0
  1  2  1  0
  2  3  2  0
  3  4  1  0
  4  5  2  0
  5  6  1  0
  6  7  2  0
  7  8  1  0
  8  9  2  0
  9 10  1  0
 10 11  1  0
 11 12  1  0
 12 13  1  0
 13 14  1  0
 14 15  1  0
 15 16  1  0
 16 17  2  0
 17 18  1  0
 18 19  2  0
 19 20  1  0
 20 21  2  0
 21 22  1  0
 22 23  2  0
 23 24  1  0
 24 25  2  0
 25 26  1  0
 26 27  2  0
 27 28  1  0
 28 29  2  0
 29 30  1  0
 30 31  2  0
 31 32  1  0
 32 33  2  0
 33 34  1  0
 34 35  2  0
 19 36  1  0
 36 37  2  0
 14 38  1  0
 38 39  1  0
 10  2  1  0
 39 11  1  0
  9  4  1  0
 37 16  1  0
 29 20  1  0
 35 30  1  0
 27 22  1  0
  1 40  1  0
  5 41  1  0
  6 42  1  0
  7 43  1  0
  8 44  1  0
 11 45  1  0
 12 46  1  0
 12 47  1  0
 13 48  1  0
 13 49  1  0
 15 50  1  0
 15 51  1  0
 17 52  1  0
 18 53  1  0
 23 54  1  0
 24 55  1  0
 25 56  1  0
 26 57  1  0
 31 58  1  0
 32 59  1  0
 33 60  1  0
 34 61  1  0
 35 62  1  0
 36 63  1  0
 37 64  1  0
 38 65  1  0
 38 66  1  0
 39 67  1  0
 39 68  1  0
M  END
$$$$
