
     RDKit          3D

 80 84  0  0  0  0  0  0  0  0999 V2000
    9.2899    3.6478    2.5039 C   0  0  0  0  0  0  0  0  0  0  0  0
    8.4568    2.5056    2.3368 O   0  0  0  0  0  0  0  0  0  0  0  0
    9.0497    1.3559    1.8877 C   0  0  0  0  0  0  0  0  0  0  0  0
   10.3941    1.2219    1.5442 C   0  0  0  0  0  0  0  0  0  0  0  0
   10.8742   -0.0122    1.1093 C   0  0  0  0  0  0  0  0  0  0  0  0
   12.1735   -0.1178    0.7981 F   0  0  0  0  0  0  0  0  0  0  0  0
   10.0316   -1.1173    0.9969 C   0  0  0  0  0  0  0  0  0  0  0  0
   10.5835   -2.3027    0.5843 O   0  0  0  0  0  0  0  0  0  0  0  0
    8.6710   -0.9857    1.3013 C   0  0  0  0  0  0  0  0  0  0  0  0
    7.7789   -2.1565    1.1541 C   0  0  0  0  0  0  0  0  0  0  0  0
    8.2760   -3.2737    1.3059 O   0  0  0  0  0  0  0  0  0  0  0  0
    6.3473   -2.0554    0.7784 C   0  0  0  0  0  0  0  0  0  0  0  0
    5.8850   -1.0850   -0.1203 C   0  0  0  0  0  0  0  0  0  0  0  0
    4.5337   -1.0506   -0.4800 C   0  0  0  0  0  0  0  0  0  0  0  0
    3.6440   -1.9975    0.0443 C   0  0  0  0  0  0  0  0  0  0  0  0
    2.2093   -2.0128   -0.3477 C   0  0  0  0  0  0  0  0  0  0  0  0
    1.6085   -3.0760   -0.4203 O   0  0  0  0  0  0  0  0  0  0  0  0
    1.6385   -0.7759   -0.5891 N   0  0  0  0  0  0  0  0  0  0  0  0
    0.1957   -0.6475   -0.8430 C   0  0  2  0  0  0  0  0  0  0  0  0
   -0.2142   -1.2717   -2.1911 C   0  0  0  0  0  0  0  0  0  0  0  0
    0.2237   -0.4223   -3.3847 C   0  0  0  0  0  0  0  0  0  0  0  0
   -0.2873    0.9558   -3.2787 N   0  0  0  0  0  0  0  0  0  0  0  0
    0.1135    1.7317   -4.4553 C   0  0  0  0  0  0  0  0  0  0  0  0
    0.2273    1.5914   -2.0490 C   0  0  0  0  0  0  0  0  0  0  0  0
   -0.2632    0.8363   -0.7962 C   0  0  0  0  0  0  0  0  0  0  0  0
   -1.7265    0.9343   -0.7170 N   0  0  0  0  0  0  0  0  0  0  0  0
   -2.3972    0.7757    0.4751 C   0  0  0  0  0  0  0  0  0  0  0  0
   -1.8090    0.6891    1.5502 O   0  0  0  0  0  0  0  0  0  0  0  0
   -3.8723    0.7101    0.4430 C   0  0  0  0  0  0  0  0  0  0  0  0
   -4.6529    0.7693   -0.6843 C   0  0  0  0  0  0  0  0  0  0  0  0
   -6.0050    0.7005   -0.6710 N   0  0  0  0  0  0  0  0  0  0  0  0
   -6.6237    0.5680    0.5175 C   0  0  0  0  0  0  0  0  0  0  0  0
   -8.0169    0.5393    0.5511 N   0  0  0  0  0  0  0  0  0  0  0  0
   -8.6331    0.0510   -0.6925 C   0  0  0  0  0  0  0  0  0  0  0  0
  -10.1736    0.1588   -0.6207 C   0  0  0  0  0  0  0  0  0  0  0  0
  -10.7412   -0.5174    0.5662 N   0  0  0  0  0  0  0  0  0  0  0  0
  -12.1926   -0.3524    0.6055 C   0  0  0  0  0  0  0  0  0  0  0  0
  -10.1190    0.0519    1.7822 C   0  0  0  0  0  0  0  0  0  0  0  0
   -8.5762   -0.0569    1.7745 C   0  0  0  0  0  0  0  0  0  0  0  0
   -5.9358    0.5070    1.6715 N   0  0  0  0  0  0  0  0  0  0  0  0
   -4.5839    0.5756    1.6119 C   0  0  0  0  0  0  0  0  0  0  0  0
    4.1133   -2.9897    0.9118 C   0  0  0  0  0  0  0  0  0  0  0  0
    5.4611   -3.0177    1.2788 C   0  0  0  0  0  0  0  0  0  0  0  0
    8.2005    0.2441    1.7718 C   0  0  0  0  0  0  0  0  0  0  0  0
    6.9176    0.3757    2.1451 F   0  0  0  0  0  0  0  0  0  0  0  0
    9.7064    3.9736    1.5452 H   0  0  0  0  0  0  0  0  0  0  0  0
    8.6676    4.4607    2.8902 H   0  0  0  0  0  0  0  0  0  0  0  0
   10.0808    3.4557    3.2370 H   0  0  0  0  0  0  0  0  0  0  0  0
   11.1010    2.0407    1.6083 H   0  0  0  0  0  0  0  0  0  0  0  0
    9.9357   -3.0234    0.7565 H   0  0  0  0  0  0  0  0  0  0  0  0
    6.5624   -0.3609   -0.5662 H   0  0  0  0  0  0  0  0  0  0  0  0
    4.1966   -0.3062   -1.1974 H   0  0  0  0  0  0  0  0  0  0  0  0
    2.0987    0.0076   -0.1418 H   0  0  0  0  0  0  0  0  0  0  0  0
   -0.3007   -1.2094   -0.0414 H   0  0  0  0  0  0  0  0  0  0  0  0
   -1.3065   -1.3810   -2.2164 H   0  0  0  0  0  0  0  0  0  0  0  0
    0.1911   -2.2815   -2.3069 H   0  0  0  0  0  0  0  0  0  0  0  0
   -0.1708   -0.8895   -4.2957 H   0  0  0  0  0  0  0  0  0  0  0  0
    1.3187   -0.4304   -3.4649 H   0  0  0  0  0  0  0  0  0  0  0  0
    1.2029    1.7919   -4.5611 H   0  0  0  0  0  0  0  0  0  0  0  0
   -0.2982    1.2851   -5.3674 H   0  0  0  0  0  0  0  0  0  0  0  0
   -0.2846    2.7511   -4.3981 H   0  0  0  0  0  0  0  0  0  0  0  0
   -0.1379    2.6254   -1.9952 H   0  0  0  0  0  0  0  0  0  0  0  0
    1.3242    1.6354   -2.0582 H   0  0  0  0  0  0  0  0  0  0  0  0
    0.1521    1.3202    0.0966 H   0  0  0  0  0  0  0  0  0  0  0  0
   -2.1915    0.8918   -1.6153 H   0  0  0  0  0  0  0  0  0  0  0  0
   -4.2416    0.8778   -1.6812 H   0  0  0  0  0  0  0  0  0  0  0  0
   -8.3058    0.6427   -1.5566 H   0  0  0  0  0  0  0  0  0  0  0  0
   -8.3504   -0.9962   -0.8670 H   0  0  0  0  0  0  0  0  0  0  0  0
  -10.4529    1.2218   -0.6213 H   0  0  0  0  0  0  0  0  0  0  0  0
  -10.5905   -0.2897   -1.5306 H   0  0  0  0  0  0  0  0  0  0  0  0
  -12.6144   -0.8722    1.4722 H   0  0  0  0  0  0  0  0  0  0  0  0
  -12.4904    0.7016    0.6590 H   0  0  0  0  0  0  0  0  0  0  0  0
  -12.6525   -0.7964   -0.2844 H   0  0  0  0  0  0  0  0  0  0  0  0
  -10.3976    1.1094    1.8898 H   0  0  0  0  0  0  0  0  0  0  0  0
  -10.4948   -0.4757    2.6673 H   0  0  0  0  0  0  0  0  0  0  0  0
   -8.2087    0.4615    2.6690 H   0  0  0  0  0  0  0  0  0  0  0  0
   -8.2871   -1.1142    1.8476 H   0  0  0  0  0  0  0  0  0  0  0  0
   -4.0855    0.5188    2.5770 H   0  0  0  0  0  0  0  0  0  0  0  0
    3.4320   -3.7471    1.2974 H   0  0  0  0  0  0  0  0  0  0  0  0
    5.8171   -3.8009    1.9469 H   0  0  0  0  0  0  0  0  0  0  0  0
  1  2  1  0
  2  3  1  0
  3  4  2  0
  4  5  1  0
  5  6  1  0
  5  7  2  0
  7  8  1  0
  7  9  1  0
  9 10  1  0
 10 11  2  0
 10 12  1  0
 12 13  2  0
 13 14  1  0
 14 15  2  0
 15 16  1  0
 16 17  2  0
 16 18  1  0
 18 19  1  0
 19 20  1  0
 20 21  1  0
 21 22  1  0
 22 23  1  0
 22 24  1  0
 24 25  1  0
 25 26  1  0
 26 27  1  0
 27 28  2  0
 27 29  1  0
 29 30  2  0
 30 31  1  0
 31 32  2  0
 32 33  1  0
 33 34  1  0
 34 35  1  0
 35 36  1  0
 36 37  1  0
 36 38  1  0
 38 39  1  0
 32 40  1  0
 40 41  2  0
 15 42  1  0
 42 43  2  0
  9 44  2  0
 44 45  1  0
 44  3  1  0
 43 12  1  0
 25 19  1  0
 41 29  1  0
 39 33  1  0
  1 46  1  0
  1 47  1  0
  1 48  1  0
  4 49  1  0
  8 50  1  0
 13 51  1  0
 14 52  1  0
 18 53  1  0
 19 54  1  1
 20 55  1  0
 20 56  1  0
 21 57  1  0
 21 58  1  0
 23 59  1  0
 23 60  1  0
 23 61  1  0
 24 62  1  0
 24 63  1  0
 25 64  1  0
 26 65  1  0
 30 66  1  0
 34 67  1  0
 34 68  1  0
 35 69  1  0
 35 70  1  0
 37 71  1  0
 37 72  1  0
 37 73  1  0
 38 74  1  0
 38 75  1  0
 39 76  1  0
 39 77  1  0
 41 78  1  0
 42 79  1  0
 43 80  1  0
M  END
$$$$
