REMARK SMILES O=C(O)C=CC1=C(c2n[nH]c3cc(NCC4CC4)ncc23)C=C(F)C1
REMARK SMILES IDX 6 1 7 2 22 3 23 4 24 5 25 6 5 7 4 8 2 9 1 10 3 11 8 13 9 14
REMARK SMILES IDX 21 15 10 16 20 17 11 18 19 19 12 20 13 21 14 23 15 25 16 26
REMARK SMILES IDX 17 27 18 28
REMARK H PARENT 3 12 10 22 14 24
ROOT
ATOM      1  C   UNL     1       4.164  -1.256   0.807  1.00  0.00    -0.031 C 
ATOM      2  C   UNL     1       3.000  -1.647   0.236  1.00  0.00     0.009 C 
ATOM      3  C   UNL     1       2.829  -3.077   0.471  1.00  0.00     0.045 C 
ATOM      4  C   UNL     1       3.881  -3.542   1.155  1.00  0.00     0.105 C 
ATOM      5  F   UNL     1       4.041  -4.836   1.507  1.00  0.00    -0.211 F 
ATOM      6  C   UNL     1       4.853  -2.443   1.446  1.00  0.00     0.103 C 
ENDROOT
BRANCH   1   7
ATOM      7  C   UNL     1       4.756   0.056   0.829  1.00  0.00     0.012 C 
BRANCH   7   8
ATOM      8  C   UNL     1       4.244   1.160   1.392  1.00  0.00     0.093 C 
BRANCH   8   9
ATOM      9  C   UNL     1       3.011   1.211   2.192  1.00  0.00     0.328 C 
ATOM     10  O   UNL     1       2.388   0.291   2.684  1.00  0.00    -0.247 OA
BRANCH   9  11
ATOM     11  O   UNL     1       2.627   2.492   2.349  1.00  0.00    -0.478 OA
ATOM     12  H   UNL     1       1.798   2.416   2.870  1.00  0.00     0.297 HD
ENDBRANCH   9  11
ENDBRANCH   8   9
ENDBRANCH   7   8
ENDBRANCH   1   7
BRANCH   2  13
ATOM     13  C   UNL     1       2.094  -0.845  -0.533  1.00  0.00     0.102 A 
ATOM     14  N   UNL     1       2.487  -0.068  -1.556  1.00  0.00    -0.174 NA
ATOM     15  C   UNL     1       0.683  -0.761  -0.329  1.00  0.00     0.046 A 
ATOM     16  N   UNL     1       1.350   0.482  -1.999  1.00  0.00    -0.277 N 
ATOM     17  C   UNL     1      -0.256  -1.298   0.554  1.00  0.00     0.126 A 
ATOM     18  C   UNL     1       0.233   0.108  -1.306  1.00  0.00     0.071 A 
ATOM     19  N   UNL     1      -1.580  -1.006   0.417  1.00  0.00    -0.239 NA
ATOM     20  C   UNL     1      -1.113   0.434  -1.454  1.00  0.00     0.075 A 
ATOM     21  C   UNL     1      -1.987  -0.172  -0.555  1.00  0.00     0.128 A 
ATOM     22  H   UNL     1       1.404   1.109  -2.787  1.00  0.00     0.190 HD
BRANCH  21  23
ATOM     23  N   UNL     1      -3.367  -0.001  -0.660  1.00  0.00    -0.370 N 
ATOM     24  H   UNL     1      -3.763  -0.596   0.072  1.00  0.00     0.162 HD
BRANCH  23  25
ATOM     25  C   UNL     1      -3.849   1.365  -0.539  1.00  0.00     0.118 C 
BRANCH  25  26
ATOM     26  C   UNL     1      -5.053   1.505  -1.417  1.00  0.00     0.008 C 
ATOM     27  C   UNL     1      -6.107   2.548  -1.130  1.00  0.00     0.006 C 
ATOM     28  C   UNL     1      -6.423   1.095  -0.919  1.00  0.00     0.006 C 
ENDBRANCH  25  26
ENDBRANCH  23  25
ENDBRANCH  21  23
ENDBRANCH   2  13
TORSDOF 8
