MODEL        10USER    Run = 10USERUSER    Estimated Free Energy of Binding    =  -8.35 kcal/mol  [=(1)+(2)+(3)-(4)]USERUSER    (1) Final Intermolecular Energy     =  -9.25 kcal/molUSER        vdW + Hbond + desolv Energy     =  -9.21 kcal/molUSER        Electrostatic Energy            =  -0.04 kcal/molUSER        Moving Ligand-Fixed Receptor    =  -9.25 kcal/molUSER        Moving Ligand-Moving Receptor   =  +0.00 kcal/molUSER    (2) Final Total Internal Energy     =  -0.22 kcal/molUSER    (3) Torsional Free Energy           =  +0.89 kcal/molUSER    (4) Unbound System's Energy         =  -0.22 kcal/molUSERUSERREMARK SMILES c1ccc(CNc2ncc3ccc4ocnc4c3n2)cc1REMARK SMILES IDX 5 1 4 2 1 3 2 4 21 5 3 6 20 7 6 8 7 10 8 11 19 12 9 13 18 14REMARK SMILES IDX 10 15 17 16 11 17 16 18 13 19 12 20 15 21 14 22REMARK H PARENT 6 9USER                              x       y       z     vdW  Elec       q    TypeUSER                           _______ _______ _______ _____ _____    ______ ____ROOTATOM      1  C   UNL     1      42.539  50.219  12.687 -0.60 -0.05    +0.151 C  ENDROOTBRANCH   1   2ATOM      2  C   UNL     1      43.294  51.356  12.034 -0.49 +0.02    -0.029 A  ATOM      3  C   UNL     1      44.720  53.445  10.819 -0.30 -0.00    +0.000 A  ATOM      4  C   UNL     1      43.616  52.888  10.176 -0.48 -0.00    +0.000 A  ATOM      5  C   UNL     1      45.119  52.960  12.064 -0.31 -0.00    +0.000 A  ATOM      6  C   UNL     1      42.907  51.846  10.778 -0.54 -0.00    +0.005 A  ATOM      7  C   UNL     1      44.412  51.919  12.667 -0.30 -0.00    +0.005 A  ENDBRANCH   1   2BRANCH   1   8ATOM      8  N   UNL     1      42.153  50.617  14.024 -0.37 +0.09    -0.350 N  ATOM      9  H   UNL     1      42.917  50.870  14.637 +0.02 -0.02    +0.164 HD BRANCH   8  10ATOM     10  C   UNL     1      41.383  49.682  14.696 -0.47 -0.05    +0.223 A  ATOM     11  N   UNL     1      41.779  49.398  15.945 -0.89 -0.03    -0.221 NA ATOM     12  N   UNL     1      40.326  49.122  14.099 -0.29 +0.07    -0.211 NA ATOM     13  C   UNL     1      41.044  48.507  16.642 -0.44 -0.01    +0.125 A  ATOM     14  C   UNL     1      39.617  48.232  14.825 -0.46 -0.03    +0.105 A  ATOM     15  C   UNL     1      39.924  47.868  16.141 -0.52 -0.01    +0.021 A  ATOM     16  C   UNL     1      38.495  47.629  14.215 -0.39 -0.05    +0.135 A  ATOM     17  C   UNL     1      39.142  46.931  16.851 -0.44 -0.00    +0.016 A  ATOM     18  N   UNL     1      37.933  47.756  12.958 -0.83 +0.03    -0.214 NA ATOM     19  C   UNL     1      37.754  46.714  14.952 -0.30 -0.07    +0.156 A  ATOM     20  C   UNL     1      38.026  46.330  16.260 -0.35 -0.02    +0.050 A  ATOM     21  C   UNL     1      36.905  46.939  12.995 -0.34 -0.13    +0.309 A  ATOM     22  O   UNL     1      36.730  46.268  14.168 -0.12 +0.23    -0.443 OA ENDBRANCH   8  10ENDBRANCH   1   8TORSDOF 3TERENDMDL