MODEL        7USER    Run = 7USERUSER    Estimated Free Energy of Binding    =  -8.02 kcal/mol  [=(1)+(2)+(3)-(4)]USERUSER    (1) Final Intermolecular Energy     = -12.20 kcal/molUSER        vdW + Hbond + desolv Energy     = -12.40 kcal/molUSER        Electrostatic Energy            =  -0.37 kcal/molUSER        Moving Ligand-Fixed Receptor    = -12.77 kcal/molUSER        Moving Ligand-Moving Receptor   =  +0.58 kcal/molUSER    (2) Final Total Internal Energy     =  -2.38 kcal/molUSER    (3) Torsional Free Energy           =  +4.18 kcal/molUSER    (4) Unbound System's Energy         =  -2.38 kcal/molUSERUSERREMARK SMILES COc1ccc(O)c(C(=O)c2ccc(C(=O)N[C@@H]3CCCNC[C@H]3NC(=O)c3ccncc3)cc2)c1REMARK SMILES IDX 15 1 16 2 17 3 14 5 11 6 12 7 35 8 13 9 34 10 9 11 10 12REMARK SMILES IDX 8 13 3 14 4 15 36 16 5 17 6 18 2 19 1 20 7 21 18 23 19 24REMARK SMILES IDX 24 26 23 27 22 28 21 30 20 31 25 33 26 34 27 36 28 37 29 38REMARK SMILES IDX 33 39 30 40 32 41 31 42REMARK H PARENT 17 4 7 22 22 29 25 35REMARK Flexibility Score:   88.900USER                              x       y       z     vdW  Elec       q    TypeUSER                           _______ _______ _______ _____ _____    ______ ____ROOTATOM      1  C   UNL     1      40.016  46.147  16.071 -0.25 -0.03    +0.251 C  ATOM      2  O   UNL     1      40.551  45.698  15.061 -0.27 +0.00    -0.269 OA ATOM      3  N   UNL     1      38.682  46.509  16.114 -0.16 +0.11    -0.347 N  ATOM      4  H   UNL     1      38.226  46.609  17.012 +0.10 -0.06    +0.164 HD ENDROOTBRANCH   1   5ATOM      5  C   UNL     1      40.810  46.322  17.320 -0.43 -0.00    +0.039 A  ATOM      6  C   UNL     1      42.235  46.800  19.700 -0.44 +0.00    +0.023 A  ATOM      7  C   UNL     1      42.155  47.791  18.717 -0.42 +0.00    +0.013 A  ATOM      8  C   UNL     1      41.606  45.566  19.481 -0.38 +0.00    +0.013 A  ATOM      9  C   UNL     1      41.450  47.549  17.533 -0.42 -0.00    +0.014 A  ATOM     10  C   UNL     1      40.889  45.330  18.304 -0.45 +0.00    +0.014 A  BRANCH   6  11ATOM     11  C   UNL     1      42.915  47.014  21.009 -0.32 +0.05    +0.196 C  ATOM     12  O   UNL     1      44.138  46.914  21.110 -0.52 -0.21    -0.288 OA BRANCH  11  13ATOM     13  C   UNL     1      42.137  47.274  22.234 -0.18 +0.01    +0.068 A  ATOM     14  C   UNL     1      40.182  46.774  23.557 -0.20 +0.01    +0.119 A  ATOM     15  C   UNL     1      40.610  47.715  24.502 -0.25 +0.01    +0.050 A  ATOM     16  C   UNL     1      40.958  46.540  22.425 -0.16 +0.01    +0.062 A  ATOM     17  C   UNL     1      41.799  48.430  24.321 -0.32 +0.01    +0.051 A  ATOM     18  C   UNL     1      42.563  48.207  23.181 -0.29 +0.02    +0.127 A  BRANCH  14  19ATOM     19  O   UNL     1      39.001  46.154  23.861 -0.10 -0.05    -0.497 OA ATOM     20  C   UNL     1      38.451  45.299  22.865 -0.22 +0.03    +0.278 C  ENDBRANCH  14  19BRANCH  18  21ATOM     21  O   UNL     1      43.719  48.909  22.987 -0.54 -0.17    -0.507 OA ATOM     22  H   UNL     1      43.968  48.844  22.045 -0.45 +0.00    +0.293 HD ENDBRANCH  18  21ENDBRANCH  11  13ENDBRANCH   6  11ENDBRANCH   1   5BRANCH   3  23ATOM     23  C   UNL     1      37.818  46.364  14.940 -0.39 -0.04    +0.106 C  BRANCH  23  24ATOM     24  C   UNL     1      38.328  47.296  13.829 -0.53 -0.01    +0.028 CG0ATOM     25  G   UNL     1      37.431  47.398  12.591 +0.00 +0.00    +0.000 G0 ENDBRANCH  23  24BRANCH  23  26ATOM     26  C   UNL     1      36.305  46.471  15.306 -0.36 -0.09    +0.118 C  BRANCH  26  27ATOM     27  C   UNL     1      35.365  45.994  14.155 -0.39 -0.07    +0.108 C  BRANCH  27  28ATOM     28  N   UNL     1      35.024  46.927  13.066 -0.23 +0.24    -0.315 NA ATOM     29  H   UNL     1      34.906  46.382  12.210 -0.20 -0.09    +0.122 HD BRANCH  28  30ATOM     30  C   UNL     1      36.023  47.963  12.843 -0.50 -0.04    +0.081 C  BRANCH  30  31ATOM     31  C   UNL     1      37.430  47.398  12.597 -0.58 -0.00    +0.017 CG0ATOM     32  G   UNL     1      38.327  47.295  13.835 +0.00 +0.00    +0.000 G0 ENDBRANCH  30  31ENDBRANCH  28  30ENDBRANCH  27  28ENDBRANCH  26  27BRANCH  26  33ATOM     33  N   UNL     1      36.037  45.827  16.606 -0.12 +0.22    -0.346 N  ATOM     34  C   UNL     1      36.329  44.500  16.844 -0.22 -0.09    +0.251 C  ATOM     35  H   UNL     1      35.266  46.215  17.135 +0.09 -0.14    +0.164 HD ATOM     36  O   UNL     1      36.969  43.794  16.076 -0.26 +0.08    -0.269 OA BRANCH  34  37ATOM     37  C   UNL     1      35.794  43.920  18.109 -0.29 -0.01    +0.042 A  ATOM     38  C   UNL     1      36.508  44.147  19.287 -0.35 -0.00    +0.034 A  ATOM     39  C   UNL     1      34.614  43.178  18.154 -0.32 -0.01    +0.034 A  ATOM     40  C   UNL     1      36.025  43.599  20.458 -0.34 -0.00    +0.112 A  ATOM     41  C   UNL     1      34.214  42.673  19.380 -0.34 -0.01    +0.112 A  ATOM     42  N   UNL     1      34.896  42.862  20.529 -0.38 -0.02    -0.265 NA ENDBRANCH  34  37ENDBRANCH  26  33ENDBRANCH  23  26ENDBRANCH   3  23TORSDOF 8TERENDMDL