MODEL        8USER    Run = 8USERUSER    Estimated Free Energy of Binding    =  -8.29 kcal/mol  [=(1)+(2)+(3)-(4)]USERUSER    (1) Final Intermolecular Energy     =  -9.78 kcal/molUSER        vdW + Hbond + desolv Energy     =  -9.53 kcal/molUSER        Electrostatic Energy            =  -0.25 kcal/molUSER        Moving Ligand-Fixed Receptor    =  -9.78 kcal/molUSER        Moving Ligand-Moving Receptor   =  +0.00 kcal/molUSER    (2) Final Total Internal Energy     =  -1.33 kcal/molUSER    (3) Torsional Free Energy           =  +1.49 kcal/molUSER    (4) Unbound System's Energy         =  -1.33 kcal/molUSERUSERREMARK SMILES O=Cc1ccccc1Cc1ccc(CN2CCOCC2)[nH]c1=OREMARK SMILES IDX 9 1 8 2 3 3 4 4 5 5 7 6 6 7 2 8 1 9 10 10 11 11 22 12 12 13REMARK SMILES IDX 21 14 13 15 23 16 14 18 15 19 16 20 20 21 17 22 19 23 18 24REMARK H PARENT 21 17USER                              x       y       z     vdW  Elec       q    TypeUSER                           _______ _______ _______ _____ _____    ______ ____ROOTATOM      1  C   UNL     1      31.752  43.307  18.179 -0.31 -0.01    +0.077 C  ENDROOTBRANCH   1   2ATOM      2  C   UNL     1      31.008  42.069  17.711 -0.26 +0.01    -0.033 A  ATOM      3  C   UNL     1      31.135  40.800  18.311 -0.32 -0.00    +0.018 A  ATOM      4  C   UNL     1      30.398  39.710  17.819 -0.36 +0.00    +0.012 A  ATOM      5  C   UNL     1      29.544  39.866  16.728 -0.34 +0.00    +0.001 A  ATOM      6  C   UNL     1      30.146  42.199  16.603 -0.30 -0.00    +0.005 A  ATOM      7  C   UNL     1      29.421  41.110  16.118 -0.38 -0.00    +0.000 A  BRANCH   3   8ATOM      8  C   UNL     1      32.034  40.509  19.460 -0.19 +0.04    +0.260 C  ATOM      9  O   UNL     1      32.004  39.477  20.114 -1.06 -0.10    -0.298 OA ENDBRANCH   3   8ENDBRANCH   1   2BRANCH   1  10ATOM     10  C   UNL     1      32.925  43.740  17.338 -0.30 -0.01    +0.022 A  ATOM     11  C   UNL     1      34.142  43.172  17.270 -0.35 -0.00    +0.011 A  ATOM     12  C   UNL     1      32.676  44.948  16.489 -0.15 -0.14    +0.251 A  ATOM     13  C   UNL     1      35.188  43.709  16.431 -0.36 -0.01    +0.023 A  ATOM     14  N   UNL     1      33.729  45.394  15.728 -0.12 +0.29    -0.325 N  ATOM     15  C   UNL     1      34.975  44.804  15.682 -0.31 -0.02    +0.032 A  ATOM     16  O   UNL     1      31.585  45.510  16.452 -0.78 +0.09    -0.269 OA ATOM     17  H   UNL     1      33.531  46.216  15.173 -0.22 -0.25    +0.170 HD BRANCH  15  18ATOM     18  C   UNL     1      36.012  45.464  14.786 -0.34 -0.08    +0.138 C  BRANCH  18  19ATOM     19  N   UNL     1      35.611  46.751  14.194 -0.23 +0.24    -0.293 NA ATOM     20  C   UNL     1      35.478  46.677  12.718 -0.51 -0.07    +0.113 C  ATOM     21  C   UNL     1      36.581  47.823  14.513 -0.39 -0.09    +0.113 C  ATOM     22  C   UNL     1      36.815  46.620  11.958 -0.60 -0.06    +0.175 C  ATOM     23  C   UNL     1      37.904  47.726  13.734 -0.45 -0.06    +0.175 C  ATOM     24  O   UNL     1      37.673  47.709  12.322 -0.92 +0.01    -0.379 OA ENDBRANCH  18  19ENDBRANCH  15  18ENDBRANCH   1  10TORSDOF 5TERENDMDL