MODEL        8USER    Run = 8USERUSER    Estimated Free Energy of Binding    =  -9.84 kcal/mol  [=(1)+(2)+(3)-(4)]USERUSER    (1) Final Intermolecular Energy     = -11.33 kcal/molUSER        vdW + Hbond + desolv Energy     = -11.13 kcal/molUSER        Electrostatic Energy            =  -0.20 kcal/molUSER        Moving Ligand-Fixed Receptor    = -11.33 kcal/molUSER        Moving Ligand-Moving Receptor   =  +0.00 kcal/molUSER    (2) Final Total Internal Energy     =  -1.05 kcal/molUSER    (3) Torsional Free Energy           =  +1.49 kcal/molUSER    (4) Unbound System's Energy         =  -1.05 kcal/molUSERUSERREMARK SMILES CO[C@H]1CC=C(c2nc(NCc3cccnc3)c3ncn(C)c3n2)N=N1REMARK SMILES IDX 7 1 8 2 9 3 18 4 19 5 20 6 21 7 22 8 23 9 24 10 6 11 3 12REMARK SMILES IDX 4 13 26 14 5 15 25 16 2 17 1 18 10 19 11 21 12 22 13 23REMARK SMILES IDX 17 24 14 25 16 26 15 27REMARK H PARENT 10 20USER                              x       y       z     vdW  Elec       q    TypeUSER                           _______ _______ _______ _____ _____    ______ ____ROOTATOM      1  C   UNL     1      39.431  47.011  16.911 -0.33 -0.05    +0.183 A  ATOM      2  N   UNL     1      38.329  46.561  16.252 -0.25 +0.08    -0.207 NA ATOM      3  C   UNL     1      37.507  45.657  16.847 -0.26 -0.06    +0.158 A  ATOM      4  C   UNL     1      37.849  45.213  18.136 -0.27 -0.03    +0.150 A  ATOM      5  N   UNL     1      37.259  44.306  18.994 -0.21 +0.03    -0.231 NA ATOM      6  C   UNL     1      38.034  44.300  20.060 -0.23 -0.01    +0.201 A  ATOM      7  N   UNL     1      39.095  45.153  19.921 -0.19 +0.01    -0.318 N  ATOM      8  C   UNL     1      40.135  45.392  20.886 -0.30 +0.01    +0.153 C  ATOM      9  C   UNL     1      38.997  45.744  18.695 -0.29 -0.02    +0.165 A  ATOM     10  N   UNL     1      39.830  46.640  18.149 -0.32 +0.03    -0.206 NA ENDROOTBRANCH   1  11ATOM     11  C   UNL     1      40.287  48.017  16.206 -0.52 -0.03    +0.126 C  ATOM     12  C   UNL     1      41.415  50.299  15.177 -0.50 -0.06    +0.260 C  ATOM     13  C   UNL     1      41.115  49.155  14.203 -0.53 -0.02    +0.088 C  ATOM     14  N   UNL     1      41.787  49.753  16.503 -0.97 -0.03    -0.156 NA ATOM     15  C   UNL     1      40.263  48.125  14.863 -0.60 -0.00    +0.012 C  ATOM     16  N   UNL     1      41.146  48.782  16.974 -0.72 +0.01    -0.150 NA BRANCH  12  17ATOM     17  O   UNL     1      42.387  51.142  14.537 -0.43 +0.07    -0.358 OA ATOM     18  C   UNL     1      42.741  50.657  13.249 -0.54 -0.07    +0.198 C  ENDBRANCH  12  17ENDBRANCH   1  11BRANCH   3  19ATOM     19  N   UNL     1      36.357  45.197  16.198 -0.09 +0.17    -0.364 N  ATOM     20  H   UNL     1      36.585  44.378  15.636 +0.11 -0.06    +0.162 HD BRANCH  19  21ATOM     21  C   UNL     1      35.601  46.223  15.503 -0.31 -0.14    +0.152 C  BRANCH  21  22ATOM     22  C   UNL     1      36.192  46.462  14.140 -0.45 +0.01    -0.010 A  ATOM     23  C   UNL     1      36.394  45.416  13.232 -0.45 -0.00    +0.009 A  ATOM     24  C   UNL     1      36.527  47.744  13.717 -0.45 -0.07    +0.116 A  ATOM     25  C   UNL     1      36.924  45.684  11.973 -0.57 -0.01    +0.020 A  ATOM     26  N   UNL     1      37.042  48.035  12.500 -0.94 +0.06    -0.264 NA ATOM     27  C   UNL     1      37.229  46.997  11.658 -0.51 -0.03    +0.111 A  ENDBRANCH  21  22ENDBRANCH  19  21ENDBRANCH   3  19TORSDOF 5TERENDMDL