REMARK SMILES Cc1nc(NCC2CCOCC2)ccc1-c1ccc(C=C2SC(=O)NC2=O)cc1
REMARK SMILES IDX 1 1 2 2 3 3 4 4 13 5 14 6 15 7 16 8 17 9 29 10 18 11 28 12
REMARK SMILES IDX 19 13 20 14 21 15 22 16 26 17 23 18 25 19 27 20 24 21 5 23
REMARK SMILES IDX 6 25 7 26 8 27 12 28 9 29 11 30 10 31
REMARK H PARENT 25 22 5 24
ROOT
ATOM      1  C   UNL     1       0.446  -2.351  -2.222  1.00  0.00     0.067 C 
ATOM      2  C   UNL     1      -0.132  -1.465  -1.155  1.00  0.00     0.048 A 
ATOM      3  N   UNL     1      -1.483  -1.532  -1.007  1.00  0.00    -0.236 NA
ATOM      4  C   UNL     1      -2.066  -0.763  -0.070  1.00  0.00     0.126 A 
ATOM      5  C   UNL     1      -1.335   0.076   0.757  1.00  0.00     0.047 A 
ATOM      6  C   UNL     1       0.047   0.143   0.600  1.00  0.00     0.014 A 
ATOM      7  C   UNL     1       0.683  -0.633  -0.374  1.00  0.00     0.003 A 
ENDROOT
BRANCH   7   8
ATOM      8  C   UNL     1       2.138  -0.558  -0.531  1.00  0.00    -0.017 A 
ATOM      9  C   UNL     1       2.715   0.320  -1.460  1.00  0.00     0.009 A 
ATOM     10  C   UNL     1       2.985  -1.357   0.250  1.00  0.00     0.009 A 
ATOM     11  C   UNL     1       4.103   0.396  -1.607  1.00  0.00     0.009 A 
ATOM     12  C   UNL     1       4.374  -1.284   0.104  1.00  0.00     0.009 A 
ATOM     13  C   UNL     1       4.941  -0.400  -0.819  1.00  0.00    -0.024 A 
BRANCH  13  14
ATOM     14  C   UNL     1       6.393  -0.314  -1.002  1.00  0.00     0.029 C 
BRANCH  14  15
ATOM     15  C   UNL     1       7.277   0.113  -0.091  1.00  0.00     0.083 C 
ATOM     16  S   UNL     1       6.980   0.682   1.510  1.00  0.00    -0.022 SA
ATOM     17  C   UNL     1       8.734   0.175  -0.383  1.00  0.00     0.265 C 
ATOM     18  C   UNL     1       8.679   0.988   1.803  1.00  0.00     0.290 C 
ATOM     19  N   UNL     1       9.401   0.657   0.703  1.00  0.00    -0.282 N 
ATOM     20  O   UNL     1       9.260  -0.153  -1.434  1.00  0.00    -0.268 OA
ATOM     21  O   UNL     1       9.129   1.432   2.845  1.00  0.00    -0.261 OA
ATOM     22  H   UNL     1      10.401   0.771   0.691  1.00  0.00     0.174 HD
ENDBRANCH  14  15
ENDBRANCH  13  14
ENDBRANCH   7   8
BRANCH   4  23
ATOM     23  N   UNL     1      -3.451  -0.898   0.038  1.00  0.00    -0.370 N 
ATOM     24  H   UNL     1      -3.675  -1.583  -0.685  1.00  0.00     0.162 HD
BRANCH  23  25
ATOM     25  C   UNL     1      -4.190   0.348  -0.166  1.00  0.00     0.118 C 
BRANCH  25  26
ATOM     26  C   UNL     1      -5.706   0.070  -0.084  1.00  0.00     0.013 C 
ATOM     27  C   UNL     1      -6.127  -0.453   1.295  1.00  0.00     0.034 C 
ATOM     28  C   UNL     1      -6.513   1.342  -0.407  1.00  0.00     0.034 C 
ATOM     29  C   UNL     1      -5.937   0.602   2.384  1.00  0.00     0.160 C 
ATOM     30  C   UNL     1      -6.962   2.092   0.847  1.00  0.00     0.160 C 
ATOM     31  O   UNL     1      -5.999   1.941   1.884  1.00  0.00    -0.381 OA
ENDBRANCH  25  26
ENDBRANCH  23  25
ENDBRANCH   4  23
TORSDOF 6
