REMARK SMILES O=Cc1ccccc1Cc1ccc(CN2CCOCC2)[nH]c1=O
REMARK SMILES IDX 9 1 8 2 3 3 4 4 5 5 7 6 6 7 2 8 1 9 10 10 11 11 22 12 12 13
REMARK SMILES IDX 21 14 13 15 23 16 14 18 15 19 16 20 20 21 17 22 19 23 18 24
REMARK H PARENT 21 17
ROOT
ATOM      1  C   UNL     1       2.826   1.153  -1.145  1.00  0.00     0.077 C 
ENDROOT
BRANCH   1   2
ATOM      2  C   UNL     1       3.930   0.527  -0.311  1.00  0.00    -0.033 A 
ATOM      3  C   UNL     1       4.329  -0.820  -0.417  1.00  0.00     0.018 A 
ATOM      4  C   UNL     1       5.370  -1.313   0.388  1.00  0.00     0.012 A 
ATOM      5  C   UNL     1       6.010  -0.482   1.307  1.00  0.00     0.001 A 
ATOM      6  C   UNL     1       4.585   1.345   0.632  1.00  0.00     0.005 A 
ATOM      7  C   UNL     1       5.615   0.846   1.431  1.00  0.00     0.000 A 
BRANCH   3   8
ATOM      8  C   UNL     1       3.702  -1.804  -1.339  1.00  0.00     0.260 C 
ATOM      9  O   UNL     1       2.695  -1.588  -1.997  1.00  0.00    -0.298 OA
ENDBRANCH   3   8
ENDBRANCH   1   2
BRANCH   1  10
ATOM     10  C   UNL     1       1.424   1.017  -0.610  1.00  0.00     0.022 A 
ATOM     11  C   UNL     1       1.025   0.356   0.491  1.00  0.00     0.011 A 
ATOM     12  C   UNL     1       0.373   1.710  -1.421  1.00  0.00     0.251 A 
ATOM     13  C   UNL     1      -0.365   0.289   0.878  1.00  0.00     0.023 A 
ATOM     14  N   UNL     1      -0.923   1.587  -0.984  1.00  0.00    -0.325 N 
ATOM     15  C   UNL     1      -1.314   0.893   0.143  1.00  0.00     0.032 A 
ATOM     16  O   UNL     1       0.645   2.372  -2.418  1.00  0.00    -0.269 OA
ATOM     17  H   UNL     1      -1.609   2.059  -1.558  1.00  0.00     0.170 HD
BRANCH  15  18
ATOM     18  C   UNL     1      -2.804   0.863   0.446  1.00  0.00     0.138 C 
BRANCH  18  19
ATOM     19  N   UNL     1      -3.252  -0.238   1.315  1.00  0.00    -0.293 NA
ATOM     20  C   UNL     1      -3.271  -1.543   0.609  1.00  0.00     0.113 C 
ATOM     21  C   UNL     1      -4.608   0.011   1.854  1.00  0.00     0.113 C 
ATOM     22  C   UNL     1      -4.431  -1.713  -0.388  1.00  0.00     0.175 C 
ATOM     23  C   UNL     1      -5.736  -0.167   0.824  1.00  0.00     0.175 C 
ATOM     24  O   UNL     1      -5.699  -1.471   0.235  1.00  0.00    -0.379 OA
ENDBRANCH  18  19
ENDBRANCH  15  18
ENDBRANCH   1  10
TORSDOF 5
