REMARK SMILES Cc1cc(C(F)(F)F)cc(N2CCN(Cc3ccncc3)CC2)n1
REMARK SMILES IDX 1 1 2 2 3 3 4 4 9 5 10 6 24 7 5 8 6 9 7 10 8 11 11 12 12 13
REMARK SMILES IDX 23 14 13 15 22 16 14 17 15 18 16 19 17 20 21 21 18 22 20 23
REMARK SMILES IDX 19 24
REMARK H PARENT
ROOT
ATOM      1  C   UNL     1      -4.896   0.388  -1.838  1.00  0.00     0.067 C 
ATOM      2  C   UNL     1      -4.145   0.172  -0.558  1.00  0.00     0.040 A 
ATOM      3  C   UNL     1      -4.754   0.427   0.660  1.00  0.00     0.036 A 
ATOM      4  C   UNL     1      -4.025   0.206   1.827  1.00  0.00     0.061 A 
ATOM      5  C   UNL     1      -2.713  -0.270   1.715  1.00  0.00     0.060 A 
ATOM      6  C   UNL     1      -2.146  -0.492   0.463  1.00  0.00     0.129 A 
ATOM      7  N   UNL     1      -2.873  -0.281  -0.656  1.00  0.00    -0.236 NA
ENDROOT
BRANCH   4   8
ATOM      8  C   UNL     1      -4.643   0.425   3.179  1.00  0.00     0.416 C 
ATOM      9  F   UNL     1      -3.744   0.832   4.117  1.00  0.00    -0.166 F 
ATOM     10  F   UNL     1      -5.623   1.371   3.171  1.00  0.00    -0.166 F 
ATOM     11  F   UNL     1      -5.218  -0.704   3.676  1.00  0.00    -0.166 F 
ENDBRANCH   4   8
BRANCH   6  12
ATOM     12  N   UNL     1      -0.851  -0.979   0.341  1.00  0.00    -0.354 N 
ATOM     13  C   UNL     1      -0.427  -1.347  -1.018  1.00  0.00     0.133 C 
ATOM     14  C   UNL     1       0.204  -0.447   1.222  1.00  0.00     0.133 C 
ATOM     15  C   UNL     1       1.006  -1.924  -0.991  1.00  0.00     0.106 C 
ATOM     16  C   UNL     1       1.432   0.029   0.411  1.00  0.00     0.106 C 
ATOM     17  N   UNL     1       2.043  -1.016  -0.446  1.00  0.00    -0.296 NA
BRANCH  17  18
ATOM     18  C   UNL     1       2.850  -0.423  -1.523  1.00  0.00     0.120 C 
BRANCH  18  19
ATOM     19  C   UNL     1       4.050   0.346  -1.017  1.00  0.00    -0.031 A 
ATOM     20  C   UNL     1       5.027  -0.286  -0.241  1.00  0.00     0.025 A 
ATOM     21  C   UNL     1       4.217   1.700  -1.320  1.00  0.00     0.025 A 
ATOM     22  C   UNL     1       6.112   0.456   0.198  1.00  0.00     0.111 A 
ATOM     23  C   UNL     1       5.338   2.356  -0.835  1.00  0.00     0.111 A 
ATOM     24  N   UNL     1       6.290   1.764  -0.083  1.00  0.00    -0.265 NA
ENDBRANCH  18  19
ENDBRANCH  17  18
ENDBRANCH   6  12
TORSDOF 4
