MODEL        8USER    Run = 8USERUSER    Estimated Free Energy of Binding    =  -8.74 kcal/mol  [=(1)+(2)+(3)-(4)]USERUSER    (1) Final Intermolecular Energy     = -10.83 kcal/molUSER        vdW + Hbond + desolv Energy     = -10.66 kcal/molUSER        Electrostatic Energy            =  -0.17 kcal/molUSER        Moving Ligand-Fixed Receptor    = -10.83 kcal/molUSER        Moving Ligand-Moving Receptor   =  +0.00 kcal/molUSER    (2) Final Total Internal Energy     =  -1.40 kcal/molUSER    (3) Torsional Free Energy           =  +2.09 kcal/molUSER    (4) Unbound System's Energy         =  -1.40 kcal/molUSERUSERREMARK SMILES CCN1CCC[C@@H](NC(=O)c2ccc(C(=O)c3c(O)ccc(OC)c3F)cc2)C1REMARK SMILES IDX 11 1 12 2 13 3 14 4 27 5 28 6 9 7 8 8 10 10 7 11 3 12 4 13REMARK SMILES IDX 29 14 5 15 6 16 2 17 1 18 15 19 16 20 17 21 18 22 25 23REMARK SMILES IDX 20 24 22 25 21 26 26 27 19 28 23 30 24 31REMARK H PARENT 8 9 19 29USER                              x       y       z     vdW  Elec       q    TypeUSER                           _______ _______ _______ _____ _____    ______ ____ROOTATOM      1  C   UNL     1      38.180  44.614  21.267 -0.34 +0.00    +0.039 A  ATOM      2  C   UNL     1      39.370  45.322  21.481 -0.33 +0.00    +0.014 A  ATOM      3  C   UNL     1      40.146  45.750  20.399 -0.31 +0.00    +0.013 A  ATOM      4  C   UNL     1      39.718  45.491  19.093 -0.42 -0.00    +0.023 A  ATOM      5  C   UNL     1      38.531  44.781  18.875 -0.38 -0.00    +0.013 A  ATOM      6  C   UNL     1      37.756  44.353  19.958 -0.36 -0.00    +0.014 A  ENDROOTBRANCH   1   7ATOM      7  C   UNL     1      37.395  44.182  22.457 -0.26 +0.02    +0.251 C  ATOM      8  N   UNL     1      37.598  44.888  23.624 -0.14 -0.05    -0.348 N  ATOM      9  H   UNL     1      38.229  45.676  23.642 +0.07 +0.02    +0.164 HD ATOM     10  O   UNL     1      36.599  43.254  22.363 -0.29 -0.03    -0.269 OA BRANCH   8  11ATOM     11  C   UNL     1      36.918  44.521  24.861 -0.30 +0.01    +0.096 C  ATOM     12  N   UNL     1      37.153  42.790  26.726 -0.14 +0.04    -0.302 NA ATOM     13  C   UNL     1      36.142  43.639  27.360 -0.46 -0.02    +0.084 C  ATOM     14  C   UNL     1      37.214  43.052  25.268 -0.33 -0.00    +0.109 C  ATOM     15  C   UNL     1      36.571  45.112  27.287 -0.41 -0.00    +0.018 C  ATOM     16  C   UNL     1      37.300  45.475  25.991 -0.37 -0.00    +0.027 C  BRANCH  12  17ATOM     17  C   UNL     1      36.941  41.356  26.970 -0.49 -0.02    +0.081 C  ATOM     18  C   UNL     1      35.502  41.027  27.350 -0.72 -0.01    +0.021 C  ENDBRANCH  12  17ENDBRANCH   8  11ENDBRANCH   1   7BRANCH   4  19ATOM     19  C   UNL     1      40.523  45.893  17.914 -0.40 -0.01    +0.199 C  ATOM     20  O   UNL     1      41.694  45.517  17.842 -0.30 -0.01    -0.288 OA BRANCH  19  21ATOM     21  C   UNL     1      40.009  46.774  16.843 -0.41 -0.02    +0.104 A  ATOM     22  C   UNL     1      40.671  47.975  16.566 -0.44 -0.02    +0.130 A  ATOM     23  C   UNL     1      38.903  46.425  16.068 -0.29 -0.05    +0.179 A  ATOM     24  C   UNL     1      40.198  48.836  15.579 -0.55 -0.02    +0.051 A  ATOM     25  C   UNL     1      38.418  47.278  15.065 -0.34 -0.06    +0.155 A  ATOM     26  C   UNL     1      39.068  48.492  14.832 -0.49 -0.02    +0.053 A  ATOM     27  F   UNL     1      38.294  45.242  16.257 -0.07 +0.05    -0.202 F  BRANCH  22  28ATOM     28  O   UNL     1      41.802  48.374  17.229 -0.57 -0.02    -0.507 OA ATOM     29  H   UNL     1      42.349  47.573  17.399 -0.32 -0.05    +0.293 HD ENDBRANCH  22  28BRANCH  25  30ATOM     30  O   UNL     1      37.319  46.824  14.388 -0.08 +0.24    -0.494 OA ATOM     31  C   UNL     1      36.770  47.674  13.388 -0.43 -0.14    +0.278 C  ENDBRANCH  25  30ENDBRANCH  19  21ENDBRANCH   4  19TORSDOF 7TERENDMDL