REMARK SMILES CCN1CCN(C(=O)c2ccc(-c3nc(N=Cc4cncn4C)ccc3C#N)cc2F)CC1
REMARK SMILES IDX 13 1 14 2 15 3 24 4 25 5 26 6 12 7 9 8 10 9 30 10 11 11
REMARK SMILES IDX 29 12 31 13 7 14 3 15 4 16 33 17 5 18 32 19 6 20 8 21 2 22
REMARK SMILES IDX 1 23 27 24 28 25 16 26 17 27 18 28 19 29 22 30 20 31 21 32
REMARK SMILES IDX 23 33
REMARK H PARENT
ROOT
ATOM      1  C   UNL     1       2.084  -2.526  -0.105  1.00  0.00     0.091 A 
ATOM      2  N   UNL     1       2.765  -1.506  -0.700  1.00  0.00    -0.227 NA
ATOM      3  C   UNL     1       3.891  -1.792  -1.381  1.00  0.00     0.152 A 
ATOM      4  C   UNL     1       4.404  -3.072  -1.486  1.00  0.00     0.050 A 
ATOM      5  C   UNL     1       3.736  -4.110  -0.844  1.00  0.00     0.025 A 
ATOM      6  C   UNL     1       2.557  -3.841  -0.138  1.00  0.00     0.078 A 
ENDROOT
BRANCH   1   7
ATOM      7  C   UNL     1       0.827  -2.085   0.536  1.00  0.00     0.005 A 
ATOM      8  C   UNL     1      -1.559  -1.131   1.686  1.00  0.00     0.075 A 
ATOM      9  C   UNL     1      -1.587  -2.274   0.885  1.00  0.00     0.017 A 
ATOM     10  C   UNL     1      -0.363  -0.474   1.929  1.00  0.00     0.136 A 
ATOM     11  C   UNL     1      -0.402  -2.738   0.307  1.00  0.00     0.011 A 
ATOM     12  C   UNL     1       0.818  -0.943   1.360  1.00  0.00     0.050 A 
ATOM     13  F   UNL     1      -0.325   0.635   2.679  1.00  0.00    -0.206 F 
BRANCH   8  14
ATOM     14  C   UNL     1      -2.807  -0.637   2.280  1.00  0.00     0.256 C 
ATOM     15  N   UNL     1      -5.715   1.226  -0.340  1.00  0.00    -0.300 NA
ATOM     16  C   UNL     1      -4.307   1.647  -0.375  1.00  0.00     0.106 C 
ATOM     17  C   UNL     1      -6.062   0.439   0.858  1.00  0.00     0.106 C 
ATOM     18  C   UNL     1      -3.353   0.535   0.107  1.00  0.00     0.135 C 
ATOM     19  C   UNL     1      -4.995   0.435   1.972  1.00  0.00     0.135 C 
ATOM     20  N   UNL     1      -3.675   0.066   1.460  1.00  0.00    -0.336 N 
ATOM     21  O   UNL     1      -3.039  -0.923   3.450  1.00  0.00    -0.269 OA
BRANCH  15  22
ATOM     22  C   UNL     1      -6.663   2.292  -0.661  1.00  0.00     0.081 C 
ATOM     23  C   UNL     1      -6.803   3.400   0.382  1.00  0.00     0.021 C 
ENDBRANCH  15  22
ENDBRANCH   8  14
ENDBRANCH   1   7
BRANCH   6  24
ATOM     24  C   UNL     1       1.894  -4.914   0.539  1.00  0.00     0.101 C 
ATOM     25  N   UNL     1       1.362  -5.802   1.072  1.00  0.00    -0.192 NA
ENDBRANCH   6  24
BRANCH   3  26
ATOM     26  N   UNL     1       4.515  -0.709  -1.996  1.00  0.00    -0.235 NA
BRANCH  26  27
ATOM     27  C   UNL     1       5.221   0.027  -1.211  1.00  0.00     0.141 C 
BRANCH  27  28
ATOM     28  C   UNL     1       5.878   1.204  -1.704  1.00  0.00     0.079 A 
ATOM     29  C   UNL     1       5.639   1.915  -2.866  1.00  0.00     0.140 A 
ATOM     30  N   UNL     1       6.908   1.894  -1.102  1.00  0.00    -0.333 N 
ATOM     31  N   UNL     1       6.459   3.011  -2.955  1.00  0.00    -0.245 NA
ATOM     32  C   UNL     1       7.216   2.968  -1.888  1.00  0.00     0.199 A 
ATOM     33  C   UNL     1       7.613   1.522   0.099  1.00  0.00     0.151 C 
ENDBRANCH  27  28
ENDBRANCH  26  27
ENDBRANCH   3  26
TORSDOF 7
