MODEL        2USER    Run = 2USERUSER    Estimated Free Energy of Binding    =  -9.61 kcal/mol  [=(1)+(2)+(3)-(4)]USERUSER    (1) Final Intermolecular Energy     = -11.70 kcal/molUSER        vdW + Hbond + desolv Energy     = -11.51 kcal/molUSER        Electrostatic Energy            =  -0.19 kcal/molUSER        Moving Ligand-Fixed Receptor    = -11.70 kcal/molUSER        Moving Ligand-Moving Receptor   =  +0.00 kcal/molUSER    (2) Final Total Internal Energy     =  -1.30 kcal/molUSER    (3) Torsional Free Energy           =  +2.09 kcal/molUSER    (4) Unbound System's Energy         =  -1.30 kcal/molUSERUSERREMARK SMILES Cn1cncc1C=Nc1ccc(C#N)c(-c2ccc(C(=O)N3CCC(O)CC3)c(F)c2)n1REMARK SMILES IDX 9 1 10 2 11 3 12 4 15 5 32 6 8 7 7 8 6 9 2 10 3 11 4 12 5 13REMARK SMILES IDX 1 14 16 15 17 16 31 17 18 18 29 19 19 20 30 21 20 22 22 23REMARK SMILES IDX 23 24 28 25 24 26 27 27 25 28 21 29 26 30 13 32 14 33REMARK H PARENT 26 31USER                              x       y       z     vdW  Elec       q    TypeUSER                           _______ _______ _______ _____ _____    ______ ____ROOTATOM      1  C   UNL     1      39.242  47.947  16.102 -0.36 -0.06    +0.152 A  ATOM      2  C   UNL     1      39.095  48.480  14.831 -0.50 -0.02    +0.050 A  ATOM      3  C   UNL     1      37.973  48.125  14.088 -0.52 -0.01    +0.025 A  ATOM      4  C   UNL     1      37.034  47.243  14.632 -0.39 -0.05    +0.078 A  ATOM      5  C   UNL     1      37.256  46.746  15.920 -0.33 -0.05    +0.091 A  ATOM      6  N   UNL     1      38.358  47.086  16.645 -0.25 +0.10    -0.227 NA ENDROOTBRANCH   1   7ATOM      7  N   UNL     1      40.371  48.210  16.862 -0.35 +0.05    -0.235 NA BRANCH   7   8ATOM      8  C   UNL     1      41.142  47.257  17.286 -0.37 -0.02    +0.141 C  BRANCH   8   9ATOM      9  C   UNL     1      41.637  46.971  18.612 -0.47 -0.00    +0.079 A  ATOM     10  N   UNL     1      40.981  46.198  19.551 -0.21 -0.01    -0.333 N  ATOM     11  C   UNL     1      41.746  46.143  20.679 -0.24 +0.03    +0.199 A  ATOM     12  N   UNL     1      42.844  46.845  20.546 -0.27 -0.07    -0.245 NA ATOM     13  C   UNL     1      42.779  47.373  19.281 -0.43 +0.02    +0.140 A  ATOM     14  C   UNL     1      39.714  45.526  19.384 -0.37 -0.00    +0.151 C  ENDBRANCH   8   9ENDBRANCH   7   8ENDBRANCH   1   7BRANCH   5  15ATOM     15  C   UNL     1      36.356  45.817  16.629 -0.35 -0.00    +0.005 A  ATOM     16  C   UNL     1      36.456  44.419  16.477 -0.33 -0.00    +0.011 A  ATOM     17  C   UNL     1      35.334  46.322  17.453 -0.33 -0.04    +0.050 A  ATOM     18  C   UNL     1      35.579  43.557  17.144 -0.34 -0.01    +0.017 A  ATOM     19  C   UNL     1      34.459  45.463  18.116 -0.33 -0.07    +0.136 A  ATOM     20  C   UNL     1      34.576  44.089  17.958 -0.26 -0.03    +0.075 A  ATOM     21  F   UNL     1      33.488  45.990  18.876 -0.17 +0.11    -0.206 F  BRANCH  20  22ATOM     22  C   UNL     1      33.655  43.192  18.671 -0.24 -0.05    +0.256 C  ATOM     23  N   UNL     1      32.653  42.557  17.942 -0.10 +0.08    -0.338 N  ATOM     24  C   UNL     1      32.303  42.868  16.551 -0.29 -0.05    +0.122 C  ATOM     25  C   UNL     1      31.828  41.572  18.637 -0.31 -0.01    +0.122 C  ATOM     26  C   UNL     1      30.797  42.787  16.323 -0.34 -0.02    +0.053 C  ATOM     27  C   UNL     1      31.127  40.637  17.665 -0.38 -0.01    +0.053 C  ATOM     28  C   UNL     1      30.236  41.413  16.698 -0.32 -0.03    +0.118 C  ATOM     29  O   UNL     1      33.843  43.015  19.871 -0.73 -0.02    -0.269 OA BRANCH  28  30ATOM     30  O   UNL     1      30.063  40.622  15.522 -0.30 +0.12    -0.393 OA ATOM     31  H   UNL     1      30.933  40.528  15.098 -0.48 -0.14    +0.210 HD ENDBRANCH  28  30ENDBRANCH  20  22ENDBRANCH   5  15BRANCH   4  32ATOM     32  C   UNL     1      35.903  46.861  13.845 -0.47 -0.07    +0.101 C  ATOM     33  N   UNL     1      34.985  46.526  13.219 -0.35 +0.14    -0.192 NA ENDBRANCH   4  32TORSDOF 7TERENDMDL