REMARK SMILES CCN1CCC[C@@H](NC(=O)c2ccc(C(=O)c3c(O)ccc(OC)c3F)cc2)C1
REMARK SMILES IDX 11 1 12 2 13 3 14 4 27 5 28 6 9 7 8 8 10 10 7 11 3 12 4 13
REMARK SMILES IDX 29 14 5 15 6 16 2 17 1 18 15 19 16 20 17 21 18 22 25 23
REMARK SMILES IDX 20 24 22 25 21 26 26 27 19 28 23 30 24 31
REMARK H PARENT 8 9 19 29
ROOT
ATOM      1  C   UNL     1       0.110  -0.732   0.017  1.00  0.00     0.039 A 
ATOM      2  C   UNL     1       1.141  -0.930   0.945  1.00  0.00     0.014 A 
ATOM      3  C   UNL     1       2.466  -1.059   0.517  1.00  0.00     0.013 A 
ATOM      4  C   UNL     1       2.768  -0.964  -0.845  1.00  0.00     0.023 A 
ATOM      5  C   UNL     1       1.740  -0.770  -1.776  1.00  0.00     0.013 A 
ATOM      6  C   UNL     1       0.415  -0.642  -1.347  1.00  0.00     0.014 A 
ENDROOT
BRANCH   1   7
ATOM      7  C   UNL     1      -1.282  -0.603   0.530  1.00  0.00     0.251 C 
ATOM      8  N   UNL     1      -2.295  -0.999  -0.317  1.00  0.00    -0.348 N 
ATOM      9  H   UNL     1      -2.081  -1.383  -1.226  1.00  0.00     0.164 HD
ATOM     10  O   UNL     1      -1.481  -0.182   1.665  1.00  0.00    -0.269 OA
BRANCH   8  11
ATOM     11  C   UNL     1      -3.697  -0.871   0.064  1.00  0.00     0.096 C 
ATOM     12  N   UNL     1      -5.615   0.789  -0.244  1.00  0.00    -0.302 NA
ATOM     13  C   UNL     1      -6.391  -0.320   0.314  1.00  0.00     0.084 C 
ATOM     14  C   UNL     1      -4.171   0.608   0.036  1.00  0.00     0.109 C 
ATOM     15  C   UNL     1      -6.053  -1.623  -0.424  1.00  0.00     0.018 C 
ATOM     16  C   UNL     1      -4.583  -1.732  -0.834  1.00  0.00     0.027 C 
BRANCH  12  17
ATOM     17  C   UNL     1      -6.058   2.106   0.235  1.00  0.00     0.081 C 
ATOM     18  C   UNL     1      -7.411   2.518  -0.334  1.00  0.00     0.021 C 
ENDBRANCH  12  17
ENDBRANCH   8  11
ENDBRANCH   1   7
BRANCH   4  19
ATOM     19  C   UNL     1       4.152  -1.130  -1.351  1.00  0.00     0.199 C 
ATOM     20  O   UNL     1       4.330  -1.767  -2.390  1.00  0.00    -0.288 OA
BRANCH  19  21
ATOM     21  C   UNL     1       5.343  -0.618  -0.638  1.00  0.00     0.104 A 
ATOM     22  C   UNL     1       6.556  -1.307  -0.745  1.00  0.00     0.130 A 
ATOM     23  C   UNL     1       5.305   0.560   0.109  1.00  0.00     0.179 A 
ATOM     24  C   UNL     1       7.688  -0.862  -0.067  1.00  0.00     0.051 A 
ATOM     25  C   UNL     1       6.439   1.026   0.792  1.00  0.00     0.155 A 
ATOM     26  C   UNL     1       7.630   0.301   0.706  1.00  0.00     0.053 A 
ATOM     27  F   UNL     1       4.176   1.286   0.166  1.00  0.00    -0.202 F 
BRANCH  22  28
ATOM     28  O   UNL     1       6.708  -2.436  -1.506  1.00  0.00    -0.507 OA
ATOM     29  H   UNL     1       5.919  -2.514  -2.090  1.00  0.00     0.293 HD
ENDBRANCH  22  28
BRANCH  25  30
ATOM     30  O   UNL     1       6.265   2.184   1.499  1.00  0.00    -0.494 OA
ATOM     31  C   UNL     1       7.397   2.709   2.182  1.00  0.00     0.278 C 
ENDBRANCH  25  30
ENDBRANCH  19  21
ENDBRANCH   4  19
TORSDOF 7
