REMARK SMILES COc1ccc(O)c(C(=O)c2ccc(C(=O)N[C@@H]3CCC4(CCC4)NC3)cc2)c1F
REMARK SMILES IDX 11 1 12 2 13 3 14 4 27 5 28 6 9 7 10 8 8 9 3 10 4 11 29 12
REMARK SMILES IDX 5 13 6 14 30 15 2 16 1 17 7 18 15 20 17 21 16 22 18 24 19 25
REMARK SMILES IDX 26 26 20 27 25 28 21 29 22 30 24 31 23 32
REMARK H PARENT 7 19 17 23 25 33
ROOT
ATOM      1  C   UNL     1       2.940   1.792   0.989  1.00  0.00     0.023 A 
ATOM      2  C   UNL     1       2.088   2.296   1.979  1.00  0.00     0.013 A 
ATOM      3  C   UNL     1       0.705   2.129   1.863  1.00  0.00     0.014 A 
ATOM      4  C   UNL     1       0.166   1.462   0.757  1.00  0.00     0.039 A 
ATOM      5  C   UNL     1       1.017   0.994  -0.254  1.00  0.00     0.014 A 
ATOM      6  C   UNL     1       2.401   1.164  -0.141  1.00  0.00     0.013 A 
ENDROOT
BRANCH   1   7
ATOM      7  C   UNL     1       4.398   2.012   1.136  1.00  0.00     0.199 C 
ATOM      8  O   UNL     1       4.794   3.083   1.598  1.00  0.00    -0.288 OA
BRANCH   7   9
ATOM      9  C   UNL     1       5.415   1.026   0.706  1.00  0.00     0.104 A 
ATOM     10  C   UNL     1       6.147  -1.270   0.323  1.00  0.00     0.155 A 
ATOM     11  C   UNL     1       7.379  -0.798  -0.137  1.00  0.00     0.053 A 
ATOM     12  C   UNL     1       5.177  -0.349   0.747  1.00  0.00     0.179 A 
ATOM     13  C   UNL     1       7.640   0.575  -0.152  1.00  0.00     0.051 A 
ATOM     14  C   UNL     1       6.670   1.476   0.279  1.00  0.00     0.130 A 
ATOM     15  F   UNL     1       4.011  -0.819   1.220  1.00  0.00    -0.202 F 
BRANCH  10  16
ATOM     16  O   UNL     1       5.781  -2.587   0.398  1.00  0.00    -0.494 OA
ATOM     17  C   UNL     1       6.762  -3.557   0.051  1.00  0.00     0.278 C 
ENDBRANCH  10  16
BRANCH  14  18
ATOM     18  O   UNL     1       7.020   2.800   0.258  1.00  0.00    -0.507 OA
ATOM     19  H   UNL     1       6.347   3.299   0.776  1.00  0.00     0.293 HD
ENDBRANCH  14  18
ENDBRANCH   7   9
ENDBRANCH   1   7
BRANCH   4  20
ATOM     20  C   UNL     1      -1.311   1.302   0.675  1.00  0.00     0.251 C 
ATOM     21  N   UNL     1      -1.767   0.192  -0.010  1.00  0.00    -0.348 N 
ATOM     22  O   UNL     1      -2.050   2.110   1.224  1.00  0.00    -0.269 OA
ATOM     23  H   UNL     1      -1.108  -0.555  -0.183  1.00  0.00     0.164 HD
BRANCH  21  24
ATOM     24  C   UNL     1      -3.189  -0.139  -0.043  1.00  0.00     0.096 C 
ATOM     25  C   UNL     1      -3.396  -1.521  -0.663  1.00  0.00     0.028 C 
ATOM     26  C   UNL     1      -4.024   0.915  -0.820  1.00  0.00     0.106 C 
ATOM     27  C   UNL     1      -4.869  -1.931  -0.651  1.00  0.00     0.024 C 
ATOM     28  N   UNL     1      -5.242   0.403  -1.477  1.00  0.00    -0.309 NA
ATOM     29  C   UNL     1      -5.802  -0.731  -0.725  1.00  0.00     0.018 C 
ATOM     30  C   UNL     1      -7.227  -1.011  -1.282  1.00  0.00     0.022 C 
ATOM     31  C   UNL     1      -6.502  -0.211   0.568  1.00  0.00     0.022 C 
ATOM     32  C   UNL     1      -7.791  -0.010  -0.254  1.00  0.00     0.004 C 
ATOM     33  H   UNL     1      -5.019   0.172  -2.446  1.00  0.00     0.123 HD
ENDBRANCH  21  24
ENDBRANCH   4  20
TORSDOF 6
