MODEL        6USER    Run = 6USERUSER    Estimated Free Energy of Binding    =  -9.50 kcal/mol  [=(1)+(2)+(3)-(4)]USERUSER    (1) Final Intermolecular Energy     = -11.59 kcal/molUSER        vdW + Hbond + desolv Energy     = -11.44 kcal/molUSER        Electrostatic Energy            =  -0.14 kcal/molUSER        Moving Ligand-Fixed Receptor    = -11.59 kcal/molUSER        Moving Ligand-Moving Receptor   =  +0.00 kcal/molUSER    (2) Final Total Internal Energy     =  -1.52 kcal/molUSER    (3) Torsional Free Energy           =  +2.09 kcal/molUSER    (4) Unbound System's Energy         =  -1.52 kcal/molUSERUSERREMARK SMILES CCN1CCN(C(=O)c2ccc(-c3nc(N=Cc4cncn4C)ccc3C#N)cc2F)CC1REMARK SMILES IDX 13 1 14 2 15 3 24 4 25 5 26 6 12 7 9 8 10 9 30 10 11 11REMARK SMILES IDX 29 12 31 13 7 14 3 15 4 16 33 17 5 18 32 19 6 20 8 21 2 22REMARK SMILES IDX 1 23 27 24 28 25 16 26 17 27 18 28 19 29 22 30 20 31 21 32REMARK SMILES IDX 23 33REMARK H PARENTUSER                              x       y       z     vdW  Elec       q    TypeUSER                           _______ _______ _______ _____ _____    ______ ____ROOTATOM      1  C   UNL     1      37.947  47.104  15.710 -0.36 -0.05    +0.091 A  ATOM      2  N   UNL     1      38.855  46.869  16.700 -0.27 +0.08    -0.227 NA ATOM      3  C   UNL     1      40.060  47.465  16.625 -0.39 -0.03    +0.152 A  ATOM      4  C   UNL     1      40.430  48.289  15.578 -0.53 -0.01    +0.050 A  ATOM      5  C   UNL     1      39.523  48.498  14.544 -0.51 -0.01    +0.025 A  ATOM      6  C   UNL     1      38.259  47.898  14.602 -0.46 -0.04    +0.078 A  ENDROOTBRANCH   1   7ATOM      7  C   UNL     1      36.642  46.456  15.958 -0.38 -0.00    +0.005 A  ATOM      8  C   UNL     1      34.101  45.344  16.443 -0.26 -0.06    +0.075 A  ATOM      9  C   UNL     1      34.715  45.150  15.204 -0.29 -0.01    +0.017 A  ATOM     10  C   UNL     1      34.741  46.067  17.437 -0.30 -0.12    +0.136 A  ATOM     11  C   UNL     1      35.972  45.713  14.964 -0.37 -0.01    +0.011 A  ATOM     12  C   UNL     1      35.997  46.620  17.199 -0.19 -0.04    +0.050 A  ATOM     13  F   UNL     1      34.155  46.278  18.623 -0.20 +0.13    -0.206 F  BRANCH   8  14ATOM     14  C   UNL     1      32.775  44.764  16.688 -0.19 -0.13    +0.256 C  ATOM     15  N   UNL     1      32.565  40.949  18.735 -0.32 +0.01    -0.300 NA ATOM     16  C   UNL     1      33.459  41.124  17.581 -0.29 -0.05    +0.106 C  ATOM     17  C   UNL     1      31.552  42.014  18.859 -0.12 -0.01    +0.106 C  ATOM     18  C   UNL     1      33.875  42.596  17.383 -0.35 -0.05    +0.135 C  ATOM     19  C   UNL     1      31.426  42.944  17.635 -0.25 -0.03    +0.135 C  ATOM     20  N   UNL     1      32.721  43.490  17.230 -0.08 +0.12    -0.336 N  ATOM     21  O   UNL     1      31.792  45.460  16.455 -0.73 +0.11    -0.269 OA BRANCH  15  22ATOM     22  C   UNL     1      32.039  39.592  18.879 -0.35 +0.01    +0.081 C  ATOM     23  C   UNL     1      30.754  39.287  18.112 -0.43 +0.00    +0.021 C  ENDBRANCH  15  22ENDBRANCH   8  14ENDBRANCH   1   7BRANCH   6  24ATOM     24  C   UNL     1      37.345  48.100  13.520 -0.54 -0.04    +0.101 C  ATOM     25  N   UNL     1      36.602  48.241  12.634 -0.94 +0.07    -0.192 NA ENDBRANCH   6  24BRANCH   3  26ATOM     26  N   UNL     1      40.924  47.212  17.688 -0.35 +0.03    -0.235 NA BRANCH  26  27ATOM     27  C   UNL     1      40.934  45.993  18.100 -0.45 -0.00    +0.141 C  BRANCH  27  28ATOM     28  C   UNL     1      40.269  45.626  19.318 -0.38 -0.00    +0.079 A  ATOM     29  C   UNL     1      40.660  45.844  20.626 -0.25 +0.01    +0.140 A  ATOM     30  N   UNL     1      39.064  44.967  19.440 -0.18 +0.02    -0.333 N  ATOM     31  N   UNL     1      39.723  45.374  21.510 -0.19 -0.01    -0.245 NA ATOM     32  C   UNL     1      38.781  44.845  20.771 -0.24 +0.00    +0.199 A  ATOM     33  C   UNL     1      38.266  44.417  18.373 -0.30 -0.02    +0.151 C  ENDBRANCH  27  28ENDBRANCH  26  27ENDBRANCH   3  26TORSDOF 7TERENDMDL