REMARK SMILES Cn1cncc1C=Nc1ccc(C#N)c(-c2ccc(F)c(C(=O)N3CCNCC3)c2)n1
REMARK SMILES IDX 9 1 10 2 11 3 12 4 15 5 31 6 8 7 7 8 6 9 2 10 3 11 4 12 5 13
REMARK SMILES IDX 1 14 16 15 17 16 30 17 18 18 21 19 19 20 20 21 22 22 24 23
REMARK SMILES IDX 25 24 29 25 26 26 28 27 27 28 23 29 13 31 14 32
REMARK H PARENT 27 30
ROOT
ATOM      1  C   UNL     1      -3.820  -1.845   0.357  1.00  0.00     0.152 A 
ATOM      2  C   UNL     1      -4.217  -2.550   1.480  1.00  0.00     0.050 A 
ATOM      3  C   UNL     1      -3.256  -3.259   2.197  1.00  0.00     0.025 A 
ATOM      4  C   UNL     1      -1.925  -3.238   1.773  1.00  0.00     0.078 A 
ATOM      5  C   UNL     1      -1.607  -2.502   0.630  1.00  0.00     0.091 A 
ATOM      6  N   UNL     1      -2.550  -1.839  -0.092  1.00  0.00    -0.227 NA
ENDROOT
BRANCH   1   7
ATOM      7  N   UNL     1      -4.760  -1.169  -0.410  1.00  0.00    -0.235 NA
BRANCH   7   8
ATOM      8  C   UNL     1      -4.623   0.086  -0.715  1.00  0.00     0.141 C 
BRANCH   8   9
ATOM      9  C   UNL     1      -3.643   1.055  -0.287  1.00  0.00     0.079 A 
ATOM     10  N   UNL     1      -3.310   2.206  -0.973  1.00  0.00    -0.333 N 
ATOM     11  C   UNL     1      -2.366   2.881  -0.253  1.00  0.00     0.199 A 
ATOM     12  N   UNL     1      -2.070   2.251   0.857  1.00  0.00    -0.245 NA
ATOM     13  C   UNL     1      -2.854   1.126   0.848  1.00  0.00     0.140 A 
ATOM     14  C   UNL     1      -3.830   2.627  -2.251  1.00  0.00     0.151 C 
ENDBRANCH   8   9
ENDBRANCH   7   8
ENDBRANCH   1   7
BRANCH   5  15
ATOM     15  C   UNL     1      -0.246  -2.329   0.102  1.00  0.00     0.003 A 
ATOM     16  C   UNL     1       0.080  -2.778  -1.192  1.00  0.00     0.013 A 
ATOM     17  C   UNL     1       0.740  -1.654   0.843  1.00  0.00     0.027 A 
ATOM     18  C   UNL     1       1.357  -2.576  -1.726  1.00  0.00     0.041 A 
ATOM     19  C   UNL     1       2.007  -1.429   0.291  1.00  0.00     0.076 A 
ATOM     20  C   UNL     1       2.316  -1.902  -0.980  1.00  0.00     0.136 A 
ATOM     21  F   UNL     1       3.530  -1.704  -1.515  1.00  0.00    -0.206 F 
BRANCH  19  22
ATOM     22  C   UNL     1       3.009  -0.705   1.087  1.00  0.00     0.256 C 
ATOM     23  N   UNL     1       3.422   0.548   0.657  1.00  0.00    -0.336 N 
ATOM     24  C   UNL     1       2.811   1.300  -0.445  1.00  0.00     0.135 C 
ATOM     25  C   UNL     1       4.452   1.250   1.423  1.00  0.00     0.135 C 
ATOM     26  C   UNL     1       3.019   2.819  -0.301  1.00  0.00     0.102 C 
ATOM     27  C   UNL     1       5.241   2.233   0.542  1.00  0.00     0.102 C 
ATOM     28  N   UNL     1       4.422   3.241  -0.160  1.00  0.00    -0.313 NA
ATOM     29  O   UNL     1       3.406  -1.241   2.118  1.00  0.00    -0.269 OA
ATOM     30  H   UNL     1       4.829   3.398  -1.081  1.00  0.00     0.122 HD
ENDBRANCH  19  22
ENDBRANCH   5  15
BRANCH   4  31
ATOM     31  C   UNL     1      -0.944  -3.986   2.498  1.00  0.00     0.101 C 
ATOM     32  N   UNL     1      -0.174  -4.609   3.102  1.00  0.00    -0.192 NA
ENDBRANCH   4  31
TORSDOF 6
