MODEL        4USER    Run = 4USERUSER    Estimated Free Energy of Binding    = -10.76 kcal/mol  [=(1)+(2)+(3)-(4)]USERUSER    (1) Final Intermolecular Energy     = -12.55 kcal/molUSER        vdW + Hbond + desolv Energy     = -12.37 kcal/molUSER        Electrostatic Energy            =  -0.18 kcal/molUSER        Moving Ligand-Fixed Receptor    = -12.55 kcal/molUSER        Moving Ligand-Moving Receptor   =  +0.00 kcal/molUSER    (2) Final Total Internal Energy     =  -1.17 kcal/molUSER    (3) Torsional Free Energy           =  +1.79 kcal/molUSER    (4) Unbound System's Energy         =  -1.17 kcal/molUSERUSERREMARK SMILES Cn1cncc1C=Nc1ccc(C#N)c(-c2ccc(C(=O)N3CCNCC3)c(Br)c2)n1REMARK SMILES IDX 9 1 10 2 11 3 12 4 15 5 31 6 8 7 7 8 6 9 2 10 3 11 4 12 5 13REMARK SMILES IDX 1 14 16 15 17 16 30 17 18 18 28 19 19 20 29 21 20 22 22 23REMARK SMILES IDX 23 24 27 25 24 26 26 27 25 28 21 29 13 31 14 32REMARK H PARENT 25 30USER                              x       y       z     vdW  Elec       q    TypeUSER                           _______ _______ _______ _____ _____    ______ ____ROOTATOM      1  C   UNL     1      33.225  43.548  18.676 -0.26 -0.03    +0.152 A  ATOM      2  C   UNL     1      31.905  43.441  18.270 -0.28 -0.01    +0.050 A  ATOM      3  C   UNL     1      31.519  44.070  17.090 -0.27 -0.01    +0.025 A  ATOM      4  C   UNL     1      32.465  44.783  16.348 -0.27 -0.04    +0.078 A  ATOM      5  C   UNL     1      33.780  44.837  16.824 -0.26 -0.05    +0.091 A  ATOM      6  N   UNL     1      34.164  44.212  17.971 -0.15 +0.08    -0.227 NA ENDROOTBRANCH   1   7ATOM      7  N   UNL     1      33.661  42.906  19.834 -0.71 -0.02    -0.235 NA BRANCH   7   8ATOM      8  C   UNL     1      34.758  42.216  19.803 -0.34 -0.00    +0.141 C  BRANCH   8   9ATOM      9  C   UNL     1      35.851  42.298  20.729 -0.42 +0.00    +0.079 A  ATOM     10  N   UNL     1      36.842  43.248  20.759 -0.19 +0.00    -0.333 N  ATOM     11  C   UNL     1      37.677  42.951  21.800 -0.24 +0.01    +0.199 A  ATOM     12  N   UNL     1      37.296  41.861  22.425 -0.33 -0.02    -0.245 NA ATOM     13  C   UNL     1      36.171  41.443  21.765 -0.45 +0.00    +0.140 A  ATOM     14  C   UNL     1      37.028  44.357  19.856 -0.33 -0.01    +0.151 C  ENDBRANCH   8   9ENDBRANCH   7   8ENDBRANCH   1   7BRANCH   5  15ATOM     15  C   UNL     1      34.880  45.553  16.154 -0.32 -0.00    +0.003 A  ATOM     16  C   UNL     1      35.491  46.652  16.784 -0.27 -0.01    +0.011 A  ATOM     17  C   UNL     1      35.328  45.191  14.869 -0.29 -0.02    +0.027 A  ATOM     18  C   UNL     1      36.525  47.357  16.163 -0.21 -0.02    +0.016 A  ATOM     19  C   UNL     1      36.365  45.892  14.241 -0.40 -0.02    +0.031 A  ATOM     20  C   UNL     1      36.951  46.982  14.885 -0.38 -0.03    +0.054 A  ATOM     21  Br  UNL     1      36.922  45.298  12.527 -0.95 +0.02    -0.050 Br BRANCH  20  22ATOM     22  C   UNL     1      38.051  47.758  14.284 -0.38 -0.11    +0.255 C  ATOM     23  N   UNL     1      39.158  48.046  15.070 -0.24 +0.13    -0.336 N  ATOM     24  C   UNL     1      39.373  47.565  16.439 -0.44 -0.05    +0.135 C  ATOM     25  C   UNL     1      40.226  48.868  14.499 -0.47 -0.04    +0.135 C  ATOM     26  C   UNL     1      40.863  47.558  16.828 -0.49 -0.01    +0.102 C  ATOM     27  C   UNL     1      40.971  49.664  15.583 -0.65 -0.02    +0.102 C  ATOM     28  N   UNL     1      41.555  48.845  16.662 -0.81 -0.02    -0.313 NA ATOM     29  O   UNL     1      37.937  48.084  13.107 -0.81 +0.04    -0.269 OA ATOM     30  H   UNL     1      41.519  49.379  17.529 +0.06 +0.01    +0.122 HD ENDBRANCH  20  22ENDBRANCH   5  15BRANCH   4  31ATOM     31  C   UNL     1      32.067  45.405  15.124 -0.41 -0.07    +0.101 C  ATOM     32  N   UNL     1      31.730  45.920  14.140 -0.39 +0.14    -0.192 NA ENDBRANCH   4  31TORSDOF 6TERENDMDL