REMARK SMILES CCCc1c(C(=O)Nc2nc3ccccc3s2)ccnc1N
REMARK SMILES IDX 4 1 5 2 18 3 19 4 20 5 21 6 3 7 2 8 1 9 6 10 8 11 7 12 9 14
REMARK SMILES IDX 10 15 17 16 11 17 16 18 12 19 15 20 13 21 14 22 22 23
REMARK H PARENT 8 13 22 24 22 25
ROOT
ATOM      1  C   UNL     1      -2.359   0.587   0.807  1.00  0.00     0.007 A 
ATOM      2  C   UNL     1      -1.545  -0.271   1.569  1.00  0.00     0.048 A 
ATOM      3  C   UNL     1      -1.879  -0.611   2.878  1.00  0.00     0.034 A 
ATOM      4  C   UNL     1      -3.017  -0.050   3.409  1.00  0.00     0.114 A 
ATOM      5  N   UNL     1      -3.807   0.806   2.730  1.00  0.00    -0.239 NA
ATOM      6  C   UNL     1      -3.481   1.104   1.458  1.00  0.00     0.127 A 
ENDROOT
BRANCH   1   7
ATOM      7  C   UNL     1      -2.095   0.868  -0.656  1.00  0.00     0.040 C 
BRANCH   7   8
ATOM      8  C   UNL     1      -2.428  -0.302  -1.589  1.00  0.00     0.001 C 
ATOM      9  C   UNL     1      -3.917  -0.613  -1.660  1.00  0.00     0.004 C 
ENDBRANCH   7   8
ENDBRANCH   1   7
BRANCH   2  10
ATOM     10  C   UNL     1      -0.301  -0.875   1.040  1.00  0.00     0.257 C 
ATOM     11  N   UNL     1       0.688   0.044   0.796  1.00  0.00    -0.298 N 
ATOM     12  O   UNL     1      -0.263  -2.091   0.927  1.00  0.00    -0.269 OA
ATOM     13  H   UNL     1       0.534   1.019   1.011  1.00  0.00     0.172 HD
BRANCH  11  14
ATOM     14  C   UNL     1       1.940  -0.202   0.293  1.00  0.00     0.190 A 
ATOM     15  N   UNL     1       2.796   0.777   0.131  1.00  0.00    -0.220 NA
ATOM     16  S   UNL     1       2.466  -1.750  -0.170  1.00  0.00    -0.097 S 
ATOM     17  C   UNL     1       3.977   0.278  -0.395  1.00  0.00     0.084 A 
ATOM     18  C   UNL     1       3.990  -1.098  -0.631  1.00  0.00     0.056 A 
ATOM     19  C   UNL     1       5.130   1.029  -0.702  1.00  0.00     0.030 A 
ATOM     20  C   UNL     1       5.114  -1.751  -1.163  1.00  0.00     0.021 A 
ATOM     21  C   UNL     1       6.255   0.389  -1.232  1.00  0.00     0.002 A 
ATOM     22  C   UNL     1       6.245  -0.984  -1.458  1.00  0.00     0.002 A 
ENDBRANCH  11  14
ENDBRANCH   2  10
BRANCH   6  23
ATOM     23  N   UNL     1      -4.381   1.958   0.827  1.00  0.00    -0.383 N 
ATOM     24  H   UNL     1      -5.089   2.193   1.520  1.00  0.00     0.158 HD
ATOM     25  H   UNL     1      -3.929   2.790   0.469  1.00  0.00     0.158 HD
ENDBRANCH   6  23
TORSDOF 5
