MODEL        10USER    Run = 10USERUSER    Estimated Free Energy of Binding    = -10.19 kcal/mol  [=(1)+(2)+(3)-(4)]USERUSER    (1) Final Intermolecular Energy     = -11.98 kcal/molUSER        vdW + Hbond + desolv Energy     = -11.55 kcal/molUSER        Electrostatic Energy            =  -0.43 kcal/molUSER        Moving Ligand-Fixed Receptor    = -11.98 kcal/molUSER        Moving Ligand-Moving Receptor   =  +0.00 kcal/molUSER    (2) Final Total Internal Energy     =  -1.28 kcal/molUSER    (3) Torsional Free Energy           =  +1.79 kcal/molUSER    (4) Unbound System's Energy         =  -1.28 kcal/molUSERUSERREMARK SMILES COc1ccc(O)c(C(=O)c2ccc(C(=O)N[C@@H]3CCC4(CCC4)NC3)cc2)c1FREMARK SMILES IDX 11 1 12 2 13 3 14 4 27 5 28 6 9 7 10 8 8 9 3 10 4 11 29 12REMARK SMILES IDX 5 13 6 14 30 15 2 16 1 17 7 18 15 20 17 21 16 22 18 24 19 25REMARK SMILES IDX 26 26 20 27 25 28 21 29 22 30 24 31 23 32REMARK H PARENT 7 19 17 23 25 33USER                              x       y       z     vdW  Elec       q    TypeUSER                           _______ _______ _______ _____ _____    ______ ____ROOTATOM      1  C   UNL     1      38.084  28.864  20.490 -0.25 +0.00    +0.023 A  ATOM      2  C   UNL     1      38.070  30.054  21.228 -0.38 +0.00    +0.013 A  ATOM      3  C   UNL     1      36.905  30.451  21.891 -0.41 -0.00    +0.014 A  ATOM      4  C   UNL     1      35.749  29.666  21.818 -0.37 -0.01    +0.039 A  ATOM      5  C   UNL     1      35.753  28.496  21.045 -0.31 -0.01    +0.014 A  ATOM      6  C   UNL     1      36.917  28.099  20.377 -0.26 -0.00    +0.013 A  ENDROOTBRANCH   1   7ATOM      7  C   UNL     1      39.331  28.491  19.781 -0.17 +0.06    +0.199 C  ATOM      8  O   UNL     1      40.276  28.047  20.433 -0.16 -0.22    -0.288 OA BRANCH   7   9ATOM      9  C   UNL     1      39.521  28.673  18.324 -0.20 +0.03    +0.104 A  ATOM     10  C   UNL     1      38.707  28.566  16.026 -0.24 +0.01    +0.155 A  ATOM     11  C   UNL     1      39.935  29.053  15.571 -0.27 +0.00    +0.053 A  ATOM     12  C   UNL     1      38.515  28.375  17.403 -0.16 +0.01    +0.179 A  ATOM     13  C   UNL     1      40.960  29.325  16.481 -0.24 +0.01    +0.051 A  ATOM     14  C   UNL     1      40.757  29.123  17.844 -0.25 +0.08    +0.130 A  ATOM     15  F   UNL     1      37.343  27.872  17.822 -0.06 +0.03    -0.202 F  BRANCH  10  16ATOM     16  O   UNL     1      37.637  28.251  15.233 -0.57 +0.03    -0.494 OA ATOM     17  C   UNL     1      37.611  26.950  14.659 -0.26 -0.09    +0.278 C  ENDBRANCH  10  16BRANCH  14  18ATOM     18  O   UNL     1      41.823  29.387  18.662 -0.61 -0.81    -0.507 OA ATOM     19  H   UNL     1      41.471  29.648  19.544 -0.42 +0.45    +0.293 HD ENDBRANCH  14  18ENDBRANCH   7   9ENDBRANCH   1   7BRANCH   4  20ATOM     20  C   UNL     1      34.533  30.123  22.543 -0.30 -0.03    +0.251 C  ATOM     21  N   UNL     1      33.370  30.190  21.800 -0.24 +0.03    -0.348 N  ATOM     22  O   UNL     1      34.589  30.384  23.738 -0.27 -0.02    -0.269 OA ATOM     23  H   UNL     1      33.349  29.699  20.917 -0.37 +0.00    +0.164 HD BRANCH  21  24ATOM     24  C   UNL     1      32.090  30.498  22.433 -0.57 +0.00    +0.096 C  ATOM     25  C   UNL     1      31.579  29.284  23.209 -0.54 +0.00    +0.028 C  ATOM     26  C   UNL     1      31.017  30.955  21.408 -0.34 -0.01    +0.106 C  ATOM     27  C   UNL     1      30.274  29.591  23.944 -0.50 +0.01    +0.024 C  ATOM     28  N   UNL     1      29.620  30.649  21.770 -0.25 +0.11    -0.309 NA ATOM     29  C   UNL     1      29.448  30.653  23.232 -0.59 +0.00    +0.018 C  ATOM     30  C   UNL     1      27.921  30.640  23.529 -0.55 +0.00    +0.022 C  ATOM     31  C   UNL     1      29.451  32.121  23.758 -0.46 +0.01    +0.022 C  ATOM     32  C   UNL     1      27.933  32.181  23.494 -0.51 +0.00    +0.004 C  ATOM     33  H   UNL     1      29.356  29.763  21.337 -0.46 -0.12    +0.123 HD ENDBRANCH  21  24ENDBRANCH   4  20TORSDOF 6TERENDMDL