REMARK SMILES Cn1cncc1C=Nc1ccc(C#N)c(-c2ccc(C(=O)N3CCNCC3)c(Br)c2)n1
REMARK SMILES IDX 9 1 10 2 11 3 12 4 15 5 31 6 8 7 7 8 6 9 2 10 3 11 4 12 5 13
REMARK SMILES IDX 1 14 16 15 17 16 30 17 18 18 28 19 19 20 29 21 20 22 22 23
REMARK SMILES IDX 23 24 27 25 24 26 26 27 25 28 21 29 13 31 14 32
REMARK H PARENT 25 30
ROOT
ATOM      1  C   UNL     1       4.004  -1.236  -1.234  1.00  0.00     0.152 A 
ATOM      2  C   UNL     1       4.657  -2.397  -0.856  1.00  0.00     0.050 A 
ATOM      3  C   UNL     1       3.905  -3.439  -0.321  1.00  0.00     0.025 A 
ATOM      4  C   UNL     1       2.522  -3.291  -0.185  1.00  0.00     0.078 A 
ATOM      5  C   UNL     1       1.938  -2.088  -0.597  1.00  0.00     0.091 A 
ATOM      6  N   UNL     1       2.669  -1.072  -1.133  1.00  0.00    -0.227 NA
ENDROOT
BRANCH   1   7
ATOM      7  N   UNL     1       4.715  -0.181  -1.804  1.00  0.00    -0.235 NA
BRANCH   7   8
ATOM      8  C   UNL     1       4.971   0.871  -1.090  1.00  0.00     0.141 C 
BRANCH   8   9
ATOM      9  C   UNL     1       4.583   1.099   0.273  1.00  0.00     0.079 A 
ATOM     10  N   UNL     1       3.360   1.529   0.725  1.00  0.00    -0.333 N 
ATOM     11  C   UNL     1       3.422   1.611   2.088  1.00  0.00     0.199 A 
ATOM     12  N   UNL     1       4.612   1.282   2.536  1.00  0.00    -0.245 NA
ATOM     13  C   UNL     1       5.342   0.971   1.419  1.00  0.00     0.140 A 
ATOM     14  C   UNL     1       2.201   1.875  -0.060  1.00  0.00     0.151 C 
ENDBRANCH   8   9
ENDBRANCH   7   8
ENDBRANCH   1   7
BRANCH   5  15
ATOM     15  C   UNL     1       0.498  -1.787  -0.509  1.00  0.00     0.003 A 
ATOM     16  C   UNL     1      -0.215  -1.416  -1.663  1.00  0.00     0.011 A 
ATOM     17  C   UNL     1      -0.195  -1.827   0.716  1.00  0.00     0.027 A 
ATOM     18  C   UNL     1      -1.577  -1.111  -1.603  1.00  0.00     0.016 A 
ATOM     19  C   UNL     1      -1.561  -1.523   0.784  1.00  0.00     0.031 A 
ATOM     20  C   UNL     1      -2.244  -1.153  -0.375  1.00  0.00     0.054 A 
ATOM     21  Br  UNL     1      -2.411  -1.646   2.476  1.00  0.00    -0.050 Br
BRANCH  20  22
ATOM     22  C   UNL     1      -3.682  -0.829  -0.375  1.00  0.00     0.255 C 
ATOM     23  N   UNL     1      -4.070   0.441   0.027  1.00  0.00    -0.336 N 
ATOM     24  C   UNL     1      -3.156   1.536   0.373  1.00  0.00     0.135 C 
ATOM     25  C   UNL     1      -5.500   0.750   0.088  1.00  0.00     0.135 C 
ATOM     26  C   UNL     1      -3.818   2.918   0.224  1.00  0.00     0.102 C 
ATOM     27  C   UNL     1      -5.804   1.822   1.147  1.00  0.00     0.102 C 
ATOM     28  N   UNL     1      -5.072   3.091   0.972  1.00  0.00    -0.313 NA
ATOM     29  O   UNL     1      -4.459  -1.698  -0.759  1.00  0.00    -0.269 OA
ATOM     30  H   UNL     1      -4.881   3.484   1.893  1.00  0.00     0.122 HD
ENDBRANCH  20  22
ENDBRANCH   5  15
BRANCH   4  31
ATOM     31  C   UNL     1       1.752  -4.375   0.341  1.00  0.00     0.101 C 
ATOM     32  N   UNL     1       1.142  -5.258   0.782  1.00  0.00    -0.192 NA
ENDBRANCH   4  31
TORSDOF 6
