MODEL        10USER    Run = 10USERUSER    Estimated Free Energy of Binding    =  -7.19 kcal/mol  [=(1)+(2)+(3)-(4)]USERUSER    (1) Final Intermolecular Energy     = -10.77 kcal/molUSER        vdW + Hbond + desolv Energy     = -11.34 kcal/molUSER        Electrostatic Energy            =  -0.17 kcal/molUSER        Moving Ligand-Fixed Receptor    = -11.51 kcal/molUSER        Moving Ligand-Moving Receptor   =  +0.74 kcal/molUSER    (2) Final Total Internal Energy     =  -1.57 kcal/molUSER    (3) Torsional Free Energy           =  +3.58 kcal/molUSER    (4) Unbound System's Energy         =  -1.57 kcal/molUSERUSERREMARK SMILES COc1ccc(O)c(C(=O)c2ccc(C(=O)N[C@H]3CCNC4(CCC4)CC3)cc2)c1FREMARK SMILES IDX 15 1 16 2 17 3 14 5 11 6 12 7 29 8 13 9 28 10 9 11 10 12REMARK SMILES IDX 8 13 3 14 4 15 30 16 5 17 6 18 31 19 2 20 1 21 7 22 18 24REMARK SMILES IDX 19 25 27 27 26 28 22 29 23 30 25 31 24 32 21 33 20 35REMARK H PARENT 17 4 7 23 21 34REMARK Flexibility Score:   83.900USER                              x       y       z     vdW  Elec       q    TypeUSER                           _______ _______ _______ _____ _____    ______ ____ROOTATOM      1  C   UNL     1      33.577  42.195  18.093 -0.28 -0.06    +0.251 C  ATOM      2  O   UNL     1      33.792  42.050  19.291 -0.39 +0.00    -0.269 OA ATOM      3  N   UNL     1      32.658  41.447  17.386 -0.11 +0.14    -0.349 N  ATOM      4  H   UNL     1      32.526  41.611  16.397 -0.46 -0.13    +0.164 HD ENDROOTBRANCH   1   5ATOM      5  C   UNL     1      34.308  43.245  17.331 -0.32 -0.01    +0.039 A  ATOM      6  C   UNL     1      35.659  45.298  15.978 -0.32 -0.01    +0.023 A  ATOM      7  C   UNL     1      34.834  45.604  17.066 -0.34 -0.01    +0.013 A  ATOM      8  C   UNL     1      35.795  43.968  15.558 -0.35 -0.01    +0.013 A  ATOM      9  C   UNL     1      34.171  44.578  17.746 -0.32 -0.01    +0.014 A  ATOM     10  C   UNL     1      35.132  42.942  16.239 -0.42 -0.01    +0.014 A  BRANCH   6  11ATOM     11  C   UNL     1      36.352  46.354  15.202 -0.30 -0.14    +0.199 C  ATOM     12  O   UNL     1      35.783  46.838  14.222 -0.30 +0.23    -0.288 OA BRANCH  11  13ATOM     13  C   UNL     1      37.672  46.903  15.579 -0.34 -0.05    +0.104 A  ATOM     14  C   UNL     1      39.552  47.092  17.121 -0.34 -0.04    +0.155 A  ATOM     15  C   UNL     1      40.173  47.990  16.251 -0.50 -0.01    +0.053 A  ATOM     16  C   UNL     1      38.305  46.550  16.771 -0.27 -0.07    +0.179 A  ATOM     17  C   UNL     1      39.564  48.324  15.038 -0.51 -0.02    +0.051 A  ATOM     18  C   UNL     1      38.330  47.773  14.700 -0.41 -0.06    +0.130 A  ATOM     19  F   UNL     1      37.737  45.658  17.597 -0.09 +0.06    -0.202 F  BRANCH  14  20ATOM     20  O   UNL     1      40.057  46.674  18.323 -0.18 +0.06    -0.494 OA ATOM     21  C   UNL     1      40.561  45.345  18.393 -0.32 -0.01    +0.278 C  ENDBRANCH  14  20BRANCH  18  22ATOM     22  O   UNL     1      37.818  48.127  13.481 -0.55 +0.16    -0.507 OA ATOM     23  H   UNL     1      37.041  47.551  13.301 +0.24 -0.12    +0.293 HD ENDBRANCH  18  22ENDBRANCH  11  13ENDBRANCH   6  11ENDBRANCH   1   5BRANCH   3  24ATOM     24  C   UNL     1      31.951  40.314  17.984 -0.43 -0.01    +0.083 C  BRANCH  24  25ATOM     25  C   UNL     1      30.487  40.331  17.534 -0.38 -0.00    +0.040 CG0ATOM     26  G   UNL     1      29.508  39.663  18.492 +0.00 +0.00    +0.000 G0 ENDBRANCH  24  25BRANCH  24  27ATOM     27  C   UNL     1      32.721  39.009  17.729 -0.33 -0.01    +0.027 C  BRANCH  27  28ATOM     28  C   UNL     1      32.389  37.875  18.696 -0.55 +0.00    +0.024 C  BRANCH  28  29ATOM     29  C   UNL     1      31.142  38.164  19.527 -0.52 +0.00    +0.018 C  ATOM     30  C   UNL     1      30.879  37.093  20.638 -0.52 +0.00    +0.022 C  ATOM     31  C   UNL     1      31.169  39.212  20.684 -0.42 +0.00    +0.022 C  ATOM     32  C   UNL     1      31.539  38.061  21.641 -0.54 +0.00    +0.004 C  BRANCH  29  33ATOM     33  N   UNL     1      29.884  38.286  18.775 -0.22 -0.09    -0.311 NA ATOM     34  H   UNL     1      29.093  37.828  19.233 +0.06 +0.04    +0.123 HD BRANCH  33  35ATOM     35  C   UNL     1      29.508  39.672  18.492 -0.29 +0.01    +0.083 CG0ATOM     36  G   UNL     1      30.492  40.332  17.533 +0.00 +0.00    +0.000 G0 ENDBRANCH  33  35ENDBRANCH  29  33ENDBRANCH  28  29ENDBRANCH  27  28ENDBRANCH  24  27ENDBRANCH   3  24TORSDOF 6TERENDMDL