MODEL        5USER    Run = 5USERUSER    Estimated Free Energy of Binding    =  -9.62 kcal/mol  [=(1)+(2)+(3)-(4)]USERUSER    (1) Final Intermolecular Energy     = -11.41 kcal/molUSER        vdW + Hbond + desolv Energy     = -11.35 kcal/molUSER        Electrostatic Energy            =  -0.06 kcal/molUSER        Moving Ligand-Fixed Receptor    = -11.41 kcal/molUSER        Moving Ligand-Moving Receptor   =  +0.00 kcal/molUSER    (2) Final Total Internal Energy     =  -1.11 kcal/molUSER    (3) Torsional Free Energy           =  +1.79 kcal/molUSER    (4) Unbound System's Energy         =  -1.11 kcal/molUSERUSERREMARK SMILES Cn1cncc1C=Nc1ccc(C#N)c(-c2ccc(C(=O)N3CCNCC3)c(Cl)c2)n1REMARK SMILES IDX 9 1 10 2 11 3 12 4 15 5 31 6 8 7 7 8 6 9 2 10 3 11 4 12 5 13REMARK SMILES IDX 1 14 16 15 17 16 30 17 18 18 28 19 19 20 29 21 20 22 22 23REMARK SMILES IDX 23 24 27 25 24 26 26 27 25 28 21 29 13 31 14 32REMARK H PARENT 25 30USER                              x       y       z     vdW  Elec       q    TypeUSER                           _______ _______ _______ _____ _____    ______ ____ROOTATOM      1  C   UNL     1      41.014  48.261  16.773 -0.41 -0.02    +0.152 A  ATOM      2  C   UNL     1      41.205  49.036  15.642 -0.55 -0.01    +0.050 A  ATOM      3  C   UNL     1      40.325  48.888  14.575 -0.53 -0.01    +0.025 A  ATOM      4  C   UNL     1      39.275  47.971  14.672 -0.46 -0.03    +0.078 A  ATOM      5  C   UNL     1      39.147  47.229  15.851 -0.40 -0.03    +0.091 A  ATOM      6  N   UNL     1      39.999  47.381  16.902 -0.33 +0.05    -0.227 NA ENDROOTBRANCH   1   7ATOM      7  N   UNL     1      41.851  48.405  17.877 -0.53 -0.00    -0.235 NA BRANCH   7   8ATOM      8  C   UNL     1      42.326  47.347  18.457 -0.45 +0.00    +0.141 C  BRANCH   8   9ATOM      9  C   UNL     1      41.643  46.103  18.667 -0.43 +0.00    +0.079 A  ATOM     10  N   UNL     1      41.186  45.601  19.861 -0.19 -0.03    -0.333 N  ATOM     11  C   UNL     1      40.600  44.393  19.609 -0.24 +0.01    +0.199 A  ATOM     12  N   UNL     1      40.669  44.080  18.335 -0.21 -0.01    -0.245 NA ATOM     13  C   UNL     1      41.323  45.128  17.744 -0.20 +0.00    +0.140 A  ATOM     14  C   UNL     1      41.312  46.189  21.172 -0.25 +0.02    +0.151 C  ENDBRANCH   8   9ENDBRANCH   7   8ENDBRANCH   1   7BRANCH   5  15ATOM     15  C   UNL     1      38.095  46.224  16.095 -0.38 -0.00    +0.003 A  ATOM     16  C   UNL     1      37.379  45.679  15.015 -0.37 -0.00    +0.011 A  ATOM     17  C   UNL     1      37.755  45.808  17.397 -0.35 -0.01    +0.031 A  ATOM     18  C   UNL     1      36.367  44.738  15.221 -0.36 -0.01    +0.016 A  ATOM     19  C   UNL     1      36.741  44.866  17.612 -0.30 -0.02    +0.054 A  ATOM     20  C   UNL     1      36.041  44.344  16.522 -0.30 -0.02    +0.058 A  ATOM     21  Cl  UNL     1      36.409  44.394  19.239 -0.51 +0.01    -0.083 Cl BRANCH  20  22ATOM     22  C   UNL     1      34.975  43.340  16.682 -0.27 -0.10    +0.255 C  ATOM     23  N   UNL     1      33.654  43.762  16.625 -0.10 +0.15    -0.336 N  ATOM     24  C   UNL     1      33.211  45.125  16.312 -0.29 -0.10    +0.135 C  ATOM     25  C   UNL     1      32.596  42.774  16.840 -0.28 -0.06    +0.135 C  ATOM     26  C   UNL     1      31.785  45.155  15.734 -0.37 -0.06    +0.102 C  ATOM     27  C   UNL     1      31.316  43.420  17.397 -0.27 -0.02    +0.102 C  ATOM     28  N   UNL     1      30.761  44.506  16.565 -0.33 +0.08    -0.313 NA ATOM     29  O   UNL     1      35.319  42.170  16.821 -0.38 +0.12    -0.269 OA ATOM     30  H   UNL     1      30.322  45.191  17.181 +0.08 +0.02    +0.122 HD ENDBRANCH  20  22ENDBRANCH   5  15BRANCH   4  31ATOM     31  C   UNL     1      38.356  47.843  13.584 -0.42 -0.03    +0.101 C  ATOM     32  N   UNL     1      37.625  47.735  12.690 -0.98 +0.03    -0.192 NA ENDBRANCH   4  31TORSDOF 6TERENDMDL