MODEL        8USER    Run = 8USERUSER    Estimated Free Energy of Binding    =  -9.85 kcal/mol  [=(1)+(2)+(3)-(4)]USERUSER    (1) Final Intermolecular Energy     = -11.64 kcal/molUSER        vdW + Hbond + desolv Energy     = -11.49 kcal/molUSER        Electrostatic Energy            =  -0.14 kcal/molUSER        Moving Ligand-Fixed Receptor    = -11.64 kcal/molUSER        Moving Ligand-Moving Receptor   =  +0.00 kcal/molUSER    (2) Final Total Internal Energy     =  -1.08 kcal/molUSER    (3) Torsional Free Energy           =  +1.79 kcal/molUSER    (4) Unbound System's Energy         =  -1.08 kcal/molUSERUSERREMARK SMILES Cn1cncc1C=Nc1ccc(C#N)c(-c2ccc(F)c(C(=O)N3CCNCC3)c2)n1REMARK SMILES IDX 9 1 10 2 11 3 12 4 15 5 31 6 8 7 7 8 6 9 2 10 3 11 4 12 5 13REMARK SMILES IDX 1 14 16 15 17 16 30 17 18 18 21 19 19 20 20 21 22 22 24 23REMARK SMILES IDX 25 24 29 25 26 26 28 27 27 28 23 29 13 31 14 32REMARK H PARENT 27 30USER                              x       y       z     vdW  Elec       q    TypeUSER                           _______ _______ _______ _____ _____    ______ ____ROOTATOM      1  C   UNL     1      37.169  45.268  17.677 -0.25 -0.05    +0.152 A  ATOM      2  C   UNL     1      35.938  45.582  17.128 -0.31 -0.03    +0.050 A  ATOM      3  C   UNL     1      34.785  45.164  17.790 -0.35 -0.01    +0.025 A  ATOM      4  C   UNL     1      34.898  44.447  18.984 -0.33 -0.02    +0.078 A  ATOM      5  C   UNL     1      36.177  44.171  19.471 -0.32 -0.01    +0.091 A  ATOM      6  N   UNL     1      37.303  44.547  18.808 -0.21 +0.04    -0.227 NA ENDROOTBRANCH   1   7ATOM      7  N   UNL     1      38.338  45.625  17.018 -0.22 +0.06    -0.235 NA BRANCH   7   8ATOM      8  C   UNL     1      39.192  46.454  17.537 -0.39 -0.03    +0.141 C  BRANCH   8   9ATOM      9  C   UNL     1      39.922  47.546  16.939 -0.41 -0.02    +0.079 A  ATOM     10  N   UNL     1      39.480  48.314  15.881 -0.25 +0.13    -0.333 N  ATOM     11  C   UNL     1      40.426  49.261  15.608 -0.44 -0.06    +0.199 A  ATOM     12  N   UNL     1      41.447  49.165  16.422 -0.98 -0.01    -0.245 NA ATOM     13  C   UNL     1      41.146  48.114  17.250 -0.39 -0.01    +0.140 A  ATOM     14  C   UNL     1      38.249  48.142  15.148 -0.47 -0.08    +0.151 C  ENDBRANCH   8   9ENDBRANCH   7   8ENDBRANCH   1   7BRANCH   5  15ATOM     15  C   UNL     1      36.455  43.489  20.744 -0.43 +0.00    +0.003 A  ATOM     16  C   UNL     1      36.114  42.134  20.917 -0.50 +0.00    +0.013 A  ATOM     17  C   UNL     1      37.126  44.149  21.789 -0.36 +0.00    +0.027 A  ATOM     18  C   UNL     1      36.417  41.460  22.104 -0.53 +0.00    +0.041 A  ATOM     19  C   UNL     1      37.452  43.459  22.963 -0.32 +0.01    +0.076 A  ATOM     20  C   UNL     1      37.085  42.127  23.124 -0.37 +0.01    +0.136 A  ATOM     21  F   UNL     1      37.381  41.460  24.249 -0.05 -0.01    -0.206 F  BRANCH  19  22ATOM     22  C   UNL     1      38.169  44.175  24.029 -0.19 +0.02    +0.256 C  ATOM     23  N   UNL     1      37.497  44.456  25.210 -0.13 -0.01    -0.336 N  ATOM     24  C   UNL     1      36.168  43.943  25.561 -0.25 -0.00    +0.135 C  ATOM     25  C   UNL     1      38.194  45.207  26.254 -0.23 -0.00    +0.135 C  ATOM     26  C   UNL     1      35.950  43.879  27.085 -0.44 -0.02    +0.102 C  ATOM     27  C   UNL     1      37.210  45.977  27.150 -0.33 -0.02    +0.102 C  ATOM     28  N   UNL     1      36.171  45.150  27.795 -0.23 +0.08    -0.313 NA ATOM     29  O   UNL     1      39.346  44.458  23.826 -0.10 -0.01    -0.269 OA ATOM     30  H   UNL     1      35.305  45.686  27.818 -0.40 -0.06    +0.122 HD ENDBRANCH  19  22ENDBRANCH   5  15BRANCH   4  31ATOM     31  C   UNL     1      33.713  43.998  19.649 -0.41 -0.01    +0.101 C  ATOM     32  N   UNL     1      32.772  43.612  20.206 -0.89 -0.02    -0.192 NA ENDBRANCH   4  31TORSDOF 6TERENDMDL