REMARK SMILES Cn1cncc1C=Nc1ccc(C#N)c(-c2ccc(C(=O)N3CCNCC3)c(Cl)c2)n1
REMARK SMILES IDX 9 1 10 2 11 3 12 4 15 5 31 6 8 7 7 8 6 9 2 10 3 11 4 12 5 13
REMARK SMILES IDX 1 14 16 15 17 16 30 17 18 18 28 19 19 20 29 21 20 22 22 23
REMARK SMILES IDX 23 24 27 25 24 26 26 27 25 28 21 29 13 31 14 32
REMARK H PARENT 25 30
ROOT
ATOM      1  C   UNL     1       3.992  -1.260  -1.267  1.00  0.00     0.152 A 
ATOM      2  C   UNL     1       4.650  -2.407  -0.855  1.00  0.00     0.050 A 
ATOM      3  C   UNL     1       3.906  -3.430  -0.277  1.00  0.00     0.025 A 
ATOM      4  C   UNL     1       2.524  -3.279  -0.132  1.00  0.00     0.078 A 
ATOM      5  C   UNL     1       1.935  -2.091  -0.578  1.00  0.00     0.091 A 
ATOM      6  N   UNL     1       2.658  -1.093  -1.156  1.00  0.00    -0.227 NA
ENDROOT
BRANCH   1   7
ATOM      7  N   UNL     1       4.695  -0.227  -1.884  1.00  0.00    -0.235 NA
BRANCH   7   8
ATOM      8  C   UNL     1       4.969   0.846  -1.210  1.00  0.00     0.141 C 
BRANCH   8   9
ATOM      9  C   UNL     1       4.610   1.121   0.152  1.00  0.00     0.079 A 
ATOM     10  N   UNL     1       3.396   1.566   0.614  1.00  0.00    -0.333 N 
ATOM     11  C   UNL     1       3.488   1.696   1.971  1.00  0.00     0.199 A 
ATOM     12  N   UNL     1       4.687   1.383   2.405  1.00  0.00    -0.245 NA
ATOM     13  C   UNL     1       5.394   1.034   1.285  1.00  0.00     0.140 A 
ATOM     14  C   UNL     1       2.221   1.886  -0.159  1.00  0.00     0.151 C 
ENDBRANCH   8   9
ENDBRANCH   7   8
ENDBRANCH   1   7
BRANCH   5  15
ATOM     15  C   UNL     1       0.494  -1.789  -0.487  1.00  0.00     0.003 A 
ATOM     16  C   UNL     1      -0.231  -1.463  -1.647  1.00  0.00     0.011 A 
ATOM     17  C   UNL     1      -0.186  -1.785   0.746  1.00  0.00     0.031 A 
ATOM     18  C   UNL     1      -1.593  -1.158  -1.585  1.00  0.00     0.016 A 
ATOM     19  C   UNL     1      -1.551  -1.479   0.817  1.00  0.00     0.054 A 
ATOM     20  C   UNL     1      -2.247  -1.153  -0.349  1.00  0.00     0.058 A 
ATOM     21  Cl  UNL     1      -2.310  -1.525   2.367  1.00  0.00    -0.083 Cl
BRANCH  20  22
ATOM     22  C   UNL     1      -3.685  -0.837  -0.342  1.00  0.00     0.255 C 
ATOM     23  N   UNL     1      -4.085   0.418   0.095  1.00  0.00    -0.336 N 
ATOM     24  C   UNL     1      -3.184   1.517   0.460  1.00  0.00     0.135 C 
ATOM     25  C   UNL     1      -5.518   0.713   0.155  1.00  0.00     0.135 C 
ATOM     26  C   UNL     1      -3.854   2.894   0.306  1.00  0.00     0.102 C 
ATOM     27  C   UNL     1      -5.837   1.781   1.214  1.00  0.00     0.102 C 
ATOM     28  N   UNL     1      -5.118   3.058   1.038  1.00  0.00    -0.313 NA
ATOM     29  O   UNL     1      -4.454  -1.697  -0.761  1.00  0.00    -0.269 OA
ATOM     30  H   UNL     1      -4.941   3.458   1.960  1.00  0.00     0.122 HD
ENDBRANCH  20  22
ENDBRANCH   5  15
BRANCH   4  31
ATOM     31  C   UNL     1       1.760  -4.346   0.437  1.00  0.00     0.101 C 
ATOM     32  N   UNL     1       1.153  -5.213   0.912  1.00  0.00    -0.192 NA
ENDBRANCH   4  31
TORSDOF 6
