MODEL        10USER    Run = 10USERUSER    Estimated Free Energy of Binding    =  -8.79 kcal/mol  [=(1)+(2)+(3)-(4)]USERUSER    (1) Final Intermolecular Energy     = -10.28 kcal/molUSER        vdW + Hbond + desolv Energy     = -10.16 kcal/molUSER        Electrostatic Energy            =  -0.12 kcal/molUSER        Moving Ligand-Fixed Receptor    = -10.28 kcal/molUSER        Moving Ligand-Moving Receptor   =  +0.00 kcal/molUSER    (2) Final Total Internal Energy     =  -0.61 kcal/molUSER    (3) Torsional Free Energy           =  +1.49 kcal/molUSER    (4) Unbound System's Energy         =  -0.61 kcal/molUSERUSERREMARK SMILES CCCc1c(C(=O)Nc2nc3ccccc3s2)ccnc1NREMARK SMILES IDX 4 1 5 2 18 3 19 4 20 5 21 6 3 7 2 8 1 9 6 10 8 11 7 12 9 14REMARK SMILES IDX 10 15 17 16 11 17 16 18 12 19 15 20 13 21 14 22 22 23REMARK H PARENT 8 13 22 24 22 25USER                              x       y       z     vdW  Elec       q    TypeUSER                           _______ _______ _______ _____ _____    ______ ____ROOTATOM      1  C   UNL     1      37.001  30.131  21.950 -0.38 -0.00    +0.007 A  ATOM      2  C   UNL     1      36.114  29.095  21.608 -0.33 -0.01    +0.048 A  ATOM      3  C   UNL     1      36.438  28.158  20.630 -0.30 -0.01    +0.034 A  ATOM      4  C   UNL     1      37.645  28.304  19.986 -0.18 -0.01    +0.114 A  ATOM      5  N   UNL     1      38.511  29.302  20.254 -0.17 -0.03    -0.239 NA ATOM      6  C   UNL     1      38.190  30.184  21.220 -0.31 +0.01    +0.127 A  ENDROOTBRANCH   1   7ATOM      7  C   UNL     1      36.736  31.081  23.097 -0.37 +0.00    +0.040 C  BRANCH   7   8ATOM      8  C   UNL     1      36.967  30.469  24.484 -0.50 +0.00    +0.001 C  ATOM      9  C   UNL     1      36.174  31.157  25.587 -0.61 +0.00    +0.004 C  ENDBRANCH   7   8ENDBRANCH   1   7BRANCH   2  10ATOM     10  C   UNL     1      34.796  28.919  22.261 -0.33 -0.05    +0.257 C  ATOM     11  N   UNL     1      33.836  29.777  21.787 -0.27 +0.05    -0.298 N  ATOM     12  O   UNL     1      34.687  28.027  23.089 -0.30 +0.05    -0.269 OA ATOM     13  H   UNL     1      34.059  30.418  21.038 -0.49 -0.09    +0.172 HD BRANCH  11  14ATOM     14  C   UNL     1      32.532  29.868  22.200 -0.29 +0.01    +0.190 A  ATOM     15  N   UNL     1      31.671  30.595  21.530 -0.85 +0.01    -0.220 NA ATOM     16  S   UNL     1      31.941  29.085  23.588 -0.61 -0.01    -0.097 S  ATOM     17  C   UNL     1      30.432  30.533  22.148 -0.51 -0.01    +0.084 A  ATOM     18  C   UNL     1      30.379  29.748  23.301 -0.56 +0.00    +0.056 A  ATOM     19  C   UNL     1      29.258  31.183  21.716 -0.44 -0.01    +0.030 A  ATOM     20  C   UNL     1      29.195  29.588  24.038 -0.55 +0.00    +0.021 A  ATOM     21  C   UNL     1      28.073  31.031  22.443 -0.48 -0.00    +0.002 A  ATOM     22  C   UNL     1      28.044  30.242  23.589 -0.53 +0.00    +0.002 A  ENDBRANCH  11  14ENDBRANCH   2  10BRANCH   6  23ATOM     23  N   UNL     1      39.166  31.149  21.454 -0.08 -0.06    -0.383 N  ATOM     24  H   UNL     1      39.818  30.742  22.122 -0.34 +0.03    +0.158 HD ATOM     25  H   UNL     1      39.639  31.426  20.603 -0.38 +0.03    +0.158 HD ENDBRANCH   6  23TORSDOF 5TERENDMDL