REMARK SMILES COc1ccc(O)c(C(=O)c2ccc(C(=O)N[C@H]3CCNC4(CCC4)CC3)cc2)c1F
REMARK SMILES IDX 15 1 16 2 17 3 14 5 11 6 12 7 29 8 13 9 28 10 9 11 10 12
REMARK SMILES IDX 8 13 3 14 4 15 30 16 5 17 6 18 31 19 2 20 1 21 7 22 18 24
REMARK SMILES IDX 19 25 27 27 26 28 22 29 23 30 25 31 24 32 21 33 20 35
REMARK H PARENT 17 4 7 23 21 34
REMARK Flexibility Score:   83.900
ROOT
ATOM      1  C   UNL     1      -0.532  -1.435  -0.121  1.00  0.00     0.251 C 
ATOM      2  O   UNL     1      -0.424  -2.232  -1.046  1.00  0.00    -0.269 OA
ATOM      3  N   UNL     1      -1.724  -1.163   0.517  1.00  0.00    -0.349 N 
ATOM      4  H   UNL     1      -1.751  -0.493   1.274  1.00  0.00     0.164 HD
ENDROOT
BRANCH   1   5
ATOM      5  C   UNL     1       0.673  -0.723   0.388  1.00  0.00     0.039 A 
ATOM      6  C   UNL     1       3.008   0.540   1.294  1.00  0.00     0.023 A 
ATOM      7  C   UNL     1       3.081  -0.736   0.724  1.00  0.00     0.013 A 
ATOM      8  C   UNL     1       1.767   1.176   1.424  1.00  0.00     0.013 A 
ATOM      9  C   UNL     1       1.917  -1.358   0.262  1.00  0.00     0.014 A 
ATOM     10  C   UNL     1       0.603   0.553   0.962  1.00  0.00     0.014 A 
BRANCH   6  11
ATOM     11  C   UNL     1       4.208   1.224   1.832  1.00  0.00     0.199 C 
ATOM     12  O   UNL     1       4.106   1.858   2.884  1.00  0.00    -0.288 OA
BRANCH  11  13
ATOM     13  C   UNL     1       5.543   1.137   1.202  1.00  0.00     0.104 A 
ATOM     14  C   UNL     1       6.974   0.943  -0.763  1.00  0.00     0.155 A 
ATOM     15  C   UNL     1       8.102   0.959   0.060  1.00  0.00     0.053 A 
ATOM     16  C   UNL     1       5.701   1.040  -0.181  1.00  0.00     0.179 A 
ATOM     17  C   UNL     1       7.957   1.090   1.444  1.00  0.00     0.051 A 
ATOM     18  C   UNL     1       6.687   1.193   2.007  1.00  0.00     0.130 A 
ATOM     19  F   UNL     1       4.626   1.064  -0.985  1.00  0.00    -0.202 F 
BRANCH  14  20
ATOM     20  O   UNL     1       6.990   0.840  -2.128  1.00  0.00    -0.494 OA
ATOM     21  C   UNL     1       8.261   0.771  -2.763  1.00  0.00     0.278 C 
ENDBRANCH  14  20
BRANCH  18  22
ATOM     22  O   UNL     1       6.635   1.351   3.366  1.00  0.00    -0.507 OA
ATOM     23  H   UNL     1       5.720   1.628   3.602  1.00  0.00     0.293 HD
ENDBRANCH  18  22
ENDBRANCH  11  13
ENDBRANCH   6  11
ENDBRANCH   1   5
BRANCH   3  24
ATOM     24  C   UNL     1      -3.000  -1.708   0.051  1.00  0.00     0.083 C 
BRANCH  24  25
ATOM     25  C   UNL     1      -3.916  -1.961   1.252  1.00  0.00     0.040 CG0
ATOM     26  G   UNL     1      -5.402  -2.049   0.925  1.00  0.00     0.000 G0
ENDBRANCH  24  25
BRANCH  24  27
ATOM     27  C   UNL     1      -3.579  -0.830  -1.068  1.00  0.00     0.027 C 
BRANCH  27  28
ATOM     28  C   UNL     1      -4.359   0.389  -0.582  1.00  0.00     0.024 C 
BRANCH  28  29
ATOM     29  C   UNL     1      -5.814   0.059  -0.259  1.00  0.00     0.018 C 
ATOM     30  C   UNL     1      -6.720   1.329  -0.124  1.00  0.00     0.022 C 
ATOM     31  C   UNL     1      -6.802  -0.404  -1.376  1.00  0.00     0.022 C 
ATOM     32  C   UNL     1      -7.183   1.077  -1.573  1.00  0.00     0.004 C 
BRANCH  29  33
ATOM     33  N   UNL     1      -6.038  -0.731   0.961  1.00  0.00    -0.311 NA
ATOM     34  H   UNL     1      -7.027  -0.860   1.184  1.00  0.00     0.123 HD
BRANCH  33  35
ATOM     35  C   UNL     1      -5.402  -2.049   0.925  1.00  0.00     0.083 CG0
ATOM     36  G   UNL     1      -3.916  -1.961   1.252  1.00  0.00     0.000 G0
ENDBRANCH  33  35
ENDBRANCH  29  33
ENDBRANCH  28  29
ENDBRANCH  27  28
ENDBRANCH  24  27
ENDBRANCH   3  24
TORSDOF 6
