REMARK SMILES Cn1cncc1C=Nc1ccc(C#N)c(-c2ccc(C(=O)N3CCC(O)CC3)c(F)c2)n1
REMARK SMILES IDX 9 1 10 2 11 3 12 4 15 5 32 6 8 7 7 8 6 9 2 10 3 11 4 12 5 13
REMARK SMILES IDX 1 14 16 15 17 16 31 17 18 18 29 19 19 20 30 21 20 22 22 23
REMARK SMILES IDX 23 24 28 25 24 26 27 27 25 28 21 29 26 30 13 32 14 33
REMARK H PARENT 26 31
ROOT
ATOM      1  C   UNL     1       3.745  -1.647   1.248  1.00  0.00     0.152 A 
ATOM      2  C   UNL     1       4.468  -2.595   0.543  1.00  0.00     0.050 A 
ATOM      3  C   UNL     1       3.783  -3.446  -0.320  1.00  0.00     0.025 A 
ATOM      4  C   UNL     1       2.395  -3.330  -0.447  1.00  0.00     0.078 A 
ATOM      5  C   UNL     1       1.738  -2.350   0.302  1.00  0.00     0.091 A 
ATOM      6  N   UNL     1       2.406  -1.522   1.153  1.00  0.00    -0.227 NA
ENDROOT
BRANCH   1   7
ATOM      7  N   UNL     1       4.363  -0.818   2.172  1.00  0.00    -0.235 NA
BRANCH   7   8
ATOM      8  C   UNL     1       4.783   0.366   1.849  1.00  0.00     0.141 C 
BRANCH   8   9
ATOM      9  C   UNL     1       4.741   1.064   0.586  1.00  0.00     0.079 A 
ATOM     10  N   UNL     1       5.558   2.123   0.240  1.00  0.00    -0.333 N 
ATOM     11  C   UNL     1       5.238   2.523  -1.025  1.00  0.00     0.199 A 
ATOM     12  N   UNL     1       4.254   1.811  -1.516  1.00  0.00    -0.245 NA
ATOM     13  C   UNL     1       3.929   0.920  -0.525  1.00  0.00     0.140 A 
ATOM     14  C   UNL     1       6.602   2.708   1.047  1.00  0.00     0.151 C 
ENDBRANCH   8   9
ENDBRANCH   7   8
ENDBRANCH   1   7
BRANCH   5  15
ATOM     15  C   UNL     1       0.284  -2.102   0.270  1.00  0.00     0.005 A 
ATOM     16  C   UNL     1      -0.403  -1.842  -0.933  1.00  0.00     0.011 A 
ATOM     17  C   UNL     1      -0.451  -2.079   1.470  1.00  0.00     0.050 A 
ATOM     18  C   UNL     1      -1.779  -1.590  -0.938  1.00  0.00     0.017 A 
ATOM     19  C   UNL     1      -1.821  -1.826   1.466  1.00  0.00     0.136 A 
ATOM     20  C   UNL     1      -2.481  -1.577   0.270  1.00  0.00     0.075 A 
ATOM     21  F   UNL     1      -2.476  -1.795   2.635  1.00  0.00    -0.206 F 
BRANCH  20  22
ATOM     22  C   UNL     1      -3.929  -1.323   0.276  1.00  0.00     0.256 C 
ATOM     23  N   UNL     1      -4.377  -0.039  -0.026  1.00  0.00    -0.338 N 
ATOM     24  C   UNL     1      -3.515   1.142  -0.147  1.00  0.00     0.122 C 
ATOM     25  C   UNL     1      -5.818   0.167  -0.142  1.00  0.00     0.122 C 
ATOM     26  C   UNL     1      -4.190   2.386   0.422  1.00  0.00     0.053 C 
ATOM     27  C   UNL     1      -6.146   1.432  -0.919  1.00  0.00     0.053 C 
ATOM     28  C   UNL     1      -5.537   2.663  -0.251  1.00  0.00     0.118 C 
ATOM     29  O   UNL     1      -4.675  -2.270   0.507  1.00  0.00    -0.269 OA
BRANCH  28  30
ATOM     30  O   UNL     1      -5.384   3.677  -1.244  1.00  0.00    -0.393 OA
ATOM     31  H   UNL     1      -5.136   4.500  -0.790  1.00  0.00     0.210 HD
ENDBRANCH  28  30
ENDBRANCH  20  22
ENDBRANCH   5  15
BRANCH   4  32
ATOM     32  C   UNL     1       1.699  -4.232  -1.312  1.00  0.00     0.101 C 
ATOM     33  N   UNL     1       1.156  -4.963  -2.031  1.00  0.00    -0.192 NA
ENDBRANCH   4  32
TORSDOF 7
