REMARK SMILES O=C(C1COC1)N1CCN(Cc2ccc(-c3nc4ccc(F)cc4nc3-c3ccc(CN4CCC(n5c(O)nc6cc(F)ccc65)CC4)cc3)cc2)CC1
REMARK SMILES IDX 27 1 28 2 29 3 30 4 49 5 50 6 26 7 16 8 17 9 18 10 25 11
REMARK SMILES IDX 19 12 24 13 20 14 23 15 21 16 22 17 15 18 12 19 13 20 52 21
REMARK SMILES IDX 14 22 51 23 11 24 10 25 2 26 7 27 8 28 54 29 9 30 53 31 1 32
REMARK SMILES IDX 3 33 4 34 6 35 5 36 31 37 32 38 33 39 48 40 34 41 47 42
REMARK SMILES IDX 35 43 36 44 37 45 46 46 39 47 45 48 40 49 44 50 41 51 42 52
REMARK SMILES IDX 43 53 38 54
REMARK H PARENT 38 55
ROOT
ATOM      1  C   UNL     1      -0.424   0.879   1.909  1.00  0.00     0.002 A 
ATOM      2  C   UNL     1      -1.019   2.050   1.408  1.00  0.00     0.011 A 
ATOM      3  C   UNL     1      -1.992   1.996   0.406  1.00  0.00     0.006 A 
ATOM      4  C   UNL     1      -2.414   0.765  -0.112  1.00  0.00    -0.034 A 
ATOM      5  C   UNL     1      -1.846  -0.409   0.399  1.00  0.00     0.006 A 
ATOM      6  C   UNL     1      -0.868  -0.352   1.398  1.00  0.00     0.011 A 
ENDROOT
BRANCH   1   7
ATOM      7  C   UNL     1       0.628   0.966   2.938  1.00  0.00     0.097 A 
ATOM      8  C   UNL     1       1.895   0.368   2.845  1.00  0.00     0.097 A 
ATOM      9  N   UNL     1       2.794   0.463   3.868  1.00  0.00    -0.244 NA
ATOM     10  C   UNL     1       2.444   1.190   4.940  1.00  0.00     0.090 A 
ATOM     11  N   UNL     1       0.277   1.702   4.031  1.00  0.00    -0.244 NA
ATOM     12  C   UNL     1       3.345   1.339   5.989  1.00  0.00     0.033 A 
ATOM     13  C   UNL     1       1.178   1.818   5.022  1.00  0.00     0.092 A 
ATOM     14  C   UNL     1       3.022   2.097   7.113  1.00  0.00     0.041 A 
ATOM     15  C   UNL     1       0.862   2.567   6.145  1.00  0.00     0.069 A 
ATOM     16  C   UNL     1       1.779   2.706   7.178  1.00  0.00     0.125 A 
ATOM     17  F   UNL     1       1.460   3.442   8.250  1.00  0.00    -0.207 F 
BRANCH   8  18
ATOM     18  C   UNL     1       2.411  -0.360   1.672  1.00  0.00     0.002 A 
ATOM     19  C   UNL     1       3.486  -1.761  -0.557  1.00  0.00    -0.034 A 
ATOM     20  C   UNL     1       3.509  -2.326   0.725  1.00  0.00     0.006 A 
ATOM     21  C   UNL     1       2.904  -0.498  -0.718  1.00  0.00     0.006 A 
ATOM     22  C   UNL     1       2.989  -1.632   1.821  1.00  0.00     0.011 A 
ATOM     23  C   UNL     1       2.384   0.195   0.381  1.00  0.00     0.011 A 
BRANCH  19  24
ATOM     24  C   UNL     1       4.091  -2.502  -1.733  1.00  0.00     0.120 C 
BRANCH  24  25
ATOM     25  N   UNL     1       5.484  -2.180  -2.060  1.00  0.00    -0.296 NA
ATOM     26  C   UNL     1       8.918   0.363  -1.183  1.00  0.00     0.230 C 
ATOM     27  N   UNL     1       7.835  -0.477  -1.434  1.00  0.00    -0.340 N 
ATOM     28  C   UNL     1       6.551   0.113  -1.822  1.00  0.00     0.135 C 
ATOM     29  C   UNL     1       7.853  -1.937  -1.278  1.00  0.00     0.135 C 
ATOM     30  C   UNL     1       5.695  -0.854  -2.660  1.00  0.00     0.106 C 
ATOM     31  C   UNL     1       6.448  -2.505  -1.002  1.00  0.00     0.106 C 
ATOM     32  O   UNL     1       8.788   1.592  -1.251  1.00  0.00    -0.274 OA
BRANCH  26  33
ATOM     33  C   UNL     1      10.257  -0.295  -0.818  1.00  0.00     0.130 C 
ATOM     34  C   UNL     1      11.513   0.589  -0.846  1.00  0.00     0.176 C 
ATOM     35  C   UNL     1      11.000  -1.091  -1.896  1.00  0.00     0.176 C 
ATOM     36  O   UNL     1      12.248  -0.427  -1.577  1.00  0.00    -0.380 OA
ENDBRANCH  26  33
ENDBRANCH  24  25
ENDBRANCH  19  24
ENDBRANCH   8  18
ENDBRANCH   1   7
BRANCH   4  37
ATOM     37  C   UNL     1      -3.437   0.710  -1.228  1.00  0.00     0.120 C 
BRANCH  37  38
ATOM     38  N   UNL     1      -4.609  -0.127  -0.915  1.00  0.00    -0.299 NA
ATOM     39  C   UNL     1      -5.435   0.441   0.162  1.00  0.00     0.087 C 
ATOM     40  C   UNL     1      -5.352  -0.423  -2.149  1.00  0.00     0.087 C 
ATOM     41  C   UNL     1      -6.820   0.900  -0.286  1.00  0.00     0.041 C 
ATOM     42  C   UNL     1      -6.686  -1.107  -1.862  1.00  0.00     0.041 C 
ATOM     43  C   UNL     1      -7.582  -0.256  -0.946  1.00  0.00     0.095 C 
BRANCH  43  44
ATOM     44  N   UNL     1      -8.805   0.208  -1.595  1.00  0.00    -0.291 N 
ATOM     45  C   UNL     1      -8.888   0.966  -2.733  1.00  0.00     0.295 A 
ATOM     46  C   UNL     1     -10.100  -0.024  -1.173  1.00  0.00     0.072 A 
ATOM     47  N   UNL     1     -10.114   1.239  -3.084  1.00  0.00    -0.195 NA
ATOM     48  C   UNL     1     -10.653  -0.720  -0.087  1.00  0.00     0.032 A 
ATOM     49  C   UNL     1     -10.889   0.633  -2.125  1.00  0.00     0.095 A 
ATOM     50  C   UNL     1     -12.050  -0.737   0.010  1.00  0.00     0.041 A 
ATOM     51  C   UNL     1     -12.286   0.606  -2.010  1.00  0.00     0.070 A 
ATOM     52  C   UNL     1     -12.840  -0.086  -0.935  1.00  0.00     0.125 A 
ATOM     53  F   UNL     1     -14.175  -0.128  -0.805  1.00  0.00    -0.207 F 
BRANCH  45  54
ATOM     54  O   UNL     1      -7.858   1.392  -3.433  1.00  0.00    -0.480 OA
ATOM     55  H   UNL     1      -8.308   1.862  -4.160  1.00  0.00     0.296 HD
ENDBRANCH  45  54
ENDBRANCH  43  44
ENDBRANCH  37  38
ENDBRANCH   4  37
TORSDOF 9
