MODEL        1USER    Run = 1USERUSER    Estimated Free Energy of Binding    = -14.26 kcal/mol  [=(1)+(2)+(3)-(4)]USERUSER    (1) Final Intermolecular Energy     = -17.24 kcal/molUSER        vdW + Hbond + desolv Energy     = -17.10 kcal/molUSER        Electrostatic Energy            =  -0.14 kcal/molUSER        Moving Ligand-Fixed Receptor    = -17.24 kcal/molUSER        Moving Ligand-Moving Receptor   =  +0.00 kcal/molUSER    (2) Final Total Internal Energy     =  -2.59 kcal/molUSER    (3) Torsional Free Energy           =  +2.98 kcal/molUSER    (4) Unbound System's Energy         =  -2.59 kcal/molUSERUSERREMARK SMILES O=S(=O)(N1CCN(Cc2ccc(-c3nc4ccccc4nc3-c3ccc(CN4CCC(n5c(O)nc6ccccc65)CC4)cc3)cc2)CC1)C(F)(F)FREMARK SMILES IDX 13 1 14 2 15 3 16 4 17 5 18 6 19 7 20 8 21 9 22 10 12 11REMARK SMILES IDX 9 12 10 13 47 14 11 15 46 16 8 17 7 18 4 19 5 20 49 21 6 22REMARK SMILES IDX 48 23 2 24 1 25 3 26 50 27 51 28 52 29 53 30 23 31 24 32REMARK SMILES IDX 45 33 25 34 44 35 26 36 27 37 28 38 29 39 43 40 30 41 42 42REMARK SMILES IDX 31 43 32 44 33 45 41 46 35 47 40 48 36 49 39 50 37 51 38 52REMARK SMILES IDX 34 53REMARK H PARENT 34 54USER                              x       y       z     vdW  Elec       q    TypeUSER                           _______ _______ _______ _____ _____    ______ ____ROOTATOM      1  C   UNL     1      38.089  43.030  23.728 -0.26 +0.01    +0.097 A  ATOM      2  N   UNL     1      37.502  42.505  24.838 -0.21 -0.00    -0.244 NA ATOM      3  C   UNL     1      38.231  42.476  25.968 -0.24 -0.00    +0.089 A  ATOM      4  C   UNL     1      37.678  41.938  27.125 -0.39 -0.00    +0.030 A  ATOM      5  C   UNL     1      38.399  41.880  28.318 -0.34 -0.00    +0.002 A  ATOM      6  C   UNL     1      39.697  42.373  28.356 -0.28 +0.00    +0.002 A  ATOM      7  C   UNL     1      40.262  42.917  27.200 -0.18 -0.00    +0.030 A  ATOM      8  C   UNL     1      39.552  42.976  26.006 -0.16 -0.00    +0.089 A  ATOM      9  N   UNL     1      40.130  43.511  24.916 -0.08 -0.00    -0.244 NA ATOM     10  C   UNL     1      39.391  43.555  23.771 -0.18 +0.00    +0.097 A  ENDROOTBRANCH   1  11ATOM     11  C   UNL     1      37.251  42.968  22.519 -0.41 +0.00    +0.002 A  ATOM     12  C   UNL     1      35.636  42.871  20.185 -0.43 +0.00    -0.034 A  ATOM     13  C   UNL     1      35.901  41.710  20.924 -0.45 +0.00    +0.006 A  ATOM     14  C   UNL     1      36.187  44.081  20.624 -0.38 -0.00    +0.006 A  ATOM     15  C   UNL     1      36.696  41.757  22.073 -0.55 +0.00    +0.011 A  ATOM     16  C   UNL     1      36.970  44.131  21.783 -0.36 +0.00    +0.011 A  BRANCH  12  17ATOM     17  C   UNL     1      34.793  42.803  18.929 -0.37 -0.02    +0.120 C  BRANCH  17  18ATOM     18  N   UNL     1      33.895  41.658  18.803 -0.15 +0.03    -0.296 NA ATOM     19  N   UNL     1      31.634  39.889  18.106 -0.31 +0.01    -0.192 NA ATOM     20  C   UNL     1      33.015  39.735  17.535 +0.04 -0.05    +0.118 C  ATOM     21  C   UNL     1      31.394  41.247  18.695 -0.24 -0.01    +0.118 C  ATOM     22  C   UNL     1      33.789  41.065  17.471 +0.17 -0.05    +0.101 C  ATOM     23  C   UNL     1      32.604  41.771  19.497 -0.19 +0.01    +0.101 C  BRANCH  19  24ATOM     24  S   UNL     1      31.098  38.586  19.096 -0.41 +0.05    +0.314 S  ATOM     25  O   UNL     1      31.549  37.369  18.443 -0.76 -0.07    -0.203 OA ATOM     26  O   UNL     1      31.573  38.881  20.439 -0.82 -0.05    -0.203 OA BRANCH  24  27ATOM     27  C   UNL     1      29.232  38.704  19.049 -0.08 +0.10    +0.511 C  ATOM     28  F   UNL     1      28.644  37.469  19.057 -0.12 -0.06    -0.155 F  ATOM     29  F   UNL     1      28.731  39.384  20.118 -0.05 -0.00    -0.155 F  ATOM     30  F   UNL     1      28.783  39.336  17.927 -0.10 -0.04    -0.155 F  ENDBRANCH  24  27ENDBRANCH  19  24ENDBRANCH  17  18ENDBRANCH  12  17ENDBRANCH   1  11BRANCH  10  31ATOM     31  C   UNL     1      40.068  44.213  22.642 -0.23 +0.00    +0.002 A  ATOM     32  C   UNL     1      40.154  45.613  22.574 -0.25 +0.00    +0.011 A  ATOM     33  C   UNL     1      40.632  43.471  21.591 -0.13 +0.00    +0.011 A  ATOM     34  C   UNL     1      40.803  46.248  21.510 -0.17 +0.00    +0.006 A  ATOM     35  C   UNL     1      41.277  44.103  20.524 -0.32 +0.00    +0.006 A  ATOM     36  C   UNL     1      41.365  45.500  20.467 -0.35 -0.00    -0.034 A  BRANCH  36  37ATOM     37  C   UNL     1      42.099  46.168  19.322 -0.38 +0.02    +0.120 C  BRANCH  37  38ATOM     38  N   UNL     1      41.309  46.306  18.085 -0.28 +0.01    -0.299 NA ATOM     39  C   UNL     1      39.912  45.912  18.329 -0.45 -0.01    +0.087 C  ATOM     40  C   UNL     1      41.401  47.649  17.508 -0.48 -0.01    +0.087 C  ATOM     41  C   UNL     1      38.902  46.566  17.382 -0.44 -0.01    +0.041 C  ATOM     42  C   UNL     1      40.812  47.635  16.093 -0.50 -0.01    +0.041 C  ATOM     43  C   UNL     1      39.521  46.801  16.002 -0.46 -0.02    +0.095 C  BRANCH  43  44ATOM     44  N   UNL     1      38.560  47.341  15.051 -0.23 +0.11    -0.291 N  ATOM     45  C   UNL     1      38.174  48.650  14.939 -0.25 -0.19    +0.295 A  ATOM     46  C   UNL     1      37.842  46.633  14.110 -0.39 -0.03    +0.072 A  ATOM     47  N   UNL     1      37.285  48.850  14.006 -0.49 +0.12    -0.195 NA ATOM     48  C   UNL     1      37.791  45.278  13.754 -0.34 -0.01    +0.029 A  ATOM     49  C   UNL     1      37.064  47.603  13.475 -0.50 -0.04    +0.092 A  ATOM     50  C   UNL     1      36.921  44.921  12.716 -0.51 -0.00    +0.002 A  ATOM     51  C   UNL     1      36.199  47.223  12.437 -0.66 -0.02    +0.031 A  ATOM     52  C   UNL     1      36.137  45.875  12.066 -0.58 -0.00    +0.002 A  BRANCH  45  53ATOM     53  O   UNL     1      38.637  49.637  15.679 -0.07 +0.37    -0.480 OA ATOM     54  H   UNL     1      38.043  50.364  15.415 -0.32 -0.31    +0.296 HD ENDBRANCH  45  53ENDBRANCH  43  44ENDBRANCH  37  38ENDBRANCH  36  37ENDBRANCH  10  31TORSDOF 10TERENDMDL