REMARK SMILES O=C(C1COC1)N1CCN(Cc2ccc(-c3nc4ccccc4nc3-c3ccc(CN4CCC(n5c(O)nc6ccccc65)CC4)cc3)cc2)CC1
REMARK SMILES IDX 26 1 27 2 28 3 29 4 47 5 48 6 25 7 16 8 17 9 18 10 24 11
REMARK SMILES IDX 19 12 23 13 20 14 22 15 21 16 15 17 12 18 13 19 50 20 14 21
REMARK SMILES IDX 49 22 11 23 10 24 2 25 7 26 8 27 52 28 9 29 51 30 1 31 3 32
REMARK SMILES IDX 4 33 6 34 5 35 30 36 31 37 32 38 46 39 33 40 45 41 34 42
REMARK SMILES IDX 35 43 36 44 44 45 38 46 43 47 39 48 42 49 40 50 41 51 37 52
REMARK H PARENT 37 53
ROOT
ATOM      1  C   UNL     1       0.506   0.712   1.815  1.00  0.00     0.002 A 
ATOM      2  C   UNL     1       0.459   0.934   0.431  1.00  0.00     0.011 A 
ATOM      3  C   UNL     1       1.192   0.131  -0.448  1.00  0.00     0.006 A 
ATOM      4  C   UNL     1       1.986  -0.922   0.033  1.00  0.00    -0.034 A 
ATOM      5  C   UNL     1       2.001  -1.171   1.411  1.00  0.00     0.006 A 
ATOM      6  C   UNL     1       1.289  -0.351   2.290  1.00  0.00     0.011 A 
ENDROOT
BRANCH   1   7
ATOM      7  C   UNL     1      -0.194   1.595   2.751  1.00  0.00     0.097 A 
ATOM      8  C   UNL     1      -1.585   1.651   2.928  1.00  0.00     0.097 A 
ATOM      9  N   UNL     1      -2.136   2.561   3.785  1.00  0.00    -0.244 NA
ATOM     10  C   UNL     1      -1.305   3.370   4.465  1.00  0.00     0.089 A 
ATOM     11  N   UNL     1       0.648   2.414   3.442  1.00  0.00    -0.244 NA
ATOM     12  C   UNL     1      -1.827   4.298   5.360  1.00  0.00     0.030 A 
ATOM     13  C   UNL     1       0.095   3.297   4.291  1.00  0.00     0.089 A 
ATOM     14  C   UNL     1      -0.995   5.153   6.087  1.00  0.00     0.002 A 
ATOM     15  C   UNL     1       0.914   4.153   5.017  1.00  0.00     0.030 A 
ATOM     16  C   UNL     1       0.384   5.080   5.915  1.00  0.00     0.002 A 
BRANCH   8  17
ATOM     17  C   UNL     1      -2.583   0.779   2.272  1.00  0.00     0.002 A 
ATOM     18  C   UNL     1      -4.630  -0.867   1.170  1.00  0.00    -0.034 A 
ATOM     19  C   UNL     1      -4.779   0.522   1.214  1.00  0.00     0.006 A 
ATOM     20  C   UNL     1      -3.442  -1.427   1.657  1.00  0.00     0.006 A 
ATOM     21  C   UNL     1      -3.773   1.330   1.756  1.00  0.00     0.011 A 
ATOM     22  C   UNL     1      -2.438  -0.618   2.207  1.00  0.00     0.011 A 
BRANCH  18  23
ATOM     23  C   UNL     1      -5.756  -1.752   0.676  1.00  0.00     0.120 C 
BRANCH  23  24
ATOM     24  N   UNL     1      -5.402  -2.597  -0.480  1.00  0.00    -0.296 NA
ATOM     25  C   UNL     1      -8.771  -1.115  -2.411  1.00  0.00     0.230 C 
ATOM     26  N   UNL     1      -7.528  -1.700  -2.171  1.00  0.00    -0.340 N 
ATOM     27  C   UNL     1      -7.416  -3.150  -1.998  1.00  0.00     0.135 C 
ATOM     28  C   UNL     1      -6.255  -0.973  -2.231  1.00  0.00     0.135 C 
ATOM     29  C   UNL     1      -6.525  -3.521  -0.788  1.00  0.00     0.106 C 
ATOM     30  C   UNL     1      -5.073  -1.800  -1.679  1.00  0.00     0.106 C 
ATOM     31  O   UNL     1      -9.801  -1.800  -2.429  1.00  0.00    -0.274 OA
BRANCH  25  32
ATOM     32  C   UNL     1      -8.790   0.409  -2.645  1.00  0.00     0.130 C 
ATOM     33  C   UNL     1     -10.145   1.072  -2.947  1.00  0.00     0.176 C 
ATOM     34  C   UNL     1      -8.817   1.319  -1.410  1.00  0.00     0.176 C 
ATOM     35  O   UNL     1      -9.873   2.127  -1.984  1.00  0.00    -0.380 OA
ENDBRANCH  25  32
ENDBRANCH  23  24
ENDBRANCH  18  23
ENDBRANCH   8  17
ENDBRANCH   1   7
BRANCH   4  36
ATOM     36  C   UNL     1       2.811  -1.756  -0.929  1.00  0.00     0.120 C 
BRANCH  36  37
ATOM     37  N   UNL     1       4.245  -1.416  -1.042  1.00  0.00    -0.299 NA
ATOM     38  C   UNL     1       5.023  -1.791   0.143  1.00  0.00     0.087 C 
ATOM     39  C   UNL     1       4.472  -0.021  -1.436  1.00  0.00     0.087 C 
ATOM     40  C   UNL     1       6.522  -1.612  -0.109  1.00  0.00     0.041 C 
ATOM     41  C   UNL     1       5.951   0.235  -1.730  1.00  0.00     0.041 C 
ATOM     42  C   UNL     1       6.812  -0.165  -0.525  1.00  0.00     0.095 C 
BRANCH  42  43
ATOM     43  N   UNL     1       8.231   0.103  -0.715  1.00  0.00    -0.291 N 
ATOM     44  C   UNL     1       8.969   0.972   0.047  1.00  0.00     0.295 A 
ATOM     45  C   UNL     1       9.090  -0.438  -1.647  1.00  0.00     0.072 A 
ATOM     46  N   UNL     1      10.223   1.043  -0.309  1.00  0.00    -0.195 NA
ATOM     47  C   UNL     1       8.940  -1.370  -2.685  1.00  0.00     0.029 A 
ATOM     48  C   UNL     1      10.320   0.175  -1.369  1.00  0.00     0.092 A 
ATOM     49  C   UNL     1      10.076  -1.676  -3.447  1.00  0.00     0.002 A 
ATOM     50  C   UNL     1      11.446  -0.152  -2.143  1.00  0.00     0.031 A 
ATOM     51  C   UNL     1      11.312  -1.083  -3.181  1.00  0.00     0.002 A 
BRANCH  44  52
ATOM     52  O   UNL     1       8.494   1.677   1.054  1.00  0.00    -0.480 OA
ATOM     53  H   UNL     1       9.294   2.154   1.345  1.00  0.00     0.296 HD
ENDBRANCH  44  52
ENDBRANCH  42  43
ENDBRANCH  36  37
ENDBRANCH   4  36
TORSDOF 9
