MODEL        9USER    Run = 9USERUSER    Estimated Free Energy of Binding    = -13.12 kcal/mol  [=(1)+(2)+(3)-(4)]USERUSER    (1) Final Intermolecular Energy     = -15.80 kcal/molUSER        vdW + Hbond + desolv Energy     = -15.78 kcal/molUSER        Electrostatic Energy            =  -0.02 kcal/molUSER        Moving Ligand-Fixed Receptor    = -15.80 kcal/molUSER        Moving Ligand-Moving Receptor   =  +0.00 kcal/molUSER    (2) Final Total Internal Energy     =  -1.97 kcal/molUSER    (3) Torsional Free Energy           =  +2.68 kcal/molUSER    (4) Unbound System's Energy         =  -1.97 kcal/molUSERUSERREMARK SMILES O=C(C1COC1)N1CCN(Cc2ccc(-c3nc4ccccc4nc3-c3ccc(CN4CCC(n5c(O)nc6ccccc65)CC4)cc3)cc2)CC1REMARK SMILES IDX 26 1 27 2 28 3 29 4 47 5 48 6 25 7 16 8 17 9 18 10 24 11REMARK SMILES IDX 19 12 23 13 20 14 22 15 21 16 15 17 12 18 13 19 50 20 14 21REMARK SMILES IDX 49 22 11 23 10 24 2 25 7 26 8 27 52 28 9 29 51 30 1 31 3 32REMARK SMILES IDX 4 33 6 34 5 35 30 36 31 37 32 38 46 39 33 40 45 41 34 42REMARK SMILES IDX 35 43 36 44 44 45 38 46 43 47 39 48 42 49 40 50 41 51 37 52REMARK H PARENT 37 53USER                              x       y       z     vdW  Elec       q    TypeUSER                           _______ _______ _______ _____ _____    ______ ____ROOTATOM      1  C   UNL     1      35.973  45.638  16.792 -0.35 -0.00    +0.002 A  ATOM      2  C   UNL     1      34.912  46.165  17.542 -0.41 -0.01    +0.011 A  ATOM      3  C   UNL     1      33.606  45.700  17.360 -0.34 -0.00    +0.006 A  ATOM      4  C   UNL     1      33.327  44.688  16.428 -0.30 +0.02    -0.034 A  ATOM      5  C   UNL     1      34.391  44.132  15.708 -0.27 -0.00    +0.006 A  ATOM      6  C   UNL     1      35.691  44.616  15.872 -0.34 -0.01    +0.011 A  ENDROOTBRANCH   1   7ATOM      7  C   UNL     1      37.332  46.171  16.917 -0.30 -0.04    +0.097 A  ATOM      8  C   UNL     1      38.227  45.876  17.956 -0.31 -0.02    +0.097 A  ATOM      9  N   UNL     1      39.450  46.482  18.007 -0.28 +0.04    -0.244 NA ATOM     10  C   UNL     1      39.771  47.338  17.021 -0.40 -0.02    +0.089 A  ATOM     11  N   UNL     1      37.658  47.038  15.917 -0.23 +0.14    -0.244 NA ATOM     12  C   UNL     1      41.014  47.963  17.029 -0.51 -0.00    +0.030 A  ATOM     13  C   UNL     1      38.868  47.619  15.971 -0.40 -0.04    +0.089 A  ATOM     14  C   UNL     1      41.384  48.856  16.020 -0.47 -0.00    +0.002 A  ATOM     15  C   UNL     1      39.245  48.510  14.974 -0.52 -0.01    +0.030 A  ATOM     16  C   UNL     1      40.494  49.131  14.986 -0.60 -0.00    +0.002 A  BRANCH   8  17ATOM     17  C   UNL     1      37.998  44.917  19.058 -0.36 -0.00    +0.002 A  ATOM     18  C   UNL     1      37.453  43.219  21.279 -0.36 -0.00    -0.034 A  ATOM     19  C   UNL     1      36.435  43.583  20.394 -0.42 -0.00    +0.006 A  ATOM     20  C   UNL     1      38.750  43.687  21.034 -0.13 +0.00    +0.006 A  ATOM     21  C   UNL     1      36.703  44.418  19.304 -0.36 -0.00    +0.011 A  ATOM     22  C   UNL     1      39.017  44.530  19.946 -0.35 -0.00    +0.011 A  BRANCH  18  23ATOM     23  C   UNL     1      37.149  42.398  22.516 -0.44 +0.01    +0.120 C  BRANCH  23  24ATOM     24  N   UNL     1      36.687  43.189  23.672 -0.17 -0.04    -0.296 NA ATOM     25  C   UNL     1      40.540  42.929  25.206 -0.12 -0.00    +0.230 C  ATOM     26  N   UNL     1      39.234  43.352  24.963 -0.05 -0.01    -0.340 N  ATOM     27  C   UNL     1      38.131  42.852  25.785 -0.24 -0.00    +0.135 C  ATOM     28  C   UNL     1      38.881  44.414  24.013 -0.20 +0.01    +0.135 C  ATOM     29  C   UNL     1      36.916  42.425  24.926 -0.39 -0.00    +0.106 C  ATOM     30  C   UNL     1      37.359  44.501  23.760 -0.29 +0.01    +0.106 C  ATOM     31  O   UNL     1      40.781  42.088  26.081 -0.12 +0.03    -0.274 OA BRANCH  25  32ATOM     32  C   UNL     1      41.649  43.554  24.336 -0.14 +0.00    +0.130 C  ATOM     33  C   UNL     1      43.027  42.870  24.328 -0.15 -0.01    +0.176 C  ATOM     34  C   UNL     1      41.662  43.207  22.841 -0.25 +0.00    +0.176 C  ATOM     35  O   UNL     1      43.087  42.947  22.877 -0.17 -0.00    -0.380 OA ENDBRANCH  25  32ENDBRANCH  23  24ENDBRANCH  18  23ENDBRANCH   8  17ENDBRANCH   1   7BRANCH   4  36ATOM     36  C   UNL     1      31.898  44.226  16.210 -0.31 -0.05    +0.120 C  BRANCH  36  37ATOM     37  N   UNL     1      31.482  42.997  16.918 -0.11 +0.10    -0.299 NA ATOM     38  C   UNL     1      32.595  42.303  17.573 -0.34 -0.03    +0.087 C  ATOM     39  C   UNL     1      30.684  42.097  16.078 -0.33 -0.04    +0.087 C  ATOM     40  C   UNL     1      32.082  41.165  18.460 -0.42 -0.00    +0.041 C  ATOM     41  C   UNL     1      30.113  40.939  16.899 -0.38 -0.01    +0.041 C  ATOM     42  C   UNL     1      31.239  40.193  17.625 -0.38 -0.01    +0.095 C  BRANCH  42  43ATOM     43  N   UNL     1      30.772  39.042  18.386 -0.21 -0.04    -0.291 N  ATOM     44  C   UNL     1      31.536  37.943  18.685 -0.27 +0.07    +0.295 A  ATOM     45  C   UNL     1      29.530  38.828  18.944 -0.30 +0.01    +0.072 A  ATOM     46  N   UNL     1      30.901  37.040  19.381 -0.70 -0.09    -0.195 NA ATOM     47  C   UNL     1      28.340  39.569  18.986 -0.22 +0.00    +0.029 A  ATOM     48  C   UNL     1      29.645  37.569  19.550 -0.28 +0.02    +0.092 A  ATOM     49  C   UNL     1      27.251  39.004  19.665 -0.26 -0.00    +0.002 A  ATOM     50  C   UNL     1      28.542  37.026  20.230 -0.28 -0.00    +0.031 A  ATOM     51  C   UNL     1      27.348  37.756  20.283 -0.30 -0.00    +0.002 A  BRANCH  44  52ATOM     52  O   UNL     1      32.795  37.785  18.328 -0.21 -0.02    -0.480 OA ATOM     53  H   UNL     1      32.994  36.914  18.721 +0.25 +0.04    +0.296 HD ENDBRANCH  44  52ENDBRANCH  42  43ENDBRANCH  36  37ENDBRANCH   4  36TORSDOF 9TERENDMDL