MODEL        1USER    Run = 1USERUSER    Estimated Free Energy of Binding    = -13.71 kcal/mol  [=(1)+(2)+(3)-(4)]USERUSER    (1) Final Intermolecular Energy     = -16.39 kcal/molUSER        vdW + Hbond + desolv Energy     = -16.19 kcal/molUSER        Electrostatic Energy            =  -0.20 kcal/molUSER        Moving Ligand-Fixed Receptor    = -16.39 kcal/molUSER        Moving Ligand-Moving Receptor   =  +0.00 kcal/molUSER    (2) Final Total Internal Energy     =  -2.14 kcal/molUSER    (3) Torsional Free Energy           =  +2.68 kcal/molUSER    (4) Unbound System's Energy         =  -2.14 kcal/molUSERUSERREMARK SMILES O=C(C1COC1)N1CCN(Cc2ccc(-c3nc4ccc(F)cc4nc3-c3ccc(CN4CCC(n5c(O)nc6cc(F)ccc65)CC4)cc3)cc2)CC1REMARK SMILES IDX 27 1 28 2 29 3 30 4 49 5 50 6 26 7 16 8 17 9 18 10 25 11REMARK SMILES IDX 19 12 24 13 20 14 23 15 21 16 22 17 15 18 12 19 13 20 52 21REMARK SMILES IDX 14 22 51 23 11 24 10 25 2 26 7 27 8 28 54 29 9 30 53 31 1 32REMARK SMILES IDX 3 33 4 34 6 35 5 36 31 37 32 38 33 39 48 40 34 41 47 42REMARK SMILES IDX 35 43 36 44 37 45 46 46 39 47 45 48 40 49 44 50 41 51 42 52REMARK SMILES IDX 43 53 38 54REMARK H PARENT 38 55USER                              x       y       z     vdW  Elec       q    TypeUSER                           _______ _______ _______ _____ _____    ______ ____ROOTATOM      1  C   UNL     1      40.390  45.385  20.068 -0.40 +0.00    +0.002 A  ATOM      2  C   UNL     1      40.031  45.969  21.295 -0.12 +0.00    +0.011 A  ATOM      3  C   UNL     1      40.392  45.379  22.511 -0.24 +0.00    +0.006 A  ATOM      4  C   UNL     1      41.141  44.196  22.534 -0.22 -0.00    -0.034 A  ATOM      5  C   UNL     1      41.526  43.621  21.317 -0.34 +0.00    +0.006 A  ATOM      6  C   UNL     1      41.159  44.209  20.102 -0.31 +0.00    +0.011 A  ENDROOTBRANCH   1   7ATOM      7  C   UNL     1      39.964  46.005  18.801 -0.37 -0.01    +0.097 A  ATOM      8  C   UNL     1      38.784  45.690  18.108 -0.34 -0.02    +0.097 A  ATOM      9  N   UNL     1      38.489  46.284  16.915 -0.24 +0.08    -0.244 NA ATOM     10  C   UNL     1      39.338  47.215  16.456 -0.40 -0.03    +0.090 A  ATOM     11  N   UNL     1      40.824  46.951  18.328 -0.33 +0.02    -0.244 NA ATOM     12  C   UNL     1      39.056  47.868  15.260 -0.49 -0.01    +0.033 A  ATOM     13  C   UNL     1      40.513  47.555  17.168 -0.44 -0.02    +0.092 A  ATOM     14  C   UNL     1      39.908  48.850  14.758 -0.49 -0.02    +0.041 A  ATOM     15  C   UNL     1      41.358  48.530  16.660 -0.40 -0.00    +0.069 A  ATOM     16  C   UNL     1      41.054  49.172  15.467 -0.53 -0.02    +0.125 A  ATOM     17  F   UNL     1      41.877  50.118  14.997 -0.24 +0.02    -0.207 F  BRANCH   8  18ATOM     18  C   UNL     1      37.740  44.762  18.579 -0.37 -0.00    +0.002 A  ATOM     19  C   UNL     1      35.667  43.020  19.448 -0.39 +0.00    -0.034 A  ATOM     20  C   UNL     1      35.957  43.166  18.085 -0.26 -0.00    +0.006 A  ATOM     21  C   UNL     1      36.435  43.737  20.373 -0.41 -0.00    +0.006 A  ATOM     22  C   UNL     1      36.970  44.030  17.659 -0.29 -0.00    +0.011 A  ATOM     23  C   UNL     1      37.448  44.601  19.945 -0.30 -0.00    +0.011 A  BRANCH  19  24ATOM     24  C   UNL     1      34.539  42.113  19.899 -0.23 +0.00    +0.120 C  BRANCH  24  25ATOM     25  N   UNL     1      33.180  42.542  19.552 -0.53 -0.02    -0.296 NA ATOM     26  C   UNL     1      30.631  44.446  16.567 -0.18 -0.06    +0.230 C  ATOM     27  N   UNL     1      31.437  43.800  17.502 -0.08 +0.07    -0.340 N  ATOM     28  C   UNL     1      32.604  44.503  18.043 -0.27 -0.03    +0.135 C  ATOM     29  C   UNL     1      31.250  42.416  17.957 -0.25 -0.02    +0.135 C  ATOM     30  C   UNL     1      32.991  43.996  19.444 -0.44 -0.01    +0.106 C  ATOM     31  C   UNL     1      32.567  41.788  18.451 -0.37 -0.02    +0.106 C  ATOM     32  O   UNL     1      30.917  45.583  16.171 -0.78 +0.06    -0.274 OA BRANCH  26  33ATOM     33  C   UNL     1      29.396  43.691  16.053 -0.25 -0.06    +0.130 C  ATOM     34  C   UNL     1      28.260  44.524  15.440 -0.13 -0.11    +0.176 C  ATOM     35  C   UNL     1      28.319  43.277  17.061 -0.17 -0.04    +0.176 C  ATOM     36  O   UNL     1      27.269  43.790  16.205 -0.10 +0.12    -0.380 OA ENDBRANCH  26  33ENDBRANCH  24  25ENDBRANCH  19  24ENDBRANCH   8  18ENDBRANCH   1   7BRANCH   4  37ATOM     37  C   UNL     1      41.494  43.535  23.851 -0.18 +0.00    +0.120 C  BRANCH  37  38ATOM     38  N   UNL     1      40.402  42.723  24.417 -0.07 -0.01    -0.299 NA ATOM     39  C   UNL     1      40.618  42.401  25.836 -0.12 -0.00    +0.087 C  ATOM     40  C   UNL     1      39.109  43.365  24.136 -0.23 +0.00    +0.087 C  ATOM     41  C   UNL     1      39.618  43.054  26.786 -0.22 -0.00    +0.041 C  ATOM     42  C   UNL     1      37.961  42.684  24.876 -0.33 +0.00    +0.041 C  ATOM     43  C   UNL     1      38.182  42.678  26.398 -0.28 -0.01    +0.095 C  BRANCH  43  44ATOM     44  N   UNL     1      37.202  43.472  27.132 -0.16 +0.04    -0.291 N  ATOM     45  C   UNL     1      36.071  43.005  27.750 -0.17 -0.09    +0.295 A  ATOM     46  C   UNL     1      37.229  44.839  27.328 -0.32 -0.01    +0.072 A  ATOM     47  N   UNL     1      35.373  43.943  28.328 -0.41 +0.06    -0.195 NA ATOM     48  C   UNL     1      38.118  45.854  26.939 -0.26 -0.00    +0.032 A  ATOM     49  C   UNL     1      36.075  45.098  28.077 -0.37 -0.02    +0.095 A  ATOM     50  C   UNL     1      37.804  47.159  27.338 -0.25 -0.01    +0.041 A  ATOM     51  C   UNL     1      35.777  46.411  28.466 -0.29 -0.02    +0.070 A  ATOM     52  C   UNL     1      36.657  47.422  28.084 -0.23 -0.03    +0.125 A  ATOM     53  F   UNL     1      36.394  48.687  28.447 -0.07 +0.03    -0.207 F  BRANCH  45  54ATOM     54  O   UNL     1      35.695  41.745  27.784 -0.23 +0.19    -0.480 OA ATOM     55  H   UNL     1      35.794  41.546  28.734 -0.31 -0.21    +0.296 HD ENDBRANCH  45  54ENDBRANCH  43  44ENDBRANCH  37  38ENDBRANCH   4  37TORSDOF 9TERENDMDL