MODEL        5USER    Run = 5USERUSER    Estimated Free Energy of Binding    =  -9.10 kcal/mol  [=(1)+(2)+(3)-(4)]USERUSER    (1) Final Intermolecular Energy     = -10.59 kcal/molUSER        vdW + Hbond + desolv Energy     = -10.30 kcal/molUSER        Electrostatic Energy            =  -0.28 kcal/molUSER        Moving Ligand-Fixed Receptor    = -10.59 kcal/molUSER        Moving Ligand-Moving Receptor   =  +0.00 kcal/molUSER    (2) Final Total Internal Energy     =  -0.52 kcal/molUSER    (3) Torsional Free Energy           =  +1.49 kcal/molUSER    (4) Unbound System's Energy         =  -0.52 kcal/molUSERUSERREMARK SMILES COc1ccc2c(c1)ON(/C=C1\C(=O)N(C)c3ccc(C(F)(F)F)cc31)C[C@@H]2OREMARK SMILES IDX 11 1 10 2 3 3 4 4 8 5 5 6 7 7 6 8 9 9 28 10 27 11 2 12 1 13REMARK SMILES IDX 29 14 12 16 13 17 26 18 15 19 25 20 17 21 20 22 18 23 19 24REMARK SMILES IDX 14 25 16 26 21 27 22 28 23 29 24 30REMARK H PARENT 29 15USER                              x       y       z     vdW  Elec       q    TypeUSER                           _______ _______ _______ _____ _____    ______ ____ROOTATOM      1  C   UNL     1      37.776  45.206  18.119 -0.33 -0.03    +0.138 C  ENDROOTBRANCH   1   2ATOM      2  N   UNL     1      36.401  45.079  17.990 -0.21 +0.07    -0.213 N  ATOM      3  C   UNL     1      32.939  42.036  19.088 -0.31 -0.00    +0.122 A  ATOM      4  C   UNL     1      32.011  43.078  19.100 -0.32 -0.00    +0.047 A  ATOM      5  C   UNL     1      34.254  42.296  18.698 -0.34 -0.02    +0.096 A  ATOM      6  C   UNL     1      32.397  44.367  18.718 -0.28 -0.00    +0.014 A  ATOM      7  C   UNL     1      34.643  43.585  18.329 -0.22 -0.04    +0.164 A  ATOM      8  C   UNL     1      33.714  44.626  18.316 -0.35 -0.01    +0.028 A  ATOM      9  O   UNL     1      35.953  43.740  17.934 -0.10 +0.10    -0.379 OA ATOM     10  C   UNL     1      34.143  46.004  17.907 -0.39 -0.13    +0.171 C  ATOM     11  C   UNL     1      35.528  45.990  17.239 -0.29 -0.14    +0.198 C  BRANCH   3  12ATOM     12  O   UNL     1      32.691  40.734  19.431 -0.40 -0.10    -0.497 OA ATOM     13  C   UNL     1      32.039  39.926  18.459 -0.29 -0.01    +0.278 C  ENDBRANCH   3  12BRANCH  10  14ATOM     14  O   UNL     1      34.171  46.816  19.088 -0.79 +0.20    -0.386 OA ATOM     15  H   UNL     1      34.094  46.192  19.834 -0.34 -0.14    +0.211 HD ENDBRANCH  10  14ENDBRANCH   1   2BRANCH   1  16ATOM     16  C   UNL     1      38.713  46.051  17.663 -0.41 -0.02    +0.069 C  ATOM     17  C   UNL     1      39.971  46.542  18.340 -0.30 -0.03    +0.260 C  ATOM     18  C   UNL     1      38.644  46.725  16.356 -0.41 -0.00    +0.013 A  ATOM     19  N   UNL     1      40.567  47.397  17.413 -0.30 +0.05    -0.311 N  ATOM     20  C   UNL     1      37.719  46.685  15.323 -0.39 -0.01    +0.024 A  ATOM     21  C   UNL     1      39.789  47.520  16.254 -0.47 -0.01    +0.052 A  ATOM     22  C   UNL     1      37.953  47.459  14.170 -0.46 -0.02    +0.056 A  ATOM     23  C   UNL     1      40.042  48.295  15.135 -0.54 -0.01    +0.027 A  ATOM     24  C   UNL     1      39.114  48.262  14.090 -0.41 -0.00    +0.015 A  ATOM     25  O   UNL     1      40.368  46.282  19.460 -0.29 +0.00    -0.269 OA ATOM     26  C   UNL     1      41.791  48.116  17.647 -0.36 -0.00    +0.153 C  BRANCH  22  27ATOM     27  C   UNL     1      36.949  47.444  13.038 -0.33 -0.16    +0.416 C  ATOM     28  F   UNL     1      37.492  47.097  11.839 -0.25 +0.03    -0.166 F  ATOM     29  F   UNL     1      36.366  48.658  12.851 -0.23 +0.07    -0.166 F  ATOM     30  F   UNL     1      35.931  46.566  13.253 -0.18 +0.10    -0.166 F  ENDBRANCH  22  27ENDBRANCH   1  16TORSDOF 5TERENDMDL