MODEL        9USER    Run = 9USERUSER    Estimated Free Energy of Binding    =  -9.69 kcal/mol  [=(1)+(2)+(3)-(4)]USERUSER    (1) Final Intermolecular Energy     = -11.18 kcal/molUSER        vdW + Hbond + desolv Energy     = -11.05 kcal/molUSER        Electrostatic Energy            =  -0.13 kcal/molUSER        Moving Ligand-Fixed Receptor    = -11.18 kcal/molUSER        Moving Ligand-Moving Receptor   =  +0.00 kcal/molUSER    (2) Final Total Internal Energy     =  -1.32 kcal/molUSER    (3) Torsional Free Energy           =  +1.49 kcal/molUSER    (4) Unbound System's Energy         =  -1.32 kcal/molUSERUSERREMARK SMILES C[C@H]1CNCCN1C(=O)c1ccc(CCc2n[nH]c3c(F)cccc23)cc1REMARK SMILES IDX 10 1 11 2 12 3 13 4 26 5 27 6 8 7 9 8 7 9 2 10 3 11 4 12REMARK SMILES IDX 6 13 5 14 1 15 14 17 15 18 16 19 17 20 25 21 18 22 24 23REMARK SMILES IDX 19 24 23 25 20 26 22 27 21 29REMARK H PARENT 4 16 18 28USER                              x       y       z     vdW  Elec       q    TypeUSER                           _______ _______ _______ _____ _____    ______ ____ROOTATOM      1  C   UNL     1      35.787  45.507  15.705 -0.32 -0.03    +0.040 A  ATOM      2  C   UNL     1      36.050  46.858  15.952 -0.30 -0.01    +0.014 A  ATOM      3  C   UNL     1      37.311  47.379  15.659 -0.43 -0.00    +0.004 A  ATOM      4  C   UNL     1      38.306  46.558  15.107 -0.38 +0.02    -0.048 A  ATOM      5  C   UNL     1      38.024  45.207  14.857 -0.33 -0.00    +0.004 A  ATOM      6  C   UNL     1      36.763  44.682  15.144 -0.37 -0.01    +0.014 A  ENDROOTBRANCH   1   7ATOM      7  C   UNL     1      34.456  44.942  16.000 -0.20 -0.17    +0.254 C  ATOM      8  O   UNL     1      33.648  44.878  15.078 -0.18 +0.18    -0.269 OA BRANCH   7   9ATOM      9  N   UNL     1      34.190  44.513  17.297 -0.07 +0.15    -0.333 N  ATOM     10  C   UNL     1      34.769  45.270  18.421 -0.40 -0.04    +0.096 C  ATOM     11  C   UNL     1      34.896  44.383  19.684 -0.36 -0.02    +0.105 C  ATOM     12  N   UNL     1      33.656  43.734  20.137 -0.58 -0.00    -0.313 NA ATOM     13  C   UNL     1      33.425  43.304  17.640 -0.29 -0.04    +0.135 C  ATOM     14  C   UNL     1      32.754  43.403  19.021 -0.39 -0.01    +0.102 C  ATOM     15  C   UNL     1      33.964  46.544  18.703 -0.55 -0.02    +0.032 C  ATOM     16  H   UNL     1      33.164  44.344  20.789 -0.29 -0.01    +0.122 HD ENDBRANCH   7   9ENDBRANCH   1   7BRANCH   4  17ATOM     17  C   UNL     1      39.675  47.117  14.803 -0.51 -0.01    +0.042 C  BRANCH  17  18ATOM     18  C   UNL     1      39.974  48.365  15.635 -0.58 -0.02    +0.063 C  BRANCH  18  19ATOM     19  C   UNL     1      40.790  48.047  16.843 -0.48 -0.01    +0.070 A  ATOM     20  N   UNL     1      41.786  48.863  17.217 -0.82 -0.02    -0.179 NA ATOM     21  C   UNL     1      40.655  46.934  17.719 -0.50 -0.00    +0.026 A  ATOM     22  N   UNL     1      42.287  48.275  18.319 -0.29 -0.00    -0.275 N  ATOM     23  C   UNL     1      39.817  45.806  17.821 -0.44 -0.00    +0.012 A  ATOM     24  C   UNL     1      41.650  47.120  18.670 -0.44 -0.00    +0.101 A  ATOM     25  C   UNL     1      40.014  44.905  18.879 -0.43 -0.00    +0.004 A  ATOM     26  C   UNL     1      41.855  46.234  19.722 -0.33 +0.02    +0.148 A  ATOM     27  C   UNL     1      41.024  45.119  19.818 -0.37 +0.00    +0.041 A  ATOM     28  H   UNL     1      43.069  48.716  18.792 -0.32 -0.01    +0.190 HD ATOM     29  F   UNL     1      42.823  46.439  20.622 -0.11 -0.07    -0.205 F  ENDBRANCH  18  19ENDBRANCH  17  18ENDBRANCH   4  17TORSDOF 5TERENDMDL