REMARK SMILES COc1ccc(C(=O)N2CCNC[C@@H]2C)cc1CCc1n[nH]c2c(F)cccc12
REMARK SMILES IDX 3 1 4 2 5 3 6 4 16 5 17 6 2 7 1 8 18 9 19 10 20 11 21 12
REMARK SMILES IDX 29 13 22 14 28 15 23 16 27 17 24 18 26 19 25 21 7 22 8 23
REMARK SMILES IDX 9 24 10 25 14 26 11 27 13 28 12 29 15 30
REMARK H PARENT 22 20 12 31
ROOT
ATOM      1  C   UNL     1       0.485   2.089  -0.467  1.00  0.00     0.122 A 
ATOM      2  C   UNL     1      -0.538   2.880  -1.001  1.00  0.00     0.047 A 
ATOM      3  C   UNL     1      -1.770   2.313  -1.335  1.00  0.00     0.017 A 
ATOM      4  C   UNL     1      -1.993   0.952  -1.121  1.00  0.00     0.040 A 
ATOM      5  C   UNL     1      -0.969   0.145  -0.621  1.00  0.00     0.021 A 
ATOM      6  C   UNL     1       0.269   0.709  -0.272  1.00  0.00    -0.005 A 
ENDROOT
BRANCH   1   7
ATOM      7  O   UNL     1       1.726   2.552  -0.112  1.00  0.00    -0.496 OA
ATOM      8  C   UNL     1       2.006   3.924  -0.356  1.00  0.00     0.278 C 
ENDBRANCH   1   7
BRANCH   6   9
ATOM      9  C   UNL     1       1.360  -0.188   0.273  1.00  0.00     0.046 C 
BRANCH   9  10
ATOM     10  C   UNL     1       2.370  -0.583  -0.807  1.00  0.00     0.064 C 
BRANCH  10  11
ATOM     11  C   UNL     1       3.494  -1.385  -0.243  1.00  0.00     0.070 A 
ATOM     12  N   UNL     1       3.449  -2.725  -0.264  1.00  0.00    -0.179 NA
ATOM     13  C   UNL     1       4.682  -0.903   0.370  1.00  0.00     0.026 A 
ATOM     14  N   UNL     1       4.605  -3.094   0.317  1.00  0.00    -0.275 N 
ATOM     15  C   UNL     1       5.239   0.356   0.670  1.00  0.00     0.012 A 
ATOM     16  C   UNL     1       5.382  -2.048   0.723  1.00  0.00     0.101 A 
ATOM     17  C   UNL     1       6.485   0.412   1.312  1.00  0.00     0.004 A 
ATOM     18  C   UNL     1       6.618  -2.004   1.359  1.00  0.00     0.148 A 
ATOM     19  C   UNL     1       7.166  -0.757   1.652  1.00  0.00     0.041 A 
ATOM     20  H   UNL     1       4.808  -4.084   0.410  1.00  0.00     0.190 HD
ATOM     21  F   UNL     1       7.268  -3.127   1.689  1.00  0.00    -0.205 F 
ENDBRANCH  10  11
ENDBRANCH   9  10
ENDBRANCH   6   9
BRANCH   4  22
ATOM     22  C   UNL     1      -3.294   0.372  -1.517  1.00  0.00     0.254 C 
ATOM     23  O   UNL     1      -3.639   0.522  -2.688  1.00  0.00    -0.269 OA
BRANCH  22  24
ATOM     24  N   UNL     1      -4.055  -0.310  -0.572  1.00  0.00    -0.333 N 
ATOM     25  C   UNL     1      -5.274  -0.985  -1.020  1.00  0.00     0.135 C 
ATOM     26  C   UNL     1      -3.870  -0.260   0.897  1.00  0.00     0.096 C 
ATOM     27  C   UNL     1      -5.370  -2.414  -0.445  1.00  0.00     0.102 C 
ATOM     28  C   UNL     1      -4.742  -1.328   1.620  1.00  0.00     0.105 C 
ATOM     29  N   UNL     1      -4.778  -2.609   0.897  1.00  0.00    -0.313 NA
ATOM     30  C   UNL     1      -4.196   1.123   1.465  1.00  0.00     0.032 C 
ATOM     31  H   UNL     1      -3.813  -2.914   0.760  1.00  0.00     0.122 HD
ENDBRANCH  22  24
ENDBRANCH   4  22
TORSDOF 6
