REMARK SMILES C[C@H]1CNCCN1C(=O)c1ccc(CCc2n[nH]c3c(F)cccc23)cc1
REMARK SMILES IDX 10 1 11 2 12 3 13 4 26 5 27 6 8 7 9 8 7 9 2 10 3 11 4 12
REMARK SMILES IDX 6 13 5 14 1 15 14 17 15 18 16 19 17 20 25 21 18 22 24 23
REMARK SMILES IDX 19 24 23 25 20 26 22 27 21 29
REMARK H PARENT 4 16 18 28
ROOT
ATOM      1  C   UNL     1      -1.835   1.073   1.156  1.00  0.00     0.040 A 
ATOM      2  C   UNL     1      -1.071   0.011   1.648  1.00  0.00     0.014 A 
ATOM      3  C   UNL     1       0.318   0.040   1.510  1.00  0.00     0.004 A 
ATOM      4  C   UNL     1       0.946   1.133   0.894  1.00  0.00    -0.048 A 
ATOM      5  C   UNL     1       0.166   2.195   0.413  1.00  0.00     0.004 A 
ATOM      6  C   UNL     1      -1.223   2.173   0.553  1.00  0.00     0.014 A 
ENDROOT
BRANCH   1   7
ATOM      7  C   UNL     1      -3.304   1.064   1.303  1.00  0.00     0.254 C 
ATOM      8  O   UNL     1      -3.804   1.879   2.072  1.00  0.00    -0.269 OA
BRANCH   7   9
ATOM      9  N   UNL     1      -4.038   0.139   0.566  1.00  0.00    -0.333 N 
ATOM     10  C   UNL     1      -5.489   0.041   0.805  1.00  0.00     0.096 C 
ATOM     11  C   UNL     1      -6.028  -1.352   0.397  1.00  0.00     0.105 C 
ATOM     12  N   UNL     1      -5.745  -1.768  -0.986  1.00  0.00    -0.313 NA
ATOM     13  C   UNL     1      -3.462  -0.813  -0.396  1.00  0.00     0.135 C 
ATOM     14  C   UNL     1      -4.466  -1.233  -1.483  1.00  0.00     0.102 C 
ATOM     15  C   UNL     1      -6.245   1.170   0.095  1.00  0.00     0.032 C 
ATOM     16  H   UNL     1      -6.495  -1.455  -1.601  1.00  0.00     0.122 HD
ENDBRANCH   7   9
ENDBRANCH   1   7
BRANCH   4  17
ATOM     17  C   UNL     1       2.447   1.158   0.730  1.00  0.00     0.042 C 
BRANCH  17  18
ATOM     18  C   UNL     1       2.888   0.452  -0.553  1.00  0.00     0.063 C 
BRANCH  18  19
ATOM     19  C   UNL     1       4.372   0.446  -0.703  1.00  0.00     0.070 A 
ATOM     20  N   UNL     1       4.982   1.410  -1.408  1.00  0.00    -0.179 NA
ATOM     21  C   UNL     1       5.300  -0.491  -0.169  1.00  0.00     0.026 A 
ATOM     22  N   UNL     1       6.286   1.090  -1.330  1.00  0.00    -0.275 N 
ATOM     23  C   UNL     1       5.239  -1.656   0.622  1.00  0.00     0.012 A 
ATOM     24  C   UNL     1       6.539  -0.035  -0.599  1.00  0.00     0.101 A 
ATOM     25  C   UNL     1       6.432  -2.320   0.949  1.00  0.00     0.004 A 
ATOM     26  C   UNL     1       7.727  -0.685  -0.283  1.00  0.00     0.148 A 
ATOM     27  C   UNL     1       7.662  -1.837   0.499  1.00  0.00     0.041 A 
ATOM     28  H   UNL     1       6.962   1.685  -1.799  1.00  0.00     0.190 HD
ATOM     29  F   UNL     1       8.906  -0.222  -0.714  1.00  0.00    -0.205 F 
ENDBRANCH  18  19
ENDBRANCH  17  18
ENDBRANCH   4  17
TORSDOF 5
