MODEL        5USER    Run = 5USERUSER    Estimated Free Energy of Binding    =  -8.95 kcal/mol  [=(1)+(2)+(3)-(4)]USERUSER    (1) Final Intermolecular Energy     = -10.74 kcal/molUSER        vdW + Hbond + desolv Energy     = -10.59 kcal/molUSER        Electrostatic Energy            =  -0.15 kcal/molUSER        Moving Ligand-Fixed Receptor    = -10.74 kcal/molUSER        Moving Ligand-Moving Receptor   =  +0.00 kcal/molUSER    (2) Final Total Internal Energy     =  -1.73 kcal/molUSER    (3) Torsional Free Energy           =  +1.79 kcal/molUSER    (4) Unbound System's Energy         =  -1.73 kcal/molUSERUSERREMARK SMILES COc1ccc(C(=O)N2CCNC[C@@H]2C)cc1CCc1n[nH]c2c(F)cccc12REMARK SMILES IDX 3 1 4 2 5 3 6 4 16 5 17 6 2 7 1 8 18 9 19 10 20 11 21 12REMARK SMILES IDX 29 13 22 14 28 15 23 16 27 17 24 18 26 19 25 21 7 22 8 23REMARK SMILES IDX 9 24 10 25 14 26 11 27 13 28 12 29 15 30REMARK H PARENT 22 20 12 31USER                              x       y       z     vdW  Elec       q    TypeUSER                           _______ _______ _______ _____ _____    ______ ____ROOTATOM      1  C   UNL     1      38.776  45.296  19.577 -0.29 -0.01    +0.122 A  ATOM      2  C   UNL     1      39.776  46.160  19.117 -0.32 -0.00    +0.047 A  ATOM      3  C   UNL     1      39.868  46.475  17.759 -0.46 -0.00    +0.017 A  ATOM      4  C   UNL     1      38.949  45.941  16.854 -0.38 -0.01    +0.040 A  ATOM      5  C   UNL     1      37.968  45.051  17.296 -0.35 -0.01    +0.021 A  ATOM      6  C   UNL     1      37.861  44.737  18.661 -0.37 +0.00    -0.005 A  ENDROOTBRANCH   1   7ATOM      7  O   UNL     1      38.607  44.925  20.887 -0.11 -0.01    -0.496 OA ATOM      8  C   UNL     1      39.496  45.484  21.844 -0.22 +0.02    +0.278 C  ENDBRANCH   1   7BRANCH   6   9ATOM      9  C   UNL     1      36.785  43.774  19.113 -0.36 -0.01    +0.046 C  BRANCH   9  10ATOM     10  C   UNL     1      35.631  44.492  19.815 -0.35 -0.01    +0.064 C  BRANCH  10  11ATOM     11  C   UNL     1      34.689  45.108  18.836 -0.36 -0.03    +0.070 A  ATOM     12  N   UNL     1      34.460  46.429  18.854 -0.51 +0.10    -0.179 NA ATOM     13  C   UNL     1      33.934  44.452  17.827 -0.31 -0.01    +0.026 A  ATOM     14  N   UNL     1      33.579  46.616  17.855 -0.21 +0.31    -0.275 N  ATOM     15  C   UNL     1      33.768  43.128  17.373 -0.33 -0.00    +0.012 A  ATOM     16  C   UNL     1      33.221  45.469  17.207 -0.26 -0.07    +0.101 A  ATOM     17  C   UNL     1      32.891  42.881  16.306 -0.29 -0.00    +0.004 A  ATOM     18  C   UNL     1      32.350  45.235  16.149 -0.23 -0.09    +0.148 A  ATOM     19  C   UNL     1      32.190  43.925  15.702 -0.32 -0.02    +0.041 A  ATOM     20  H   UNL     1      33.254  47.558  17.662 -0.46 -0.41    +0.190 HD ATOM     21  F   UNL     1      31.674  46.237  15.573 -0.11 +0.17    -0.205 F  ENDBRANCH  10  11ENDBRANCH   9  10ENDBRANCH   6   9BRANCH   4  22ATOM     22  C   UNL     1      39.093  46.264  15.419 -0.30 -0.06    +0.254 C  ATOM     23  O   UNL     1      40.213  46.134  14.926 -0.35 +0.02    -0.269 OA BRANCH  22  24ATOM     24  N   UNL     1      37.980  46.685  14.698 -0.16 +0.13    -0.333 N  ATOM     25  C   UNL     1      37.352  47.954  15.070 -0.45 -0.10    +0.135 C  ATOM     26  C   UNL     1      37.227  45.881  13.707 -0.45 -0.04    +0.096 C  ATOM     27  C   UNL     1      37.055  48.822  13.829 -0.48 -0.06    +0.102 C  ATOM     28  C   UNL     1      36.196  46.751  12.929 -0.60 -0.05    +0.105 C  ATOM     29  N   UNL     1      36.723  48.082  12.591 -0.87 +0.11    -0.313 NA ATOM     30  C   UNL     1      36.500  44.706  14.362 -0.41 -0.01    +0.032 C  ATOM     31  H   UNL     1      37.595  47.948  12.076 +0.07 +0.02    +0.122 HD ENDBRANCH  22  24ENDBRANCH   4  22TORSDOF 6TERENDMDL