
     RDKit          3D

 44 47  0  0  0  0  0  0  0  0999 V2000
    7.0676    1.0028   -0.9387 C   0  0  0  0  0  0  0  0  0  0  0  0
    5.8829    1.7598   -1.1446 O   0  0  0  0  0  0  0  0  0  0  0  0
    4.7157    1.0616   -0.6795 C   0  0  0  0  0  0  0  0  0  0  0  0
    3.5256    2.0038   -0.8902 C   0  0  0  0  0  0  0  0  0  0  0  0
    2.2470    1.2875   -0.6158 C   0  0  0  0  0  0  0  0  0  0  0  0
    2.2077   -0.0538   -0.7358 C   0  0  0  0  0  0  0  0  0  0  0  0
    0.9502   -0.8135   -0.4500 C   0  0  0  0  0  0  0  0  0  0  0  0
   -0.1415   -0.0925   -0.0753 N   0  0  0  0  0  0  0  0  0  0  0  0
   -1.3073   -0.7288    0.2110 C   0  0  0  0  0  0  0  0  0  0  0  0
   -2.4353   -0.0098    0.6198 N   0  0  0  0  0  0  0  0  0  0  0  0
   -2.5566    1.3130    0.0345 C   0  0  0  0  0  0  0  0  0  0  0  0
   -3.8472    1.9509    0.4739 C   0  0  0  0  0  0  0  0  0  0  0  0
   -4.1761    2.0911    1.8266 C   0  0  0  0  0  0  0  0  0  0  0  0
   -5.3699    2.7071    2.1897 C   0  0  0  0  0  0  0  0  0  0  0  0
   -6.1984    3.1729    1.1832 C   0  0  0  0  0  0  0  0  0  0  0  0
   -5.9146    3.0659   -0.1326 N   0  0  0  0  0  0  0  0  0  0  0  0
   -4.7484    2.4605   -0.4553 C   0  0  0  0  0  0  0  0  0  0  0  0
   -1.3331   -2.1289    0.0910 C   0  0  0  0  0  0  0  0  0  0  0  0
   -2.3357   -3.0599    0.2791 N   0  0  0  0  0  0  0  0  0  0  0  0
   -1.7701   -4.2200    0.0137 C   0  0  0  0  0  0  0  0  0  0  0  0
   -0.4574   -4.0755   -0.3415 N   0  0  0  0  0  0  0  0  0  0  0  0
    0.4566   -5.1279   -0.6979 C   0  0  0  0  0  0  0  0  0  0  0  0
   -0.1589   -2.7430   -0.3030 C   0  0  0  0  0  0  0  0  0  0  0  0
    1.0121   -2.1575   -0.5855 N   0  0  0  0  0  0  0  0  0  0  0  0
    3.3028   -0.7679   -1.1865 N   0  0  0  0  0  0  0  0  0  0  0  0
    4.4413   -0.2519   -1.3063 N   0  0  0  0  0  0  0  0  0  0  0  0
    7.9205    1.6118   -1.2509 H   0  0  0  0  0  0  0  0  0  0  0  0
    7.0567    0.0920   -1.5444 H   0  0  0  0  0  0  0  0  0  0  0  0
    7.1888    0.7531    0.1198 H   0  0  0  0  0  0  0  0  0  0  0  0
    4.8426    0.8972    0.4001 H   0  0  0  0  0  0  0  0  0  0  0  0
    3.5135    2.4027   -1.9118 H   0  0  0  0  0  0  0  0  0  0  0  0
    3.6270    2.8673   -0.2221 H   0  0  0  0  0  0  0  0  0  0  0  0
    1.3818    1.8688   -0.3151 H   0  0  0  0  0  0  0  0  0  0  0  0
   -3.2649   -0.5959    0.5328 H   0  0  0  0  0  0  0  0  0  0  0  0
   -2.5293    1.2433   -1.0606 H   0  0  0  0  0  0  0  0  0  0  0  0
   -1.7315    1.9639    0.3505 H   0  0  0  0  0  0  0  0  0  0  0  0
   -3.5034    1.7149    2.5945 H   0  0  0  0  0  0  0  0  0  0  0  0
   -5.6458    2.8202    3.2319 H   0  0  0  0  0  0  0  0  0  0  0  0
   -7.1409    3.6604    1.4153 H   0  0  0  0  0  0  0  0  0  0  0  0
   -4.5578    2.3972   -1.5236 H   0  0  0  0  0  0  0  0  0  0  0  0
   -2.2626   -5.1833    0.0626 H   0  0  0  0  0  0  0  0  0  0  0  0
   -0.0546   -6.0922   -0.6393 H   0  0  0  0  0  0  0  0  0  0  0  0
    1.2962   -5.1117    0.0017 H   0  0  0  0  0  0  0  0  0  0  0  0
    0.8050   -4.9555   -1.7194 H   0  0  0  0  0  0  0  0  0  0  0  0
  1  2  1  0
  2  3  1  0
  3  4  1  0
  4  5  1  0
  5  6  2  0
  6  7  1  0
  7  8  2  0
  8  9  1  0
  9 10  1  0
 10 11  1  0
 11 12  1  0
 12 13  2  0
 13 14  1  0
 14 15  2  0
 15 16  1  0
 16 17  2  0
  9 18  2  0
 18 19  1  0
 19 20  2  0
 20 21  1  0
 21 22  1  0
 21 23  1  0
 23 24  2  0
  6 25  1  0
 25 26  2  0
 26  3  1  0
 24  7  1  0
 17 12  1  0
 23 18  1  0
  1 27  1  0
  1 28  1  0
  1 29  1  0
  3 30  1  0
  4 31  1  0
  4 32  1  0
  5 33  1  0
 10 34  1  0
 11 35  1  0
 11 36  1  0
 13 37  1  0
 14 38  1  0
 15 39  1  0
 17 40  1  0
 20 41  1  0
 22 42  1  0
 22 43  1  0
 22 44  1  0
M  END
$$$$
