
     RDKit          3D

 52 55  0  0  0  0  0  0  0  0999 V2000
   -0.3592    2.5016    0.7534 C   0  0  0  0  0  0  0  0  0  0  0  0
   -0.6425    1.0935    1.1939 C   0  0  0  0  0  0  0  0  0  0  0  0
   -1.9129    0.8638    1.6249 N   0  0  0  0  0  0  0  0  0  0  0  0
   -2.2500   -0.3720    2.0279 C   0  0  0  0  0  0  0  0  0  0  0  0
   -3.5746   -0.5872    2.4333 N   0  0  0  0  0  0  0  0  0  0  0  0
   -4.3871   -1.2685    1.4238 C   0  0  0  0  0  0  0  0  0  0  0  0
   -5.1990   -0.2712    0.5931 C   0  0  0  0  0  0  0  0  0  0  0  0
   -4.3935    0.4813   -0.4743 C   0  0  0  0  0  0  0  0  0  0  0  0
   -5.3525    0.7248   -1.6422 C   0  0  0  0  0  0  0  0  0  0  0  0
   -6.6813    0.0986   -1.2374 C   0  0  0  0  0  0  0  0  0  0  0  0
   -6.2970   -0.9608   -0.2186 C   0  0  0  0  0  0  0  0  0  0  0  0
   -1.3327   -1.4167    2.0223 C   0  0  0  0  0  0  0  0  0  0  0  0
   -0.0304   -1.1775    1.5893 C   0  0  0  0  0  0  0  0  0  0  0  0
    0.3450    0.0995    1.1587 C   0  0  0  0  0  0  0  0  0  0  0  0
    1.7226    0.3475    0.7122 C   0  0  0  0  0  0  0  0  0  0  0  0
    2.7337    0.5687    1.6609 C   0  0  0  0  0  0  0  0  0  0  0  0
    4.0535    0.8058    1.2640 C   0  0  0  0  0  0  0  0  0  0  0  0
    4.3929    0.8169   -0.0924 C   0  0  0  0  0  0  0  0  0  0  0  0
    5.7820    1.0917   -0.4766 C   0  0  0  0  0  0  0  0  0  0  0  0
    6.5925    0.2768   -1.1649 C   0  0  0  0  0  0  0  0  0  0  0  0
    6.2610   -1.2993   -1.7813 S   0  0  0  0  0  0  0  0  0  0  0  0
    7.8764   -1.4705   -2.4375 C   0  0  0  0  0  0  0  0  0  0  0  0
    8.2705   -2.4497   -3.0476 O   0  0  0  0  0  0  0  0  0  0  0  0
    8.6015   -0.3560   -2.1674 N   0  0  0  0  0  0  0  0  0  0  0  0
    7.9959    0.6541   -1.4820 C   0  0  0  0  0  0  0  0  0  0  0  0
    8.5306    1.7082   -1.1786 O   0  0  0  0  0  0  0  0  0  0  0  0
    3.3940    0.6082   -1.0499 C   0  0  0  0  0  0  0  0  0  0  0  0
    2.0778    0.3693   -0.6456 C   0  0  0  0  0  0  0  0  0  0  0  0
    1.1082    0.1538   -1.5883 O   0  0  0  0  0  0  0  0  0  0  0  0
   -1.2366    3.1392    0.9079 H   0  0  0  0  0  0  0  0  0  0  0  0
   -0.1127    2.5289   -0.3122 H   0  0  0  0  0  0  0  0  0  0  0  0
    0.4657    2.9283    1.3324 H   0  0  0  0  0  0  0  0  0  0  0  0
   -3.5532   -1.1164    3.3000 H   0  0  0  0  0  0  0  0  0  0  0  0
   -3.7973   -1.9363    0.7822 H   0  0  0  0  0  0  0  0  0  0  0  0
   -5.0910   -1.9149    1.9639 H   0  0  0  0  0  0  0  0  0  0  0  0
   -5.6690    0.4655    1.2607 H   0  0  0  0  0  0  0  0  0  0  0  0
   -4.0098    1.4297   -0.0835 H   0  0  0  0  0  0  0  0  0  0  0  0
   -3.5350   -0.1050   -0.8229 H   0  0  0  0  0  0  0  0  0  0  0  0
   -4.9629    0.2413   -2.5467 H   0  0  0  0  0  0  0  0  0  0  0  0
   -5.4641    1.7920   -1.8632 H   0  0  0  0  0  0  0  0  0  0  0  0
   -7.2208   -0.3202   -2.0923 H   0  0  0  0  0  0  0  0  0  0  0  0
   -7.3234    0.8556   -0.7695 H   0  0  0  0  0  0  0  0  0  0  0  0
   -7.1475   -1.2592    0.4029 H   0  0  0  0  0  0  0  0  0  0  0  0
   -5.9109   -1.8542   -0.7261 H   0  0  0  0  0  0  0  0  0  0  0  0
   -1.6206   -2.4108    2.3446 H   0  0  0  0  0  0  0  0  0  0  0  0
    0.6885   -1.9930    1.5783 H   0  0  0  0  0  0  0  0  0  0  0  0
    2.4927    0.5625    2.7228 H   0  0  0  0  0  0  0  0  0  0  0  0
    4.8105    0.9772    2.0267 H   0  0  0  0  0  0  0  0  0  0  0  0
    6.1628    2.0520   -0.1282 H   0  0  0  0  0  0  0  0  0  0  0  0
    9.5579   -0.2783   -2.4715 H   0  0  0  0  0  0  0  0  0  0  0  0
    3.6437    0.6368   -2.1065 H   0  0  0  0  0  0  0  0  0  0  0  0
    1.5079    0.1685   -2.4726 H   0  0  0  0  0  0  0  0  0  0  0  0
  1  2  1  0
  2  3  2  0
  3  4  1  0
  4  5  1  0
  5  6  1  0
  6  7  1  0
  7  8  1  0
  8  9  1  0
  9 10  1  0
 10 11  1  0
  4 12  2  0
 12 13  1  0
 13 14  2  0
 14 15  1  0
 15 16  2  0
 16 17  1  0
 17 18  2  0
 18 19  1  0
 19 20  2  3
 20 21  1  0
 21 22  1  0
 22 23  2  0
 22 24  1  0
 24 25  1  0
 25 26  2  0
 18 27  1  0
 27 28  2  0
 28 29  1  0
 14  2  1  0
 28 15  1  0
 11  7  1  0
 25 20  1  0
  1 30  1  0
  1 31  1  0
  1 32  1  0
  5 33  1  0
  6 34  1  0
  6 35  1  0
  7 36  1  0
  8 37  1  0
  8 38  1  0
  9 39  1  0
  9 40  1  0
 10 41  1  0
 10 42  1  0
 11 43  1  0
 11 44  1  0
 12 45  1  0
 13 46  1  0
 16 47  1  0
 17 48  1  0
 19 49  1  0
 24 50  1  0
 27 51  1  0
 29 52  1  0
M  END
$$$$
