
     RDKit          3D

 51 54  0  0  0  0  0  0  0  0999 V2000
    0.1685   -2.2639    1.6405 C   0  0  0  0  0  0  0  0  0  0  0  0
   -0.2927   -1.4614    0.4564 C   0  0  0  0  0  0  0  0  0  0  0  0
   -1.6268   -1.5311    0.1930 N   0  0  0  0  0  0  0  0  0  0  0  0
   -2.1163   -0.8353   -0.8477 C   0  0  0  0  0  0  0  0  0  0  0  0
   -3.4884   -0.9696   -1.0657 N   0  0  0  0  0  0  0  0  0  0  0  0
   -4.2262    0.2917   -1.0196 C   0  0  0  0  0  0  0  0  0  0  0  0
   -5.7362    0.0146   -1.1344 C   0  0  0  0  0  0  0  0  0  0  0  0
   -6.5383    1.3042   -1.3226 C   0  0  0  0  0  0  0  0  0  0  0  0
   -6.7087    1.8697    0.0830 C   0  0  0  0  0  0  0  0  0  0  0  0
   -6.6249    0.6734    1.0297 C   0  0  0  0  0  0  0  0  0  0  0  0
   -6.3493   -0.5451    0.1523 C   0  0  0  0  0  0  0  0  0  0  0  0
   -1.3061   -0.0623   -1.6635 C   0  0  0  0  0  0  0  0  0  0  0  0
    0.0573    0.0111   -1.3882 C   0  0  0  0  0  0  0  0  0  0  0  0
    0.5998   -0.6963   -0.3088 C   0  0  0  0  0  0  0  0  0  0  0  0
    2.0365   -0.6051   -0.0251 C   0  0  0  0  0  0  0  0  0  0  0  0
    2.5788    0.5575    0.5443 C   0  0  0  0  0  0  0  0  0  0  0  0
    3.9496    0.6535    0.8104 C   0  0  0  0  0  0  0  0  0  0  0  0
    4.8082   -0.4079    0.5021 C   0  0  0  0  0  0  0  0  0  0  0  0
    6.2450   -0.3342    0.7831 C   0  0  0  0  0  0  0  0  0  0  0  0
    7.1177    0.5018    0.2054 C   0  0  0  0  0  0  0  0  0  0  0  0
    6.8212    1.6909   -1.0077 S   0  0  0  0  0  0  0  0  0  0  0  0
    8.5069    2.1639   -1.0695 C   0  0  0  0  0  0  0  0  0  0  0  0
    8.9499    3.0367   -1.7959 O   0  0  0  0  0  0  0  0  0  0  0  0
    9.2249    1.4186   -0.1921 N   0  0  0  0  0  0  0  0  0  0  0  0
    8.5640    0.4873    0.5509 C   0  0  0  0  0  0  0  0  0  0  0  0
    9.0862   -0.2448    1.3755 O   0  0  0  0  0  0  0  0  0  0  0  0
    4.2782   -1.5722   -0.0574 C   0  0  0  0  0  0  0  0  0  0  0  0
    2.9114   -1.6590   -0.3186 C   0  0  0  0  0  0  0  0  0  0  0  0
    2.4408   -2.7906   -0.8645 F   0  0  0  0  0  0  0  0  0  0  0  0
    0.8204   -3.0816    1.3194 H   0  0  0  0  0  0  0  0  0  0  0  0
   -0.6861   -2.7056    2.1642 H   0  0  0  0  0  0  0  0  0  0  0  0
    0.7003   -1.6284    2.3553 H   0  0  0  0  0  0  0  0  0  0  0  0
   -3.7767   -1.6033   -0.3199 H   0  0  0  0  0  0  0  0  0  0  0  0
   -3.9972    0.8351   -0.0944 H   0  0  0  0  0  0  0  0  0  0  0  0
   -3.9255    0.9248   -1.8630 H   0  0  0  0  0  0  0  0  0  0  0  0
   -5.9142   -0.6692   -1.9732 H   0  0  0  0  0  0  0  0  0  0  0  0
   -7.5251    1.0645   -1.7385 H   0  0  0  0  0  0  0  0  0  0  0  0
   -6.0602    2.0185   -1.9999 H   0  0  0  0  0  0  0  0  0  0  0  0
   -7.6572    2.4063    0.1862 H   0  0  0  0  0  0  0  0  0  0  0  0
   -5.9048    2.5798    0.3090 H   0  0  0  0  0  0  0  0  0  0  0  0
   -7.5485    0.5453    1.6035 H   0  0  0  0  0  0  0  0  0  0  0  0
   -5.8116    0.8224    1.7491 H   0  0  0  0  0  0  0  0  0  0  0  0
   -7.3006   -1.0386   -0.0843 H   0  0  0  0  0  0  0  0  0  0  0  0
   -5.7202   -1.2806    0.6612 H   0  0  0  0  0  0  0  0  0  0  0  0
   -1.7171    0.4605   -2.5193 H   0  0  0  0  0  0  0  0  0  0  0  0
    0.6966    0.6106   -2.0321 H   0  0  0  0  0  0  0  0  0  0  0  0
    1.9317    1.3979    0.7905 H   0  0  0  0  0  0  0  0  0  0  0  0
    4.3357    1.5656    1.2615 H   0  0  0  0  0  0  0  0  0  0  0  0
    6.6005   -1.0554    1.5187 H   0  0  0  0  0  0  0  0  0  0  0  0
   10.2173    1.5551   -0.0931 H   0  0  0  0  0  0  0  0  0  0  0  0
    4.9114   -2.4196   -0.3041 H   0  0  0  0  0  0  0  0  0  0  0  0
  1  2  1  0
  2  3  2  0
  3  4  1  0
  4  5  1  0
  5  6  1  0
  6  7  1  0
  7  8  1  0
  8  9  1  0
  9 10  1  0
 10 11  1  0
  4 12  2  0
 12 13  1  0
 13 14  2  0
 14 15  1  0
 15 16  2  0
 16 17  1  0
 17 18  2  0
 18 19  1  0
 19 20  2  3
 20 21  1  0
 21 22  1  0
 22 23  2  0
 22 24  1  0
 24 25  1  0
 25 26  2  0
 18 27  1  0
 27 28  2  0
 28 29  1  0
 14  2  1  0
 28 15  1  0
 11  7  1  0
 25 20  1  0
  1 30  1  0
  1 31  1  0
  1 32  1  0
  5 33  1  0
  6 34  1  0
  6 35  1  0
  7 36  1  0
  8 37  1  0
  8 38  1  0
  9 39  1  0
  9 40  1  0
 10 41  1  0
 10 42  1  0
 11 43  1  0
 11 44  1  0
 12 45  1  0
 13 46  1  0
 16 47  1  0
 17 48  1  0
 19 49  1  0
 24 50  1  0
 27 51  1  0
M  END
$$$$
