
     RDKit          3D

 48 51  0  0  0  0  0  0  0  0999 V2000
    8.9637    2.6568   -1.3192 O   0  0  0  0  0  0  0  0  0  0  0  0
    8.4343    1.9453   -0.4823 C   0  0  0  0  0  0  0  0  0  0  0  0
    9.0304    1.4447    0.6295 N   0  0  0  0  0  0  0  0  0  0  0  0
    8.2888    0.6551    1.4561 C   0  0  0  0  0  0  0  0  0  0  0  0
    8.7012    0.1362    2.4813 O   0  0  0  0  0  0  0  0  0  0  0  0
    6.9077    0.5234    0.9203 C   0  0  0  0  0  0  0  0  0  0  0  0
    5.9784   -0.2184    1.5375 C   0  0  0  0  0  0  0  0  0  0  0  0
    4.5998   -0.4226    1.0835 C   0  0  0  0  0  0  0  0  0  0  0  0
    3.6816    0.6310    1.0421 C   0  0  0  0  0  0  0  0  0  0  0  0
    2.3659    0.4110    0.6136 C   0  0  0  0  0  0  0  0  0  0  0  0
    1.9291   -0.8673    0.2234 C   0  0  0  0  0  0  0  0  0  0  0  0
    0.5504   -1.0936   -0.2295 C   0  0  0  0  0  0  0  0  0  0  0  0
   -0.1180   -0.2431   -1.0902 C   0  0  0  0  0  0  0  0  0  0  0  0
   -1.3891   -0.4160   -1.5146 N   0  0  0  0  0  0  0  0  0  0  0  0
   -2.0324   -1.5041   -1.0754 C   0  0  0  0  0  0  0  0  0  0  0  0
   -3.3314   -1.7644   -1.4668 N   0  0  0  0  0  0  0  0  0  0  0  0
   -4.1816   -0.6306   -1.7800 C   0  0  0  0  0  0  0  0  0  0  0  0
   -4.6051    0.1607   -0.5271 C   0  0  0  0  0  0  0  0  0  0  0  0
   -5.5684   -0.6290    0.3807 C   0  0  0  0  0  0  0  0  0  0  0  0
   -7.0174   -0.2458    0.1137 C   0  0  0  0  0  0  0  0  0  0  0  0
   -7.2788    1.1372    0.3518 O   0  0  0  0  0  0  0  0  0  0  0  0
   -6.1755    2.0146    0.1265 C   0  0  0  0  0  0  0  0  0  0  0  0
   -5.2343    1.5005   -0.9512 C   0  0  0  0  0  0  0  0  0  0  0  0
   -1.4938   -2.3953   -0.2363 N   0  0  0  0  0  0  0  0  0  0  0  0
   -0.2191   -2.1743    0.1584 C   0  0  0  0  0  0  0  0  0  0  0  0
    2.8676   -1.9092    0.2906 C   0  0  0  0  0  0  0  0  0  0  0  0
    2.5185   -3.1540   -0.0699 F   0  0  0  0  0  0  0  0  0  0  0  0
    4.1808   -1.7008    0.7141 C   0  0  0  0  0  0  0  0  0  0  0  0
    6.7649    1.4167   -0.5478 S   0  0  0  0  0  0  0  0  0  0  0  0
    9.9968    1.6443    0.8284 H   0  0  0  0  0  0  0  0  0  0  0  0
    6.2393   -0.7520    2.4511 H   0  0  0  0  0  0  0  0  0  0  0  0
    3.9763    1.6342    1.3449 H   0  0  0  0  0  0  0  0  0  0  0  0
    1.6806    1.2575    0.6045 H   0  0  0  0  0  0  0  0  0  0  0  0
    0.3639    0.6417   -1.4987 H   0  0  0  0  0  0  0  0  0  0  0  0
   -3.7007   -2.4649   -0.8361 H   0  0  0  0  0  0  0  0  0  0  0  0
   -5.0764   -1.0122   -2.2869 H   0  0  0  0  0  0  0  0  0  0  0  0
   -3.6887    0.0289   -2.5058 H   0  0  0  0  0  0  0  0  0  0  0  0
   -3.7107    0.3848    0.0692 H   0  0  0  0  0  0  0  0  0  0  0  0
   -5.3333   -0.3822    1.4243 H   0  0  0  0  0  0  0  0  0  0  0  0
   -5.4383   -1.7104    0.2763 H   0  0  0  0  0  0  0  0  0  0  0  0
   -7.6860   -0.8213    0.7621 H   0  0  0  0  0  0  0  0  0  0  0  0
   -7.2965   -0.4754   -0.9211 H   0  0  0  0  0  0  0  0  0  0  0  0
   -5.6447    2.1521    1.0755 H   0  0  0  0  0  0  0  0  0  0  0  0
   -6.5842    2.9892   -0.1594 H   0  0  0  0  0  0  0  0  0  0  0  0
   -5.8019    1.3706   -1.8817 H   0  0  0  0  0  0  0  0  0  0  0  0
   -4.4454    2.2344   -1.1525 H   0  0  0  0  0  0  0  0  0  0  0  0
    0.1701   -2.9321    0.8339 H   0  0  0  0  0  0  0  0  0  0  0  0
    4.8616   -2.5473    0.7393 H   0  0  0  0  0  0  0  0  0  0  0  0
  1  2  2  0
  2  3  1  0
  3  4  1  0
  4  5  2  0
  4  6  1  0
  6  7  2  3
  7  8  1  0
  8  9  2  0
  9 10  1  0
 10 11  2  0
 11 12  1  0
 12 13  2  0
 13 14  1  0
 14 15  2  0
 15 16  1  0
 16 17  1  0
 17 18  1  0
 18 19  1  0
 19 20  1  0
 20 21  1  0
 21 22  1  0
 22 23  1  0
 15 24  1  0
 24 25  2  0
 11 26  1  0
 26 27  1  0
 26 28  2  0
  6 29  1  0
 29  2  1  0
 28  8  1  0
 25 12  1  0
 23 18  1  0
  3 30  1  0
  7 31  1  0
  9 32  1  0
 10 33  1  0
 13 34  1  0
 16 35  1  0
 17 36  1  0
 17 37  1  0
 18 38  1  0
 19 39  1  0
 19 40  1  0
 20 41  1  0
 20 42  1  0
 22 43  1  0
 22 44  1  0
 23 45  1  0
 23 46  1  0
 25 47  1  0
 28 48  1  0
M  END
$$$$
