MODEL        6USER    Run = 6USERUSER    Estimated Free Energy of Binding    = -11.95 kcal/mol  [=(1)+(2)+(3)-(4)]USERUSER    (1) Final Intermolecular Energy     = -13.74 kcal/molUSER        vdW + Hbond + desolv Energy     = -13.48 kcal/molUSER        Electrostatic Energy            =  -0.26 kcal/molUSER        Moving Ligand-Fixed Receptor    = -13.74 kcal/molUSER        Moving Ligand-Moving Receptor   =  +0.00 kcal/molUSER    (2) Final Total Internal Energy     =  -1.45 kcal/molUSER    (3) Torsional Free Energy           =  +1.79 kcal/molUSER    (4) Unbound System's Energy         =  -1.45 kcal/molUSERUSERREMARK SMILES CNC(=O)c1cc(-c2nc3ncccc3[nH]2)ccc1CN1CC[C@H](n2c(O)nc3ncccc32)[C@@H](C)C1REMARK SMILES IDX 21 1 22 2 23 3 24 4 35 5 36 6 37 7 20 8 19 9 5 10 6 11 7 12REMARK SMILES IDX 18 13 17 14 3 15 2 16 1 17 4 19 8 20 9 21 16 22 10 23 15 24REMARK SMILES IDX 11 25 14 26 12 27 13 28 25 30 26 31 34 32 28 33 33 34 29 35REMARK SMILES IDX 32 36 30 37 31 38 27 39REMARK H PARENT 2 18 16 29 27 40USER                              x       y       z     vdW  Elec       q    TypeUSER                           _______ _______ _______ _____ _____    ______ ____ROOTATOM      1  N   UNL     1      35.877  45.653  15.217 -0.16 +0.19    -0.299 NA ATOM      2  C   UNL     1      37.089  44.863  14.953 -0.37 -0.03    +0.087 C  ATOM      3  C   UNL     1      38.366  45.512  15.480 -0.37 -0.01    +0.041 C  ATOM      4  C   UNL     1      38.534  46.939  14.941 -0.43 -0.03    +0.098 C  ATOM      5  C   UNL     1      37.242  47.786  15.084 -0.52 -0.02    +0.023 C  ATOM      6  C   UNL     1      37.341  49.102  14.302 -0.42 -0.01    +0.011 C  ATOM      7  C   UNL     1      36.014  46.987  14.606 -0.37 -0.08    +0.090 C  ENDROOTBRANCH   1   8ATOM      8  C   UNL     1      35.570  45.686  16.663 -0.32 -0.08    +0.120 C  BRANCH   8   9ATOM      9  C   UNL     1      34.847  44.450  17.152 -0.29 +0.01    -0.021 A  ATOM     10  C   UNL     1      35.265  43.729  18.284 -0.30 -0.01    +0.045 A  ATOM     11  C   UNL     1      34.513  42.647  18.774 -0.38 -0.00    +0.026 A  ATOM     12  C   UNL     1      33.347  42.233  18.120 -0.38 -0.00    +0.018 A  ATOM     13  C   UNL     1      33.688  44.020  16.491 -0.32 -0.00    +0.006 A  ATOM     14  C   UNL     1      32.960  42.923  16.964 -0.33 -0.00    +0.012 A  BRANCH  10  15ATOM     15  C   UNL     1      36.490  44.066  19.043 -0.24 -0.04    +0.251 C  ATOM     16  N   UNL     1      36.338  44.117  20.412 -0.18 +0.01    -0.355 N  ATOM     17  C   UNL     1      37.470  44.338  21.272 -0.34 +0.00    +0.143 C  ATOM     18  H   UNL     1      35.521  43.647  20.803 +0.10 +0.01    +0.163 HD ATOM     19  O   UNL     1      37.529  44.315  18.441 -0.23 +0.04    -0.269 OA ENDBRANCH  10  15BRANCH  12  20ATOM     20  C   UNL     1      32.527  41.111  18.591 -0.30 -0.01    +0.140 A  ATOM     21  N   UNL     1      32.466  40.673  19.837 -0.54 -0.06    -0.209 NA ATOM     22  N   UNL     1      31.716  40.344  17.782 -0.19 +0.06    -0.337 N  ATOM     23  C   UNL     1      31.601  39.617  19.825 -0.26 +0.04    +0.178 A  ATOM     24  C   UNL     1      31.107  39.390  18.549 -0.35 +0.01    +0.085 A  ATOM     25  N   UNL     1      31.249  38.876  20.898 -0.56 -0.04    -0.235 NA ATOM     26  C   UNL     1      30.194  38.374  18.275 -0.37 +0.01    +0.032 A  ATOM     27  C   UNL     1      30.359  37.895  20.628 -0.33 +0.01    +0.114 A  ATOM     28  C   UNL     1      29.817  37.611  19.378 -0.35 +0.01    +0.022 A  ATOM     29  H   UNL     1      31.598  40.456  16.786 -0.26 -0.08    +0.168 HD ENDBRANCH  12  20ENDBRANCH   8   9ENDBRANCH   1   8BRANCH   4  30ATOM     30  N   UNL     1      39.717  47.560  15.532 -0.27 +0.08    -0.289 N  ATOM     31  C   UNL     1      40.434  48.609  15.025 -0.33 -0.07    +0.296 A  ATOM     32  C   UNL     1      40.270  47.263  16.758 -0.44 -0.02    +0.091 A  ATOM     33  N   UNL     1      41.426  48.978  15.784 -0.92 +0.01    -0.175 NA ATOM     34  C   UNL     1      39.979  46.352  17.774 -0.45 -0.00    +0.032 A  ATOM     35  C   UNL     1      41.331  48.162  16.874 -0.30 -0.01    +0.181 A  ATOM     36  C   UNL     1      40.810  46.413  18.890 -0.44 -0.00    +0.022 A  ATOM     37  N   UNL     1      42.147  48.217  17.949 -0.51 -0.00    -0.235 NA ATOM     38  C   UNL     1      41.847  47.339  18.924 -0.36 +0.00    +0.114 A  BRANCH  31  39ATOM     39  O   UNL     1      40.166  49.236  13.897 -0.11 +0.18    -0.480 OA ATOM     40  H   UNL     1      39.569  49.940  14.214 +0.02 -0.29    +0.296 HD ENDBRANCH  31  39ENDBRANCH   4  30TORSDOF 6TERENDMDL