REMARK SMILES CN1CCN(CC2CCN(c3nc(-c4ccc(F)cc4)cc4[nH]ncc34)CC2)CC1
REMARK SMILES IDX 7 1 8 2 9 3 10 4 27 5 28 6 6 7 5 8 2 9 3 10 30 11 4 12 29 13
REMARK SMILES IDX 1 14 11 15 12 16 26 17 13 18 25 19 22 20 21 21 24 22 23 23
REMARK SMILES IDX 14 25 15 26 20 27 16 28 19 29 17 30 18 31
REMARK H PARENT 23 24
ROOT
ATOM      1  C   UNL     1      -1.475   0.681   0.221  1.00  0.00     0.006 C 
ATOM      2  C   UNL     1      -1.003  -0.525  -0.600  1.00  0.00     0.026 C 
ATOM      3  C   UNL     1       0.181  -1.226   0.076  1.00  0.00     0.118 C 
ATOM      4  N   UNL     1       1.101  -0.268   0.713  1.00  0.00    -0.356 N 
ATOM      5  C   UNL     1       1.065   1.088   0.165  1.00  0.00     0.118 C 
ATOM      6  C   UNL     1      -0.323   1.694   0.396  1.00  0.00     0.026 C 
ENDROOT
BRANCH   1   7
ATOM      7  C   UNL     1      -2.705   1.375  -0.400  1.00  0.00     0.088 C 
BRANCH   7   8
ATOM      8  N   UNL     1      -3.865   0.485  -0.548  1.00  0.00    -0.301 NA
ATOM      9  N   UNL     1      -6.875   0.736  -0.118  1.00  0.00    -0.304 NA
ATOM     10  C   UNL     1      -5.882   0.909   0.960  1.00  0.00     0.099 C 
ATOM     11  C   UNL     1      -6.223   0.409  -1.403  1.00  0.00     0.099 C 
ATOM     12  C   UNL     1      -4.537   0.180   0.734  1.00  0.00     0.100 C 
ATOM     13  C   UNL     1      -4.822   1.043  -1.529  1.00  0.00     0.100 C 
ATOM     14  C   UNL     1      -7.876  -0.272   0.218  1.00  0.00     0.105 C 
ENDBRANCH   7   8
ENDBRANCH   1   7
BRANCH   4  15
ATOM     15  C   UNL     1       2.403  -0.790   0.820  1.00  0.00     0.140 A 
ATOM     16  N   UNL     1       3.428  -0.212   0.125  1.00  0.00    -0.230 NA
ATOM     17  C   UNL     1       2.721  -1.896   1.638  1.00  0.00     0.062 A 
ATOM     18  C   UNL     1       4.702  -0.679   0.191  1.00  0.00     0.075 A 
ATOM     19  C   UNL     1       2.022  -2.739   2.533  1.00  0.00     0.147 A 
ATOM     20  C   UNL     1       4.027  -2.366   1.687  1.00  0.00     0.071 A 
ATOM     21  C   UNL     1       5.062  -1.782   0.963  1.00  0.00     0.057 A 
ATOM     22  N   UNL     1       2.796  -3.685   3.075  1.00  0.00    -0.183 NA
ATOM     23  N   UNL     1       4.004  -3.433   2.545  1.00  0.00    -0.278 N 
ATOM     24  H   UNL     1       4.779  -4.027   2.818  1.00  0.00     0.190 HD
BRANCH  18  25
ATOM     25  C   UNL     1       5.682   0.061  -0.635  1.00  0.00     0.000 A 
ATOM     26  C   UNL     1       5.295   0.627  -1.867  1.00  0.00     0.013 A 
ATOM     27  C   UNL     1       7.021   0.238  -0.230  1.00  0.00     0.013 A 
ATOM     28  C   UNL     1       6.204   1.326  -2.666  1.00  0.00     0.040 A 
ATOM     29  C   UNL     1       7.932   0.938  -1.028  1.00  0.00     0.040 A 
ATOM     30  C   UNL     1       7.516   1.472  -2.239  1.00  0.00     0.123 A 
ATOM     31  F   UNL     1       8.390   2.141  -3.001  1.00  0.00    -0.207 F 
ENDBRANCH  18  25
ENDBRANCH   4  15
TORSDOF 4
