MODEL        3USER    Run = 3USERUSER    Estimated Free Energy of Binding    = -10.10 kcal/mol  [=(1)+(2)+(3)-(4)]USERUSER    (1) Final Intermolecular Energy     = -11.29 kcal/molUSER        vdW + Hbond + desolv Energy     = -11.26 kcal/molUSER        Electrostatic Energy            =  -0.03 kcal/molUSER        Moving Ligand-Fixed Receptor    = -11.29 kcal/molUSER        Moving Ligand-Moving Receptor   =  +0.00 kcal/molUSER    (2) Final Total Internal Energy     =  -0.70 kcal/molUSER    (3) Torsional Free Energy           =  +1.19 kcal/molUSER    (4) Unbound System's Energy         =  -0.70 kcal/molUSERUSERREMARK SMILES CN1CCN(CC2CCN(c3nc(-c4ccc(F)cc4)cc4[nH]ncc34)CC2)CC1REMARK SMILES IDX 7 1 8 2 9 3 10 4 27 5 28 6 6 7 5 8 2 9 3 10 30 11 4 12 29 13REMARK SMILES IDX 1 14 11 15 12 16 26 17 13 18 25 19 22 20 21 21 24 22 23 23REMARK SMILES IDX 14 25 15 26 20 27 16 28 19 29 17 30 18 31REMARK H PARENT 23 24USER                              x       y       z     vdW  Elec       q    TypeUSER                           _______ _______ _______ _____ _____    ______ ____ROOTATOM      1  C   UNL     1      37.522  43.740  22.036 -0.43 +0.00    +0.006 C  ATOM      2  C   UNL     1      38.998  43.472  21.719 -0.22 +0.00    +0.026 C  ATOM      3  C   UNL     1      39.621  44.645  20.953 -0.31 +0.00    +0.118 C  ATOM      4  N   UNL     1      38.678  45.240  19.990 -0.15 +0.01    -0.356 N  ATOM      5  C   UNL     1      37.606  44.353  19.539 -0.34 -0.01    +0.118 C  ATOM      6  C   UNL     1      36.726  43.970  20.733 -0.45 -0.00    +0.026 C  ENDROOTBRANCH   1   7ATOM      7  C   UNL     1      36.878  42.605  22.860 -0.43 +0.01    +0.088 C  BRANCH   7   8ATOM      8  N   UNL     1      37.256  42.627  24.280 -0.20 -0.01    -0.301 NA ATOM      9  N   UNL     1      36.106  43.861  26.822 -0.21 +0.05    -0.304 NA ATOM     10  C   UNL     1      36.548  44.656  25.660 -0.29 -0.00    +0.099 C  ATOM     11  C   UNL     1      36.314  42.415  26.596 -0.45 -0.02    +0.099 C  ATOM     12  C   UNL     1      37.614  43.976  24.770 -0.30 +0.00    +0.100 C  ATOM     13  C   UNL     1      36.185  42.029  25.108 -0.34 -0.01    +0.100 C  ATOM     14  C   UNL     1      36.761  44.284  28.056 -0.40 -0.02    +0.105 C  ENDBRANCH   7   8ENDBRANCH   1   7BRANCH   4  15ATOM     15  C   UNL     1      39.351  45.882  18.933 -0.31 -0.01    +0.140 A  ATOM     16  N   UNL     1      38.701  46.113  17.753 -0.26 +0.05    -0.230 NA ATOM     17  C   UNL     1      40.688  46.324  19.032 -0.40 -0.00    +0.062 A  ATOM     18  C   UNL     1      39.305  46.725  16.702 -0.40 -0.02    +0.075 A  ATOM     19  C   UNL     1      41.687  46.342  20.032 -0.30 +0.02    +0.147 A  ATOM     20  C   UNL     1      41.293  46.940  17.944 -0.46 -0.01    +0.071 A  ATOM     21  C   UNL     1      40.630  47.158  16.740 -0.46 -0.01    +0.057 A  ATOM     22  N   UNL     1      42.837  46.881  19.615 -0.37 -0.05    -0.183 NA ATOM     23  N   UNL     1      42.568  47.235  18.348 -0.32 -0.00    -0.278 N  ATOM     24  H   UNL     1      43.301  47.685  17.811 -0.40 -0.02    +0.190 HD BRANCH  18  25ATOM     25  C   UNL     1      38.456  46.885  15.500 -0.43 -0.00    +0.000 A  ATOM     26  C   UNL     1      38.092  48.169  15.048 -0.52 -0.01    +0.013 A  ATOM     27  C   UNL     1      37.989  45.778  14.761 -0.39 -0.00    +0.013 A  ATOM     28  C   UNL     1      37.288  48.344  13.918 -0.53 -0.02    +0.040 A  ATOM     29  C   UNL     1      37.185  45.951  13.630 -0.44 -0.02    +0.040 A  ATOM     30  C   UNL     1      36.839  47.231  13.221 -0.49 -0.05    +0.123 A  ATOM     31  F   UNL     1      36.069  47.394  12.139 -0.24 +0.11    -0.207 F  ENDBRANCH  18  25ENDBRANCH   4  15TORSDOF 4TERENDMDL