REMARK SMILES CNC(=O)c1cc(-c2nc3ncccc3[nH]2)ccc1CN1CC[C@H](n2c(O)nc3ncccc32)[C@@H](C)C1
REMARK SMILES IDX 21 1 22 2 23 3 24 4 35 5 36 6 37 7 20 8 19 9 5 10 6 11 7 12
REMARK SMILES IDX 18 13 17 14 3 15 2 16 1 17 4 19 8 20 9 21 16 22 10 23 15 24
REMARK SMILES IDX 11 25 14 26 12 27 13 28 25 30 26 31 34 32 28 33 33 34 29 35
REMARK SMILES IDX 32 36 30 37 31 38 27 39
REMARK H PARENT 2 18 16 29 27 40
ROOT
ATOM      1  N   UNL     1      -0.856  -0.214   1.377  1.00  0.00    -0.299 NA
ATOM      2  C   UNL     1      -2.077  -0.769   1.981  1.00  0.00     0.087 C 
ATOM      3  C   UNL     1      -3.276  -0.774   1.037  1.00  0.00     0.041 C 
ATOM      4  C   UNL     1      -3.551   0.627   0.472  1.00  0.00     0.098 C 
ATOM      5  C   UNL     1      -2.270   1.312  -0.072  1.00  0.00     0.023 C 
ATOM      6  C   UNL     1      -2.511   2.796  -0.377  1.00  0.00     0.011 C 
ATOM      7  C   UNL     1      -1.109   1.167   0.930  1.00  0.00     0.090 C 
ENDROOT
BRANCH   1   8
ATOM      8  C   UNL     1      -0.341  -1.102   0.312  1.00  0.00     0.120 C 
BRANCH   8   9
ATOM      9  C   UNL     1       1.104  -0.833  -0.047  1.00  0.00    -0.021 A 
ATOM     10  C   UNL     1       2.177  -1.365   0.689  1.00  0.00     0.045 A 
ATOM     11  C   UNL     1       3.506  -1.183   0.270  1.00  0.00     0.026 A 
ATOM     12  C   UNL     1       3.798  -0.430  -0.873  1.00  0.00     0.018 A 
ATOM     13  C   UNL     1       1.404  -0.065  -1.181  1.00  0.00     0.006 A 
ATOM     14  C   UNL     1       2.730   0.139  -1.577  1.00  0.00     0.012 A 
BRANCH  10  15
ATOM     15  C   UNL     1       1.987  -2.161   1.922  1.00  0.00     0.251 C 
ATOM     16  N   UNL     1       1.321  -1.515   2.942  1.00  0.00    -0.355 N 
ATOM     17  C   UNL     1       0.986  -2.207   4.158  1.00  0.00     0.143 C 
ATOM     18  H   UNL     1       0.770  -0.696   2.686  1.00  0.00     0.163 HD
ATOM     19  O   UNL     1       2.448  -3.295   1.991  1.00  0.00    -0.269 OA
ENDBRANCH  10  15
BRANCH  12  20
ATOM     20  C   UNL     1       5.168  -0.212  -1.353  1.00  0.00     0.140 A 
ATOM     21  N   UNL     1       5.523   0.627  -2.311  1.00  0.00    -0.209 NA
ATOM     22  N   UNL     1       6.276  -0.878  -0.875  1.00  0.00    -0.337 N 
ATOM     23  C   UNL     1       6.876   0.501  -2.442  1.00  0.00     0.178 A 
ATOM     24  C   UNL     1       7.380  -0.432  -1.549  1.00  0.00     0.085 A 
ATOM     25  N   UNL     1       7.649   1.185  -3.314  1.00  0.00    -0.235 NA
ATOM     26  C   UNL     1       8.738  -0.733  -1.475  1.00  0.00     0.032 A 
ATOM     27  C   UNL     1       8.966   0.893  -3.235  1.00  0.00     0.114 A 
ATOM     28  C   UNL     1       9.545  -0.025  -2.363  1.00  0.00     0.022 A 
ATOM     29  H   UNL     1       6.277  -1.586  -0.157  1.00  0.00     0.168 HD
ENDBRANCH  12  20
ENDBRANCH   8   9
ENDBRANCH   1   8
BRANCH   4  30
ATOM     30  N   UNL     1      -4.647   0.569  -0.492  1.00  0.00    -0.289 N 
ATOM     31  C   UNL     1      -4.604   0.038  -1.753  1.00  0.00     0.296 A 
ATOM     32  C   UNL     1      -5.951   0.952  -0.273  1.00  0.00     0.091 A 
ATOM     33  N   UNL     1      -5.744   0.093  -2.381  1.00  0.00    -0.175 NA
ATOM     34  C   UNL     1      -6.646   1.505   0.804  1.00  0.00     0.032 A 
ATOM     35  C   UNL     1      -6.598   0.645  -1.471  1.00  0.00     0.181 A 
ATOM     36  C   UNL     1      -8.007   1.716   0.594  1.00  0.00     0.022 A 
ATOM     37  N   UNL     1      -7.914   0.859  -1.683  1.00  0.00    -0.235 NA
ATOM     38  C   UNL     1      -8.572   1.383  -0.632  1.00  0.00     0.114 A 
BRANCH  31  39
ATOM     39  O   UNL     1      -3.543  -0.513  -2.308  1.00  0.00    -0.480 OA
ATOM     40  H   UNL     1      -3.909  -0.791  -3.170  1.00  0.00     0.296 HD
ENDBRANCH  31  39
ENDBRANCH   4  30
TORSDOF 6
