REMARK SMILES CO[C@@H]1CN(c2nc(-c3ccc(F)cc3)cc3[nH]ncc23)CC[C@@H]1C[C@@H]1OC=NC1=O
REMARK SMILES IDX 3 1 4 2 5 3 22 4 23 5 24 6 2 7 1 8 25 9 26 10 27 11 30 12
REMARK SMILES IDX 28 13 29 14 31 15 6 16 7 17 21 18 8 19 20 20 17 21 16 22
REMARK SMILES IDX 19 23 18 24 9 26 10 27 15 28 11 29 14 30 12 31 13 32
REMARK H PARENT 18 25
ROOT
ATOM      1  C   UNL     1       2.285  -0.911   0.440  1.00  0.00     0.140 C 
ATOM      2  C   UNL     1       1.112  -1.662   1.129  1.00  0.00     0.150 C 
ATOM      3  N   UNL     1      -0.065  -1.825   0.256  1.00  0.00    -0.353 N 
ATOM      4  C   UNL     1       0.179  -1.716  -1.181  1.00  0.00     0.118 C 
ATOM      5  C   UNL     1       0.828  -0.383  -1.561  1.00  0.00     0.028 C 
ATOM      6  C   UNL     1       1.726   0.214  -0.453  1.00  0.00     0.026 C 
ENDROOT
BRANCH   1   7
ATOM      7  O   UNL     1       3.089  -1.762  -0.392  1.00  0.00    -0.379 OA
ATOM      8  C   UNL     1       3.958  -2.622   0.335  1.00  0.00     0.195 C 
ENDBRANCH   1   7
BRANCH   6   9
ATOM      9  C   UNL     1       2.800   1.113  -1.104  1.00  0.00     0.062 C 
BRANCH   9  10
ATOM     10  C   UNL     1       3.546   2.016  -0.124  1.00  0.00     0.266 C 
ATOM     11  O   UNL     1       3.902   3.235  -0.808  1.00  0.00    -0.470 OA
ATOM     12  C   UNL     1       4.922   1.513   0.278  1.00  0.00     0.289 C 
ATOM     13  C   UNL     1       5.247   3.274  -0.825  1.00  0.00     0.305 C 
ATOM     14  N   UNL     1       5.886   2.337  -0.237  1.00  0.00    -0.182 NA
ATOM     15  O   UNL     1       5.136   0.537   0.981  1.00  0.00    -0.268 OA
ENDBRANCH   9  10
ENDBRANCH   6   9
BRANCH   3  16
ATOM     16  C   UNL     1      -1.256  -1.273   0.727  1.00  0.00     0.140 A 
ATOM     17  N   UNL     1      -1.938  -0.371  -0.040  1.00  0.00    -0.230 NA
ATOM     18  C   UNL     1      -1.829  -1.620   1.971  1.00  0.00     0.062 A 
ATOM     19  C   UNL     1      -3.107   0.190   0.367  1.00  0.00     0.075 A 
ATOM     20  C   UNL     1      -1.517  -2.510   3.026  1.00  0.00     0.147 A 
ATOM     21  C   UNL     1      -3.019  -1.028   2.377  1.00  0.00     0.071 A 
ATOM     22  C   UNL     1      -3.698  -0.100   1.594  1.00  0.00     0.057 A 
ATOM     23  N   UNL     1      -2.395  -2.460   4.032  1.00  0.00    -0.183 NA
ATOM     24  N   UNL     1      -3.296  -1.559   3.608  1.00  0.00    -0.278 N 
ATOM     25  H   UNL     1      -4.088  -1.355   4.208  1.00  0.00     0.190 HD
BRANCH  19  26
ATOM     26  C   UNL     1      -3.705   1.153  -0.584  1.00  0.00     0.000 A 
ATOM     27  C   UNL     1      -2.884   2.000  -1.355  1.00  0.00     0.013 A 
ATOM     28  C   UNL     1      -5.099   1.257  -0.762  1.00  0.00     0.013 A 
ATOM     29  C   UNL     1      -3.428   2.920  -2.256  1.00  0.00     0.040 A 
ATOM     30  C   UNL     1      -5.646   2.177  -1.663  1.00  0.00     0.040 A 
ATOM     31  C   UNL     1      -4.805   3.000  -2.399  1.00  0.00     0.123 A 
ATOM     32  F   UNL     1      -5.331   3.880  -3.261  1.00  0.00    -0.207 F 
ENDBRANCH  19  26
ENDBRANCH   3  16
TORSDOF 5
