MODEL        5USER    Run = 5USERUSER    Estimated Free Energy of Binding    =  -9.78 kcal/mol  [=(1)+(2)+(3)-(4)]USERUSER    (1) Final Intermolecular Energy     = -11.27 kcal/molUSER        vdW + Hbond + desolv Energy     = -11.18 kcal/molUSER        Electrostatic Energy            =  -0.09 kcal/molUSER        Moving Ligand-Fixed Receptor    = -11.27 kcal/molUSER        Moving Ligand-Moving Receptor   =  +0.00 kcal/molUSER    (2) Final Total Internal Energy     =  -1.74 kcal/molUSER    (3) Torsional Free Energy           =  +1.49 kcal/molUSER    (4) Unbound System's Energy         =  -1.74 kcal/molUSERUSERREMARK SMILES CO[C@@H]1CN(c2nc(-c3ccc(F)cc3)cc3[nH]ncc23)CC[C@@H]1C[C@@H]1OC=NC1=OREMARK SMILES IDX 3 1 4 2 5 3 22 4 23 5 24 6 2 7 1 8 25 9 26 10 27 11 30 12REMARK SMILES IDX 28 13 29 14 31 15 6 16 7 17 21 18 8 19 20 20 17 21 16 22REMARK SMILES IDX 19 23 18 24 9 26 10 27 15 28 11 29 14 30 12 31 13 32REMARK H PARENT 18 25USER                              x       y       z     vdW  Elec       q    TypeUSER                           _______ _______ _______ _____ _____    ______ ____ROOTATOM      1  C   UNL     1      38.034  46.566  13.468 -0.39 -0.04    +0.140 C  ATOM      2  C   UNL     1      37.194  45.434  14.123 -0.37 -0.06    +0.150 C  ATOM      3  N   UNL     1      36.426  45.886  15.297 -0.12 +0.21    -0.353 N  ATOM      4  C   UNL     1      36.177  47.324  15.389 -0.20 -0.13    +0.118 C  ATOM      5  C   UNL     1      37.471  48.140  15.368 -0.53 -0.02    +0.028 C  ATOM      6  C   UNL     1      38.615  47.480  14.565 -0.54 -0.01    +0.026 C  ENDROOTBRANCH   1   7ATOM      7  O   UNL     1      37.268  47.394  12.579 -0.86 +0.10    -0.379 OA ATOM      8  C   UNL     1      36.173  46.723  11.968 -0.59 -0.10    +0.195 C  ENDBRANCH   1   7BRANCH   6   9ATOM      9  C   UNL     1      39.569  48.579  14.048 -0.26 -0.02    +0.062 C  BRANCH   9  10ATOM     10  C   UNL     1      40.973  48.530  14.647 -0.37 -0.04    +0.266 C  ATOM     11  O   UNL     1      40.900  47.867  15.925 -0.21 +0.06    -0.470 OA ATOM     12  C   UNL     1      41.530  49.879  15.067 -0.47 -0.05    +0.289 C  ATOM     13  C   UNL     1      41.270  48.781  16.841 -0.19 -0.01    +0.305 C  ATOM     14  N   UNL     1      41.633  49.934  16.430 -0.97 -0.01    -0.182 NA ATOM     15  O   UNL     1      41.864  50.771  14.301 -0.52 +0.07    -0.268 OA ENDBRANCH   9  10ENDBRANCH   6   9BRANCH   3  16ATOM     16  C   UNL     1      36.695  45.225  16.495 -0.25 -0.06    +0.140 A  ATOM     17  N   UNL     1      37.826  45.527  17.200 -0.22 +0.07    -0.230 NA ATOM     18  C   UNL     1      35.832  44.255  17.053 -0.28 -0.02    +0.062 A  ATOM     19  C   UNL     1      38.131  44.920  18.376 -0.33 -0.01    +0.075 A  ATOM     20  C   UNL     1      34.579  43.689  16.716 -0.24 -0.06    +0.147 A  ATOM     21  C   UNL     1      36.165  43.635  18.251 -0.27 -0.02    +0.071 A  ATOM     22  C   UNL     1      37.327  43.941  18.953 -0.24 -0.01    +0.057 A  ATOM     23  N   UNL     1      34.171  42.763  17.588 -0.24 +0.06    -0.183 NA ATOM     24  N   UNL     1      35.148  42.757  18.509 -0.19 +0.06    -0.278 N  ATOM     25  H   UNL     1      35.056  42.129  19.301 +0.12 -0.02    +0.190 HD BRANCH  19  26ATOM     26  C   UNL     1      39.399  45.361  18.999 -0.42 -0.00    +0.000 A  ATOM     27  C   UNL     1      40.474  45.799  18.200 -0.47 -0.00    +0.013 A  ATOM     28  C   UNL     1      39.579  45.369  20.397 -0.36 +0.00    +0.013 A  ATOM     29  C   UNL     1      41.681  46.216  18.768 -0.47 +0.00    +0.040 A  ATOM     30  C   UNL     1      40.787  45.786  20.967 -0.30 +0.00    +0.040 A  ATOM     31  C   UNL     1      41.826  46.203  20.147 -0.32 +0.02    +0.123 A  ATOM     32  F   UNL     1      42.981  46.601  20.695 -0.11 -0.07    -0.207 F  ENDBRANCH  19  26ENDBRANCH   3  16TORSDOF 5TERENDMDL