MODEL        1USER    Run = 1USERUSER    Estimated Free Energy of Binding    = -10.69 kcal/mol  [=(1)+(2)+(3)-(4)]USERUSER    (1) Final Intermolecular Energy     = -12.48 kcal/molUSER        vdW + Hbond + desolv Energy     = -12.29 kcal/molUSER        Electrostatic Energy            =  -0.19 kcal/molUSER        Moving Ligand-Fixed Receptor    = -12.48 kcal/molUSER        Moving Ligand-Moving Receptor   =  +0.00 kcal/molUSER    (2) Final Total Internal Energy     =  -0.84 kcal/molUSER    (3) Torsional Free Energy           =  +1.79 kcal/molUSER    (4) Unbound System's Energy         =  -0.84 kcal/molUSERUSERREMARK SMILES Cn1ccc2ccc3c4[nH]c5c(CCCN[C@H]6CC[C@H](O)CC6)cccc5c4c4c(c3c21)C(=O)NC4=OREMARK SMILES IDX 15 1 14 2 13 3 12 4 2 5 3 6 32 7 4 8 31 9 5 10 30 11 8 12REMARK SMILES IDX 6 13 29 14 33 15 7 16 9 17 28 18 36 19 35 20 10 21 27 22REMARK SMILES IDX 11 23 26 24 25 25 24 26 1 27 34 28 37 29 16 32 17 34 23 35REMARK SMILES IDX 18 36 22 37 19 38 20 39 21 40REMARK H PARENT 35 30 10 31 16 33 21 41USER                              x       y       z     vdW  Elec       q    TypeUSER                           _______ _______ _______ _____ _____    ______ ____ROOTATOM      1  C   UNL     1      10.225 -13.424 -12.083 -0.35 -0.01    +0.081 C  ENDROOTBRANCH   1   2ATOM      2  C   UNL     1      10.961 -12.310 -12.834 -0.41 -0.01    +0.020 C  BRANCH   2   3ATOM      3  C   UNL     1      12.316 -11.959 -12.210 -0.30 -0.02    +0.039 C  BRANCH   3   4ATOM      4  C   UNL     1      13.262 -13.129 -12.093 -0.29 +0.01    -0.024 A  ATOM      5  N   UNL     1      18.627 -12.823  -5.285 -0.19 -0.04    -0.350 N  ATOM      6  C   UNL     1      18.592 -12.071  -4.134 -0.42 +0.02    +0.086 A  ATOM      7  C   UNL     1      17.454 -12.657  -6.012 -0.40 -0.00    +0.057 A  ATOM      8  C   UNL     1      17.503 -11.246  -4.207 -0.54 +0.00    +0.028 A  ATOM      9  C   UNL     1      16.894 -13.300  -7.179 -0.38 -0.00    +0.022 A  ATOM     10  C   UNL     1      16.825 -11.548  -5.416 -0.52 -0.00    +0.000 A  ATOM     11  C   UNL     1      17.250 -14.529  -7.758 -0.35 -0.01    +0.063 A  ATOM     12  C   UNL     1      15.827 -12.595  -7.819 -0.40 -0.00    +0.009 A  ATOM     13  C   UNL     1      15.711 -10.956  -6.034 -0.56 -0.00    +0.011 A  ATOM     14  C   UNL     1      16.714 -14.974  -8.973 -0.33 -0.01    +0.063 A  ATOM     15  C   UNL     1      18.053 -15.656  -7.253 -0.31 +0.02    +0.259 C  ATOM     16  C   UNL     1      15.253 -11.447  -7.253 -0.41 -0.01    +0.012 A  ATOM     17  C   UNL     1      15.306 -13.075  -9.061 -0.34 -0.02    +0.055 A  ATOM     18  C   UNL     1      15.747 -14.253  -9.677 -0.34 -0.01    +0.022 A  ATOM     19  C   UNL     1      17.289 -16.286  -9.266 -0.25 -0.01    +0.259 C  ATOM     20  N   UNL     1      18.161 -16.556  -8.263 -0.22 -0.02    -0.288 N  ATOM     21  N   UNL     1      14.332 -12.555  -9.885 -0.15 +0.21    -0.354 N  ATOM     22  C   UNL     1      15.020 -14.403 -10.906 -0.31 -0.00    +0.008 A  ATOM     23  C   UNL     1      14.143 -13.322 -11.009 -0.27 -0.02    +0.050 A  ATOM     24  C   UNL     1      15.020 -15.353 -11.948 -0.32 -0.00    +0.011 A  ATOM     25  C   UNL     1      14.159 -15.194 -13.038 -0.32 -0.00    +0.001 A  ATOM     26  C   UNL     1      13.298 -14.104 -13.105 -0.31 -0.00    +0.006 A  ATOM     27  C   UNL     1      19.861 -13.445  -5.718 -0.46 +0.03    +0.149 C  ATOM     28  O   UNL     1      18.453 -15.827  -6.120 -0.33 -0.05    -0.269 OA ATOM     29  O   UNL     1      17.010 -17.032 -10.181 -0.19 +0.01    -0.269 OA ATOM     30  H   UNL     1      18.544 -17.478  -8.126 +0.11 +0.02    +0.173 HD ATOM     31  H   UNL     1      13.829 -11.700  -9.706 +0.10 -0.11    +0.167 HD ENDBRANCH   3   4ENDBRANCH   2   3ENDBRANCH   1   2BRANCH   1  32ATOM     32  N   UNL     1       9.979 -14.540 -12.998 -0.45 -0.01    -0.314 NA ATOM     33  H   UNL     1      10.552 -15.341 -12.734 +0.08 +0.01    +0.122 HD BRANCH  32  34ATOM     34  C   UNL     1      10.225 -14.189 -14.404 -0.26 -0.02    +0.053 C  ATOM     35  C   UNL     1      10.915 -15.319 -15.197 -0.24 -0.00    +0.021 C  ATOM     36  C   UNL     1       8.864 -13.801 -15.016 -0.29 -0.01    +0.021 C  ATOM     37  C   UNL     1       9.914 -16.211 -15.930 -0.25 -0.00    +0.033 C  ATOM     38  C   UNL     1       8.879 -13.948 -16.532 -0.25 -0.02    +0.033 C  ATOM     39  C   UNL     1       9.093 -15.407 -16.946 -0.24 -0.01    +0.114 C  BRANCH  39  40ATOM     40  O   UNL     1       9.756 -15.407 -18.209 -0.20 -0.02    -0.393 OA ATOM     41  H   UNL     1       9.383 -14.680 -18.737 -0.44 -0.06    +0.210 HD ENDBRANCH  39  40ENDBRANCH  32  34ENDBRANCH   1  32TORSDOF 6TERENDMDL