MODEL        1USER    Run = 1USERUSER    Estimated Free Energy of Binding    = -12.25 kcal/mol  [=(1)+(2)+(3)-(4)]USERUSER    (1) Final Intermolecular Energy     = -14.64 kcal/molUSER        vdW + Hbond + desolv Energy     = -14.42 kcal/molUSER        Electrostatic Energy            =  -0.21 kcal/molUSER        Moving Ligand-Fixed Receptor    = -14.64 kcal/molUSER        Moving Ligand-Moving Receptor   =  +0.00 kcal/molUSER    (2) Final Total Internal Energy     =  -1.94 kcal/molUSER    (3) Torsional Free Energy           =  +2.39 kcal/molUSER    (4) Unbound System's Energy         =  -1.94 kcal/molUSERUSERREMARK SMILES N#Cc1cnc(-c2ccc(CNCc3ccc(-c4csnn4)cc3)cc2)c(-c2ccccc2)c1REMARK SMILES IDX 11 1 10 2 7 3 8 4 26 5 9 6 25 7 6 8 3 9 4 10 34 11 5 12REMARK SMILES IDX 27 13 2 14 1 15 28 16 29 17 33 18 30 19 32 20 31 21 12 22REMARK SMILES IDX 13 24 14 25 15 26 24 27 16 28 23 29 17 30 18 31 19 32 22 33REMARK SMILES IDX 20 34 21 35REMARK H PARENT 12 23USER                              x       y       z     vdW  Elec       q    TypeUSER                           _______ _______ _______ _____ _____    ______ ____ROOTATOM      1  C   UNL     1      14.756 -14.162 -13.041 -0.25 -0.05    +0.117 C  ENDROOTBRANCH   1   2ATOM      2  C   UNL     1      15.410 -14.231 -11.681 -0.35 +0.01    -0.034 A  ATOM      3  C   UNL     1      16.630 -14.320  -9.118 -0.36 -0.00    +0.001 A  ATOM      4  C   UNL     1      17.343 -14.671 -10.278 -0.37 -0.00    +0.011 A  ATOM      5  C   UNL     1      15.286 -13.940  -9.269 -0.35 -0.00    +0.011 A  ATOM      6  C   UNL     1      16.746 -14.622 -11.543 -0.46 -0.00    +0.006 A  ATOM      7  C   UNL     1      14.687 -13.887 -10.532 -0.33 -0.00    +0.006 A  BRANCH   3   8ATOM      8  C   UNL     1      17.284 -14.379  -7.795 -0.34 -0.01    +0.078 A  ATOM      9  C   UNL     1      18.549 -14.783  -5.368 -0.42 +0.02    +0.071 A  ATOM     10  C   UNL     1      18.487 -15.757  -6.345 -0.35 +0.02    +0.131 A  ATOM     11  C   UNL     1      17.956 -13.551  -5.638 -0.44 +0.00    +0.032 A  ATOM     12  N   UNL     1      17.880 -15.581  -7.540 -0.25 -0.01    -0.254 NA ATOM     13  C   UNL     1      17.309 -13.316  -6.867 -0.40 -0.00    +0.009 A  BRANCH   9  14ATOM     14  C   UNL     1      19.211 -15.036  -4.129 -0.54 +0.06    +0.101 C  ATOM     15  N   UNL     1      19.749 -15.242  -3.122 -0.61 -0.19    -0.192 NA ENDBRANCH   9  14BRANCH  13  16ATOM     16  C   UNL     1      16.737 -11.983  -7.123 -0.42 +0.00    -0.016 A  ATOM     17  C   UNL     1      15.907 -11.363  -6.173 -0.52 -0.00    +0.009 A  ATOM     18  C   UNL     1      17.016 -11.289  -8.312 -0.44 -0.00    +0.009 A  ATOM     19  C   UNL     1      15.366 -10.097  -6.408 -0.63 -0.00    +0.001 A  ATOM     20  C   UNL     1      16.474 -10.024  -8.548 -0.56 -0.00    +0.001 A  ATOM     21  C   UNL     1      15.649  -9.428  -7.597 -0.71 -0.00    +0.000 A  ENDBRANCH  13  16ENDBRANCH   3   8ENDBRANCH   1   2BRANCH   1  22ATOM     22  N   UNL     1      14.281 -15.485 -13.448 -0.13 +0.11    -0.309 NA ATOM     23  H   UNL     1      14.756 -16.182 -12.877 +0.09 -0.04    +0.123 HD BRANCH  22  24ATOM     24  C   UNL     1      12.836 -15.631 -13.271 -0.21 -0.03    +0.117 C  BRANCH  24  25ATOM     25  C   UNL     1      12.129 -14.323 -12.998 -0.23 +0.01    -0.034 A  ATOM     26  C   UNL     1      11.714 -13.990 -11.703 -0.30 -0.00    +0.006 A  ATOM     27  C   UNL     1      11.858 -13.429 -14.041 -0.31 -0.00    +0.006 A  ATOM     28  C   UNL     1      11.051 -12.782 -11.455 -0.38 -0.01    +0.011 A  ATOM     29  C   UNL     1      11.195 -12.224 -13.794 -0.21 -0.01    +0.011 A  ATOM     30  C   UNL     1      10.788 -11.880 -12.497 -0.43 -0.00    +0.003 A  BRANCH  30  31ATOM     31  C   UNL     1      10.100 -10.613 -12.272 -0.47 -0.04    +0.105 A  ATOM     32  C   UNL     1       9.011 -10.167 -13.003 -0.26 -0.06    +0.118 A  ATOM     33  N   UNL     1      10.498  -9.749 -11.253 -0.71 +0.02    -0.138 NA ATOM     34  S   UNL     1       8.549  -8.643 -12.363 -0.62 +0.01    -0.020 S  ATOM     35  N   UNL     1       9.752  -8.659 -11.204 -1.15 -0.01    -0.091 NA ENDBRANCH  30  31ENDBRANCH  24  25ENDBRANCH  22  24ENDBRANCH   1  22TORSDOF 8TERENDMDL