MODEL        1USER    Run = 1USERUSER    Estimated Free Energy of Binding    =  -6.22 kcal/mol  [=(1)+(2)+(3)-(4)]USERUSER    (1) Final Intermolecular Energy     = -10.69 kcal/molUSER        vdW + Hbond + desolv Energy     = -10.80 kcal/molUSER        Electrostatic Energy            =  -0.30 kcal/molUSER        Moving Ligand-Fixed Receptor    = -11.10 kcal/molUSER        Moving Ligand-Moving Receptor   =  +0.41 kcal/molUSER    (2) Final Total Internal Energy     =  -2.77 kcal/molUSER    (3) Torsional Free Energy           =  +4.47 kcal/molUSER    (4) Unbound System's Energy         =  -2.77 kcal/molUSERUSERREMARK SMILES COc1ccc(O)c(C(=O)c2ccc(CO[C@@H]3CCCNC[C@@H]3NC(=O)c3ccncc3)cc2)c1FREMARK SMILES IDX 16 1 15 2 14 3 11 4 12 5 34 6 13 7 33 8 9 9 10 10 8 11 3 12REMARK SMILES IDX 4 13 35 14 5 15 6 16 36 17 2 18 1 19 7 20 17 22 18 23 23 25REMARK SMILES IDX 22 26 21 27 20 29 19 30 24 32 25 33 26 35 27 36 28 37 32 38REMARK SMILES IDX 29 39 31 40 30 41REMARK H PARENT 7 21 21 28 24 34REMARK Flexibility Score:   99.900USER                              x       y       z     vdW  Elec       q    TypeUSER                           _______ _______ _______ _____ _____    ______ ____ROOTATOM      1  O   UNL     1      13.397 -14.889 -12.818 -0.08 +0.13    -0.371 OA ENDROOTBRANCH   1   2ATOM      2  C   UNL     1      14.709 -14.375 -13.039 -0.25 -0.09    +0.196 C  BRANCH   2   3ATOM      3  C   UNL     1      15.440 -14.367 -11.722 -0.36 +0.01    -0.022 A  ATOM      4  C   UNL     1      16.820 -14.380  -9.274 -0.35 -0.00    +0.023 A  ATOM      5  C   UNL     1      17.531 -14.407 -10.478 -0.37 -0.00    +0.012 A  ATOM      6  C   UNL     1      15.423 -14.313  -9.295 -0.34 -0.00    +0.012 A  ATOM      7  C   UNL     1      16.842 -14.407 -11.693 -0.49 -0.00    +0.007 A  ATOM      8  C   UNL     1      14.737 -14.313 -10.511 -0.32 -0.00    +0.007 A  BRANCH   4   9ATOM      9  C   UNL     1      17.508 -14.343  -7.961 -0.31 -0.02    +0.199 C  ATOM     10  O   UNL     1      18.245 -15.281  -7.645 -0.26 -0.01    -0.288 OA BRANCH   9  11ATOM     11  C   UNL     1      17.309 -13.264  -6.972 -0.33 -0.01    +0.104 A  ATOM     12  C   UNL     1      16.703 -10.974  -6.392 -0.32 -0.02    +0.155 A  ATOM     13  C   UNL     1      16.934 -11.257  -5.043 -0.49 -0.00    +0.053 A  ATOM     14  C   UNL     1      16.901 -11.983  -7.346 -0.29 -0.03    +0.179 A  ATOM     15  C   UNL     1      17.375 -12.526  -4.660 -0.43 +0.01    +0.051 A  ATOM     16  C   UNL     1      17.574 -13.516  -5.620 -0.34 +0.00    +0.130 A  ATOM     17  F   UNL     1      16.711 -11.689  -8.643 -0.10 +0.04    -0.202 F  BRANCH  12  18ATOM     18  O   UNL     1      16.286  -9.768  -6.888 -0.20 +0.09    -0.494 OA ATOM     19  C   UNL     1      15.008  -9.723  -7.509 -0.47 -0.10    +0.278 C  ENDBRANCH  12  18BRANCH  16  20ATOM     20  O   UNL     1      18.036 -14.721  -5.163 -0.14 -0.11    -0.507 OA ATOM     21  H   UNL     1      18.215 -15.292  -5.946 +0.18 +0.05    +0.293 HD ENDBRANCH  16  20ENDBRANCH   9  11ENDBRANCH   4   9ENDBRANCH   2   3ENDBRANCH   1   2BRANCH   1  22ATOM     22  C   UNL     1      12.953 -15.794 -13.853 -0.20 -0.04    +0.142 C  BRANCH  22  23ATOM     23  C   UNL     1      14.070 -15.756 -14.906 -0.37 -0.01    +0.035 CG0ATOM     24  G   UNL     1      14.203 -16.911 -15.893 +0.00 +0.00    +0.000 G0 ENDBRANCH  22  23BRANCH  22  25ATOM     25  C   UNL     1      11.548 -15.367 -14.339 -0.19 -0.03    +0.125 C  BRANCH  25  26ATOM     26  C   UNL     1      11.373 -15.652 -15.851 -0.23 -0.02    +0.108 C  BRANCH  26  27ATOM     27  N   UNL     1      11.763 -16.980 -16.320 -0.09 -0.02    -0.315 NA ATOM     28  H   UNL     1      11.054 -17.312 -16.975 +0.07 +0.02    +0.122 HD BRANCH  27  29ATOM     29  C   UNL     1      13.088 -17.046 -16.919 -0.37 +0.02    +0.081 C  BRANCH  29  30ATOM     30  C   UNL     1      14.203 -16.911 -15.892 -0.46 -0.00    +0.018 CG0ATOM     31  G   UNL     1      14.067 -15.761 -14.901 +0.00 +0.00    +0.000 G0 ENDBRANCH  29  30ENDBRANCH  27  29ENDBRANCH  26  27ENDBRANCH  25  26BRANCH  25  32ATOM     32  N   UNL     1      11.249 -13.981 -13.948 -0.05 +0.13    -0.345 N  ATOM     33  C   UNL     1      10.234 -13.690 -13.061 -0.19 -0.05    +0.251 C  ATOM     34  H   UNL     1      12.058 -13.373 -13.907 +0.09 -0.08    +0.164 HD ATOM     35  O   UNL     1       9.452 -14.524 -12.624 -0.54 -0.06    -0.269 OA BRANCH  33  36ATOM     36  C   UNL     1      10.144 -12.276 -12.606 -0.36 -0.01    +0.042 A  ATOM     37  C   UNL     1       9.177 -11.455 -13.185 -0.16 -0.02    +0.034 A  ATOM     38  C   UNL     1      11.015 -11.749 -11.653 -0.48 -0.02    +0.034 A  ATOM     39  C   UNL     1       9.110 -10.137 -12.770 -0.32 -0.05    +0.112 A  ATOM     40  C   UNL     1      10.867 -10.417 -11.308 -0.32 -0.03    +0.112 A  ATOM     41  N   UNL     1       9.932  -9.603 -11.841 -0.57 +0.06    -0.265 NA ENDBRANCH  33  36ENDBRANCH  25  32ENDBRANCH  22  25ENDBRANCH   1  22TORSDOF 9TERENDMDL