MODEL        4USER    Run = 4USERUSER    Estimated Free Energy of Binding    = -12.82 kcal/mol  [=(1)+(2)+(3)-(4)]USERUSER    (1) Final Intermolecular Energy     = -14.61 kcal/molUSER        vdW + Hbond + desolv Energy     = -14.47 kcal/molUSER        Electrostatic Energy            =  -0.14 kcal/molUSER        Moving Ligand-Fixed Receptor    = -14.61 kcal/molUSER        Moving Ligand-Moving Receptor   =  +0.00 kcal/molUSER    (2) Final Total Internal Energy     =  -2.25 kcal/molUSER    (3) Torsional Free Energy           =  +1.79 kcal/molUSER    (4) Unbound System's Energy         =  -2.25 kcal/molUSERUSERREMARK SMILES Oc1nc2ccccc2n1C1CCN(Cc2ccc(-c3nc4ccccc4nc3-c3ccncc3)cc2)CC1REMARK SMILES IDX 11 1 12 2 13 3 14 4 38 5 39 6 10 7 2 8 3 9 4 10 9 11 5 12REMARK SMILES IDX 8 13 6 14 7 15 1 16 15 18 16 19 17 20 37 21 18 22 36 23REMARK SMILES IDX 19 24 20 25 21 26 29 27 22 28 28 29 23 30 27 31 24 32 26 33REMARK SMILES IDX 25 34 30 35 31 36 35 37 32 38 34 39 33 40REMARK H PARENT 1 17USER                              x       y       z     vdW  Elec       q    TypeUSER                           _______ _______ _______ _____ _____    ______ ____ROOTATOM      1  C   UNL     1      39.501  48.288  15.144 -0.54 -0.03    +0.095 C  ATOM      2  C   UNL     1      38.092  48.867  15.343 -0.52 -0.03    +0.041 C  ATOM      3  C   UNL     1      37.072  48.234  14.398 -0.53 -0.06    +0.087 C  ATOM      4  N   UNL     1      37.081  46.790  14.574 -0.18 +0.16    -0.299 NA ATOM      5  C   UNL     1      38.364  46.137  14.319 -0.42 -0.03    +0.087 C  ATOM      6  C   UNL     1      39.545  47.097  14.179 -0.34 -0.01    +0.041 C  ENDROOTBRANCH   1   7ATOM      7  N   UNL     1      40.236  48.035  16.379 -0.31 +0.07    -0.291 N  ATOM      8  C   UNL     1      41.277  48.808  16.824 -0.12 -0.01    +0.295 A  ATOM      9  N   UNL     1      41.814  48.374  17.930 -0.54 -0.00    -0.195 NA ATOM     10  C   UNL     1      41.093  47.248  18.235 -0.43 -0.01    +0.092 A  ATOM     11  C   UNL     1      40.094  47.006  17.286 -0.44 -0.01    +0.072 A  ATOM     12  C   UNL     1      41.245  46.377  19.324 -0.42 +0.00    +0.031 A  ATOM     13  C   UNL     1      39.228  45.909  17.394 -0.41 -0.01    +0.029 A  ATOM     14  C   UNL     1      40.389  45.277  19.439 -0.43 +0.00    +0.002 A  ATOM     15  C   UNL     1      39.396  45.051  18.487 -0.42 -0.00    +0.002 A  BRANCH   8  16ATOM     16  O   UNL     1      41.730  49.884  16.214 -0.83 -0.04    -0.480 OA ATOM     17  H   UNL     1      41.434  50.585  16.823 -0.21 -0.06    +0.296 HD ENDBRANCH   8  16ENDBRANCH   1   7BRANCH   4  18ATOM     18  C   UNL     1      35.916  46.085  14.031 -0.42 -0.07    +0.120 C  BRANCH  18  19ATOM     19  C   UNL     1      35.221  45.114  14.965 -0.29 +0.02    -0.034 A  ATOM     20  C   UNL     1      35.848  43.924  15.357 -0.33 -0.00    +0.006 A  ATOM     21  C   UNL     1      33.937  45.383  15.455 -0.31 -0.01    +0.006 A  ATOM     22  C   UNL     1      35.207  43.030  16.221 -0.42 -0.00    +0.011 A  ATOM     23  C   UNL     1      33.301  44.489  16.324 -0.32 -0.01    +0.011 A  ATOM     24  C   UNL     1      33.917  43.289  16.711 -0.36 -0.00    +0.002 A  BRANCH  24  25ATOM     25  C   UNL     1      33.257  42.329  17.616 -0.30 -0.03    +0.097 A  ATOM     26  N   UNL     1      32.125  41.775  17.098 -0.13 +0.10    -0.244 NA ATOM     27  C   UNL     1      33.721  41.968  18.891 -0.32 -0.01    +0.097 A  ATOM     28  C   UNL     1      31.489  40.849  17.836 -0.31 -0.02    +0.089 A  ATOM     29  N   UNL     1      33.081  41.016  19.628 -0.14 -0.06    -0.244 NA ATOM     30  C   UNL     1      30.336  40.251  17.341 -0.34 -0.00    +0.030 A  ATOM     31  C   UNL     1      31.973  40.463  19.105 -0.31 +0.01    +0.089 A  ATOM     32  C   UNL     1      29.649  39.282  18.073 -0.34 +0.00    +0.002 A  ATOM     33  C   UNL     1      31.282  39.495  19.826 -0.39 +0.00    +0.030 A  ATOM     34  C   UNL     1      30.125  38.901  19.321 -0.36 +0.00    +0.002 A  BRANCH  27  35ATOM     35  C   UNL     1      34.886  42.557  19.574 -0.43 -0.00    +0.005 A  ATOM     36  C   UNL     1      35.688  41.770  20.412 -0.32 -0.00    +0.030 A  ATOM     37  C   UNL     1      35.221  43.911  19.445 -0.37 -0.00    +0.030 A  ATOM     38  C   UNL     1      36.777  42.347  21.043 -0.38 +0.00    +0.111 A  ATOM     39  C   UNL     1      36.332  44.397  20.115 -0.26 -0.01    +0.111 A  ATOM     40  N   UNL     1      37.123  43.643  20.905 -0.23 -0.00    -0.265 NA ENDBRANCH  27  35ENDBRANCH  24  25ENDBRANCH  18  19ENDBRANCH   4  18TORSDOF 6TERENDMDL