MODEL        7USER    Run = 7USERUSER    Estimated Free Energy of Binding    = -13.17 kcal/mol  [=(1)+(2)+(3)-(4)]USERUSER    (1) Final Intermolecular Energy     = -15.26 kcal/molUSER        vdW + Hbond + desolv Energy     = -15.15 kcal/molUSER        Electrostatic Energy            =  -0.11 kcal/molUSER        Moving Ligand-Fixed Receptor    = -15.26 kcal/molUSER        Moving Ligand-Moving Receptor   =  +0.00 kcal/molUSER    (2) Final Total Internal Energy     =  -2.28 kcal/molUSER    (3) Torsional Free Energy           =  +2.09 kcal/molUSER    (4) Unbound System's Energy         =  -2.28 kcal/molUSERUSERREMARK SMILES Oc1nc2ccccc2n1C1CCN(Cc2ccc(-c3nc4ccccc4nc3-c3ccc(N4CCOCC4)cc3)cc2)CC1REMARK SMILES IDX 15 1 14 2 11 3 12 4 45 5 13 6 44 7 10 8 2 9 3 10 4 11 9 12REMARK SMILES IDX 5 13 8 14 6 15 7 16 1 17 16 19 17 20 43 21 18 22 42 23 19 24REMARK SMILES IDX 20 25 21 26 29 27 22 28 28 29 23 30 27 31 24 32 26 33 25 34REMARK SMILES IDX 30 35 31 36 41 37 32 38 40 39 33 40 34 41 35 42 39 43 36 44REMARK SMILES IDX 38 45 37 46REMARK H PARENT 1 18USER                              x       y       z     vdW  Elec       q    TypeUSER                           _______ _______ _______ _____ _____    ______ ____ROOTATOM      1  C   UNL     1      42.150  46.000  19.671 -0.31 +0.02    +0.120 C  ENDROOTBRANCH   1   2ATOM      2  N   UNL     1      41.359  46.318  18.473 -0.28 +0.00    -0.299 NA ATOM      3  C   UNL     1      39.295  47.354  16.723 -0.45 -0.03    +0.095 C  ATOM      4  C   UNL     1      39.354  45.870  17.107 -0.45 -0.01    +0.041 C  ATOM      5  C   UNL     1      40.687  47.987  16.794 -0.58 -0.01    +0.041 C  ATOM      6  C   UNL     1      40.032  45.695  18.467 -0.45 -0.01    +0.087 C  ATOM      7  C   UNL     1      41.311  47.746  18.167 -0.42 -0.01    +0.087 C  BRANCH   3   8ATOM      8  N   UNL     1      38.647  47.615  15.446 -0.24 +0.13    -0.291 N  ATOM      9  C   UNL     1      39.061  48.477  14.469 -0.26 -0.12    +0.295 A  ATOM     10  N   UNL     1      38.265  48.509  13.436 -0.48 +0.05    -0.195 NA ATOM     11  C   UNL     1      37.246  47.651  13.761 -0.48 -0.04    +0.092 A  ATOM     12  C   UNL     1      37.449  47.076  15.017 -0.38 -0.04    +0.072 A  ATOM     13  C   UNL     1      36.098  47.319  13.026 -0.59 -0.02    +0.031 A  ATOM     14  C   UNL     1      36.537  46.178  15.585 -0.35 -0.02    +0.029 A  ATOM     15  C   UNL     1      35.177  46.423  13.578 -0.45 -0.00    +0.002 A  ATOM     16  C   UNL     1      35.395  45.864  14.839 -0.38 -0.00    +0.002 A  BRANCH   9  17ATOM     17  O   UNL     1      40.142  49.227  14.533 -0.19 +0.20    -0.480 OA ATOM     18  H   UNL     1      39.781  50.052  14.905 -0.10 -0.24    +0.296 HD ENDBRANCH   9  17ENDBRANCH   3   8ENDBRANCH   1   2BRANCH   1  19ATOM     19  C   UNL     1      41.431  45.283  20.796 -0.32 -0.00    -0.034 A  ATOM     20  C   UNL     1      41.694  43.930  21.047 -0.33 +0.00    +0.006 A  ATOM     21  C   UNL     1      40.489  45.943  21.594 -0.24 +0.00    +0.006 A  ATOM     22  C   UNL     1      41.022  43.250  22.066 -0.31 +0.00    +0.011 A  ATOM     23  C   UNL     1      39.804  45.257  22.602 -0.26 +0.00    +0.011 A  ATOM     24  C   UNL     1      40.066  43.902  22.861 -0.24 +0.00    +0.002 A  BRANCH  24  25ATOM     25  C   UNL     1      39.341  43.186  23.922 -0.19 +0.01    +0.097 A  ATOM     26  N   UNL     1      40.026  43.097  25.096 -0.10 -0.00    -0.244 NA ATOM     27  C   UNL     1      38.042  42.673  23.793 -0.27 +0.01    +0.097 A  ATOM     28  C   UNL     1      39.394  42.534  26.139 -0.18 -0.00    +0.089 A  ATOM     29  N   UNL     1      37.399  42.118  24.859 -0.23 +0.00    -0.244 NA ATOM     30  C   UNL     1      40.047  42.430  27.361 -0.22 -0.00    +0.030 A  ATOM     31  C   UNL     1      38.071  42.051  26.023 -0.26 -0.00    +0.089 A  ATOM     32  C   UNL     1      39.420  41.862  28.472 -0.27 -0.00    +0.002 A  ATOM     33  C   UNL     1      37.456  41.489  27.136 -0.44 -0.01    +0.030 A  ATOM     34  C   UNL     1      38.120  41.391  28.360 -0.31 -0.00    +0.002 A  BRANCH  27  35ATOM     35  C   UNL     1      37.266  42.641  22.540 -0.43 +0.00    +0.003 A  ATOM     36  C   UNL     1      36.929  43.812  21.848 -0.38 +0.00    +0.012 A  ATOM     37  C   UNL     1      36.876  41.424  21.968 -0.57 +0.00    +0.012 A  ATOM     38  C   UNL     1      36.212  43.767  20.641 -0.40 -0.00    +0.026 A  ATOM     39  C   UNL     1      36.160  41.385  20.764 -0.28 -0.00    +0.026 A  ATOM     40  C   UNL     1      35.802  42.555  20.075 -0.43 -0.00    +0.037 A  BRANCH  40  41ATOM     41  N   UNL     1      35.113  42.460  18.858 -0.15 +0.06    -0.367 N  ATOM     42  C   UNL     1      35.578  43.286  17.724 -0.30 -0.04    +0.145 C  ATOM     43  C   UNL     1      33.635  42.482  18.987 -0.36 -0.01    +0.145 C  ATOM     44  C   UNL     1      34.859  42.855  16.436 -0.37 -0.07    +0.181 C  ATOM     45  C   UNL     1      32.987  42.101  17.644 -0.31 -0.06    +0.181 C  ATOM     46  O   UNL     1      33.432  42.951  16.575 -0.16 +0.17    -0.378 OA ENDBRANCH  40  41ENDBRANCH  27  35ENDBRANCH  24  25ENDBRANCH   1  19TORSDOF 7TERENDMDL