REMARK SMILES Cc1c(C=c2cc3c(cn2)=C(NC2CCN(c4nc5ccccc5n4OC(=O)N4CCOCC4)CC2)NN=C3)cccc1C(C)C
REMARK SMILES IDX 12 1 11 3 5 4 6 5 10 6 7 7 9 8 8 9 39 10 38 11 37 12 4 14
REMARK SMILES IDX 3 15 2 16 43 17 40 18 42 19 41 20 1 21 44 22 45 23 46 24
REMARK SMILES IDX 13 25 14 26 36 27 15 28 35 29 16 30 17 31 18 32 25 33 19 34
REMARK SMILES IDX 24 35 20 36 23 37 21 38 22 39 26 40 27 41 29 42 30 43 34 44
REMARK SMILES IDX 31 45 33 46 32 47 28 48
REMARK H PARENT 12 2 37 13
ROOT
ATOM      1  N   UNL     1      -0.660   2.450  -0.866  1.00  0.00    -0.367 N 
ATOM      2  H   UNL     1      -0.234   2.965  -1.636  1.00  0.00     0.162 HD
ENDROOT
BRANCH   1   3
ATOM      3  C   UNL     1       0.299   1.995   0.033  1.00  0.00     0.129 C 
ATOM      4  C   UNL     1       4.380   1.586  -0.816  1.00  0.00     0.064 A 
ATOM      5  C   UNL     1       3.826   1.252   0.495  1.00  0.00     0.039 A 
ATOM      6  N   UNL     1       3.526   2.004  -1.822  1.00  0.00    -0.256 NA
ATOM      7  C   UNL     1       2.521   1.393   0.757  1.00  0.00     0.009 A 
ATOM      8  C   UNL     1       2.261   2.134  -1.565  1.00  0.00     0.124 A 
ATOM      9  C   UNL     1       1.616   1.868  -0.258  1.00  0.00     0.044 A 
ATOM     10  C   UNL     1       1.936   1.097   2.083  1.00  0.00     0.142 C 
ATOM     11  N   UNL     1       0.679   1.259   2.366  1.00  0.00    -0.182 NA
ATOM     12  N   UNL     1      -0.106   1.688   1.327  1.00  0.00    -0.263 N 
ATOM     13  H   UNL     1      -1.005   2.099   1.570  1.00  0.00     0.192 HD
BRANCH   4  14
ATOM     14  C   UNL     1       5.692   1.502  -1.104  1.00  0.00     0.036 C 
BRANCH  14  15
ATOM     15  C   UNL     1       6.778   1.097  -0.197  1.00  0.00    -0.020 A 
ATOM     16  C   UNL     1       7.421  -0.161  -0.300  1.00  0.00    -0.040 A 
ATOM     17  C   UNL     1       8.496  -0.462   0.580  1.00  0.00    -0.042 A 
ATOM     18  C   UNL     1       7.185   2.023   0.774  1.00  0.00     0.008 A 
ATOM     19  C   UNL     1       8.862   0.486   1.556  1.00  0.00     0.004 A 
ATOM     20  C   UNL     1       8.215   1.716   1.654  1.00  0.00     0.001 A 
ATOM     21  C   UNL     1       6.993  -1.157  -1.355  1.00  0.00     0.045 C 
BRANCH  17  22
ATOM     22  C   UNL     1       9.266  -1.781   0.510  1.00  0.00     0.013 C 
ATOM     23  C   UNL     1       8.952  -2.663   1.722  1.00  0.00     0.012 C 
ATOM     24  C   UNL     1      10.778  -1.567   0.363  1.00  0.00     0.012 C 
ENDBRANCH  17  22
ENDBRANCH  14  15
ENDBRANCH   4  14
ENDBRANCH   1   3
BRANCH   1  25
ATOM     25  C   UNL     1      -1.763   1.618  -1.403  1.00  0.00     0.084 C 
ATOM     26  C   UNL     1      -2.994   1.594  -0.480  1.00  0.00     0.046 C 
ATOM     27  C   UNL     1      -1.290   0.249  -1.922  1.00  0.00     0.046 C 
ATOM     28  C   UNL     1      -3.087   0.357   0.407  1.00  0.00     0.122 C 
ATOM     29  C   UNL     1      -1.463  -0.875  -0.899  1.00  0.00     0.122 C 
ATOM     30  N   UNL     1      -2.840  -0.835  -0.384  1.00  0.00    -0.340 N 
BRANCH  30  31
ATOM     31  C   UNL     1      -3.789  -1.518  -1.105  1.00  0.00     0.241 A 
ATOM     32  N   UNL     1      -3.514  -2.482  -1.970  1.00  0.00    -0.210 NA
ATOM     33  N   UNL     1      -5.167  -1.304  -1.078  1.00  0.00    -0.135 N 
ATOM     34  C   UNL     1      -4.708  -2.867  -2.522  1.00  0.00     0.094 A 
ATOM     35  C   UNL     1      -5.763  -2.122  -2.010  1.00  0.00     0.110 A 
ATOM     36  C   UNL     1      -4.965  -3.845  -3.497  1.00  0.00     0.031 A 
ATOM     37  C   UNL     1      -7.087  -2.281  -2.438  1.00  0.00     0.032 A 
ATOM     38  C   UNL     1      -6.282  -4.026  -3.938  1.00  0.00     0.002 A 
ATOM     39  C   UNL     1      -7.324  -3.253  -3.418  1.00  0.00     0.002 A 
BRANCH  33  40
ATOM     40  O   UNL     1      -5.839  -0.266  -0.425  1.00  0.00    -0.313 OA
BRANCH  40  41
ATOM     41  C   UNL     1      -6.524  -0.701   0.669  1.00  0.00     0.434 C 
ATOM     42  N   UNL     1      -7.160   0.339   1.339  1.00  0.00    -0.302 N 
ATOM     43  C   UNL     1      -6.799   1.740   1.123  1.00  0.00     0.151 C 
ATOM     44  C   UNL     1      -7.762   0.050   2.642  1.00  0.00     0.151 C 
ATOM     45  C   UNL     1      -7.920   2.688   1.558  1.00  0.00     0.182 C 
ATOM     46  C   UNL     1      -8.845   1.073   3.001  1.00  0.00     0.182 C 
ATOM     47  O   UNL     1      -8.338   2.412   2.902  1.00  0.00    -0.378 OA
ATOM     48  O   UNL     1      -6.598  -1.873   1.029  1.00  0.00    -0.222 OA
ENDBRANCH  40  41
ENDBRANCH  33  40
ENDBRANCH  30  31
ENDBRANCH   1  25
TORSDOF 8
