MODEL        7USER    Run = 7USERUSER    Estimated Free Energy of Binding    = -13.08 kcal/mol  [=(1)+(2)+(3)-(4)]USERUSER    (1) Final Intermolecular Energy     = -15.47 kcal/molUSER        vdW + Hbond + desolv Energy     = -15.37 kcal/molUSER        Electrostatic Energy            =  -0.09 kcal/molUSER        Moving Ligand-Fixed Receptor    = -15.47 kcal/molUSER        Moving Ligand-Moving Receptor   =  +0.00 kcal/molUSER    (2) Final Total Internal Energy     =  -2.60 kcal/molUSER    (3) Torsional Free Energy           =  +2.39 kcal/molUSER    (4) Unbound System's Energy         =  -2.60 kcal/molUSERUSERREMARK SMILES Cc1c(C=c2cc3c(cn2)=C(NC2CCN(c4nc5ccccc5n4OC(=O)N4CCOCC4)CC2)NN=C3)cccc1C(C)CREMARK SMILES IDX 12 1 11 3 5 4 6 5 10 6 7 7 9 8 8 9 39 10 38 11 37 12 4 14REMARK SMILES IDX 3 15 2 16 43 17 40 18 42 19 41 20 1 21 44 22 45 23 46 24REMARK SMILES IDX 13 25 14 26 36 27 15 28 35 29 16 30 17 31 18 32 25 33 19 34REMARK SMILES IDX 24 35 20 36 23 37 21 38 22 39 26 40 27 41 29 42 30 43 34 44REMARK SMILES IDX 31 45 33 46 32 47 28 48REMARK H PARENT 12 2 37 13USER                              x       y       z     vdW  Elec       q    TypeUSER                           _______ _______ _______ _____ _____    ______ ____ROOTATOM      1  N   UNL     1      41.663  42.943  21.722 -0.18 -0.01    -0.367 N  ATOM      2  H   UNL     1      42.446  42.355  22.007 -0.29 -0.02    +0.162 HD ENDROOTBRANCH   1   3ATOM      3  C   UNL     1      42.089  44.218  21.364 -0.28 +0.02    +0.129 C  ATOM      4  C   UNL     1      40.556  46.450  18.169 -0.45 -0.00    +0.064 A  ATOM      5  C   UNL     1      41.619  46.964  19.031 -0.45 +0.00    +0.039 A  ATOM      6  N   UNL     1      40.074  45.171  18.383 -0.25 +0.01    -0.256 NA ATOM      7  C   UNL     1      42.097  46.244  20.054 -0.40 +0.00    +0.009 A  ATOM      8  C   UNL     1      40.544  44.474  19.372 -0.31 +0.00    +0.124 A  ATOM      9  C   UNL     1      41.583  44.927  20.326 -0.31 +0.01    +0.044 A  ATOM     10  C   UNL     1      43.146  46.750  20.965 -0.33 +0.05    +0.142 C  ATOM     11  N   UNL     1      43.599  46.080  21.981 -0.20 -0.08    -0.182 NA ATOM     12  N   UNL     1      43.068  44.826  22.141 -0.13 -0.07    -0.263 N  ATOM     13  H   UNL     1      43.169  44.399  23.060 +0.07 +0.03    +0.192 HD BRANCH   4  14ATOM     14  C   UNL     1      40.018  47.161  17.160 -0.53 -0.01    +0.036 C  BRANCH  14  15ATOM     15  C   UNL     1      38.781  46.861  16.421 -0.41 +0.01    -0.020 A  ATOM     16  C   UNL     1      38.636  47.147  15.041 -0.43 +0.01    -0.040 A  ATOM     17  C   UNL     1      37.430  46.782  14.384 -0.41 +0.02    -0.042 A  ATOM     18  C   UNL     1      37.741  46.245  17.131 -0.36 -0.00    +0.008 A  ATOM     19  C   UNL     1      36.399  46.184  15.135 -0.38 -0.00    +0.004 A  ATOM     20  C   UNL     1      36.550  45.918  16.494 -0.36 -0.00    +0.001 A  ATOM     21  C   UNL     1      39.762  47.799  14.270 -0.36 -0.01    +0.045 C  BRANCH  17  22ATOM     22  C   UNL     1      37.207  47.022  12.890 -0.66 -0.00    +0.013 C  ATOM     23  C   UNL     1      36.177  48.131  12.661 -0.66 -0.01    +0.012 C  ATOM     24  C   UNL     1      36.810  45.740  12.146 -0.67 -0.00    +0.012 C  ENDBRANCH  17  22ENDBRANCH  14  15ENDBRANCH   4  14ENDBRANCH   1   3BRANCH   1  25ATOM     25  C   UNL     1      40.511  42.666  22.612 -0.24 +0.00    +0.084 C  ATOM     26  C   UNL     1      39.208  43.321  22.120 -0.26 +0.00    +0.046 C  ATOM     27  C   UNL     1      40.837  42.864  24.103 -0.21 +0.00    +0.046 C  ATOM     28  C   UNL     1      38.864  44.633  22.819 -0.27 +0.01    +0.122 C  ATOM     29  C   UNL     1      40.418  44.236  24.633 -0.12 +0.00    +0.122 C  ATOM     30  N   UNL     1      39.018  44.480  24.255 -0.05 -0.02    -0.340 N  BRANCH  30  31ATOM     31  C   UNL     1      38.055  43.997  25.107 -0.12 +0.00    +0.241 A  ATOM     32  N   UNL     1      37.390  42.868  24.915 -0.22 -0.00    -0.210 NA ATOM     33  N   UNL     1      37.598  44.606  26.276 -0.21 +0.01    -0.135 N  ATOM     34  C   UNL     1      36.485  42.765  25.940 -0.34 -0.01    +0.094 A  ATOM     35  C   UNL     1      36.565  43.859  26.793 -0.32 -0.02    +0.110 A  ATOM     36  C   UNL     1      35.536  41.761  26.193 -0.44 -0.01    +0.031 A  ATOM     37  C   UNL     1      35.720  44.027  27.897 -0.49 -0.01    +0.032 A  ATOM     38  C   UNL     1      34.683  41.905  27.295 -0.58 -0.00    +0.002 A  ATOM     39  C   UNL     1      34.773  43.022  28.130 -0.53 -0.00    +0.002 A  BRANCH  33  40ATOM     40  O   UNL     1      37.925  45.886  26.734 -0.17 +0.02    -0.313 OA BRANCH  40  41ATOM     41  C   UNL     1      37.919  46.810  25.733 -0.14 +0.02    +0.434 C  ATOM     42  N   UNL     1      39.194  47.292  25.455 -0.10 -0.02    -0.302 N  ATOM     43  C   UNL     1      40.310  47.124  26.386 -0.15 +0.01    +0.151 C  ATOM     44  C   UNL     1      39.314  48.434  24.547 -0.32 +0.02    +0.151 C  ATOM     45  C   UNL     1      41.662  47.271  25.684 -0.11 +0.02    +0.182 C  ATOM     46  C   UNL     1      40.711  48.514  23.923 -0.25 +0.03    +0.182 C  ATOM     47  O   UNL     1      41.727  48.494  24.937 -0.17 -0.06    -0.378 OA ATOM     48  O   UNL     1      36.918  47.177  25.123 -0.78 -0.05    -0.222 OA ENDBRANCH  40  41ENDBRANCH  33  40ENDBRANCH  30  31ENDBRANCH   1  25TORSDOF 8TERENDMDL