REMARK SMILES COc1cc(F)c(O)c(C(=O)c2ccc(C(=O)N[C@@H]3CCN(C4COC4)C[C@@H]3NC(=O)c3cnc(OC)nc3)cc2)c1
REMARK SMILES IDX 16 1 17 2 18 3 15 5 12 6 13 7 41 8 14 9 40 10 10 11 11 12
REMARK SMILES IDX 9 13 3 14 4 15 42 16 5 17 7 18 6 19 2 20 1 21 8 22 19 24
REMARK SMILES IDX 20 25 28 26 21 27 27 28 22 29 29 30 30 31 31 33 32 34 33 35
REMARK SMILES IDX 39 36 34 37 38 38 35 39 36 40 37 41 23 42 24 43 26 44 25 45
REMARK H PARENT 18 4 8 23 29 32
ROOT
ATOM      1  C   UNL     1       0.688   2.553  -1.065  1.00  0.00     0.251 C 
ATOM      2  O   UNL     1       0.457   3.601  -1.659  1.00  0.00    -0.269 OA
ATOM      3  N   UNL     1      -0.118   2.065  -0.054  1.00  0.00    -0.347 N 
ATOM      4  H   UNL     1       0.032   1.128   0.286  1.00  0.00     0.164 HD
ENDROOT
BRANCH   1   5
ATOM      5  C   UNL     1       1.931   1.783  -1.360  1.00  0.00     0.039 A 
ATOM      6  C   UNL     1       4.372   0.462  -1.811  1.00  0.00     0.023 A 
ATOM      7  C   UNL     1       4.255   1.834  -2.064  1.00  0.00     0.013 A 
ATOM      8  C   UNL     1       3.249  -0.257  -1.380  1.00  0.00     0.013 A 
ATOM      9  C   UNL     1       3.042   2.490  -1.839  1.00  0.00     0.014 A 
ATOM     10  C   UNL     1       2.033   0.401  -1.161  1.00  0.00     0.014 A 
BRANCH   6  11
ATOM     11  C   UNL     1       5.706  -0.180  -1.982  1.00  0.00     0.196 C 
ATOM     12  O   UNL     1       6.630   0.406  -2.537  1.00  0.00    -0.288 OA
BRANCH  11  13
ATOM     13  C   UNL     1       5.965  -1.504  -1.390  1.00  0.00     0.071 A 
ATOM     14  C   UNL     1       6.488  -2.811   0.581  1.00  0.00     0.122 A 
ATOM     15  C   UNL     1       6.434  -3.970  -0.197  1.00  0.00     0.089 A 
ATOM     16  C   UNL     1       6.261  -1.572  -0.019  1.00  0.00     0.062 A 
ATOM     17  C   UNL     1       6.157  -3.885  -1.558  1.00  0.00     0.169 A 
ATOM     18  C   UNL     1       5.912  -2.658  -2.164  1.00  0.00     0.162 A 
ATOM     19  F   UNL     1       6.105  -5.004  -2.298  1.00  0.00    -0.203 F 
BRANCH  14  20
ATOM     20  O   UNL     1       6.758  -3.021   1.906  1.00  0.00    -0.497 OA
ATOM     21  C   UNL     1       6.732  -1.884   2.761  1.00  0.00     0.278 C 
ENDBRANCH  14  20
BRANCH  18  22
ATOM     22  O   UNL     1       5.594  -2.602  -3.491  1.00  0.00    -0.504 OA
ATOM     23  H   UNL     1       5.778  -3.481  -3.875  1.00  0.00     0.293 HD
ENDBRANCH  18  22
ENDBRANCH  11  13
ENDBRANCH   6  11
ENDBRANCH   1   5
BRANCH   3  24
ATOM     24  C   UNL     1      -1.395   2.693   0.259  1.00  0.00     0.107 C 
ATOM     25  C   UNL     1      -1.666   2.659   1.766  1.00  0.00     0.042 C 
ATOM     26  C   UNL     1      -2.583   2.074  -0.518  1.00  0.00     0.118 C 
ATOM     27  C   UNL     1      -3.005   3.323   2.094  1.00  0.00     0.087 C 
ATOM     28  C   UNL     1      -3.859   2.864  -0.134  1.00  0.00     0.112 C 
ATOM     29  N   UNL     1      -4.112   2.730   1.322  1.00  0.00    -0.294 NA
BRANCH  26  30
ATOM     30  N   UNL     1      -2.796   0.651  -0.193  1.00  0.00    -0.346 N 
ATOM     31  C   UNL     1      -2.171  -0.382  -0.848  1.00  0.00     0.254 C 
ATOM     32  H   UNL     1      -3.553   0.488   0.458  1.00  0.00     0.164 HD
ATOM     33  O   UNL     1      -1.316  -0.218  -1.712  1.00  0.00    -0.269 OA
BRANCH  31  34
ATOM     34  C   UNL     1      -2.559  -1.756  -0.478  1.00  0.00     0.076 A 
ATOM     35  C   UNL     1      -3.209  -2.110   0.684  1.00  0.00     0.132 A 
ATOM     36  C   UNL     1      -2.237  -2.812  -1.305  1.00  0.00     0.132 A 
ATOM     37  N   UNL     1      -3.543  -3.381   1.007  1.00  0.00    -0.203 NA
ATOM     38  N   UNL     1      -2.544  -4.101  -1.033  1.00  0.00    -0.203 NA
ATOM     39  C   UNL     1      -3.192  -4.327   0.118  1.00  0.00     0.316 A 
BRANCH  39  40
ATOM     40  O   UNL     1      -3.495  -5.648   0.362  1.00  0.00    -0.467 OA
ATOM     41  C   UNL     1      -4.166  -5.848   1.596  1.00  0.00     0.282 C 
ENDBRANCH  39  40
ENDBRANCH  31  34
ENDBRANCH  26  30
BRANCH  29  42
ATOM     42  C   UNL     1      -5.394   3.303   1.813  1.00  0.00     0.108 C 
ATOM     43  C   UNL     1      -5.876   4.576   1.105  1.00  0.00     0.181 C 
ATOM     44  C   UNL     1      -6.606   2.655   1.126  1.00  0.00     0.181 C 
ATOM     45  O   UNL     1      -6.756   3.804   0.245  1.00  0.00    -0.378 OA
ENDBRANCH  29  42
ENDBRANCH   3  24
TORSDOF 10
