MODEL        7USER    Run = 7USERUSER    Estimated Free Energy of Binding    =  -8.78 kcal/mol  [=(1)+(2)+(3)-(4)]USERUSER    (1) Final Intermolecular Energy     = -12.07 kcal/molUSER        vdW + Hbond + desolv Energy     = -11.80 kcal/molUSER        Electrostatic Energy            =  -0.26 kcal/molUSER        Moving Ligand-Fixed Receptor    = -12.07 kcal/molUSER        Moving Ligand-Moving Receptor   =  +0.00 kcal/molUSER    (2) Final Total Internal Energy     =  -2.39 kcal/molUSER    (3) Torsional Free Energy           =  +3.28 kcal/molUSER    (4) Unbound System's Energy         =  -2.39 kcal/molUSERUSERREMARK SMILES COc1cc(F)c(O)c(C(=O)c2ccc(C(=O)N[C@@H]3CCN(C)C[C@H]3NC(=O)c3cnc(OCC(F)(F)F)nc3)cc2)c1REMARK SMILES IDX 19 1 20 2 21 3 22 4 23 5 24 6 25 7 18 8 16 9 17 10 15 12REMARK SMILES IDX 12 13 13 14 42 15 14 16 41 17 10 18 11 19 9 20 3 21 4 22REMARK SMILES IDX 43 23 5 24 7 25 6 26 2 27 1 28 8 29 26 31 27 32 28 34 29 35REMARK SMILES IDX 30 36 40 37 31 38 39 39 32 40 33 41 34 42 35 43 36 44 37 45REMARK SMILES IDX 38 46REMARK H PARENT 18 11 8 30 26 33USER                              x       y       z     vdW  Elec       q    TypeUSER                           _______ _______ _______ _____ _____    ______ ____ROOTATOM      1  C   UNL     1      38.324  44.324  22.458 -0.32 +0.01    +0.107 C  ATOM      2  C   UNL     1      38.856  42.943  22.860 -0.33 +0.00    +0.042 C  ATOM      3  C   UNL     1      37.865  42.184  23.755 -0.26 +0.01    +0.086 C  ATOM      4  N   UNL     1      36.880  43.067  24.401 -0.19 -0.02    -0.304 NA ATOM      5  C   UNL     1      36.181  42.366  25.475 -0.37 -0.01    +0.105 C  ATOM      6  C   UNL     1      37.534  44.290  24.897 -0.30 +0.01    +0.111 C  ATOM      7  C   UNL     1      38.042  45.182  23.727 -0.28 +0.01    +0.118 C  ENDROOTBRANCH   1   8ATOM      8  N   UNL     1      37.124  44.189  21.631 -0.19 -0.02    -0.347 N  ATOM      9  C   UNL     1      37.160  44.352  20.266 -0.26 -0.01    +0.251 C  ATOM     10  O   UNL     1      38.120  44.835  19.677 -0.26 +0.02    -0.269 OA ATOM     11  H   UNL     1      36.352  43.693  22.063 +0.09 +0.02    +0.164 HD BRANCH   9  12ATOM     12  C   UNL     1      35.958  43.907  19.503 -0.37 -0.01    +0.039 A  ATOM     13  C   UNL     1      33.746  42.944  18.053 -0.34 -0.01    +0.023 A  ATOM     14  C   UNL     1      33.574  43.892  19.073 -0.40 -0.00    +0.013 A  ATOM     15  C   UNL     1      35.034  42.476  17.763 -0.40 -0.00    +0.013 A  ATOM     16  C   UNL     1      34.672  44.372  19.797 -0.33 -0.00    +0.014 A  ATOM     17  C   UNL     1      36.132  42.954  18.488 -0.13 -0.00    +0.014 A  BRANCH  13  18ATOM     18  C   UNL     1      32.532  42.416  17.368 -0.26 -0.07    +0.196 C  ATOM     19  O   UNL     1      32.060  42.991  16.389 -0.20 +0.13    -0.288 OA BRANCH  18  20ATOM     20  C   UNL     1      31.828  41.229  17.878 -0.32 -0.02    +0.071 A  ATOM     21  C   UNL     1      31.632  39.538  19.604 -0.31 +0.02    +0.122 A  ATOM     22  C   UNL     1      30.545  38.989  18.916 -0.33 +0.01    +0.089 A  ATOM     23  C   UNL     1      32.264  40.673  19.092 -0.27 +0.00    +0.062 A  ATOM     24  C   UNL     1      30.104  39.568  17.729 -0.25 +0.02    +0.169 A  ATOM     25  C   UNL     1      30.742  40.683  17.195 -0.25 -0.03    +0.162 A  ATOM     26  F   UNL     1      29.057  39.038  17.078 -0.02 -0.11    -0.203 F  BRANCH  21  27ATOM     27  O   UNL     1      31.974  38.878  20.752 -0.97 -0.17    -0.497 OA ATOM     28  C   UNL     1      31.307  37.649  21.018 -0.37 +0.04    +0.278 C  ENDBRANCH  21  27BRANCH  25  29ATOM     29  O   UNL     1      30.295  41.229  16.023 -0.15 +0.19    -0.504 OA ATOM     30  H   UNL     1      31.068  41.331  15.434 -0.37 -0.21    +0.293 HD ENDBRANCH  25  29ENDBRANCH  18  20ENDBRANCH  13  18ENDBRANCH   9  12ENDBRANCH   1   8BRANCH   7  31ATOM     31  N   UNL     1      39.238  45.968  24.085 -0.09 -0.03    -0.346 N  ATOM     32  C   UNL     1      39.153  47.332  24.302 -0.25 +0.03    +0.254 C  ATOM     33  H   UNL     1      40.095  45.655  23.645 +0.08 +0.01    +0.164 HD ATOM     34  O   UNL     1      38.102  47.953  24.367 -0.44 -0.04    -0.269 OA BRANCH  32  35ATOM     35  C   UNL     1      40.425  48.059  24.452 -0.27 +0.01    +0.076 A  ATOM     36  C   UNL     1      40.802  48.578  25.672 -0.22 +0.02    +0.132 A  ATOM     37  C   UNL     1      41.338  48.230  23.433 -0.11 +0.02    +0.132 A  ATOM     38  N   UNL     1      41.962  49.243  25.875 -0.23 -0.02    -0.203 NA ATOM     39  N   UNL     1      42.518  48.877  23.582 -0.86 -0.06    -0.203 NA ATOM     40  C   UNL     1      42.775  49.355  24.815 -0.16 +0.07    +0.316 A  BRANCH  40  41ATOM     41  O   UNL     1      43.951  50.024  25.057 -0.26 -0.09    -0.454 OA BRANCH  41  42ATOM     42  C   UNL     1      44.926  49.225  25.730 -0.14 +0.03    +0.348 C  BRANCH  42  43ATOM     43  C   UNL     1      45.320  48.043  24.864 -0.06 +0.07    +0.422 C  ATOM     44  F   UNL     1      45.273  48.348  23.548 -0.08 -0.05    -0.167 F  ATOM     45  F   UNL     1      44.516  46.977  25.073 -0.00 -0.02    -0.167 F  ATOM     46  F   UNL     1      46.588  47.656  25.145 -0.01 -0.02    -0.167 F  ENDBRANCH  42  43ENDBRANCH  41  42ENDBRANCH  40  41ENDBRANCH  32  35ENDBRANCH   7  31TORSDOF 11TERENDMDL