MODEL        4USER    Run = 4USERUSER    Estimated Free Energy of Binding    = -10.84 kcal/mol  [=(1)+(2)+(3)-(4)]USERUSER    (1) Final Intermolecular Energy     = -13.82 kcal/molUSER        vdW + Hbond + desolv Energy     = -13.65 kcal/molUSER        Electrostatic Energy            =  -0.17 kcal/molUSER        Moving Ligand-Fixed Receptor    = -13.82 kcal/molUSER        Moving Ligand-Moving Receptor   =  +0.00 kcal/molUSER    (2) Final Total Internal Energy     =  -2.86 kcal/molUSER    (3) Torsional Free Energy           =  +2.98 kcal/molUSER    (4) Unbound System's Energy         =  -2.86 kcal/molUSERUSERREMARK SMILES COc1cc(F)c(O)c(C(=O)c2ccc(C(=O)N[C@@H]3CCN(C4CNC4)C[C@@H]3NC(=O)c3cnc(OC)nc3)cc2)c1REMARK SMILES IDX 16 1 17 2 18 3 15 5 12 6 13 7 41 8 14 9 40 10 10 11 11 12REMARK SMILES IDX 9 13 3 14 4 15 42 16 5 17 7 18 6 19 2 20 1 21 8 22 19 24REMARK SMILES IDX 20 25 28 26 21 27 27 28 22 29 29 30 30 31 31 33 32 34 33 35REMARK SMILES IDX 39 36 34 37 38 38 35 39 36 40 37 41 23 42 24 43 26 44 25 45REMARK H PARENT 18 4 8 23 29 32 25 46USER                              x       y       z     vdW  Elec       q    TypeUSER                           _______ _______ _______ _____ _____    ______ ____ROOTATOM      1  C   UNL     1      35.665  42.513  19.110 -0.26 -0.03    +0.251 C  ATOM      2  O   UNL     1      35.688  41.368  18.662 -0.34 +0.03    -0.269 OA ATOM      3  N   UNL     1      35.069  43.544  18.419 -0.09 +0.08    -0.347 N  ATOM      4  H   UNL     1      34.972  44.452  18.853 +0.11 -0.04    +0.164 HD ENDROOTBRANCH   1   5ATOM      5  C   UNL     1      36.290  42.803  20.438 -0.42 -0.00    +0.039 A  ATOM      6  C   UNL     1      37.519  43.171  22.953 -0.36 +0.00    +0.023 A  ATOM      7  C   UNL     1      37.102  41.898  22.558 -0.50 +0.00    +0.013 A  ATOM      8  C   UNL     1      37.295  44.261  22.099 -0.37 +0.00    +0.013 A  ATOM      9  C   UNL     1      36.493  41.719  21.309 -0.55 +0.00    +0.014 A  ATOM     10  C   UNL     1      36.683  44.082  20.850 -0.39 +0.00    +0.014 A  BRANCH   6  11ATOM     11  C   UNL     1      38.205  43.422  24.252 -0.22 +0.01    +0.196 C  ATOM     12  O   UNL     1      39.259  44.051  24.299 -0.09 -0.01    -0.288 OA BRANCH  11  13ATOM     13  C   UNL     1      37.667  42.864  25.503 -0.27 -0.00    +0.071 A  ATOM     14  C   UNL     1      35.782  42.608  27.004 -0.42 -0.03    +0.122 A  ATOM     15  C   UNL     1      36.560  41.767  27.808 -0.31 -0.03    +0.089 A  ATOM     16  C   UNL     1      36.331  43.148  25.839 -0.35 -0.00    +0.062 A  ATOM     17  C   UNL     1      37.878  41.491  27.457 -0.33 -0.02    +0.169 A  ATOM     18  C   UNL     1      38.444  42.035  26.309 -0.21 -0.01    +0.162 A  ATOM     19  F   UNL     1      38.614  40.679  28.234 -0.11 -0.01    -0.203 F  BRANCH  14  20ATOM     20  O   UNL     1      34.508  42.807  27.461 -0.23 +0.10    -0.497 OA ATOM     21  C   UNL     1      34.311  43.853  28.405 -0.45 -0.06    +0.278 C  ENDBRANCH  14  20BRANCH  18  22ATOM     22  O   UNL     1      39.750  41.776  26.000 -0.02 +0.01    -0.504 OA ATOM     23  H   UNL     1      40.130  42.599  25.633 +0.11 -0.00    +0.293 HD ENDBRANCH  18  22ENDBRANCH  11  13ENDBRANCH   6  11ENDBRANCH   1   5BRANCH   3  24ATOM     24  C   UNL     1      34.535  43.395  17.049 -0.34 -0.04    +0.107 C  ATOM     25  C   UNL     1      34.736  44.712  16.279 -0.35 -0.02    +0.042 C  ATOM     26  C   UNL     1      33.050  42.918  16.965 -0.32 -0.05    +0.118 C  ATOM     27  C   UNL     1      33.589  45.000  15.310 -0.26 -0.06    +0.087 C  ATOM     28  C   UNL     1      32.129  44.151  17.100 -0.28 -0.03    +0.112 C  ATOM     29  N   UNL     1      32.302  45.158  16.017 -0.27 +0.18    -0.296 NA BRANCH  26  30ATOM     30  N   UNL     1      32.743  41.832  17.894 -0.15 +0.09    -0.346 N  ATOM     31  C   UNL     1      31.680  40.977  17.693 -0.25 -0.06    +0.254 C  ATOM     32  H   UNL     1      33.544  41.492  18.429 +0.09 -0.03    +0.164 HD ATOM     33  O   UNL     1      30.835  41.152  16.823 -0.24 +0.08    -0.269 OA BRANCH  31  34ATOM     34  C   UNL     1      31.571  39.804  18.580 -0.37 +0.00    +0.076 A  ATOM     35  C   UNL     1      31.698  39.957  19.944 -0.16 +0.03    +0.132 A  ATOM     36  C   UNL     1      31.400  38.502  18.158 -0.23 +0.02    +0.132 A  ATOM     37  N   UNL     1      31.645  38.934  20.829 -0.76 -0.05    -0.203 NA ATOM     38  N   UNL     1      31.336  37.443  18.998 -0.74 -0.07    -0.203 NA ATOM     39  C   UNL     1      31.469  37.710  20.304 -0.27 +0.06    +0.316 A  BRANCH  39  40ATOM     40  O   UNL     1      31.417  36.606  21.126 -0.19 -0.06    -0.467 OA ATOM     41  C   UNL     1      30.190  36.498  21.836 -0.24 +0.01    +0.282 C  ENDBRANCH  39  40ENDBRANCH  31  34ENDBRANCH  26  30BRANCH  29  42ATOM     42  C   UNL     1      31.178  45.003  15.041 -0.42 -0.05    +0.084 C  ATOM     43  C   UNL     1      31.299  45.995  13.852 -0.55 -0.07    +0.101 C  ATOM     44  C   UNL     1      29.993  45.927  15.450 -0.33 -0.03    +0.101 C  ATOM     45  N   UNL     1      30.617  47.028  14.671 -0.55 +0.09    -0.314 NA ATOM     46  H   UNL     1      31.288  47.543  15.246 -0.45 -0.10    +0.122 HD ENDBRANCH  29  42ENDBRANCH   3  24TORSDOF 10TERENDMDL