REMARK SMILES COc1cc(F)c(O)c(C(=O)c2ccc(C(=O)N[C@@H]3CCN(C)C[C@H]3NC(=O)c3cnc(OCC(F)(F)F)nc3)cc2)c1
REMARK SMILES IDX 19 1 20 2 21 3 22 4 23 5 24 6 25 7 18 8 16 9 17 10 15 12
REMARK SMILES IDX 12 13 13 14 42 15 14 16 41 17 10 18 11 19 9 20 3 21 4 22
REMARK SMILES IDX 43 23 5 24 7 25 6 26 2 27 1 28 8 29 26 31 27 32 28 34 29 35
REMARK SMILES IDX 30 36 40 37 31 38 39 39 32 40 33 41 34 42 35 43 36 44 37 45
REMARK SMILES IDX 38 46
REMARK H PARENT 18 11 8 30 26 33
ROOT
ATOM      1  C   UNL     1       1.480   0.855   0.668  1.00  0.00     0.107 C 
ATOM      2  C   UNL     1       1.504   1.882   1.806  1.00  0.00     0.042 C 
ATOM      3  C   UNL     1       1.072   3.277   1.329  1.00  0.00     0.086 C 
ATOM      4  N   UNL     1       1.181   3.446  -0.130  1.00  0.00    -0.304 NA
ATOM      5  C   UNL     1       1.079   4.856  -0.498  1.00  0.00     0.105 C 
ATOM      6  C   UNL     1       2.435   2.853  -0.624  1.00  0.00     0.111 C 
ATOM      7  C   UNL     1       2.431   1.303  -0.482  1.00  0.00     0.118 C 
ENDROOT
BRANCH   1   8
ATOM      8  N   UNL     1       0.113   0.661   0.182  1.00  0.00    -0.347 N 
ATOM      9  C   UNL     1      -0.766  -0.192   0.806  1.00  0.00     0.251 C 
ATOM     10  O   UNL     1      -0.418  -1.008   1.652  1.00  0.00    -0.269 OA
ATOM     11  H   UNL     1      -0.235   1.386  -0.436  1.00  0.00     0.164 HD
BRANCH   9  12
ATOM     12  C   UNL     1      -2.200  -0.090   0.408  1.00  0.00     0.039 A 
ATOM     13  C   UNL     1      -4.936   0.009  -0.246  1.00  0.00     0.023 A 
ATOM     14  C   UNL     1      -4.139   1.160  -0.330  1.00  0.00     0.013 A 
ATOM     15  C   UNL     1      -4.357  -1.196   0.172  1.00  0.00     0.013 A 
ATOM     16  C   UNL     1      -2.778   1.115  -0.004  1.00  0.00     0.014 A 
ATOM     17  C   UNL     1      -2.997  -1.242   0.499  1.00  0.00     0.014 A 
BRANCH  13  18
ATOM     18  C   UNL     1      -6.393   0.136  -0.534  1.00  0.00     0.196 C 
ATOM     19  O   UNL     1      -6.926   1.241  -0.615  1.00  0.00    -0.288 OA
BRANCH  18  20
ATOM     20  C   UNL     1      -7.248  -1.054  -0.667  1.00  0.00     0.071 A 
ATOM     21  C   UNL     1      -9.046  -2.405   0.238  1.00  0.00     0.122 A 
ATOM     22  C   UNL     1      -8.912  -3.277  -0.847  1.00  0.00     0.089 A 
ATOM     23  C   UNL     1      -8.223  -1.280   0.319  1.00  0.00     0.062 A 
ATOM     24  C   UNL     1      -7.961  -3.025  -1.833  1.00  0.00     0.169 A 
ATOM     25  C   UNL     1      -7.118  -1.922  -1.750  1.00  0.00     0.162 A 
ATOM     26  F   UNL     1      -7.843  -3.863  -2.874  1.00  0.00    -0.203 F 
BRANCH  21  27
ATOM     27  O   UNL     1     -10.009  -2.762   1.142  1.00  0.00    -0.497 OA
ATOM     28  C   UNL     1     -10.143  -1.949   2.303  1.00  0.00     0.278 C 
ENDBRANCH  21  27
BRANCH  25  29
ATOM     29  O   UNL     1      -6.186  -1.700  -2.727  1.00  0.00    -0.504 OA
ATOM     30  H   UNL     1      -6.308  -2.387  -3.410  1.00  0.00     0.293 HD
ENDBRANCH  25  29
ENDBRANCH  18  20
ENDBRANCH  13  18
ENDBRANCH   9  12
ENDBRANCH   1   8
BRANCH   7  31
ATOM     31  N   UNL     1       3.780   0.744  -0.273  1.00  0.00    -0.346 N 
ATOM     32  C   UNL     1       4.803   1.004  -1.168  1.00  0.00     0.254 C 
ATOM     33  H   UNL     1       3.793  -0.182   0.138  1.00  0.00     0.164 HD
ATOM     34  O   UNL     1       4.725   1.810  -2.084  1.00  0.00    -0.269 OA
BRANCH  32  35
ATOM     35  C   UNL     1       6.050   0.242  -0.987  1.00  0.00     0.076 A 
ATOM     36  C   UNL     1       6.884  -0.010  -2.055  1.00  0.00     0.132 A 
ATOM     37  C   UNL     1       6.497  -0.222   0.232  1.00  0.00     0.132 A 
ATOM     38  N   UNL     1       8.047  -0.693  -1.949  1.00  0.00    -0.203 NA
ATOM     39  N   UNL     1       7.657  -0.901   0.397  1.00  0.00    -0.203 NA
ATOM     40  C   UNL     1       8.385  -1.102  -0.718  1.00  0.00     0.316 A 
BRANCH  40  41
ATOM     41  O   UNL     1       9.578  -1.780  -0.642  1.00  0.00    -0.454 OA
BRANCH  41  42
ATOM     42  C   UNL     1       9.955  -2.111   0.696  1.00  0.00     0.348 C 
BRANCH  42  43
ATOM     43  C   UNL     1      11.336  -2.738   0.709  1.00  0.00     0.422 C 
ATOM     44  F   UNL     1      12.273  -1.898   0.213  1.00  0.00    -0.167 F 
ATOM     45  F   UNL     1      11.377  -3.880  -0.013  1.00  0.00    -0.167 F 
ATOM     46  F   UNL     1      11.701  -3.047   1.978  1.00  0.00    -0.167 F 
ENDBRANCH  42  43
ENDBRANCH  41  42
ENDBRANCH  40  41
ENDBRANCH  32  35
ENDBRANCH   7  31
TORSDOF 11
