MODEL        9USER    Run = 9USERUSER    Estimated Free Energy of Binding    = -10.08 kcal/mol  [=(1)+(2)+(3)-(4)]USERUSER    (1) Final Intermolecular Energy     = -13.07 kcal/molUSER        vdW + Hbond + desolv Energy     = -12.77 kcal/molUSER        Electrostatic Energy            =  -0.30 kcal/molUSER        Moving Ligand-Fixed Receptor    = -13.07 kcal/molUSER        Moving Ligand-Moving Receptor   =  +0.00 kcal/molUSER    (2) Final Total Internal Energy     =  -3.27 kcal/molUSER    (3) Torsional Free Energy           =  +2.98 kcal/molUSER    (4) Unbound System's Energy         =  -3.27 kcal/molUSERUSERREMARK SMILES COc1cc(F)c(O)c(C(=O)c2ccc(C(=O)N[C@@H]3CCN(C4COC4)C[C@@H]3NC(=O)c3cnc(OC)nc3)cc2)c1REMARK SMILES IDX 16 1 17 2 18 3 15 5 12 6 13 7 41 8 14 9 40 10 10 11 11 12REMARK SMILES IDX 9 13 3 14 4 15 42 16 5 17 7 18 6 19 2 20 1 21 8 22 19 24REMARK SMILES IDX 20 25 28 26 21 27 27 28 22 29 29 30 30 31 31 33 32 34 33 35REMARK SMILES IDX 39 36 34 37 38 38 35 39 36 40 37 41 23 42 24 43 26 44 25 45REMARK H PARENT 18 4 8 23 29 32USER                              x       y       z     vdW  Elec       q    TypeUSER                           _______ _______ _______ _____ _____    ______ ____ROOTATOM      1  C   UNL     1      41.243  47.231  17.807 -0.37 -0.02    +0.251 C  ATOM      2  O   UNL     1      41.722  48.202  17.229 -0.73 +0.00    -0.269 OA ATOM      3  N   UNL     1      40.151  46.532  17.329 -0.23 +0.05    -0.347 N  ATOM      4  H   UNL     1      39.901  45.655  17.759 +0.11 -0.02    +0.164 HD ENDROOTBRANCH   1   5ATOM      5  C   UNL     1      41.783  46.806  19.131 -0.47 +0.00    +0.039 A  ATOM      6  C   UNL     1      42.784  45.821  21.566 -0.26 +0.01    +0.023 A  ATOM      7  C   UNL     1      41.581  45.328  21.047 -0.32 +0.00    +0.013 A  ATOM      8  C   UNL     1      43.458  46.846  20.888 -0.34 +0.01    +0.013 A  ATOM      9  C   UNL     1      41.085  45.817  19.836 -0.41 +0.00    +0.014 A  ATOM     10  C   UNL     1      42.956  47.339  19.678 -0.48 +0.00    +0.014 A  BRANCH   6  11ATOM     11  C   UNL     1      43.322  45.211  22.815 -0.13 +0.05    +0.196 C  ATOM     12  O   UNL     1      42.877  45.516  23.917 -0.04 -0.03    -0.288 OA BRANCH  11  13ATOM     13  C   UNL     1      44.336  44.146  22.734 -0.19 +0.02    +0.071 A  ATOM     14  C   UNL     1      46.549  43.460  22.026 -0.18 +0.07    +0.122 A  ATOM     15  C   UNL     1      46.310  42.196  22.571 -0.23 -0.00    +0.089 A  ATOM     16  C   UNL     1      45.555  44.437  22.100 -0.03 +0.05    +0.062 A  ATOM     17  C   UNL     1      45.091  41.918  23.181 -0.21 -0.01    +0.169 A  ATOM     18  C   UNL     1      44.100  42.888  23.277 -0.19 +0.01    +0.162 A  ATOM     19  F   UNL     1      44.871  40.701  23.705 -0.10 +0.02    -0.203 F  BRANCH  14  20ATOM     20  O   UNL     1      47.786  43.618  21.462 -0.64 -0.38    -0.497 OA ATOM     21  C   UNL     1      48.739  42.587  21.692 -0.09 -0.02    +0.278 C  ENDBRANCH  14  20BRANCH  18  22ATOM     22  O   UNL     1      42.929  42.608  23.923 -0.07 +0.03    -0.504 OA ATOM     23  H   UNL     1      42.649  43.420  24.388 +0.08 -0.00    +0.293 HD ENDBRANCH  18  22ENDBRANCH  11  13ENDBRANCH   6  11ENDBRANCH   1   5BRANCH   3  24ATOM     24  C   UNL     1      39.597  46.811  16.011 -0.45 -0.02    +0.107 C  ATOM     25  C   UNL     1      38.820  48.131  16.012 -0.49 -0.02    +0.042 C  ATOM     26  C   UNL     1      38.710  45.662  15.469 -0.28 -0.03    +0.118 C  ATOM     27  C   UNL     1      38.244  48.425  14.625 -0.53 -0.05    +0.087 C  ATOM     28  C   UNL     1      38.235  46.064  14.050 -0.38 -0.03    +0.112 C  ATOM     29  N   UNL     1      37.425  47.305  14.126 -0.25 +0.14    -0.294 NA BRANCH  26  30ATOM     30  N   UNL     1      37.523  45.415  16.309 -0.12 +0.12    -0.346 N  ATOM     31  C   UNL     1      37.563  44.736  17.503 -0.24 -0.06    +0.254 C  ATOM     32  H   UNL     1      36.648  45.660  15.865 +0.12 -0.08    +0.164 HD ATOM     33  O   UNL     1      38.601  44.341  18.023 -0.24 +0.04    -0.269 OA BRANCH  31  34ATOM     34  C   UNL     1      36.279  44.481  18.183 -0.28 -0.02    +0.076 A  ATOM     35  C   UNL     1      35.170  45.295  18.113 -0.28 -0.06    +0.132 A  ATOM     36  C   UNL     1      36.135  43.376  18.996 -0.25 -0.02    +0.132 A  ATOM     37  N   UNL     1      34.007  45.045  18.758 -0.29 +0.08    -0.203 NA ATOM     38  N   UNL     1      34.998  43.077  19.664 -0.31 +0.01    -0.203 NA ATOM     39  C   UNL     1      33.977  43.930  19.510 -0.18 -0.05    +0.316 A  BRANCH  39  40ATOM     40  O   UNL     1      32.832  43.595  20.198 -0.78 -0.04    -0.467 OA ATOM     41  C   UNL     1      31.709  43.400  19.353 -0.12 -0.00    +0.282 C  ENDBRANCH  39  40ENDBRANCH  31  34ENDBRANCH  26  30BRANCH  29  42ATOM     42  C   UNL     1      36.765  47.726  12.861 -0.62 -0.04    +0.108 C  ATOM     43  C   UNL     1      37.224  47.002  11.589 -0.52 -0.05    +0.181 C  ATOM     44  C   UNL     1      35.450  46.966  12.626 -0.36 -0.12    +0.181 C  ATOM     45  O   UNL     1      36.098  46.087  11.664 -0.39 +0.17    -0.378 OA ENDBRANCH  29  42ENDBRANCH   3  24TORSDOF 10TERENDMDL