MODEL        7USER    Run = 7USERUSER    Estimated Free Energy of Binding    =  -9.66 kcal/mol  [=(1)+(2)+(3)-(4)]USERUSER    (1) Final Intermolecular Energy     = -13.24 kcal/molUSER        vdW + Hbond + desolv Energy     = -13.09 kcal/molUSER        Electrostatic Energy            =  -0.15 kcal/molUSER        Moving Ligand-Fixed Receptor    = -13.24 kcal/molUSER        Moving Ligand-Moving Receptor   =  +0.00 kcal/molUSER    (2) Final Total Internal Energy     =  -3.96 kcal/molUSER    (3) Torsional Free Energy           =  +3.58 kcal/molUSER    (4) Unbound System's Energy         =  -3.96 kcal/molUSERUSERREMARK SMILES COc1cc(F)c(O)c(C(=O)c2ccc(C(=O)N[C@@H]3CCN(C[C@@H](C)O)C[C@@H]3NC(=O)c3cnc(OC)nc3)cc2)c1REMARK SMILES IDX 16 1 17 2 18 3 15 5 12 6 13 7 41 8 14 9 40 10 10 11 11 12REMARK SMILES IDX 9 13 3 14 4 15 42 16 5 17 7 18 6 19 2 20 1 21 8 22 19 24REMARK SMILES IDX 20 25 28 26 21 27 27 28 22 29 29 30 30 31 31 33 32 34 33 35REMARK SMILES IDX 39 36 34 37 38 38 35 39 36 40 37 41 23 42 24 43 25 44 26 45REMARK H PARENT 18 4 8 23 29 32 26 46USER                              x       y       z     vdW  Elec       q    TypeUSER                           _______ _______ _______ _____ _____    ______ ____ROOTATOM      1  C   UNL     1      38.497  44.061  21.033 -0.22 +0.00    +0.251 C  ATOM      2  O   UNL     1      38.488  43.084  21.771 -0.18 -0.01    -0.269 OA ATOM      3  N   UNL     1      39.515  44.986  20.982 -0.14 -0.01    -0.347 N  ATOM      4  H   UNL     1      39.587  45.554  20.148 +0.09 +0.00    +0.164 HD ENDROOTBRANCH   1   5ATOM      5  C   UNL     1      37.382  44.299  20.077 -0.35 -0.00    +0.039 A  ATOM      6  C   UNL     1      35.262  44.695  18.293 -0.33 -0.01    +0.023 A  ATOM      7  C   UNL     1      36.569  45.023  17.910 -0.33 -0.00    +0.013 A  ATOM      8  C   UNL     1      35.014  44.220  19.587 -0.39 -0.00    +0.013 A  ATOM      9  C   UNL     1      37.629  44.816  18.798 -0.35 -0.00    +0.014 A  ATOM     10  C   UNL     1      36.072  44.024  20.478 -0.39 -0.00    +0.014 A  BRANCH   6  11ATOM     11  C   UNL     1      34.110  44.899  17.379 -0.25 -0.10    +0.196 C  ATOM     12  O   UNL     1      34.098  45.880  16.635 -0.19 +0.31    -0.288 OA BRANCH  11  13ATOM     13  C   UNL     1      32.978  43.943  17.295 -0.26 -0.03    +0.071 A  ATOM     14  C   UNL     1      32.052  41.709  17.599 -0.26 -0.04    +0.122 A  ATOM     15  C   UNL     1      30.840  42.140  17.066 -0.24 -0.03    +0.089 A  ATOM     16  C   UNL     1      33.112  42.615  17.725 -0.31 -0.02    +0.062 A  ATOM     17  C   UNL     1      30.693  43.472  16.679 -0.18 -0.05    +0.169 A  ATOM     18  C   UNL     1      31.744  44.380  16.797 -0.18 -0.05    +0.162 A  ATOM     19  F   UNL     1      29.508  43.871  16.191 -0.04 +0.08    -0.203 F  BRANCH  14  20ATOM     20  O   UNL     1      32.335  40.443  18.032 -0.17 +0.09    -0.497 OA ATOM     21  C   UNL     1      31.232  39.563  18.217 -0.28 +0.01    +0.278 C  ENDBRANCH  14  20BRANCH  18  22ATOM     22  O   UNL     1      31.523  45.676  16.415 -0.57 +0.16    -0.504 OA ATOM     23  H   UNL     1      32.392  46.134  16.372 -0.16 -0.31    +0.293 HD ENDBRANCH  18  22ENDBRANCH  11  13ENDBRANCH   6  11ENDBRANCH   1   5BRANCH   3  24ATOM     24  C   UNL     1      40.737  44.854  21.774 -0.26 +0.01    +0.107 C  ATOM     25  C   UNL     1      40.664  45.696  23.061 -0.22 +0.00    +0.042 C  ATOM     26  C   UNL     1      42.016  45.167  20.941 -0.27 +0.02    +0.118 C  ATOM     27  C   UNL     1      41.275  47.087  22.887 -0.20 +0.01    +0.087 C  ATOM     28  C   UNL     1      43.093  45.768  21.868 -0.24 +0.04    +0.111 C  ATOM     29  N   UNL     1      42.647  47.086  22.347 -0.15 -0.06    -0.299 NA BRANCH  26  30ATOM     30  N   UNL     1      41.771  46.120  19.835 -0.20 -0.05    -0.346 N  ATOM     31  C   UNL     1      41.148  45.763  18.663 -0.35 +0.01    +0.254 C  ATOM     32  H   UNL     1      42.223  47.018  19.969 +0.08 +0.02    +0.164 HD ATOM     33  O   UNL     1      40.654  44.656  18.488 -0.31 -0.00    -0.269 OA BRANCH  31  34ATOM     34  C   UNL     1      41.049  46.774  17.595 -0.44 -0.01    +0.076 A  ATOM     35  C   UNL     1      40.364  46.482  16.434 -0.35 -0.02    +0.132 A  ATOM     36  C   UNL     1      41.564  48.051  17.660 -0.34 -0.01    +0.132 A  ATOM     37  N   UNL     1      40.205  47.353  15.411 -0.33 +0.04    -0.203 NA ATOM     38  N   UNL     1      41.431  48.963  16.670 -0.97 -0.00    -0.203 NA ATOM     39  C   UNL     1      40.755  48.567  15.580 -0.31 -0.06    +0.316 A  BRANCH  39  40ATOM     40  O   UNL     1      40.633  49.524  14.596 -0.25 +0.17    -0.467 OA ATOM     41  C   UNL     1      41.888  50.022  14.149 -0.50 -0.06    +0.282 C  ENDBRANCH  39  40ENDBRANCH  31  34ENDBRANCH  26  30BRANCH  29  42ATOM     42  C   UNL     1      43.627  47.762  23.217 -0.29 +0.03    +0.116 C  BRANCH  42  43ATOM     43  C   UNL     1      45.094  47.869  22.728 -0.22 +0.05    +0.125 C  ATOM     44  C   UNL     1      45.972  46.855  23.456 -0.16 +0.02    +0.039 C  BRANCH  43  45ATOM     45  O   UNL     1      45.182  47.617  21.327 -0.66 -0.36    -0.392 OA ATOM     46  H   UNL     1      44.296  47.740  20.945 -0.43 +0.08    +0.210 HD ENDBRANCH  43  45ENDBRANCH  42  43ENDBRANCH  29  42ENDBRANCH   3  24TORSDOF 12TERENDMDL