MODEL        5USER    Run = 5USERUSER    Estimated Free Energy of Binding    =  -9.21 kcal/mol  [=(1)+(2)+(3)-(4)]USERUSER    (1) Final Intermolecular Energy     = -12.49 kcal/molUSER        vdW + Hbond + desolv Energy     = -12.22 kcal/molUSER        Electrostatic Energy            =  -0.27 kcal/molUSER        Moving Ligand-Fixed Receptor    = -12.49 kcal/molUSER        Moving Ligand-Moving Receptor   =  +0.00 kcal/molUSER    (2) Final Total Internal Energy     =  -2.33 kcal/molUSER    (3) Torsional Free Energy           =  +3.28 kcal/molUSER    (4) Unbound System's Energy         =  -2.33 kcal/molUSERUSERREMARK SMILES CCCc1cnc(F)c(C(=O)n2sc(=N)[nH]c2=O)c1N(C)CCN1CCN(CC(=O)N2CCOCC2)CC1REMARK SMILES IDX 20 1 21 2 19 3 4 4 5 5 6 6 9 7 7 8 8 9 3 10 2 11 1 12 10 13REMARK SMILES IDX 11 14 12 15 13 16 17 17 14 18 16 19 18 20 15 22 22 24 23 25REMARK SMILES IDX 24 26 25 27 38 28 26 29 37 30 27 31 28 32 29 33 31 34 32 35REMARK SMILES IDX 36 36 33 37 35 38 34 39 30 40REMARK H PARENT 16 21 15 23USER                              x       y       z     vdW  Elec       q    TypeUSER                           _______ _______ _______ _____ _____    ______ ____ROOTATOM      1  N   UNL     1      35.857  45.223  17.854 -0.10 +0.15    -0.372 N  ATOM      2  C   UNL     1      34.984  46.389  17.756 -0.35 -0.12    +0.143 C  ENDROOTBRANCH   1   3ATOM      3  C   UNL     1      35.387  44.072  18.490 -0.29 -0.02    +0.059 A  ATOM      4  C   UNL     1      35.791  43.803  19.818 -0.41 +0.00    -0.005 A  ATOM      5  C   UNL     1      35.323  42.637  20.434 -0.33 +0.00    +0.120 A  ATOM      6  N   UNL     1      34.502  41.738  19.858 -0.16 -0.01    -0.227 NA ATOM      7  C   UNL     1      34.531  43.135  17.888 -0.26 -0.03    +0.120 A  ATOM      8  C   UNL     1      34.114  42.019  18.598 -0.23 -0.04    +0.227 A  ATOM      9  F   UNL     1      33.315  41.118  18.004 -0.13 +0.05    -0.184 F  BRANCH   4  10ATOM     10  C   UNL     1      36.655  44.741  20.628 +0.01 -0.00    +0.039 C  BRANCH  10  11ATOM     11  C   UNL     1      38.161  44.485  20.498 -0.42 -0.00    +0.001 C  ATOM     12  C   UNL     1      39.002  45.302  21.469 -0.38 +0.00    +0.004 C  ENDBRANCH  10  11ENDBRANCH   4  10BRANCH   7  13ATOM     13  C   UNL     1      34.044  43.253  16.511 -0.22 -0.12    +0.282 C  ATOM     14  O   UNL     1      34.631  42.574  15.669 -0.23 +0.12    -0.267 OA BRANCH  13  15ATOM     15  N   UNL     1      32.995  44.136  16.256 -0.22 +0.09    -0.176 N  ATOM     16  S   UNL     1      33.104  45.513  15.223 -0.47 +0.01    -0.008 S  ATOM     17  C   UNL     1      31.742  44.075  16.894 -0.06 -0.11    +0.344 A  ATOM     18  C   UNL     1      31.493  45.990  15.627 -0.20 -0.13    +0.200 A  ATOM     19  N   UNL     1      30.943  45.119  16.489 -0.11 +0.05    -0.281 N  ATOM     20  O   UNL     1      31.350  43.258  17.715 -0.19 +0.05    -0.246 OA ATOM     21  H   UNL     1      30.014  45.240  16.857 +0.11 +0.01    +0.174 HD BRANCH  18  22ATOM     22  N   UNL     1      30.882  47.020  15.182 -0.72 +0.11    -0.274 NA ATOM     23  H   UNL     1      31.548  47.803  15.166 -0.40 -0.24    +0.190 HD ENDBRANCH  18  22ENDBRANCH  13  15ENDBRANCH   7  13ENDBRANCH   1   3BRANCH   1  24ATOM     24  C   UNL     1      36.978  45.071  16.912 -0.31 -0.05    +0.131 C  BRANCH  24  25ATOM     25  C   UNL     1      36.546  44.790  15.450 -0.35 -0.04    +0.106 C  BRANCH  25  26ATOM     26  N   UNL     1      36.470  46.008  14.616 -0.17 +0.17    -0.299 NA ATOM     27  C   UNL     1      37.449  46.003  13.514 -0.45 -0.03    +0.100 C  ATOM     28  C   UNL     1      36.648  47.228  15.444 -0.38 -0.09    +0.100 C  ATOM     29  C   UNL     1      38.926  46.233  13.930 -0.19 -0.02    +0.100 C  ATOM     30  C   UNL     1      37.937  48.053  15.188 -0.50 -0.06    +0.100 C  ATOM     31  N   UNL     1      39.114  47.182  15.046 -0.23 +0.09    -0.292 NA BRANCH  31  32ATOM     32  C   UNL     1      40.369  47.949  14.884 -0.44 -0.03    +0.185 C  BRANCH  32  33ATOM     33  C   UNL     1      41.015  48.356  16.227 -0.42 -0.03    +0.236 C  ATOM     34  N   UNL     1      41.132  47.345  17.189 -0.25 +0.04    -0.337 N  ATOM     35  C   UNL     1      40.253  46.168  17.221 -0.42 -0.02    +0.148 C  ATOM     36  C   UNL     1      41.670  47.723  18.500 -0.31 -0.00    +0.148 C  ATOM     37  C   UNL     1      40.871  45.024  18.033 -0.31 +0.00    +0.181 C  ATOM     38  C   UNL     1      42.228  46.512  19.256 -0.40 +0.03    +0.181 C  ATOM     39  O   UNL     1      41.249  45.463  19.344 -0.22 -0.03    -0.378 OA ATOM     40  O   UNL     1      41.425  49.496  16.452 -1.09 -0.00    -0.273 OA ENDBRANCH  32  33ENDBRANCH  31  32ENDBRANCH  25  26ENDBRANCH  24  25ENDBRANCH   1  24TORSDOF 11TERENDMDL