REMARK SMILES CCCc1cnc(F)c(C(=O)n2sc(=N)[nH]c2=O)c1N(C)CCN1CCN(CC(=O)N2CCOCC2)CC1
REMARK SMILES IDX 20 1 21 2 19 3 4 4 5 5 6 6 9 7 7 8 8 9 3 10 2 11 1 12 10 13
REMARK SMILES IDX 11 14 12 15 13 16 17 17 14 18 16 19 18 20 15 22 22 24 23 25
REMARK SMILES IDX 24 26 25 27 38 28 26 29 37 30 27 31 28 32 29 33 31 34 32 35
REMARK SMILES IDX 36 36 33 37 35 38 34 39 30 40
REMARK H PARENT 16 21 15 23
ROOT
ATOM      1  N   UNL     1      -2.958   1.422  -0.383  1.00  0.00    -0.372 N 
ATOM      2  C   UNL     1      -2.521   1.948  -1.673  1.00  0.00     0.143 C 
ENDROOT
BRANCH   1   3
ATOM      3  C   UNL     1      -4.267   0.956  -0.246  1.00  0.00     0.059 A 
ATOM      4  C   UNL     1      -5.109   1.536   0.731  1.00  0.00    -0.005 A 
ATOM      5  C   UNL     1      -6.413   1.046   0.864  1.00  0.00     0.120 A 
ATOM      6  N   UNL     1      -6.942   0.053   0.123  1.00  0.00    -0.227 NA
ATOM      7  C   UNL     1      -4.818  -0.080  -1.020  1.00  0.00     0.120 A 
ATOM      8  C   UNL     1      -6.131  -0.477  -0.814  1.00  0.00     0.227 A 
ATOM      9  F   UNL     1      -6.639  -1.484  -1.543  1.00  0.00    -0.184 F 
BRANCH   4  10
ATOM     10  C   UNL     1      -4.692   2.701   1.598  1.00  0.00     0.039 C 
BRANCH  10  11
ATOM     11  C   UNL     1      -4.671   4.052   0.873  1.00  0.00     0.001 C 
ATOM     12  C   UNL     1      -6.040   4.496   0.377  1.00  0.00     0.004 C 
ENDBRANCH  10  11
ENDBRANCH   4  10
BRANCH   7  13
ATOM     13  C   UNL     1      -4.071  -0.802  -2.053  1.00  0.00     0.282 C 
ATOM     14  O   UNL     1      -4.093  -0.310  -3.181  1.00  0.00    -0.267 OA
BRANCH  13  15
ATOM     15  N   UNL     1      -3.433  -1.990  -1.696  1.00  0.00    -0.176 N 
ATOM     16  S   UNL     1      -3.531  -2.724  -0.138  1.00  0.00    -0.008 S 
ATOM     17  C   UNL     1      -2.542  -2.687  -2.533  1.00  0.00     0.344 A 
ATOM     18  C   UNL     1      -2.409  -3.952  -0.606  1.00  0.00     0.200 A 
ATOM     19  N   UNL     1      -2.020  -3.779  -1.880  1.00  0.00    -0.281 N 
ATOM     20  O   UNL     1      -2.211  -2.415  -3.679  1.00  0.00    -0.246 OA
ATOM     21  H   UNL     1      -1.351  -4.385  -2.326  1.00  0.00     0.174 HD
BRANCH  18  22
ATOM     22  N   UNL     1      -1.990  -4.906   0.134  1.00  0.00    -0.274 NA
ATOM     23  H   UNL     1      -2.430  -4.809   1.058  1.00  0.00     0.190 HD
ENDBRANCH  18  22
ENDBRANCH  13  15
ENDBRANCH   7  13
ENDBRANCH   1   3
BRANCH   1  24
ATOM     24  C   UNL     1      -1.959   0.939   0.584  1.00  0.00     0.131 C 
BRANCH  24  25
ATOM     25  C   UNL     1      -0.829   0.084  -0.044  1.00  0.00     0.106 C 
BRANCH  25  26
ATOM     26  N   UNL     1      -0.164  -0.813   0.924  1.00  0.00    -0.299 NA
ATOM     27  C   UNL     1       0.577  -0.077   1.964  1.00  0.00     0.100 C 
ATOM     28  C   UNL     1       0.746  -1.759   0.229  1.00  0.00     0.100 C 
ATOM     29  C   UNL     1       1.895   0.596   1.496  1.00  0.00     0.100 C 
ATOM     30  C   UNL     1       2.263  -1.585   0.506  1.00  0.00     0.100 C 
ATOM     31  N   UNL     1       2.655  -0.167   0.485  1.00  0.00    -0.292 NA
BRANCH  31  32
ATOM     32  C   UNL     1       4.111   0.020   0.663  1.00  0.00     0.185 C 
BRANCH  32  33
ATOM     33  C   UNL     1       4.946  -0.502  -0.528  1.00  0.00     0.236 C 
ATOM     34  N   UNL     1       6.317  -0.667  -0.296  1.00  0.00    -0.337 N 
ATOM     35  C   UNL     1       7.050   0.085   0.731  1.00  0.00     0.148 C 
ATOM     36  C   UNL     1       7.145  -1.086  -1.433  1.00  0.00     0.148 C 
ATOM     37  C   UNL     1       8.371  -0.600   1.098  1.00  0.00     0.181 C 
ATOM     38  C   UNL     1       8.461  -1.722  -0.972  1.00  0.00     0.181 C 
ATOM     39  O   UNL     1       9.165  -0.854  -0.068  1.00  0.00    -0.378 OA
ATOM     40  O   UNL     1       4.449  -0.777  -1.621  1.00  0.00    -0.273 OA
ENDBRANCH  32  33
ENDBRANCH  31  32
ENDBRANCH  25  26
ENDBRANCH  24  25
ENDBRANCH   1  24
TORSDOF 11
