
     RDKit          3D

 64 67  0  0  0  0  0  0  0  0999 V2000
   -2.2390   -5.1323    1.7376 C   0  0  0  0  0  0  0  0  0  0  0  0
   -1.6481   -3.9391    1.2413 O   0  0  0  0  0  0  0  0  0  0  0  0
   -0.2189   -3.9984    1.1369 C   0  0  0  0  0  0  0  0  0  0  0  0
    0.2029   -4.7076   -0.1524 C   0  0  0  0  0  0  0  0  0  0  0  0
   -0.0903   -3.8418   -1.3734 C   0  0  0  0  0  0  0  0  0  0  0  0
    0.6691   -2.5246   -1.2838 C   0  0  0  0  0  0  0  0  0  0  0  0
    0.3585   -1.8016   -0.0458 N   0  0  0  0  0  0  0  0  0  0  0  0
   -0.5596   -0.7536   -0.1914 C   0  0  0  0  0  0  0  0  0  0  0  0
   -1.9250   -0.9326    0.0435 C   0  0  0  0  0  0  0  0  0  0  0  0
   -2.8275    0.1132   -0.1318 C   0  0  0  0  0  0  0  0  0  0  0  0
   -4.1876   -0.1366    0.1450 N   0  0  0  0  0  0  0  0  0  0  0  0
   -5.2334    0.7124    0.2008 C   0  0  0  0  0  0  0  0  0  0  0  0
   -5.1797    2.1123    0.3927 C   0  0  0  0  0  0  0  0  0  0  0  0
   -6.4894    2.5383    0.3965 C   0  0  0  0  0  0  0  0  0  0  0  0
   -7.0968    3.8767    0.5445 C   0  0  0  0  0  0  0  0  0  0  0  0
   -7.2314    1.4062    0.2203 N   0  0  0  0  0  0  0  0  0  0  0  0
   -6.4984    0.2880    0.1122 N   0  0  0  0  0  0  0  0  0  0  0  0
   -2.4024    1.3350   -0.4990 N   0  0  0  0  0  0  0  0  0  0  0  0
   -1.0820    1.5372   -0.7271 C   0  0  0  0  0  0  0  0  0  0  0  0
   -0.7186    2.9407   -1.1230 C   0  0  0  0  0  0  0  0  0  0  0  0
   -0.1222    0.5222   -0.5998 C   0  0  0  0  0  0  0  0  0  0  0  0
    1.3493    0.8091   -0.8025 C   0  0  0  0  0  0  0  0  0  0  0  0
    2.0452    1.1212    0.5246 C   0  0  0  0  0  0  0  0  0  0  0  0
    3.4620    1.3903    0.3517 N   0  0  0  0  0  0  0  0  0  0  0  0
    3.9156    2.6079   -0.1270 C   0  0  0  0  0  0  0  0  0  0  0  0
    3.1331    3.5155   -0.3982 O   0  0  0  0  0  0  0  0  0  0  0  0
    5.3479    2.7079   -0.2875 C   0  0  0  0  0  0  0  0  0  0  0  0
    6.4095    1.8774    0.0033 C   0  0  0  0  0  0  0  0  0  0  0  0
    7.5536    2.5948   -0.4131 C   0  0  0  0  0  0  0  0  0  0  0  0
    8.9750    2.1908   -0.3386 C   0  0  0  0  0  0  0  0  0  0  0  0
    7.2201    3.7829   -0.9250 N   0  0  0  0  0  0  0  0  0  0  0  0
    5.8408    3.8540   -0.8420 O   0  0  0  0  0  0  0  0  0  0  0  0
    0.3717   -2.5695    1.2169 C   0  0  0  0  0  0  0  0  0  0  0  0
   -3.3190   -4.9745    1.8052 H   0  0  0  0  0  0  0  0  0  0  0  0
   -2.0572   -5.9744    1.0655 H   0  0  0  0  0  0  0  0  0  0  0  0
   -1.8609   -5.3597    2.7387 H   0  0  0  0  0  0  0  0  0  0  0  0
    0.1626   -4.5567    2.0018 H   0  0  0  0  0  0  0  0  0  0  0  0
    1.2769   -4.9271   -0.1127 H   0  0  0  0  0  0  0  0  0  0  0  0
   -0.3167   -5.6639   -0.2662 H   0  0  0  0  0  0  0  0  0  0  0  0
   -1.1679   -3.6569   -1.4548 H   0  0  0  0  0  0  0  0  0  0  0  0
    0.2135   -4.3756   -2.2810 H   0  0  0  0  0  0  0  0  0  0  0  0
    1.7476   -2.7261   -1.2973 H   0  0  0  0  0  0  0  0  0  0  0  0
    0.4598   -1.9204   -2.1760 H   0  0  0  0  0  0  0  0  0  0  0  0
   -2.3022   -1.8982    0.3518 H   0  0  0  0  0  0  0  0  0  0  0  0
   -4.4497   -1.0820   -0.1012 H   0  0  0  0  0  0  0  0  0  0  0  0
   -4.2991    2.7275    0.5099 H   0  0  0  0  0  0  0  0  0  0  0  0
   -7.6743    4.1389   -0.3477 H   0  0  0  0  0  0  0  0  0  0  0  0
   -6.3282    4.6430    0.6872 H   0  0  0  0  0  0  0  0  0  0  0  0
   -7.7661    3.9038    1.4104 H   0  0  0  0  0  0  0  0  0  0  0  0
   -8.2407    1.3226    0.1687 H   0  0  0  0  0  0  0  0  0  0  0  0
    0.0117    3.3629   -0.4265 H   0  0  0  0  0  0  0  0  0  0  0  0
   -0.3132    2.9580   -2.1392 H   0  0  0  0  0  0  0  0  0  0  0  0
   -1.6018    3.5886   -1.1072 H   0  0  0  0  0  0  0  0  0  0  0  0
    1.8439   -0.0381   -1.2915 H   0  0  0  0  0  0  0  0  0  0  0  0
    1.4872    1.6332   -1.5111 H   0  0  0  0  0  0  0  0  0  0  0  0
    1.9676    0.2782    1.2195 H   0  0  0  0  0  0  0  0  0  0  0  0
    1.5842    1.9903    1.0085 H   0  0  0  0  0  0  0  0  0  0  0  0
    4.1054    0.6235    0.4744 H   0  0  0  0  0  0  0  0  0  0  0  0
    6.3771    0.8990    0.4560 H   0  0  0  0  0  0  0  0  0  0  0  0
    9.0736    1.1600    0.0168 H   0  0  0  0  0  0  0  0  0  0  0  0
    9.5229    2.8410    0.3511 H   0  0  0  0  0  0  0  0  0  0  0  0
    9.4476    2.2540   -1.3242 H   0  0  0  0  0  0  0  0  0  0  0  0
   -0.1159   -2.0037    2.0208 H   0  0  0  0  0  0  0  0  0  0  0  0
    1.4272   -2.6630    1.5028 H   0  0  0  0  0  0  0  0  0  0  0  0
  1  2  1  0
  2  3  1  0
  3  4  1  0
  4  5  1  0
  5  6  1  0
  6  7  1  0
  7  8  1  0
  8  9  2  0
  9 10  1  0
 10 11  1  0
 11 12  1  0
 12 13  1  0
 13 14  2  0
 14 15  1  0
 14 16  1  0
 16 17  1  0
 10 18  2  0
 18 19  1  0
 19 20  1  0
 19 21  2  0
 21 22  1  0
 22 23  1  0
 23 24  1  0
 24 25  1  0
 25 26  2  0
 25 27  1  0
 27 28  2  0
 28 29  1  0
 29 30  1  0
 29 31  2  0
 31 32  1  0
  7 33  1  0
 33  3  1  0
 21  8  1  0
 32 27  1  0
 17 12  2  0
  1 34  1  0
  1 35  1  0
  1 36  1  0
  3 37  1  0
  4 38  1  0
  4 39  1  0
  5 40  1  0
  5 41  1  0
  6 42  1  0
  6 43  1  0
  9 44  1  0
 11 45  1  0
 13 46  1  0
 15 47  1  0
 15 48  1  0
 15 49  1  0
 16 50  1  0
 20 51  1  0
 20 52  1  0
 20 53  1  0
 22 54  1  0
 22 55  1  0
 23 56  1  0
 23 57  1  0
 24 58  1  0
 28 59  1  0
 30 60  1  0
 30 61  1  0
 30 62  1  0
 33 63  1  0
 33 64  1  0
M  END
$$$$
