
     RDKit          3D

 75 79  0  0  0  0  0  0  0  0999 V2000
   -3.6278   -5.6287    1.8644 C   0  0  0  0  0  0  0  0  0  0  0  0
   -4.3924   -4.4312    1.8185 O   0  0  0  0  0  0  0  0  0  0  0  0
   -4.2585   -3.7230    0.5908 C   0  0  0  0  0  0  0  0  0  0  0  0
   -5.2905   -4.2430   -0.4082 C   0  0  0  0  0  0  0  0  0  0  0  0
   -4.4980   -2.3206    0.8921 N   0  0  0  0  0  0  0  0  0  0  0  0
   -3.9119   -1.4111   -0.0985 C   0  0  0  0  0  0  0  0  0  0  0  0
   -4.1319    0.0712    0.2789 C   0  0  0  0  0  0  0  0  0  0  0  0
   -5.3880    0.6084   -0.4062 C   0  0  0  0  0  0  0  0  0  0  0  0
   -6.5372    0.2169   -0.2875 O   0  0  0  0  0  0  0  0  0  0  0  0
   -5.0351    1.6317   -1.2553 N   0  0  0  0  0  0  0  0  0  0  0  0
   -3.6699    1.9979   -1.1263 C   0  0  0  0  0  0  0  0  0  0  0  0
   -3.5509    3.4065   -0.6125 C   0  0  0  0  0  0  0  0  0  0  0  0
   -3.8313    3.7623    0.7104 C   0  0  0  0  0  0  0  0  0  0  0  0
   -4.2218    2.8331    1.5905 F   0  0  0  0  0  0  0  0  0  0  0  0
   -3.7218    5.0805    1.1536 C   0  0  0  0  0  0  0  0  0  0  0  0
   -3.3342    6.0816    0.2662 C   0  0  0  0  0  0  0  0  0  0  0  0
   -3.0636    5.7548   -1.0605 C   0  0  0  0  0  0  0  0  0  0  0  0
   -3.1767    4.4314   -1.4842 C   0  0  0  0  0  0  0  0  0  0  0  0
   -2.9112    4.1462   -2.7673 F   0  0  0  0  0  0  0  0  0  0  0  0
   -3.1039    0.9776   -0.2695 N   0  0  0  0  0  0  0  0  0  0  0  0
   -1.7808    0.8631    0.1189 C   0  0  0  0  0  0  0  0  0  0  0  0
   -1.4572    0.0569    0.9935 O   0  0  0  0  0  0  0  0  0  0  0  0
   -0.7574    1.7673   -0.6021 C   0  0  0  0  0  0  0  0  0  0  0  0
    0.6476    1.3344   -0.5017 N   0  0  0  0  0  0  0  0  0  0  0  0
    0.9065    0.0335   -1.1291 C   0  0  0  0  0  0  0  0  0  0  0  0
    2.1194   -0.7029   -0.5437 C   0  0  0  0  0  0  0  0  0  0  0  0
    3.2454    0.2754   -0.1844 C   0  0  0  0  0  0  0  0  0  0  0  0
    4.4611   -0.4478    0.3643 C   0  0  0  0  0  0  0  0  0  0  0  0
    4.3908   -1.1632    1.5750 C   0  0  0  0  0  0  0  0  0  0  0  0
    5.5122   -1.8185    2.1052 C   0  0  0  0  0  0  0  0  0  0  0  0
    6.7295   -1.7782    1.4367 C   0  0  0  0  0  0  0  0  0  0  0  0
    7.7893   -2.4116    2.0091 O   0  0  0  0  0  0  0  0  0  0  0  0
    6.8149   -1.0998    0.2340 C   0  0  0  0  0  0  0  0  0  0  0  0
    5.6906   -0.4411   -0.2979 C   0  0  0  0  0  0  0  0  0  0  0  0
    6.0588    0.2622   -1.5727 C   0  0  0  0  0  0  0  0  0  0  0  0
    7.3654   -0.4442   -1.9523 C   0  0  0  0  0  0  0  0  0  0  0  0
    8.0137   -0.8911   -0.6400 C   0  0  0  0  0  0  0  0  0  0  0  0
    2.7418    1.3887    0.7602 C   0  0  0  0  0  0  0  0  0  0  0  0
    1.2123    1.4545    0.8396 C   0  0  0  0  0  0  0  0  0  0  0  0
   -3.8686   -6.1505    2.7970 H   0  0  0  0  0  0  0  0  0  0  0  0
   -2.5580   -5.3962    1.8598 H   0  0  0  0  0  0  0  0  0  0  0  0
   -3.8742   -6.2899    1.0289 H   0  0  0  0  0  0  0  0  0  0  0  0
   -3.2412   -3.8619    0.2036 H   0  0  0  0  0  0  0  0  0  0  0  0
   -6.3055   -4.1657   -0.0015 H   0  0  0  0  0  0  0  0  0  0  0  0
   -5.1226   -5.3029   -0.6202 H   0  0  0  0  0  0  0  0  0  0  0  0
   -5.2544   -3.7043   -1.3592 H   0  0  0  0  0  0  0  0  0  0  0  0
   -4.0721   -2.1521    1.8045 H   0  0  0  0  0  0  0  0  0  0  0  0
   -2.8411   -1.6267   -0.1785 H   0  0  0  0  0  0  0  0  0  0  0  0
   -4.3412   -1.6041   -1.0896 H   0  0  0  0  0  0  0  0  0  0  0  0
   -4.1837    0.2362    1.3618 H   0  0  0  0  0  0  0  0  0  0  0  0
   -5.7385    2.1503   -1.7614 H   0  0  0  0  0  0  0  0  0  0  0  0
   -3.2100    1.8970   -2.1162 H   0  0  0  0  0  0  0  0  0  0  0  0
   -3.9462    5.3141    2.1918 H   0  0  0  0  0  0  0  0  0  0  0  0
   -3.2481    7.1109    0.6079 H   0  0  0  0  0  0  0  0  0  0  0  0
   -2.7656    6.5229   -1.7692 H   0  0  0  0  0  0  0  0  0  0  0  0
   -1.0108    1.8153   -1.6667 H   0  0  0  0  0  0  0  0  0  0  0  0
   -0.8470    2.7809   -0.1973 H   0  0  0  0  0  0  0  0  0  0  0  0
    1.0775    0.2075   -2.1984 H   0  0  0  0  0  0  0  0  0  0  0  0
    0.0472   -0.6437   -1.0597 H   0  0  0  0  0  0  0  0  0  0  0  0
    2.4737   -1.4495   -1.2656 H   0  0  0  0  0  0  0  0  0  0  0  0
    1.7997   -1.2625    0.3450 H   0  0  0  0  0  0  0  0  0  0  0  0
    3.5299    0.7764   -1.1182 H   0  0  0  0  0  0  0  0  0  0  0  0
    3.4564   -1.2096    2.1307 H   0  0  0  0  0  0  0  0  0  0  0  0
    5.4315   -2.3520    3.0482 H   0  0  0  0  0  0  0  0  0  0  0  0
    8.5713   -2.2589    1.4559 H   0  0  0  0  0  0  0  0  0  0  0  0
    6.2264    1.3271   -1.3807 H   0  0  0  0  0  0  0  0  0  0  0  0
    5.3111    0.1344   -2.3598 H   0  0  0  0  0  0  0  0  0  0  0  0
    7.1333   -1.3314   -2.5578 H   0  0  0  0  0  0  0  0  0  0  0  0
    8.0262    0.1896   -2.5520 H   0  0  0  0  0  0  0  0  0  0  0  0
    8.6495   -0.1023   -0.2232 H   0  0  0  0  0  0  0  0  0  0  0  0
    8.5956   -1.8059   -0.7833 H   0  0  0  0  0  0  0  0  0  0  0  0
    3.1375    1.2851    1.7787 H   0  0  0  0  0  0  0  0  0  0  0  0
    3.1272    2.3512    0.3921 H   0  0  0  0  0  0  0  0  0  0  0  0
    0.9416    2.4172    1.2911 H   0  0  0  0  0  0  0  0  0  0  0  0
    0.8457    0.6734    1.5141 H   0  0  0  0  0  0  0  0  0  0  0  0
  1  2  1  0
  2  3  1  0
  3  4  1  0
  3  5  1  0
  5  6  1  0
  6  7  1  0
  7  8  1  0
  8  9  2  0
  8 10  1  0
 10 11  1  0
 11 12  1  0
 12 13  2  0
 13 14  1  0
 13 15  1  0
 15 16  2  0
 16 17  1  0
 17 18  2  0
 18 19  1  0
 11 20  1  0
 20 21  1  0
 21 22  2  0
 21 23  1  0
 23 24  1  0
 24 25  1  0
 25 26  1  0
 26 27  1  0
 27 28  1  0
 28 29  2  0
 29 30  1  0
 30 31  2  0
 31 32  1  0
 31 33  1  0
 33 34  2  0
 34 35  1  0
 35 36  1  0
 36 37  1  0
 27 38  1  0
 38 39  1  0
 20  7  1  0
 39 24  1  0
 18 12  1  0
 34 28  1  0
 37 33  1  0
  1 40  1  0
  1 41  1  0
  1 42  1  0
  3 43  1  0
  4 44  1  0
  4 45  1  0
  4 46  1  0
  5 47  1  0
  6 48  1  0
  6 49  1  0
  7 50  1  0
 10 51  1  0
 11 52  1  0
 15 53  1  0
 16 54  1  0
 17 55  1  0
 23 56  1  0
 23 57  1  0
 25 58  1  0
 25 59  1  0
 26 60  1  0
 26 61  1  0
 27 62  1  0
 29 63  1  0
 30 64  1  0
 32 65  1  0
 35 66  1  0
 35 67  1  0
 36 68  1  0
 36 69  1  0
 37 70  1  0
 37 71  1  0
 38 72  1  0
 38 73  1  0
 39 74  1  0
 39 75  1  0
M  END
$$$$
