
     RDKit          3D

 79 84  0  0  0  0  0  0  0  0999 V2000
   -6.5037    4.3676   -1.0526 C   0  0  0  0  0  0  0  0  0  0  0  0
   -5.1258    4.1929   -0.4214 C   0  0  0  0  0  0  0  0  0  0  0  0
   -4.1354    4.0853   -1.4257 O   0  0  0  0  0  0  0  0  0  0  0  0
   -4.9836    3.0539    0.4669 N   0  0  0  0  0  0  0  0  0  0  0  0
   -5.4338    1.7781   -0.1186 C   0  0  0  0  0  0  0  0  0  0  0  0
   -4.9435    0.5565    0.6913 C   0  0  0  0  0  0  0  0  0  0  0  0
   -6.1473   -0.2158    1.2247 C   0  0  0  0  0  0  0  0  0  0  0  0
   -7.0058    0.1968    1.9873 O   0  0  0  0  0  0  0  0  0  0  0  0
   -6.1540   -1.4759    0.6861 N   0  0  0  0  0  0  0  0  0  0  0  0
   -5.0069   -1.7327   -0.1161 C   0  0  0  0  0  0  0  0  0  0  0  0
   -4.2339   -2.8987    0.4388 C   0  0  0  0  0  0  0  0  0  0  0  0
   -4.3486   -4.1545   -0.1643 C   0  0  0  0  0  0  0  0  0  0  0  0
   -5.1552   -4.3120   -1.2250 F   0  0  0  0  0  0  0  0  0  0  0  0
   -3.6558   -5.2672    0.3139 C   0  0  0  0  0  0  0  0  0  0  0  0
   -2.8303   -5.1405    1.4291 C   0  0  0  0  0  0  0  0  0  0  0  0
   -2.7105   -3.9023    2.0587 C   0  0  0  0  0  0  0  0  0  0  0  0
   -3.4108   -2.8004    1.5653 C   0  0  0  0  0  0  0  0  0  0  0  0
   -3.2735   -1.6278    2.2050 F   0  0  0  0  0  0  0  0  0  0  0  0
   -4.2895   -0.4790   -0.1294 N   0  0  0  0  0  0  0  0  0  0  0  0
   -3.1716   -0.3460   -0.9282 C   0  0  0  0  0  0  0  0  0  0  0  0
   -2.8716   -1.2335   -1.7319 O   0  0  0  0  0  0  0  0  0  0  0  0
   -2.3260    0.9302   -0.7643 C   0  0  0  0  0  0  0  0  0  0  0  0
   -0.8783    0.6517   -0.9082 N   0  0  0  0  0  0  0  0  0  0  0  0
   -0.1269    1.9103   -1.0027 C   0  0  0  0  0  0  0  0  0  0  0  0
    1.3607    1.6456   -1.2411 C   0  0  0  0  0  0  0  0  0  0  0  0
    1.9394    0.7520   -0.1346 C   0  0  0  0  0  0  0  0  0  0  0  0
    3.4079    0.4340   -0.3436 C   0  0  0  0  0  0  0  0  0  0  0  0
    3.8561   -0.2028   -1.5174 C   0  0  0  0  0  0  0  0  0  0  0  0
    5.2140   -0.5003   -1.7210 C   0  0  0  0  0  0  0  0  0  0  0  0
    6.1546   -0.1784   -0.7459 C   0  0  0  0  0  0  0  0  0  0  0  0
    7.4842   -0.4187   -0.9406 O   0  0  0  0  0  0  0  0  0  0  0  0
    7.7910   -1.8302   -0.9000 C   0  0  0  0  0  0  0  0  0  0  0  0
    9.2280   -2.1551   -0.5884 C   0  0  0  0  0  0  0  0  0  0  0  0
    8.7067   -2.3267   -1.9870 C   0  0  0  0  0  0  0  0  0  0  0  0
    5.7317    0.4436    0.4125 C   0  0  0  0  0  0  0  0  0  0  0  0
    4.3730    0.7436    0.6173 C   0  0  0  0  0  0  0  0  0  0  0  0
    4.2017    1.4446    1.9352 C   0  0  0  0  0  0  0  0  0  0  0  0
    5.5087    1.0857    2.6499 C   0  0  0  0  0  0  0  0  0  0  0  0
    6.5677    0.9250    1.5563 C   0  0  0  0  0  0  0  0  0  0  0  0
    7.5175    0.0568    1.9904 F   0  0  0  0  0  0  0  0  0  0  0  0
    1.0998   -0.5251    0.0005 C   0  0  0  0  0  0  0  0  0  0  0  0
   -0.3804   -0.1892    0.1909 C   0  0  0  0  0  0  0  0  0  0  0  0
   -7.2906    4.4068   -0.2936 H   0  0  0  0  0  0  0  0  0  0  0  0
   -6.7307    3.5690   -1.7658 H   0  0  0  0  0  0  0  0  0  0  0  0
   -6.5371    5.3027   -1.6226 H   0  0  0  0  0  0  0  0  0  0  0  0
   -4.9004    5.0943    0.1604 H   0  0  0  0  0  0  0  0  0  0  0  0
   -4.1787    4.9031   -1.9484 H   0  0  0  0  0  0  0  0  0  0  0  0
   -3.9917    3.0057    0.6937 H   0  0  0  0  0  0  0  0  0  0  0  0
   -5.0793    1.6971   -1.1520 H   0  0  0  0  0  0  0  0  0  0  0  0
   -6.5296    1.7877   -0.1635 H   0  0  0  0  0  0  0  0  0  0  0  0
   -4.2799    0.8090    1.5243 H   0  0  0  0  0  0  0  0  0  0  0  0
   -6.8725   -2.1498    0.9009 H   0  0  0  0  0  0  0  0  0  0  0  0
   -5.3496   -1.9346   -1.1377 H   0  0  0  0  0  0  0  0  0  0  0  0
   -3.7680   -6.2239   -0.1897 H   0  0  0  0  0  0  0  0  0  0  0  0
   -2.2836   -6.0008    1.8063 H   0  0  0  0  0  0  0  0  0  0  0  0
   -2.0748   -3.7849    2.9313 H   0  0  0  0  0  0  0  0  0  0  0  0
   -2.5074    1.3996    0.2056 H   0  0  0  0  0  0  0  0  0  0  0  0
   -2.6568    1.6157   -1.5530 H   0  0  0  0  0  0  0  0  0  0  0  0
   -0.5022    2.5080   -1.8424 H   0  0  0  0  0  0  0  0  0  0  0  0
   -0.2569    2.5122   -0.0932 H   0  0  0  0  0  0  0  0  0  0  0  0
    1.4848    1.1825   -2.2282 H   0  0  0  0  0  0  0  0  0  0  0  0
    1.9015    2.5992   -1.2731 H   0  0  0  0  0  0  0  0  0  0  0  0
    1.8311    1.3110    0.8037 H   0  0  0  0  0  0  0  0  0  0  0  0
    3.1470   -0.4742   -2.2987 H   0  0  0  0  0  0  0  0  0  0  0  0
    5.5292   -0.9729   -2.6470 H   0  0  0  0  0  0  0  0  0  0  0  0
    7.0514   -2.5258   -0.5073 H   0  0  0  0  0  0  0  0  0  0  0  0
    9.4211   -3.0424    0.0017 H   0  0  0  0  0  0  0  0  0  0  0  0
    9.9020   -1.3286   -0.3902 H   0  0  0  0  0  0  0  0  0  0  0  0
    8.5508   -3.3353   -2.3525 H   0  0  0  0  0  0  0  0  0  0  0  0
    9.0337   -1.6193   -2.7412 H   0  0  0  0  0  0  0  0  0  0  0  0
    4.1178    2.5243    1.7771 H   0  0  0  0  0  0  0  0  0  0  0  0
    3.3403    1.0786    2.5019 H   0  0  0  0  0  0  0  0  0  0  0  0
    5.3908    0.1352    3.1891 H   0  0  0  0  0  0  0  0  0  0  0  0
    5.7947    1.8332    3.3961 H   0  0  0  0  0  0  0  0  0  0  0  0
    7.0421    1.8811    1.3116 H   0  0  0  0  0  0  0  0  0  0  0  0
    1.2144   -1.1627   -0.8874 H   0  0  0  0  0  0  0  0  0  0  0  0
    1.4508   -1.1167    0.8558 H   0  0  0  0  0  0  0  0  0  0  0  0
   -0.5236    0.3111    1.1582 H   0  0  0  0  0  0  0  0  0  0  0  0
   -0.9300   -1.1364    0.2321 H   0  0  0  0  0  0  0  0  0  0  0  0
  1  2  1  0
  2  3  1  0
  2  4  1  0
  4  5  1  0
  5  6  1  0
  6  7  1  0
  7  8  2  0
  7  9  1  0
  9 10  1  0
 10 11  1  0
 11 12  2  0
 12 13  1  0
 12 14  1  0
 14 15  2  0
 15 16  1  0
 16 17  2  0
 17 18  1  0
 10 19  1  0
 19 20  1  0
 20 21  2  0
 20 22  1  0
 22 23  1  0
 23 24  1  0
 24 25  1  0
 25 26  1  0
 26 27  1  0
 27 28  2  0
 28 29  1  0
 29 30  2  0
 30 31  1  0
 31 32  1  0
 32 33  1  0
 33 34  1  0
 30 35  1  0
 35 36  2  0
 36 37  1  0
 37 38  1  0
 38 39  1  0
 39 40  1  0
 26 41  1  0
 41 42  1  0
 19  6  1  0
 42 23  1  0
 17 11  1  0
 36 27  1  0
 34 32  1  0
 39 35  1  0
  1 43  1  0
  1 44  1  0
  1 45  1  0
  2 46  1  0
  3 47  1  0
  4 48  1  0
  5 49  1  0
  5 50  1  0
  6 51  1  0
  9 52  1  0
 10 53  1  0
 14 54  1  0
 15 55  1  0
 16 56  1  0
 22 57  1  0
 22 58  1  0
 24 59  1  0
 24 60  1  0
 25 61  1  0
 25 62  1  0
 26 63  1  0
 28 64  1  0
 29 65  1  0
 32 66  1  0
 33 67  1  0
 33 68  1  0
 34 69  1  0
 34 70  1  0
 37 71  1  0
 37 72  1  0
 38 73  1  0
 38 74  1  0
 39 75  1  0
 41 76  1  0
 41 77  1  0
 42 78  1  0
 42 79  1  0
M  END
$$$$
