
     RDKit          3D

 68 73  0  0  0  0  0  0  0  0999 V2000
    3.8242    2.2687    3.6724 O   0  0  0  0  0  0  0  0  0  0  0  0
    3.6084    0.9101    4.0545 C   0  0  0  0  0  0  0  0  0  0  0  0
    3.0409    0.0928    2.9017 C   0  0  0  0  0  0  0  0  0  0  0  0
    4.0178   -0.1284    1.8521 N   0  0  0  0  0  0  0  0  0  0  0  0
    4.0111    0.4188    0.6011 C   0  0  0  0  0  0  0  0  0  0  0  0
    5.0899   -0.1235   -0.0642 C   0  0  0  0  0  0  0  0  0  0  0  0
    5.4646    0.1740   -1.4351 C   0  0  0  0  0  0  0  0  0  0  0  0
    6.7930    0.5468   -1.6879 C   0  0  0  0  0  0  0  0  0  0  0  0
    7.1870    0.8770   -2.9754 C   0  0  0  0  0  0  0  0  0  0  0  0
    8.4829    1.2369   -3.1820 O   0  0  0  0  0  0  0  0  0  0  0  0
    6.2469    0.8325   -3.9864 C   0  0  0  0  0  0  0  0  0  0  0  0
    4.9604    0.4720   -3.7911 N   0  0  0  0  0  0  0  0  0  0  0  0
    4.5739    0.1280   -2.5261 C   0  0  0  0  0  0  0  0  0  0  0  0
    3.1632   -0.3065   -2.4496 C   0  0  0  0  0  0  0  0  0  0  0  0
    2.1427    0.4981   -2.9855 C   0  0  0  0  0  0  0  0  0  0  0  0
    0.8015    0.1037   -2.9329 C   0  0  0  0  0  0  0  0  0  0  0  0
    0.4438   -1.1150   -2.3453 C   0  0  0  0  0  0  0  0  0  0  0  0
   -1.0025   -1.5577   -2.2957 C   0  0  0  0  0  0  0  0  0  0  0  0
   -1.5725   -1.5624   -0.9359 N   0  0  0  0  0  0  0  0  0  0  0  0
   -1.6464   -0.2023   -0.3784 C   0  0  0  0  0  0  0  0  0  0  0  0
   -2.4445   -0.1607    0.9242 C   0  0  0  0  0  0  0  0  0  0  0  0
   -3.8756   -0.6924    0.7398 C   0  0  0  0  0  0  0  0  0  0  0  0
   -4.9110    0.3136    0.9417 N   0  0  0  0  0  0  0  0  0  0  0  0
   -5.0294    1.5073    0.2863 C   0  0  0  0  0  0  0  0  0  0  0  0
   -4.1880    1.9554   -0.6219 O   0  0  0  0  0  0  0  0  0  0  0  0
   -6.0859    2.1884    0.6361 N   0  0  0  0  0  0  0  0  0  0  0  0
   -6.7056    1.3980    1.5725 C   0  0  0  0  0  0  0  0  0  0  0  0
   -7.8960    1.6300    2.2794 C   0  0  0  0  0  0  0  0  0  0  0  0
   -8.3391    0.6661    3.1915 C   0  0  0  0  0  0  0  0  0  0  0  0
   -7.6115   -0.5060    3.3998 C   0  0  0  0  0  0  0  0  0  0  0  0
   -6.4226   -0.7586    2.7035 C   0  0  0  0  0  0  0  0  0  0  0  0
   -5.9936    0.2161    1.7922 C   0  0  0  0  0  0  0  0  0  0  0  0
   -4.0637   -1.4198   -0.5964 C   0  0  0  0  0  0  0  0  0  0  0  0
   -2.8493   -2.2900   -0.9010 C   0  0  0  0  0  0  0  0  0  0  0  0
    1.4521   -1.9280   -1.8133 C   0  0  0  0  0  0  0  0  0  0  0  0
    2.7925   -1.5340   -1.8754 C   0  0  0  0  0  0  0  0  0  0  0  0
    5.7154   -0.9434    0.9024 C   0  0  0  0  0  0  0  0  0  0  0  0
    5.0666   -0.9450    2.0712 N   0  0  0  0  0  0  0  0  0  0  0  0
    4.6372    2.2847    3.1332 H   0  0  0  0  0  0  0  0  0  0  0  0
    4.5495    0.4991    4.4376 H   0  0  0  0  0  0  0  0  0  0  0  0
    2.8870    0.9212    4.8778 H   0  0  0  0  0  0  0  0  0  0  0  0
    2.7169   -0.8950    3.2469 H   0  0  0  0  0  0  0  0  0  0  0  0
    2.1835    0.6035    2.4496 H   0  0  0  0  0  0  0  0  0  0  0  0
    3.2433    1.1160    0.2922 H   0  0  0  0  0  0  0  0  0  0  0  0
    7.5209    0.5999   -0.8830 H   0  0  0  0  0  0  0  0  0  0  0  0
    8.6136    1.4410   -4.1240 H   0  0  0  0  0  0  0  0  0  0  0  0
    6.4936    1.0858   -5.0121 H   0  0  0  0  0  0  0  0  0  0  0  0
    2.3992    1.4458   -3.4573 H   0  0  0  0  0  0  0  0  0  0  0  0
    0.0410    0.7535   -3.3594 H   0  0  0  0  0  0  0  0  0  0  0  0
   -1.6158   -0.9443   -2.9696 H   0  0  0  0  0  0  0  0  0  0  0  0
   -1.0228   -2.5742   -2.7128 H   0  0  0  0  0  0  0  0  0  0  0  0
   -0.6353    0.1615   -0.1602 H   0  0  0  0  0  0  0  0  0  0  0  0
   -2.0871    0.4928   -1.1032 H   0  0  0  0  0  0  0  0  0  0  0  0
   -1.9283   -0.7876    1.6644 H   0  0  0  0  0  0  0  0  0  0  0  0
   -2.4329    0.8548    1.3383 H   0  0  0  0  0  0  0  0  0  0  0  0
   -4.0248   -1.4322    1.5371 H   0  0  0  0  0  0  0  0  0  0  0  0
   -4.5903    2.8152   -0.8421 H   0  0  0  0  0  0  0  0  0  0  0  0
   -8.4560    2.5436    2.1126 H   0  0  0  0  0  0  0  0  0  0  0  0
   -9.2617    0.8343    3.7424 H   0  0  0  0  0  0  0  0  0  0  0  0
   -7.9759   -1.2378    4.1180 H   0  0  0  0  0  0  0  0  0  0  0  0
   -5.8684   -1.6753    2.8733 H   0  0  0  0  0  0  0  0  0  0  0  0
   -4.9656   -2.0431   -0.5540 H   0  0  0  0  0  0  0  0  0  0  0  0
   -4.2227   -0.7127   -1.4205 H   0  0  0  0  0  0  0  0  0  0  0  0
   -3.0359   -2.8416   -1.8315 H   0  0  0  0  0  0  0  0  0  0  0  0
   -2.7651   -3.0558   -0.1189 H   0  0  0  0  0  0  0  0  0  0  0  0
    1.1977   -2.8791   -1.3498 H   0  0  0  0  0  0  0  0  0  0  0  0
    3.5491   -2.2023   -1.4688 H   0  0  0  0  0  0  0  0  0  0  0  0
    6.6146   -1.5387    0.8013 H   0  0  0  0  0  0  0  0  0  0  0  0
  1  2  1  0
  2  3  1  0
  3  4  1  0
  4  5  1  0
  5  6  2  0
  6  7  1  0
  7  8  2  0
  8  9  1  0
  9 10  1  0
  9 11  2  0
 11 12  1  0
 12 13  2  0
 13 14  1  0
 14 15  2  0
 15 16  1  0
 16 17  2  0
 17 18  1  0
 18 19  1  0
 19 20  1  0
 20 21  1  0
 21 22  1  0
 22 23  1  0
 23 24  1  0
 24 25  1  0
 24 26  2  0
 26 27  1  0
 27 28  2  0
 28 29  1  0
 29 30  2  0
 30 31  1  0
 31 32  2  0
 22 33  1  0
 33 34  1  0
 17 35  1  0
 35 36  2  0
  6 37  1  0
 37 38  2  0
 38  4  1  0
 13  7  1  0
 36 14  1  0
 34 19  1  0
 32 23  1  0
 32 27  1  0
  1 39  1  0
  2 40  1  0
  2 41  1  0
  3 42  1  0
  3 43  1  0
  5 44  1  0
  8 45  1  0
 10 46  1  0
 11 47  1  0
 15 48  1  0
 16 49  1  0
 18 50  1  0
 18 51  1  0
 20 52  1  0
 20 53  1  0
 21 54  1  0
 21 55  1  0
 22 56  1  0
 25 57  1  0
 28 58  1  0
 29 59  1  0
 30 60  1  0
 31 61  1  0
 33 62  1  0
 33 63  1  0
 34 64  1  0
 34 65  1  0
 35 66  1  0
 36 67  1  0
 37 68  1  0
M  END
$$$$
