MODEL        8USER    Run = 8USERUSER    Estimated Free Energy of Binding    =  -9.83 kcal/mol  [=(1)+(2)+(3)-(4)]USERUSER    (1) Final Intermolecular Energy     = -10.72 kcal/molUSER        vdW + Hbond + desolv Energy     = -10.65 kcal/molUSER        Electrostatic Energy            =  -0.07 kcal/molUSER        Moving Ligand-Fixed Receptor    = -10.72 kcal/molUSER        Moving Ligand-Moving Receptor   =  +0.00 kcal/molUSER    (2) Final Total Internal Energy     =  -0.65 kcal/molUSER    (3) Torsional Free Energy           =  +0.89 kcal/molUSER    (4) Unbound System's Energy         =  -0.65 kcal/molUSERUSERREMARK SMILES CN1CCn2c1cnc2Nc1cc2cc(-c3cnn[nH]3)ccc2cc1ClREMARK SMILES IDX 11 1 12 2 13 3 14 4 15 5 21 6 22 7 23 8 24 9 25 10 26 11REMARK SMILES IDX 10 12 9 14 2 15 3 16 6 17 4 18 5 19 7 20 8 21 1 22 16 23REMARK SMILES IDX 17 24 20 25 18 26 19 27REMARK H PARENT 10 13 20 28USER                              x       y       z     vdW  Elec       q    TypeUSER                           _______ _______ _______ _____ _____    ______ ____ROOTATOM      1  C   UNL     1      40.691  45.984  19.227 -0.40 +0.00    +0.060 A  ATOM      2  C   UNL     1      39.782  45.995  18.160 -0.43 -0.00    +0.036 A  ATOM      3  C   UNL     1      39.906  46.894  17.082 -0.48 +0.00    -0.016 A  ATOM      4  C   UNL     1      38.984  46.892  16.019 -0.43 -0.01    +0.019 A  ATOM      5  C   UNL     1      39.099  47.787  14.946 -0.52 -0.00    +0.002 A  ATOM      6  C   UNL     1      40.166  48.693  14.943 -0.57 -0.00    +0.011 A  ATOM      7  C   UNL     1      41.092  48.708  15.991 -0.57 -0.00    +0.009 A  ATOM      8  C   UNL     1      40.973  47.814  17.066 -0.51 +0.00    -0.017 A  ATOM      9  C   UNL     1      41.890  47.815  18.122 -0.44 -0.00    +0.031 A  ATOM     10  C   UNL     1      41.749  46.913  19.181 -0.42 +0.00    +0.065 A  ATOM     11  Cl  UNL     1      42.923  46.968  20.457 -0.58 -0.02    -0.082 Cl ENDROOTBRANCH   1  12ATOM     12  N   UNL     1      40.597  45.089  20.321 -0.17 -0.02    -0.324 N  ATOM     13  H   UNL     1      41.489  44.645  20.515 +0.09 +0.02    +0.170 HD BRANCH  12  14ATOM     14  C   UNL     1      39.532  44.820  21.105 -0.21 +0.01    +0.209 A  ATOM     15  N   UNL     1      38.036  45.703  24.065 -0.13 -0.06    -0.358 N  ATOM     16  C   UNL     1      39.280  46.448  24.364 -0.23 +0.01    +0.139 C  ATOM     17  C   UNL     1      38.222  45.060  22.890 -0.25 +0.01    +0.130 A  ATOM     18  C   UNL     1      40.047  46.509  23.023 -0.21 +0.01    +0.149 C  ATOM     19  N   UNL     1      39.345  45.500  22.262 -0.17 -0.02    -0.295 N  ATOM     20  C   UNL     1      37.720  44.089  22.072 -0.27 +0.01    +0.160 A  ATOM     21  N   UNL     1      38.547  43.948  20.965 -0.19 -0.00    -0.219 NA ATOM     22  C   UNL     1      37.340  45.042  25.152 -0.29 +0.01    +0.145 C  ENDBRANCH  12  14ENDBRANCH   1  12BRANCH   5  23ATOM     23  C   UNL     1      38.127  47.760  13.860 -0.45 -0.03    +0.085 A  ATOM     24  C   UNL     1      37.695  46.756  13.014 -0.35 -0.05    +0.165 A  ATOM     25  N   UNL     1      37.365  48.827  13.458 -0.29 +0.10    -0.258 N  ATOM     26  N   UNL     1      36.746  47.237  12.156 -0.85 +0.05    -0.138 NA ATOM     27  N   UNL     1      36.552  48.516  12.439 -0.96 +0.02    -0.070 NA ATOM     28  H   UNL     1      37.336  49.769  13.831 -0.36 -0.13    +0.192 HD ENDBRANCH   5  23TORSDOF 3TERENDMDL