REMARK SMILES CN1CCn2c1cnc2Nc1cc2cc(-c3cnn[nH]3)ccc2cc1Cl
REMARK SMILES IDX 11 1 12 2 13 3 14 4 15 5 21 6 22 7 23 8 24 9 25 10 26 11
REMARK SMILES IDX 10 12 9 14 2 15 3 16 6 17 4 18 5 19 7 20 8 21 1 22 16 23
REMARK SMILES IDX 17 24 20 25 18 26 19 27
REMARK H PARENT 10 13 20 28
ROOT
ATOM      1  C   UNL     1      -0.058  -0.342   1.281  1.00  0.00     0.060 A 
ATOM      2  C   UNL     1       0.851  -0.125   0.237  1.00  0.00     0.036 A 
ATOM      3  C   UNL     1       2.234  -0.344   0.392  1.00  0.00    -0.016 A 
ATOM      4  C   UNL     1       3.133  -0.120  -0.667  1.00  0.00     0.019 A 
ATOM      5  C   UNL     1       4.511  -0.332  -0.518  1.00  0.00     0.002 A 
ATOM      6  C   UNL     1       4.987  -0.784   0.718  1.00  0.00     0.011 A 
ATOM      7  C   UNL     1       4.108  -1.013   1.781  1.00  0.00     0.009 A 
ATOM      8  C   UNL     1       2.730  -0.796   1.631  1.00  0.00    -0.017 A 
ATOM      9  C   UNL     1       1.836  -1.020   2.684  1.00  0.00     0.031 A 
ATOM     10  C   UNL     1       0.467  -0.797   2.507  1.00  0.00     0.065 A 
ATOM     11  Cl  UNL     1      -0.585  -1.097   3.854  1.00  0.00    -0.082 Cl
ENDROOT
BRANCH   1  12
ATOM     12  N   UNL     1      -1.454  -0.137   1.155  1.00  0.00    -0.324 N 
ATOM     13  H   UNL     1      -1.937  -0.330   2.026  1.00  0.00     0.170 HD
BRANCH  12  14
ATOM     14  C   UNL     1      -2.151   0.301   0.086  1.00  0.00     0.209 A 
ATOM     15  N   UNL     1      -5.335   0.991  -0.994  1.00  0.00    -0.358 N 
ATOM     16  C   UNL     1      -5.799   0.318   0.241  1.00  0.00     0.139 C 
ATOM     17  C   UNL     1      -3.988   0.880  -1.033  1.00  0.00     0.130 A 
ATOM     18  C   UNL     1      -4.539   0.182   1.125  1.00  0.00     0.149 C 
ATOM     19  N   UNL     1      -3.497   0.438   0.156  1.00  0.00    -0.295 N 
ATOM     20  C   UNL     1      -2.892   1.018  -1.835  1.00  0.00     0.160 A 
ATOM     21  N   UNL     1      -1.755   0.652  -1.127  1.00  0.00    -0.219 NA
ATOM     22  C   UNL     1      -6.111   0.833  -2.209  1.00  0.00     0.145 C 
ENDBRANCH  12  14
ENDBRANCH   1  12
BRANCH   5  23
ATOM     23  C   UNL     1       5.416  -0.090  -1.635  1.00  0.00     0.085 A 
ATOM     24  C   UNL     1       5.249  -0.146  -3.006  1.00  0.00     0.165 A 
ATOM     25  N   UNL     1       6.724   0.305  -1.517  1.00  0.00    -0.258 N 
ATOM     26  N   UNL     1       6.415   0.182  -3.638  1.00  0.00    -0.138 NA
ATOM     27  N   UNL     1       7.318   0.457  -2.709  1.00  0.00    -0.070 NA
ATOM     28  H   UNL     1       7.261   0.500  -0.680  1.00  0.00     0.192 HD
ENDBRANCH   5  23
TORSDOF 3
