MODEL        6USER    Run = 6USERUSER    Estimated Free Energy of Binding    =  -8.90 kcal/mol  [=(1)+(2)+(3)-(4)]USERUSER    (1) Final Intermolecular Energy     = -10.09 kcal/molUSER        vdW + Hbond + desolv Energy     = -10.10 kcal/molUSER        Electrostatic Energy            =  +0.00 kcal/molUSER        Moving Ligand-Fixed Receptor    = -10.09 kcal/molUSER        Moving Ligand-Moving Receptor   =  +0.00 kcal/molUSER    (2) Final Total Internal Energy     =  -0.40 kcal/molUSER    (3) Torsional Free Energy           =  +1.19 kcal/molUSER    (4) Unbound System's Energy         =  -0.40 kcal/molUSERUSERREMARK SMILES Nc1nccc(-c2ccc(-c3ccc4[nH]ncc4c3)c(O)c2)n1REMARK SMILES IDX 2 1 3 2 4 3 5 4 6 5 23 6 1 7 7 10 8 11 22 12 9 13 20 14REMARK SMILES IDX 10 15 21 16 11 18 12 19 19 20 13 21 18 22 14 23 17 24 15 25REMARK SMILES IDX 16 26REMARK H PARENT 1 8 1 9 21 17 15 27USER                              x       y       z     vdW  Elec       q    TypeUSER                           _______ _______ _______ _____ _____    ______ ____ROOTATOM      1  C   UNL     1      42.361  43.840  21.703 -0.20 +0.03    +0.220 A  ATOM      2  N   UNL     1      42.998  44.645  22.553 -0.12 -0.04    -0.222 NA ATOM      3  C   UNL     1      42.982  45.954  22.256 -0.19 +0.03    +0.117 A  ATOM      4  C   UNL     1      42.346  46.476  21.155 -0.32 +0.01    +0.049 A  ATOM      5  C   UNL     1      41.700  45.569  20.337 -0.31 +0.01    +0.076 A  ATOM      6  N   UNL     1      41.694  44.245  20.620 -0.23 -0.03    -0.213 NA ENDROOTBRANCH   1   7ATOM      7  N   UNL     1      42.347  42.493  21.993 -0.09 +0.03    -0.368 N  ATOM      8  H   UNL     1      43.293  42.152  22.085 -0.49 -0.02    +0.159 HD ATOM      9  H   UNL     1      41.736  42.013  21.347 -0.37 -0.02    +0.159 HD ENDBRANCH   1   7BRANCH   5  10ATOM     10  C   UNL     1      40.963  45.966  19.115 -0.46 +0.00    +0.004 A  ATOM     11  C   UNL     1      39.744  45.352  18.778 -0.43 -0.00    +0.011 A  ATOM     12  C   UNL     1      41.441  46.954  18.239 -0.49 -0.00    +0.057 A  ATOM     13  C   UNL     1      39.027  45.717  17.631 -0.41 -0.00    +0.013 A  ATOM     14  C   UNL     1      40.726  47.316  17.093 -0.42 -0.02    +0.124 A  ATOM     15  C   UNL     1      39.504  46.712  16.768 -0.45 -0.01    +0.024 A  BRANCH  14  16ATOM     16  O   UNL     1      41.305  48.280  16.309 -0.45 +0.03    -0.507 OA ATOM     17  H   UNL     1      42.270  48.154  16.326 -0.19 +0.02    +0.293 HD ENDBRANCH  14  16BRANCH  15  18ATOM     18  C   UNL     1      38.722  47.084  15.581 -0.44 +0.01    -0.014 A  ATOM     19  C   UNL     1      38.416  48.431  15.323 -0.52 -0.01    +0.011 A  ATOM     20  C   UNL     1      38.276  46.092  14.686 -0.40 -0.01    +0.020 A  ATOM     21  C   UNL     1      37.682  48.823  14.198 -0.43 -0.02    +0.029 A  ATOM     22  C   UNL     1      37.538  46.467  13.550 -0.46 -0.01    +0.020 A  ATOM     23  C   UNL     1      37.261  47.811  13.332 -0.51 -0.02    +0.065 A  ATOM     24  C   UNL     1      36.940  45.801  12.457 -0.45 -0.05    +0.143 A  ATOM     25  N   UNL     1      36.539  47.847  12.169 -0.45 +0.11    -0.278 N  ATOM     26  N   UNL     1      36.333  46.640  11.612 -0.56 +0.08    -0.183 NA ATOM     27  H   UNL     1      36.160  48.662  11.700 -0.27 -0.10    +0.190 HD ENDBRANCH  15  18ENDBRANCH   5  10TORSDOF 4TERENDMDL