REMARK SMILES N#Cc1c(F)cc(C(=CN2CCOCC2)C(=O)c2cccnc2)cc1F
REMARK SMILES IDX 3 1 4 2 5 3 6 4 7 5 24 6 25 7 26 8 2 9 1 10 8 11 9 12 10 13
REMARK SMILES IDX 11 14 15 15 12 16 14 17 13 18 16 19 17 20 18 21 19 22 23 23
REMARK SMILES IDX 20 24 22 25 21 26
REMARK H PARENT
ROOT
ATOM      1  C   UNL     1      -0.547   3.999  -1.552  1.00  0.00     0.123 A 
ATOM      2  C   UNL     1      -0.844   2.888  -2.335  1.00  0.00     0.144 A 
ATOM      3  F   UNL     1      -1.037   3.022  -3.655  1.00  0.00    -0.205 F 
ATOM      4  C   UNL     1      -0.942   1.614  -1.775  1.00  0.00     0.049 A 
ATOM      5  C   UNL     1      -0.734   1.434  -0.403  1.00  0.00    -0.007 A 
ATOM      6  C   UNL     1      -0.445   2.552   0.391  1.00  0.00     0.049 A 
ATOM      7  C   UNL     1      -0.351   3.817  -0.187  1.00  0.00     0.144 A 
ATOM      8  F   UNL     1      -0.061   4.862   0.602  1.00  0.00    -0.205 F 
ENDROOT
BRANCH   1   9
ATOM      9  C   UNL     1      -0.442   5.295  -2.136  1.00  0.00     0.105 C 
ATOM     10  N   UNL     1      -0.349   6.348  -2.615  1.00  0.00    -0.192 NA
ENDBRANCH   1   9
BRANCH   5  11
ATOM     11  C   UNL     1      -0.871   0.099   0.203  1.00  0.00     0.046 C 
BRANCH  11  12
ATOM     12  C   UNL     1       0.118  -0.545   0.857  1.00  0.00     0.093 C 
BRANCH  12  13
ATOM     13  N   UNL     1       1.475  -0.290   1.024  1.00  0.00    -0.372 N 
ATOM     14  C   UNL     1       2.276  -1.052   2.013  1.00  0.00     0.144 C 
ATOM     15  C   UNL     1       2.292   0.558   0.127  1.00  0.00     0.144 C 
ATOM     16  C   UNL     1       3.552  -0.283   2.382  1.00  0.00     0.181 C 
ATOM     17  C   UNL     1       3.728   0.018   0.014  1.00  0.00     0.181 C 
ATOM     18  O   UNL     1       4.422  -0.044   1.267  1.00  0.00    -0.378 OA
ENDBRANCH  12  13
ENDBRANCH  11  12
BRANCH  11  19
ATOM     19  C   UNL     1      -2.238  -0.522   0.223  1.00  0.00     0.196 C 
ATOM     20  O   UNL     1      -3.222   0.153   0.517  1.00  0.00    -0.288 OA
BRANCH  19  21
ATOM     21  C   UNL     1      -2.413  -1.948  -0.148  1.00  0.00     0.041 A 
ATOM     22  C   UNL     1      -3.544  -2.637   0.297  1.00  0.00     0.015 A 
ATOM     23  C   UNL     1      -1.521  -2.631  -0.965  1.00  0.00     0.123 A 
ATOM     24  C   UNL     1      -3.725  -3.970  -0.063  1.00  0.00     0.021 A 
ATOM     25  N   UNL     1      -1.669  -3.929  -1.326  1.00  0.00    -0.264 NA
ATOM     26  C   UNL     1      -2.768  -4.569  -0.866  1.00  0.00     0.111 A 
ENDBRANCH  19  21
ENDBRANCH  11  19
ENDBRANCH   5  11
TORSDOF 6
