MODEL        2USER    Run = 2USERUSER    Estimated Free Energy of Binding    =  -8.65 kcal/mol  [=(1)+(2)+(3)-(4)]USERUSER    (1) Final Intermolecular Energy     = -10.44 kcal/molUSER        vdW + Hbond + desolv Energy     = -10.36 kcal/molUSER        Electrostatic Energy            =  -0.08 kcal/molUSER        Moving Ligand-Fixed Receptor    = -10.44 kcal/molUSER        Moving Ligand-Moving Receptor   =  +0.00 kcal/molUSER    (2) Final Total Internal Energy     =  -1.04 kcal/molUSER    (3) Torsional Free Energy           =  +1.79 kcal/molUSER    (4) Unbound System's Energy         =  -1.04 kcal/molUSERUSERREMARK SMILES N#Cc1c(F)cc(C(=CN2CCOCC2)C(=O)c2cccnc2)cc1FREMARK SMILES IDX 3 1 4 2 5 3 6 4 7 5 24 6 25 7 26 8 2 9 1 10 8 11 9 12 10 13REMARK SMILES IDX 11 14 15 15 12 16 14 17 13 18 16 19 17 20 18 21 19 22 23 23REMARK SMILES IDX 20 24 22 25 21 26REMARK H PARENTUSER                              x       y       z     vdW  Elec       q    TypeUSER                           _______ _______ _______ _____ _____    ______ ____ROOTATOM      1  C   UNL     1      36.697  43.397  20.086 -0.31 -0.01    +0.123 A  ATOM      2  C   UNL     1      37.761  44.293  20.049 -0.27 -0.01    +0.144 A  ATOM      3  F   UNL     1      38.543  44.461  21.125 -0.08 -0.00    -0.205 F  ATOM      4  C   UNL     1      38.046  45.030  18.899 -0.34 -0.01    +0.049 A  ATOM      5  C   UNL     1      37.260  44.871  17.752 -0.35 +0.00    -0.007 A  ATOM      6  C   UNL     1      36.181  43.977  17.789 -0.29 -0.01    +0.049 A  ATOM      7  C   UNL     1      35.912  43.249  18.947 -0.26 -0.02    +0.144 A  ATOM      8  F   UNL     1      34.879  42.395  18.942 -0.09 +0.03    -0.205 F  ENDROOTBRANCH   1   9ATOM      9  C   UNL     1      36.420  42.644  21.264 -0.45 +0.00    +0.105 C  ATOM     10  N   UNL     1      36.202  42.031  22.225 -0.38 -0.01    -0.192 NA ENDBRANCH   1   9BRANCH   5  11ATOM     11  C   UNL     1      37.530  45.670  16.546 -0.39 -0.02    +0.046 C  BRANCH  11  12ATOM     12  C   UNL     1      38.766  45.977  16.097 -0.38 -0.03    +0.093 C  BRANCH  12  13ATOM     13  N   UNL     1      39.626  47.044  16.327 -0.19 +0.09    -0.372 N  ATOM     14  C   UNL     1      40.934  46.837  16.997 -0.35 -0.02    +0.144 C  ATOM     15  C   UNL     1      39.461  48.401  15.758 -0.48 -0.06    +0.144 C  ATOM     16  C   UNL     1      41.452  48.154  17.590 -0.39 -0.01    +0.181 C  ATOM     17  C   UNL     1      40.826  49.043  15.458 -0.55 -0.04    +0.181 C  ATOM     18  O   UNL     1      41.666  49.180  16.611 -0.91 -0.05    -0.378 OA ENDBRANCH  12  13ENDBRANCH  11  12BRANCH  11  19ATOM     19  C   UNL     1      36.363  46.044  15.679 -0.29 -0.13    +0.196 C  ATOM     20  O   UNL     1      35.233  46.119  16.158 -0.22 +0.28    -0.288 OA BRANCH  19  21ATOM     21  C   UNL     1      36.572  46.361  14.245 -0.41 -0.02    +0.041 A  ATOM     22  C   UNL     1      36.546  45.328  13.305 -0.46 -0.01    +0.015 A  ATOM     23  C   UNL     1      36.748  47.657  13.775 -0.45 -0.07    +0.123 A  ATOM     24  C   UNL     1      36.722  45.620  11.955 -0.58 -0.01    +0.021 A  ATOM     25  N   UNL     1      36.928  47.969  12.469 -0.98 +0.07    -0.264 NA ATOM     26  C   UNL     1      36.911  46.942  11.588 -0.53 -0.04    +0.111 A  ENDBRANCH  19  21ENDBRANCH  11  19ENDBRANCH   5  11TORSDOF 6TERENDMDL