REMARK SMILES Nc1nccc(-c2ccc(-c3ccc4[nH]ncc4c3)c(O)c2)n1
REMARK SMILES IDX 2 1 3 2 4 3 5 4 6 5 23 6 1 7 7 10 8 11 22 12 9 13 20 14
REMARK SMILES IDX 10 15 21 16 11 18 12 19 19 20 13 21 18 22 14 23 17 24 15 25
REMARK SMILES IDX 16 26
REMARK H PARENT 1 8 1 9 21 17 15 27
ROOT
ATOM      1  C   UNL     1       5.534  -0.609   0.285  1.00  0.00     0.220 A 
ATOM      2  N   UNL     1       6.251   0.506   0.143  1.00  0.00    -0.222 NA
ATOM      3  C   UNL     1       5.554   1.643  -0.013  1.00  0.00     0.117 A 
ATOM      4  C   UNL     1       4.181   1.698  -0.019  1.00  0.00     0.049 A 
ATOM      5  C   UNL     1       3.521   0.495   0.148  1.00  0.00     0.076 A 
ATOM      6  N   UNL     1       4.201  -0.663   0.317  1.00  0.00    -0.213 NA
ENDROOT
BRANCH   1   7
ATOM      7  N   UNL     1       6.224  -1.789   0.464  1.00  0.00    -0.368 N 
ATOM      8  H   UNL     1       5.649  -2.450   0.965  1.00  0.00     0.159 HD
ATOM      9  H   UNL     1       7.143  -1.592   0.834  1.00  0.00     0.159 HD
ENDBRANCH   1   7
BRANCH   5  10
ATOM     10  C   UNL     1       2.045   0.381   0.171  1.00  0.00     0.004 A 
ATOM     11  C   UNL     1       1.414  -0.652   0.887  1.00  0.00     0.011 A 
ATOM     12  C   UNL     1       1.212   1.278  -0.518  1.00  0.00     0.057 A 
ATOM     13  C   UNL     1       0.019  -0.775   0.928  1.00  0.00     0.013 A 
ATOM     14  C   UNL     1      -0.180   1.153  -0.479  1.00  0.00     0.124 A 
ATOM     15  C   UNL     1      -0.806   0.131   0.248  1.00  0.00     0.024 A 
BRANCH  14  16
ATOM     16  O   UNL     1      -0.882   2.079  -1.205  1.00  0.00    -0.507 OA
ATOM     17  H   UNL     1      -1.820   1.819  -1.214  1.00  0.00     0.293 HD
ENDBRANCH  14  16
BRANCH  15  18
ATOM     18  C   UNL     1      -2.266  -0.015   0.322  1.00  0.00    -0.014 A 
ATOM     19  C   UNL     1      -3.034   0.889   1.075  1.00  0.00     0.011 A 
ATOM     20  C   UNL     1      -2.910  -1.061  -0.367  1.00  0.00     0.020 A 
ATOM     21  C   UNL     1      -4.428   0.787   1.161  1.00  0.00     0.029 A 
ATOM     22  C   UNL     1      -4.309  -1.179  -0.293  1.00  0.00     0.020 A 
ATOM     23  C   UNL     1      -5.030  -0.261   0.461  1.00  0.00     0.065 A 
ATOM     24  C   UNL     1      -5.288  -2.050  -0.820  1.00  0.00     0.143 A 
ATOM     25  N   UNL     1      -6.340  -0.641   0.336  1.00  0.00    -0.278 N 
ATOM     26  N   UNL     1      -6.527  -1.723  -0.441  1.00  0.00    -0.183 NA
ATOM     27  H   UNL     1      -7.154  -0.204   0.754  1.00  0.00     0.190 HD
ENDBRANCH  15  18
ENDBRANCH   5  10
TORSDOF 4
