MODEL        8USER    Run = 8USERUSER    Estimated Free Energy of Binding    = -12.24 kcal/mol  [=(1)+(2)+(3)-(4)]USERUSER    (1) Final Intermolecular Energy     = -14.03 kcal/molUSER        vdW + Hbond + desolv Energy     = -13.75 kcal/molUSER        Electrostatic Energy            =  -0.27 kcal/molUSER        Moving Ligand-Fixed Receptor    = -14.03 kcal/molUSER        Moving Ligand-Moving Receptor   =  +0.00 kcal/molUSER    (2) Final Total Internal Energy     =  -2.07 kcal/molUSER    (3) Torsional Free Energy           =  +1.79 kcal/molUSER    (4) Unbound System's Energy         =  -2.07 kcal/molUSERUSERREMARK SMILES Oc1nc2ccccc2n1C1CCN(Cc2ccc(-c3cc4ccccc4nc3-c3ccccc3)cc2)CC1REMARK SMILES IDX 11 1 12 2 13 3 14 4 38 5 39 6 10 7 2 8 3 9 4 10 9 11 5 12REMARK SMILES IDX 8 13 6 14 7 15 1 16 15 18 16 19 17 20 37 21 18 22 36 23REMARK SMILES IDX 19 24 20 25 21 26 29 27 22 28 28 29 23 30 27 31 24 32 26 33REMARK SMILES IDX 25 34 30 35 31 36 35 37 32 38 34 39 33 40REMARK H PARENT 1 17USER                              x       y       z     vdW  Elec       q    TypeUSER                           _______ _______ _______ _____ _____    ______ ____ROOTATOM      1  C   UNL     1      26.160  41.519  16.973 -0.25 -0.01    +0.095 C  ATOM      2  C   UNL     1      27.669  41.702  17.188 -0.23 -0.01    +0.041 C  ATOM      3  C   UNL     1      28.082  43.102  17.632 -0.20 -0.01    +0.087 C  ATOM      4  N   UNL     1      27.449  44.183  16.873 -0.11 +0.04    -0.299 NA ATOM      5  C   UNL     1      25.989  44.094  16.966 -0.37 -0.00    +0.087 C  ATOM      6  C   UNL     1      25.406  42.767  16.489 -0.34 -0.00    +0.041 C  ENDROOTBRANCH   1   7ATOM      7  N   UNL     1      25.488  40.784  18.043 -0.11 +0.02    -0.291 N  ATOM      8  C   UNL     1      25.072  39.480  17.917 -0.15 -0.03    +0.295 A  ATOM      9  N   UNL     1      24.469  39.017  18.975 -0.26 +0.10    -0.195 NA ATOM     10  C   UNL     1      24.488  40.065  19.856 -0.28 -0.03    +0.092 A  ATOM     11  C   UNL     1      25.127  41.188  19.312 -0.27 -0.01    +0.072 A  ATOM     12  C   UNL     1      23.967  40.115  21.160 -0.38 -0.01    +0.031 A  ATOM     13  C   UNL     1      25.269  42.368  20.053 -0.44 -0.01    +0.029 A  ATOM     14  C   UNL     1      24.101  41.292  21.900 -0.57 -0.00    +0.002 A  ATOM     15  C   UNL     1      24.744  42.398  21.352 -0.59 -0.00    +0.002 A  BRANCH   8  16ATOM     16  O   UNL     1      25.246  38.731  16.848 -0.75 -0.10    -0.480 OA ATOM     17  H   UNL     1      24.344  38.384  16.715 -0.20 -0.14    +0.296 HD ENDBRANCH   8  16ENDBRANCH   1   7BRANCH   4  18ATOM     18  C   UNL     1      27.954  44.266  15.493 -0.18 -0.08    +0.120 C  BRANCH  18  19ATOM     19  C   UNL     1      29.437  44.560  15.417 -0.27 +0.02    -0.034 A  ATOM     20  C   UNL     1      30.377  43.522  15.396 -0.30 -0.00    +0.006 A  ATOM     21  C   UNL     1      29.892  45.884  15.368 -0.33 -0.00    +0.006 A  ATOM     22  C   UNL     1      31.745  43.805  15.329 -0.37 -0.00    +0.009 A  ATOM     23  C   UNL     1      31.260  46.164  15.309 -0.45 -0.01    +0.009 A  ATOM     24  C   UNL     1      32.206  45.130  15.294 -0.38 +0.01    -0.016 A  BRANCH  24  25ATOM     25  C   UNL     1      33.644  45.427  15.223 -0.28 -0.01    +0.009 A  ATOM     26  C   UNL     1      34.123  46.246  14.190 -0.22 -0.02    +0.021 A  ATOM     27  C   UNL     1      34.586  44.965  16.157 -0.26 -0.05    +0.079 A  ATOM     28  C   UNL     1      35.478  46.591  14.114 -0.44 -0.00    +0.001 A  ATOM     29  N   UNL     1      35.906  45.304  16.102 -0.17 +0.14    -0.247 NA ATOM     30  C   UNL     1      35.978  47.413  13.089 -0.58 -0.01    +0.010 A  ATOM     31  C   UNL     1      36.340  46.092  15.106 -0.33 -0.04    +0.071 A  ATOM     32  C   UNL     1      37.332  47.742  13.045 -0.54 -0.00    +0.001 A  ATOM     33  C   UNL     1      37.684  46.434  15.042 -0.38 -0.01    +0.029 A  ATOM     34  C   UNL     1      38.188  47.251  14.026 -0.49 -0.00    +0.002 A  BRANCH  27  35ATOM     35  C   UNL     1      34.259  44.073  17.285 -0.30 -0.00    +0.001 A  ATOM     36  C   UNL     1      33.653  44.585  18.446 -0.38 -0.00    +0.010 A  ATOM     37  C   UNL     1      34.556  42.699  17.252 -0.40 -0.00    +0.010 A  ATOM     38  C   UNL     1      33.334  43.752  19.523 -0.44 -0.00    +0.001 A  ATOM     39  C   UNL     1      34.239  41.865  18.328 -0.40 -0.00    +0.001 A  ATOM     40  C   UNL     1      33.624  42.392  19.462 -0.37 +0.00    +0.000 A  ENDBRANCH  27  35ENDBRANCH  24  25ENDBRANCH  18  19ENDBRANCH   4  18TORSDOF 6TERENDMDL