MODEL        2USER    Run = 2USERUSER    Estimated Free Energy of Binding    = -12.39 kcal/mol  [=(1)+(2)+(3)-(4)]USERUSER    (1) Final Intermolecular Energy     = -14.18 kcal/molUSER        vdW + Hbond + desolv Energy     = -14.13 kcal/molUSER        Electrostatic Energy            =  -0.05 kcal/molUSER        Moving Ligand-Fixed Receptor    = -14.18 kcal/molUSER        Moving Ligand-Moving Receptor   =  +0.00 kcal/molUSER    (2) Final Total Internal Energy     =  -1.01 kcal/molUSER    (3) Torsional Free Energy           =  +1.79 kcal/molUSER    (4) Unbound System's Energy         =  -1.01 kcal/molUSERUSERREMARK SMILES Cn1ccc2ccc3c4[nH]c5c(CCCN[C@H]6CC[C@H](O)CC6)cccc5c4c4c(c3c21)C(=O)NC4=OREMARK SMILES IDX 15 1 14 2 13 3 12 4 2 5 3 6 32 7 4 8 31 9 5 10 30 11 8 12REMARK SMILES IDX 6 13 29 14 33 15 7 16 9 17 28 18 36 19 35 20 10 21 27 22REMARK SMILES IDX 11 23 26 24 25 25 24 26 1 27 34 28 37 29 16 32 17 34 23 35REMARK SMILES IDX 18 36 22 37 19 38 20 39 21 40REMARK H PARENT 35 30 10 31 16 33 21 41USER                              x       y       z     vdW  Elec       q    TypeUSER                           _______ _______ _______ _____ _____    ______ ____ROOTATOM      1  C   UNL     1      38.293  45.657  25.169 -0.26 +0.00    +0.081 C  ENDROOTBRANCH   1   2ATOM      2  C   UNL     1      38.615  45.342  23.706 -0.32 +0.00    +0.020 C  BRANCH   2   3ATOM      3  C   UNL     1      38.608  43.840  23.399 -0.30 +0.00    +0.039 C  BRANCH   3   4ATOM      4  C   UNL     1      37.722  43.451  22.241 -0.36 -0.00    -0.024 A  ATOM      5  N   UNL     1      39.084  47.920  14.934 -0.23 +0.13    -0.350 N  ATOM      6  C   UNL     1      40.138  48.709  14.535 -0.44 -0.03    +0.086 A  ATOM      7  C   UNL     1      39.388  47.264  16.122 -0.44 -0.02    +0.057 A  ATOM      8  C   UNL     1      41.043  48.748  15.561 -0.58 -0.00    +0.028 A  ATOM      9  C   UNL     1      38.743  46.225  16.890 -0.40 -0.01    +0.022 A  ATOM     10  C   UNL     1      40.547  47.910  16.592 -0.55 -0.00    +0.000 A  ATOM     11  C   UNL     1      37.737  45.333  16.487 -0.31 -0.02    +0.063 A  ATOM     12  C   UNL     1      39.202  46.079  18.237 -0.41 -0.00    +0.009 A  ATOM     13  C   UNL     1      41.018  47.650  17.890 -0.48 -0.00    +0.011 A  ATOM     14  C   UNL     1      37.102  44.458  17.377 -0.30 -0.02    +0.063 A  ATOM     15  C   UNL     1      37.228  44.964  15.154 -0.24 -0.09    +0.259 C  ATOM     16  C   UNL     1      40.316  46.781  18.720 -0.27 -0.00    +0.012 A  ATOM     17  C   UNL     1      38.528  45.180  19.122 -0.35 -0.00    +0.055 A  ATOM     18  C   UNL     1      37.456  44.370  18.725 -0.34 -0.00    +0.022 A  ATOM     19  C   UNL     1      36.129  43.672  16.621 -0.26 -0.09    +0.259 C  ATOM     20  N   UNL     1      36.181  44.122  15.343 -0.21 +0.11    -0.288 N  ATOM     21  N   UNL     1      38.742  44.905  20.455 -0.16 +0.00    -0.354 N  ATOM     22  C   UNL     1      37.025  43.623  19.873 -0.36 -0.00    +0.008 A  ATOM     23  C   UNL     1      37.848  43.982  20.941 -0.34 +0.00    +0.050 A  ATOM     24  C   UNL     1      36.011  42.673  20.114 -0.44 -0.00    +0.011 A  ATOM     25  C   UNL     1      35.857  42.124  21.390 -0.46 +0.00    +0.001 A  ATOM     26  C   UNL     1      36.697  42.506  22.430 -0.45 +0.00    +0.006 A  ATOM     27  C   UNL     1      37.793  48.039  14.289 -0.49 -0.08    +0.149 C  ATOM     28  O   UNL     1      37.708  45.252  14.077 -0.28 +0.09    -0.269 OA ATOM     29  O   UNL     1      35.445  42.752  17.019 -0.30 +0.10    -0.269 OA ATOM     30  H   UNL     1      35.749  43.618  14.584 +0.12 -0.06    +0.173 HD ATOM     31  H   UNL     1      39.452  45.343  21.021 +0.09 +0.01    +0.167 HD ENDBRANCH   3   4ENDBRANCH   2   3ENDBRANCH   1   2BRANCH   1  32ATOM     32  N   UNL     1      36.851  45.521  25.385 -0.58 -0.01    -0.314 NA ATOM     33  H   UNL     1      36.425  46.440  25.492 -0.30 +0.00    +0.122 HD BRANCH  32  34ATOM     34  C   UNL     1      36.525  44.679  26.545 -0.36 -0.01    +0.053 C  ATOM     35  C   UNL     1      35.757  43.396  26.164 -0.43 -0.00    +0.021 C  ATOM     36  C   UNL     1      37.855  44.366  27.262 -0.34 -0.00    +0.021 C  ATOM     37  C   UNL     1      36.686  42.200  25.962 -0.46 -0.00    +0.033 C  ATOM     38  C   UNL     1      37.740  43.108  28.112 -0.34 -0.01    +0.033 C  ATOM     39  C   UNL     1      37.462  41.876  27.246 -0.42 -0.02    +0.114 C  BRANCH  39  40ATOM     40  O   UNL     1      36.720  40.948  28.036 -0.36 +0.14    -0.393 OA ATOM     41  H   UNL     1      36.550  41.365  28.898 -0.45 -0.15    +0.210 HD ENDBRANCH  39  40ENDBRANCH  32  34ENDBRANCH   1  32TORSDOF 6TERENDMDL