MODEL        9USER    Run = 9USERUSER    Estimated Free Energy of Binding    =  -7.18 kcal/mol  [=(1)+(2)+(3)-(4)]USERUSER    (1) Final Intermolecular Energy     = -11.66 kcal/molUSER        vdW + Hbond + desolv Energy     = -11.73 kcal/molUSER        Electrostatic Energy            =  -0.28 kcal/molUSER        Moving Ligand-Fixed Receptor    = -12.01 kcal/molUSER        Moving Ligand-Moving Receptor   =  +0.35 kcal/molUSER    (2) Final Total Internal Energy     =  -2.56 kcal/molUSER    (3) Torsional Free Energy           =  +4.47 kcal/molUSER    (4) Unbound System's Energy         =  -2.56 kcal/molUSERUSERREMARK SMILES COc1ccc(O)c(C(=O)c2ccc(CN[C@@H]3CCCNC[C@H]3NC(=O)c3ccncc3)cc2)c1FREMARK SMILES IDX 16 1 15 3 14 4 11 5 12 6 34 7 13 8 33 9 9 10 10 11 8 12 3 13REMARK SMILES IDX 4 14 35 15 5 16 6 17 36 18 2 19 1 20 7 21 17 23 18 24 23 26REMARK SMILES IDX 22 27 21 28 20 30 19 31 24 33 25 34 26 36 27 37 28 38 32 39REMARK SMILES IDX 29 40 31 41 30 42REMARK H PARENT 16 2 7 22 21 29 24 35REMARK Flexibility Score:   99.900USER                              x       y       z     vdW  Elec       q    TypeUSER                           _______ _______ _______ _____ _____    ______ ____ROOTATOM      1  N   UNL     1      38.848  46.889  15.866 -0.20 +0.10    -0.308 NA ATOM      2  H   UNL     1      38.550  46.989  16.839 +0.07 -0.05    +0.123 HD ENDROOTBRANCH   1   3ATOM      3  C   UNL     1      40.208  46.346  15.844 -0.41 -0.01    +0.117 C  BRANCH   3   4ATOM      4  C   UNL     1      40.920  46.445  17.171 -0.39 +0.00    -0.034 A  ATOM      5  C   UNL     1      42.248  46.605  19.645 -0.45 +0.00    +0.023 A  ATOM      6  C   UNL     1      41.655  45.403  19.247 -0.33 +0.00    +0.012 A  ATOM      7  C   UNL     1      42.154  47.732  18.820 -0.40 +0.00    +0.012 A  ATOM      8  C   UNL     1      41.003  45.324  18.013 -0.44 +0.00    +0.006 A  ATOM      9  C   UNL     1      41.500  47.650  17.589 -0.45 -0.00    +0.006 A  BRANCH   5  10ATOM     10  C   UNL     1      42.915  46.751  20.962 -0.31 +0.06    +0.199 C  ATOM     11  O   UNL     1      44.145  46.799  21.006 -0.51 -0.23    -0.288 OA BRANCH  10  12ATOM     12  C   UNL     1      42.176  46.906  22.233 -0.22 +0.02    +0.104 A  ATOM     13  C   UNL     1      40.457  46.197  23.811 -0.13 +0.01    +0.155 A  ATOM     14  C   UNL     1      40.800  47.255  24.655 -0.19 +0.00    +0.053 A  ATOM     15  C   UNL     1      41.157  46.028  22.607 -0.14 +0.02    +0.179 A  ATOM     16  C   UNL     1      41.842  48.119  24.308 -0.28 +0.01    +0.051 A  ATOM     17  C   UNL     1      42.534  47.934  23.114 -0.27 +0.02    +0.130 A  ATOM     18  F   UNL     1      40.845  44.984  21.822 -0.04 -0.01    -0.202 F  BRANCH  13  19ATOM     19  O   UNL     1      39.473  45.276  24.055 -0.00 -0.03    -0.494 OA ATOM     20  C   UNL     1      38.129  45.686  23.837 -0.14 +0.04    +0.278 C  ENDBRANCH  13  19BRANCH  17  21ATOM     21  O   UNL     1      43.565  48.801  22.866 -0.60 -0.15    -0.507 OA ATOM     22  H   UNL     1      43.786  48.738  21.908 -0.44 -0.02    +0.293 HD ENDBRANCH  17  21ENDBRANCH  10  12ENDBRANCH   5  10ENDBRANCH   3   4ENDBRANCH   1   3BRANCH   1  23ATOM     23  C   UNL     1      37.852  46.039  15.157 -0.39 -0.03    +0.077 C  BRANCH  23  24ATOM     24  C   UNL     1      37.584  46.692  13.795 -0.52 -0.01    +0.022 CG0ATOM     25  G   UNL     1      36.372  47.620  13.743 +0.00 +0.00    +0.000 G0 ENDBRANCH  23  24BRANCH  23  26ATOM     26  C   UNL     1      36.570  45.881  16.034 -0.34 -0.06    +0.113 C  BRANCH  26  27ATOM     27  C   UNL     1      35.408  45.229  15.245 -0.33 -0.07    +0.107 C  BRANCH  27  28ATOM     28  N   UNL     1      34.505  46.089  14.487 -0.17 +0.30    -0.315 NA ATOM     29  H   UNL     1      34.025  46.720  15.134 -0.16 -0.24    +0.122 HD BRANCH  28  30ATOM     30  C   UNL     1      35.075  46.883  13.409 -0.38 -0.06    +0.081 C  BRANCH  30  31ATOM     31  C   UNL     1      36.369  47.620  13.743 -0.56 -0.01    +0.017 CG0ATOM     32  G   UNL     1      37.583  46.694  13.799 +0.00 +0.00    +0.000 G0 ENDBRANCH  30  31ENDBRANCH  28  30ENDBRANCH  27  28ENDBRANCH  26  27BRANCH  26  33ATOM     33  N   UNL     1      36.882  45.060  17.221 -0.12 +0.12    -0.346 N  ATOM     34  C   UNL     1      36.040  45.021  18.311 -0.23 -0.08    +0.251 C  ATOM     35  H   UNL     1      37.691  44.458  17.172 +0.10 -0.04    +0.164 HD ATOM     36  O   UNL     1      35.042  45.722  18.415 -0.32 +0.13    -0.269 OA BRANCH  34  37ATOM     37  C   UNL     1      36.410  44.090  19.409 -0.35 -0.01    +0.042 A  ATOM     38  C   UNL     1      37.555  44.376  20.154 -0.35 -0.00    +0.034 A  ATOM     39  C   UNL     1      35.638  42.974  19.731 -0.41 -0.00    +0.034 A  ATOM     40  C   UNL     1      37.899  43.513  21.176 -0.25 +0.00    +0.112 A  ATOM     41  C   UNL     1      36.067  42.173  20.776 -0.41 +0.00    +0.112 A  ATOM     42  N   UNL     1      37.183  42.413  21.495 -0.25 -0.01    -0.265 NA ENDBRANCH  34  37ENDBRANCH  26  33ENDBRANCH  23  26ENDBRANCH   1  23TORSDOF 9TERENDMDL