MODEL        8USER    Run = 8USERUSER    Estimated Free Energy of Binding    =  -6.77 kcal/mol  [=(1)+(2)+(3)-(4)]USERUSER    (1) Final Intermolecular Energy     = -11.25 kcal/molUSER        vdW + Hbond + desolv Energy     = -11.51 kcal/molUSER        Electrostatic Energy            =  +0.04 kcal/molUSER        Moving Ligand-Fixed Receptor    = -11.48 kcal/molUSER        Moving Ligand-Moving Receptor   =  +0.23 kcal/molUSER    (2) Final Total Internal Energy     =  -3.07 kcal/molUSER    (3) Torsional Free Energy           =  +4.47 kcal/molUSER    (4) Unbound System's Energy         =  -3.07 kcal/molUSERUSERREMARK SMILES COc1ccc(O)c(C(=O)c2ccc(C(=O)O[C@@H]3CCCNC[C@H]3NC(=O)c3ccncc3)cc2)c1FREMARK SMILES IDX 17 1 15 2 16 3 14 4 11 5 12 6 35 7 13 8 34 9 9 10 10 11 8 12REMARK SMILES IDX 3 13 4 14 36 15 5 16 6 17 37 18 2 19 1 20 7 21 18 23 24 25REMARK SMILES IDX 23 26 22 27 21 29 20 30 19 31 25 33 26 34 27 36 28 37 29 38REMARK SMILES IDX 33 39 30 40 32 41 31 42REMARK H PARENT 7 22 22 28 25 35REMARK Flexibility Score:   99.900USER                              x       y       z     vdW  Elec       q    TypeUSER                           _______ _______ _______ _____ _____    ______ ____ROOTATOM      1  O   UNL     1      37.739  45.398  19.043 -0.10 +0.06    -0.457 OA ENDROOTBRANCH   1   2ATOM      2  C   UNL     1      37.236  44.172  19.333 -0.18 -0.04    +0.338 C  ATOM      3  O   UNL     1      37.775  43.296  19.994 -0.18 +0.01    -0.246 OA BRANCH   2   4ATOM      4  C   UNL     1      35.873  44.044  18.760 -0.31 -0.01    +0.060 A  ATOM      5  C   UNL     1      33.266  43.846  17.737 -0.30 -0.01    +0.023 A  ATOM      6  C   UNL     1      34.288  43.037  17.222 -0.36 -0.00    +0.013 A  ATOM      7  C   UNL     1      33.555  44.750  18.769 -0.42 -0.00    +0.013 A  ATOM      8  C   UNL     1      35.587  43.136  17.732 -0.33 -0.00    +0.016 A  ATOM      9  C   UNL     1      34.851  44.842  19.286 -0.34 -0.00    +0.016 A  BRANCH   5  10ATOM     10  C   UNL     1      31.874  43.799  17.212 -0.22 -0.06    +0.199 C  ATOM     11  O   UNL     1      31.297  44.824  16.863 -0.67 +0.05    -0.288 OA BRANCH  10  12ATOM     12  C   UNL     1      31.157  42.523  17.105 -0.23 -0.03    +0.104 A  ATOM     13  C   UNL     1      30.738  40.304  17.988 -0.25 -0.01    +0.155 A  ATOM     14  C   UNL     1      29.868  40.059  16.918 -0.32 +0.00    +0.053 A  ATOM     15  C   UNL     1      31.385  41.543  18.067 -0.20 -0.03    +0.179 A  ATOM     16  C   UNL     1      29.627  41.051  15.958 -0.37 -0.01    +0.051 A  ATOM     17  C   UNL     1      30.267  42.285  16.058 -0.25 -0.06    +0.130 A  ATOM     18  F   UNL     1      32.195  41.801  19.106 -0.09 +0.00    -0.202 F  BRANCH  13  19ATOM     19  O   UNL     1      31.007  39.431  19.008 -0.12 -0.05    -0.494 OA ATOM     20  C   UNL     1      29.914  38.699  19.549 -0.23 +0.04    +0.278 C  ENDBRANCH  13  19BRANCH  17  21ATOM     21  O   UNL     1      30.020  43.263  15.139 -0.02 +0.39    -0.507 OA ATOM     22  H   UNL     1      30.185  44.137  15.529 +0.18 -0.17    +0.293 HD ENDBRANCH  17  21ENDBRANCH  10  12ENDBRANCH   5  10ENDBRANCH   2   4ENDBRANCH   1   2BRANCH   1  23ATOM     23  C   UNL     1      39.186  45.520  19.026 -0.34 -0.02    +0.200 CG0ATOM     24  G   UNL     1      39.625  45.855  20.451 +0.00 +0.00    +0.000 G0 BRANCH  23  25ATOM     25  C   UNL     1      39.538  46.600  17.982 -0.38 -0.02    +0.137 C  BRANCH  25  26ATOM     26  C   UNL     1      40.931  46.443  17.341 -0.43 -0.01    +0.109 C  BRANCH  26  27ATOM     27  N   UNL     1      41.969  45.976  18.262 -0.19 -0.01    -0.315 NA ATOM     28  H   UNL     1      42.878  46.137  17.826 -0.42 -0.01    +0.122 HD BRANCH  27  29ATOM     29  C   UNL     1      41.974  46.594  19.591 -0.46 +0.01    +0.081 C  BRANCH  29  30ATOM     30  C   UNL     1      41.136  45.938  20.697 -0.38 +0.00    +0.019 C  BRANCH  30  31ATOM     31  C   UNL     1      39.624  45.853  20.452 -0.28 +0.00    +0.049 CG0ATOM     32  G   UNL     1      39.186  45.519  19.027 +0.00 +0.00    +0.000 G0 ENDBRANCH  30  31ENDBRANCH  29  30ENDBRANCH  27  29ENDBRANCH  26  27ENDBRANCH  25  26BRANCH  25  33ATOM     33  N   UNL     1      38.501  46.619  16.941 -0.18 +0.12    -0.344 N  ATOM     34  C   UNL     1      38.649  47.322  15.771 -0.33 -0.10    +0.251 C  ATOM     35  H   UNL     1      37.829  45.864  16.976 +0.11 -0.06    +0.164 HD ATOM     36  O   UNL     1      39.618  48.024  15.512 -0.34 +0.09    -0.269 OA BRANCH  34  37ATOM     37  C   UNL     1      37.549  47.181  14.789 -0.42 -0.02    +0.042 A  ATOM     38  C   UNL     1      37.589  47.948  13.626 -0.51 -0.01    +0.034 A  ATOM     39  C   UNL     1      36.469  46.333  15.027 -0.37 -0.02    +0.034 A  ATOM     40  C   UNL     1      36.547  47.813  12.727 -0.56 -0.05    +0.112 A  ATOM     41  C   UNL     1      35.475  46.275  14.068 -0.36 -0.08    +0.112 A  ATOM     42  N   UNL     1      35.494  46.991  12.922 -0.37 +0.18    -0.265 NA ENDBRANCH  34  37ENDBRANCH  25  33ENDBRANCH  23  25ENDBRANCH   1  23TORSDOF 9TERENDMDL