MODEL        8USER    Run = 8USERUSER    Estimated Free Energy of Binding    =  -7.17 kcal/mol  [=(1)+(2)+(3)-(4)]USERUSER    (1) Final Intermolecular Energy     = -11.65 kcal/molUSER        vdW + Hbond + desolv Energy     = -11.98 kcal/molUSER        Electrostatic Energy            =  -0.25 kcal/molUSER        Moving Ligand-Fixed Receptor    = -12.23 kcal/molUSER        Moving Ligand-Moving Receptor   =  +0.58 kcal/molUSER    (2) Final Total Internal Energy     =  -2.58 kcal/molUSER    (3) Torsional Free Energy           =  +4.47 kcal/molUSER    (4) Unbound System's Energy         =  -2.58 kcal/molUSERUSERREMARK SMILES COc1ccc(O)c(C(=O)c2ccc(CO[C@@H]3CCCNC[C@@H]3NC(=O)c3ccncc3)cc2)c1FREMARK SMILES IDX 16 1 15 2 14 3 11 4 12 5 34 6 13 7 33 8 9 9 10 10 8 11 3 12REMARK SMILES IDX 4 13 35 14 5 15 6 16 36 17 2 18 1 19 7 20 17 22 18 23 23 25REMARK SMILES IDX 22 26 21 27 20 29 19 30 24 32 25 33 26 35 27 36 28 37 32 38REMARK SMILES IDX 29 39 31 40 30 41REMARK H PARENT 7 21 21 28 24 34REMARK Flexibility Score:   99.900USER                              x       y       z     vdW  Elec       q    TypeUSER                           _______ _______ _______ _____ _____    ______ ____ROOTATOM      1  O   UNL     1      36.411  44.428  15.222 -0.18 +0.15    -0.371 OA ENDROOTBRANCH   1   2ATOM      2  C   UNL     1      35.983  44.877  16.507 -0.25 -0.09    +0.196 C  BRANCH   2   3ATOM      3  C   UNL     1      34.660  44.225  16.817 -0.30 +0.01    -0.022 A  ATOM      4  C   UNL     1      32.190  43.002  17.362 -0.30 -0.01    +0.023 A  ATOM      5  C   UNL     1      33.214  42.270  16.752 -0.09 -0.01    +0.012 A  ATOM      6  C   UNL     1      32.412  44.333  17.729 -0.30 -0.00    +0.012 A  ATOM      7  C   UNL     1      34.437  42.883  16.476 -0.41 -0.00    +0.007 A  ATOM      8  C   UNL     1      33.638  44.943  17.453 -0.34 -0.00    +0.007 A  BRANCH   4   9ATOM      9  C   UNL     1      30.886  42.385  17.706 -0.19 -0.04    +0.199 C  ATOM     10  O   UNL     1      29.868  43.080  17.673 -0.14 +0.04    -0.288 OA BRANCH   9  11ATOM     11  C   UNL     1      30.745  40.982  18.151 -0.20 -0.01    +0.104 A  ATOM     12  C   UNL     1      31.362  39.124  19.604 -0.32 +0.03    +0.155 A  ATOM     13  C   UNL     1      30.421  38.314  18.964 -0.39 +0.01    +0.053 A  ATOM     14  C   UNL     1      31.520  40.453  19.184 -0.21 +0.01    +0.179 A  ATOM     15  C   UNL     1      29.664  38.823  17.906 -0.29 +0.02    +0.051 A  ATOM     16  C   UNL     1      29.836  40.143  17.495 -0.26 +0.00    +0.130 A  ATOM     17  F   UNL     1      32.453  41.211  19.783 -0.07 -0.04    -0.202 F  BRANCH  12  18ATOM     18  O   UNL     1      32.171  38.733  20.637 -0.92 -0.19    -0.494 OA ATOM     19  C   UNL     1      31.581  37.953  21.670 -0.31 +0.03    +0.278 C  ENDBRANCH  12  18BRANCH  16  20ATOM     20  O   UNL     1      29.076  40.553  16.432 -0.11 +0.02    -0.507 OA ATOM     21  H   UNL     1      28.949  41.527  16.511 +0.17 -0.07    +0.293 HD ENDBRANCH  16  20ENDBRANCH   9  11ENDBRANCH   4   9ENDBRANCH   2   3ENDBRANCH   1   2BRANCH   1  22ATOM     22  C   UNL     1      36.419  45.472  14.224 -0.37 -0.07    +0.142 C  BRANCH  22  23ATOM     23  C   UNL     1      37.244  44.893  13.065 -0.48 -0.01    +0.035 CG0ATOM     24  G   UNL     1      37.039  45.442  11.658 +0.00 +0.00    +0.000 G0 ENDBRANCH  22  23BRANCH  22  25ATOM     25  C   UNL     1      36.958  46.778  14.853 -0.38 -0.07    +0.125 C  BRANCH  25  26ATOM     26  C   UNL     1      37.035  47.911  13.799 -0.54 -0.06    +0.108 C  BRANCH  26  27ATOM     27  N   UNL     1      37.779  47.623  12.576 -0.80 +0.03    -0.315 NA ATOM     28  H   UNL     1      38.602  47.070  12.822 +0.08 -0.01    +0.122 HD BRANCH  27  29ATOM     29  C   UNL     1      37.005  46.957  11.538 -0.60 -0.03    +0.081 C  BRANCH  29  30ATOM     30  C   UNL     1      37.039  45.441  11.663 -0.45 -0.01    +0.018 CG0ATOM     31  G   UNL     1      37.244  44.887  13.068 +0.00 +0.00    +0.000 G0 ENDBRANCH  29  30ENDBRANCH  27  29ENDBRANCH  26  27ENDBRANCH  25  26BRANCH  25  32ATOM     32  N   UNL     1      38.216  46.541  15.576 -0.14 +0.13    -0.345 N  ATOM     33  C   UNL     1      38.929  47.581  16.134 -0.33 -0.10    +0.251 C  ATOM     34  H   UNL     1      38.252  45.663  16.079 +0.11 -0.05    +0.164 HD ATOM     35  O   UNL     1      38.641  48.761  15.985 -0.30 +0.18    -0.269 OA BRANCH  33  36ATOM     36  C   UNL     1      40.085  47.201  16.990 -0.47 -0.01    +0.042 A  ATOM     37  C   UNL     1      40.080  45.940  17.587 -0.44 -0.00    +0.034 A  ATOM     38  C   UNL     1      41.143  48.075  17.237 -0.49 -0.00    +0.034 A  ATOM     39  C   UNL     1      41.148  45.599  18.396 -0.39 +0.00    +0.112 A  ATOM     40  C   UNL     1      42.164  47.639  18.064 -0.28 -0.00    +0.112 A  ATOM     41  N   UNL     1      42.191  46.420  18.643 -0.30 -0.02    -0.265 NA ENDBRANCH  33  36ENDBRANCH  25  32ENDBRANCH  22  25ENDBRANCH   1  22TORSDOF 9TERENDMDL