MODEL        2USER    Run = 2USERUSER    Estimated Free Energy of Binding    =  -7.60 kcal/mol  [=(1)+(2)+(3)-(4)]USERUSER    (1) Final Intermolecular Energy     = -12.07 kcal/molUSER        vdW + Hbond + desolv Energy     = -12.29 kcal/molUSER        Electrostatic Energy            =  -0.22 kcal/molUSER        Moving Ligand-Fixed Receptor    = -12.52 kcal/molUSER        Moving Ligand-Moving Receptor   =  +0.45 kcal/molUSER    (2) Final Total Internal Energy     =  -2.14 kcal/molUSER    (3) Torsional Free Energy           =  +4.47 kcal/molUSER    (4) Unbound System's Energy         =  -2.14 kcal/molUSERUSERREMARK SMILES COc1ccc(O)c(C(=O)c2ccc(/C=C/[C@@H]3CCCNC[C@H]3NC(=O)c3ccncc3)cc2)c1FREMARK SMILES IDX 16 1 15 2 14 3 11 4 12 5 34 6 13 7 33 8 9 9 10 10 8 11 3 12REMARK SMILES IDX 4 13 35 14 5 15 6 16 36 17 2 18 1 19 7 20 17 22 18 23 23 25REMARK SMILES IDX 22 26 21 27 20 29 19 30 24 32 25 33 26 35 27 36 28 37 32 38REMARK SMILES IDX 29 39 31 40 30 41REMARK H PARENT 7 21 21 28 24 34REMARK Flexibility Score:   99.900USER                              x       y       z     vdW  Elec       q    TypeUSER                           _______ _______ _______ _____ _____    ______ ____ROOTATOM      1  C   UNL     1      34.506  42.760  18.617 -0.43 +0.00    -0.021 C  ENDROOTBRANCH   1   2ATOM      2  C   UNL     1      35.816  42.686  18.899 -0.38 -0.00    +0.004 C  BRANCH   2   3ATOM      3  C   UNL     1      36.367  42.893  20.244 -0.42 +0.00    -0.026 A  ATOM      4  C   UNL     1      37.467  43.224  22.806 -0.37 +0.00    +0.023 A  ATOM      5  C   UNL     1      37.273  41.939  22.291 -0.50 +0.00    +0.013 A  ATOM      6  C   UNL     1      37.151  44.343  22.031 -0.33 +0.00    +0.013 A  ATOM      7  C   UNL     1      36.729  41.779  21.011 -0.50 +0.00    +0.009 A  ATOM      8  C   UNL     1      36.596  44.177  20.760 -0.37 -0.00    +0.009 A  BRANCH   4   9ATOM      9  C   UNL     1      38.069  43.433  24.140 -0.23 +0.01    +0.199 C  ATOM     10  O   UNL     1      39.289  43.315  24.267 -0.12 -0.01    -0.288 OA BRANCH   9  11ATOM     11  C   UNL     1      37.265  43.729  25.347 -0.26 +0.00    +0.104 A  ATOM     12  C   UNL     1      35.420  43.227  26.861 -0.38 -0.03    +0.155 A  ATOM     13  C   UNL     1      35.768  44.328  27.645 -0.43 -0.01    +0.053 A  ATOM     14  C   UNL     1      36.173  42.939  25.713 -0.25 -0.01    +0.179 A  ATOM     15  C   UNL     1      36.841  45.143  27.271 -0.35 -0.01    +0.051 A  ATOM     16  C   UNL     1      37.573  44.852  26.124 -0.23 -0.01    +0.130 A  ATOM     17  F   UNL     1      35.805  41.900  24.947 -0.09 +0.02    -0.202 F  BRANCH  12  18ATOM     18  O   UNL     1      34.382  42.371  27.114 -0.20 +0.09    -0.494 OA ATOM     19  C   UNL     1      34.700  40.999  27.305 -0.41 -0.13    +0.278 C  ENDBRANCH  12  18BRANCH  16  20ATOM     20  O   UNL     1      38.588  45.718  25.815 -0.02 -0.01    -0.507 OA ATOM     21  H   UNL     1      39.276  45.213  25.324 +0.12 +0.01    +0.293 HD ENDBRANCH  16  20ENDBRANCH   9  11ENDBRANCH   4   9ENDBRANCH   2   3ENDBRANCH   1   2BRANCH   1  22ATOM     22  C   UNL     1      33.807  43.908  17.893 -0.35 -0.01    +0.035 C  BRANCH  22  23ATOM     23  C   UNL     1      32.445  44.108  18.587 -0.40 -0.00    +0.011 CG0ATOM     24  G   UNL     1      31.460  42.944  18.600 +0.00 +0.00    +0.000 G0 ENDBRANCH  22  23BRANCH  22  25ATOM     25  C   UNL     1      33.724  43.806  16.339 -0.32 -0.05    +0.103 C  BRANCH  25  26ATOM     26  C   UNL     1      32.247  43.840  15.851 -0.33 -0.05    +0.106 C  BRANCH  26  27ATOM     27  N   UNL     1      31.401  42.688  16.140 -0.14 +0.15    -0.315 NA ATOM     28  H   UNL     1      31.975  41.845  16.165 -0.46 -0.09    +0.122 HD BRANCH  27  29ATOM     29  C   UNL     1      30.601  42.795  17.350 -0.27 -0.02    +0.081 C  BRANCH  29  30ATOM     30  C   UNL     1      31.458  42.945  18.598 -0.30 -0.00    +0.016 CG0ATOM     31  G   UNL     1      32.440  44.112  18.585 +0.00 +0.00    +0.000 G0 ENDBRANCH  29  30ENDBRANCH  27  29ENDBRANCH  26  27ENDBRANCH  25  26BRANCH  25  32ATOM     32  N   UNL     1      34.453  44.907  15.693 -0.10 +0.23    -0.347 N  ATOM     33  C   UNL     1      35.656  44.704  15.053 -0.18 -0.12    +0.251 C  ATOM     34  H   UNL     1      33.963  45.781  15.560 +0.02 -0.18    +0.164 HD ATOM     35  O   UNL     1      36.208  43.614  14.975 -0.30 +0.09    -0.269 OA BRANCH  33  36ATOM     36  C   UNL     1      36.263  45.897  14.410 -0.38 -0.02    +0.042 A  ATOM     37  C   UNL     1      36.342  46.022  13.023 -0.52 -0.02    +0.034 A  ATOM     38  C   UNL     1      36.729  46.925  15.226 -0.38 -0.02    +0.034 A  ATOM     39  C   UNL     1      36.916  47.171  12.512 -0.56 -0.04    +0.112 A  ATOM     40  C   UNL     1      37.289  48.032  14.617 -0.43 -0.08    +0.112 A  ATOM     41  N   UNL     1      37.401  48.172  13.278 -0.75 +0.08    -0.265 NA ENDBRANCH  33  36ENDBRANCH  25  32ENDBRANCH  22  25ENDBRANCH   1  22TORSDOF 9TERENDMDL