MODEL        2USER    Run = 2USERUSER    Estimated Free Energy of Binding    = -10.47 kcal/mol  [=(1)+(2)+(3)-(4)]USERUSER    (1) Final Intermolecular Energy     = -12.26 kcal/molUSER        vdW + Hbond + desolv Energy     = -12.15 kcal/molUSER        Electrostatic Energy            =  -0.11 kcal/molUSER        Moving Ligand-Fixed Receptor    = -12.26 kcal/molUSER        Moving Ligand-Moving Receptor   =  +0.00 kcal/molUSER    (2) Final Total Internal Energy     =  -1.88 kcal/molUSER    (3) Torsional Free Energy           =  +1.79 kcal/molUSER    (4) Unbound System's Energy         =  -1.88 kcal/molUSERUSERREMARK SMILES Oc1nc2ccccc2n1C1CCN(Cc2ccc(-c3nc4ccccc4nc3-c3ccccc3)cc2)CC1REMARK SMILES IDX 11 1 12 2 13 3 14 4 38 5 39 6 10 7 2 8 3 9 4 10 9 11 5 12REMARK SMILES IDX 8 13 6 14 7 15 1 16 15 18 16 19 17 20 37 21 18 22 36 23REMARK SMILES IDX 19 24 20 25 21 26 29 27 22 28 28 29 23 30 27 31 24 32 26 33REMARK SMILES IDX 25 34 30 35 31 36 35 37 32 38 34 39 33 40REMARK H PARENT 1 17USER                              x       y       z     vdW  Elec       q    TypeUSER                           _______ _______ _______ _____ _____    ______ ____ROOTATOM      1  C   UNL     1      32.545  42.997  16.659 -0.31 -0.04    +0.095 C  ATOM      2  C   UNL     1      32.122  43.100  15.184 -0.17 -0.02    +0.041 C  ATOM      3  C   UNL     1      31.673  44.514  14.818 -0.33 -0.05    +0.087 C  ATOM      4  N   UNL     1      32.540  45.568  15.352 -0.18 +0.26    -0.299 NA ATOM      5  C   UNL     1      32.688  45.500  16.815 -0.24 -0.06    +0.087 C  ATOM      6  C   UNL     1      32.122  44.232  17.463 -0.32 -0.01    +0.041 C  ENDROOTBRANCH   1   7ATOM      7  N   UNL     1      32.126  41.748  17.275 -0.15 +0.11    -0.291 N  ATOM      8  C   UNL     1      32.897  40.921  18.043 -0.18 -0.07    +0.295 A  ATOM      9  N   UNL     1      32.259  39.869  18.474 -0.46 +0.00    -0.195 NA ATOM     10  C   UNL     1      30.989  40.013  17.972 -0.32 -0.00    +0.092 A  ATOM     11  C   UNL     1      30.867  41.183  17.219 -0.28 -0.02    +0.072 A  ATOM     12  C   UNL     1      29.873  39.174  18.128 -0.34 +0.01    +0.031 A  ATOM     13  C   UNL     1      29.664  41.563  16.608 -0.30 -0.01    +0.029 A  ATOM     14  C   UNL     1      28.664  39.537  17.523 -0.27 +0.00    +0.002 A  ATOM     15  C   UNL     1      28.564  40.711  16.777 -0.30 -0.00    +0.002 A  BRANCH   8  16ATOM     16  O   UNL     1      34.160  41.140  18.347 +0.03 +0.10    -0.480 OA ATOM     17  H   UNL     1      34.616  40.656  17.634 -0.36 -0.20    +0.296 HD ENDBRANCH   8  16ENDBRANCH   1   7BRANCH   4  18ATOM     18  C   UNL     1      33.847  45.668  14.679 -0.08 -0.11    +0.120 C  BRANCH  18  19ATOM     19  C   UNL     1      35.029  45.565  15.619 -0.31 +0.03    -0.034 A  ATOM     20  C   UNL     1      35.686  46.716  16.071 -0.21 -0.01    +0.006 A  ATOM     21  C   UNL     1      35.496  44.314  16.039 -0.34 -0.00    +0.006 A  ATOM     22  C   UNL     1      36.775  46.613  16.943 -0.24 -0.01    +0.011 A  ATOM     23  C   UNL     1      36.583  44.215  16.911 -0.33 -0.00    +0.011 A  ATOM     24  C   UNL     1      37.233  45.363  17.392 -0.35 -0.00    +0.002 A  BRANCH  24  25ATOM     25  C   UNL     1      38.369  45.278  18.324 -0.33 -0.02    +0.097 A  ATOM     26  N   UNL     1      38.128  44.491  19.413 -0.21 +0.02    -0.244 NA ATOM     27  C   UNL     1      39.596  45.941  18.164 -0.38 -0.01    +0.097 A  ATOM     28  C   UNL     1      39.097  44.404  20.342 -0.28 -0.00    +0.089 A  ATOM     29  N   UNL     1      40.568  45.857  19.117 -0.28 +0.00    -0.244 NA ATOM     30  C   UNL     1      38.892  43.623  21.473 -0.19 +0.00    +0.030 A  ATOM     31  C   UNL     1      40.321  45.092  20.194 -0.33 +0.00    +0.089 A  ATOM     32  C   UNL     1      39.869  43.508  22.463 -0.27 +0.00    +0.002 A  ATOM     33  C   UNL     1      41.287  44.972  21.185 -0.30 +0.00    +0.030 A  ATOM     34  C   UNL     1      41.073  44.186  22.318 -0.25 +0.00    +0.002 A  BRANCH  27  35ATOM     35  C   UNL     1      39.977  46.755  16.995 -0.49 -0.00    +0.002 A  ATOM     36  C   UNL     1      39.620  46.344  15.698 -0.43 -0.00    +0.010 A  ATOM     37  C   UNL     1      40.674  47.969  17.127 -0.49 -0.00    +0.010 A  ATOM     38  C   UNL     1      39.968  47.101  14.575 -0.42 -0.00    +0.001 A  ATOM     39  C   UNL     1      41.026  48.726  16.005 -0.60 -0.00    +0.001 A  ATOM     40  C   UNL     1      40.675  48.291  14.730 -0.53 -0.00    +0.000 A  ENDBRANCH  27  35ENDBRANCH  24  25ENDBRANCH  18  19ENDBRANCH   4  18TORSDOF 6TERENDMDL