MODEL        8USER    Run = 8USERUSER    Estimated Free Energy of Binding    = -11.87 kcal/mol  [=(1)+(2)+(3)-(4)]USERUSER    (1) Final Intermolecular Energy     = -13.66 kcal/molUSER        vdW + Hbond + desolv Energy     = -13.61 kcal/molUSER        Electrostatic Energy            =  -0.05 kcal/molUSER        Moving Ligand-Fixed Receptor    = -13.66 kcal/molUSER        Moving Ligand-Moving Receptor   =  +0.00 kcal/molUSER    (2) Final Total Internal Energy     =  -1.20 kcal/molUSER    (3) Torsional Free Energy           =  +1.79 kcal/molUSER    (4) Unbound System's Energy         =  -1.20 kcal/molUSERUSERREMARK SMILES Cn1ccc2ccc3c4[nH]c5c(CCCN[C@H]6CC[C@H](O)CC6)cccc5c4c4c(c3c21)C(=O)NC4=OREMARK SMILES IDX 15 1 14 2 13 3 12 4 2 5 3 6 32 7 4 8 31 9 5 10 30 11 8 12REMARK SMILES IDX 6 13 29 14 33 15 7 16 9 17 28 18 36 19 35 20 10 21 27 22REMARK SMILES IDX 11 23 26 24 25 25 24 26 1 27 34 28 37 29 16 32 17 34 23 35REMARK SMILES IDX 18 36 22 37 19 38 20 39 21 40REMARK H PARENT 35 30 10 31 16 33 21 41USER                              x       y       z     vdW  Elec       q    TypeUSER                           _______ _______ _______ _____ _____    ______ ____ROOTATOM      1  C   UNL     1      39.220  44.419  22.845 -0.26 +0.00    +0.081 C  ENDROOTBRANCH   1   2ATOM      2  C   UNL     1      40.731  44.607  23.007 -0.22 +0.00    +0.020 C  BRANCH   2   3ATOM      3  C   UNL     1      41.528  44.154  21.778 -0.32 +0.00    +0.039 C  BRANCH   3   4ATOM      4  C   UNL     1      41.885  45.272  20.829 -0.30 -0.00    -0.024 A  ATOM      5  N   UNL     1      36.359  46.373  14.236 -0.16 +0.21    -0.350 N  ATOM      6  C   UNL     1      35.072  45.925  14.044 -0.25 -0.06    +0.086 A  ATOM      7  C   UNL     1      36.786  46.091  15.528 -0.33 -0.03    +0.057 A  ATOM      8  C   UNL     1      34.732  45.157  15.125 -0.26 -0.02    +0.028 A  ATOM      9  C   UNL     1      37.947  46.458  16.306 -0.37 -0.01    +0.022 A  ATOM     10  C   UNL     1      35.826  45.189  16.026 -0.34 -0.00    +0.000 A  ATOM     11  C   UNL     1      38.868  47.492  16.072 -0.41 -0.03    +0.063 A  ATOM     12  C   UNL     1      38.178  45.670  17.476 -0.38 -0.00    +0.009 A  ATOM     13  C   UNL     1      36.056  44.518  17.238 -0.31 -0.00    +0.011 A  ATOM     14  C   UNL     1      40.030  47.655  16.836 -0.45 -0.02    +0.063 A  ATOM     15  C   UNL     1      38.818  48.669  15.188 -0.35 -0.14    +0.259 C  ATOM     16  C   UNL     1      37.248  44.721  17.927 -0.34 -0.00    +0.012 A  ATOM     17  C   UNL     1      39.378  45.858  18.232 -0.40 -0.01    +0.055 A  ATOM     18  C   UNL     1      40.338  46.830  17.921 -0.47 -0.00    +0.022 A  ATOM     19  C   UNL     1      40.740  48.828  16.332 -0.39 -0.05    +0.259 C  ATOM     20  N   UNL     1      40.020  49.292  15.282 -0.31 +0.13    -0.288 N  ATOM     21  N   UNL     1      39.848  45.200  19.348 -0.18 +0.01    -0.354 N  ATOM     22  C   UNL     1      41.405  46.712  18.875 -0.49 +0.00    +0.008 A  ATOM     23  C   UNL     1      41.070  45.681  19.753 -0.38 +0.00    +0.050 A  ATOM     24  C   UNL     1      42.629  47.381  19.081 -0.55 +0.00    +0.011 A  ATOM     25  C   UNL     1      43.462  47.004  20.138 -0.34 +0.00    +0.001 A  ATOM     26  C   UNL     1      43.094  45.971  20.993 -0.09 +0.00    +0.006 A  ATOM     27  C   UNL     1      37.157  46.813  13.111 -0.51 -0.06    +0.149 C  ATOM     28  O   UNL     1      37.859  49.090  14.575 -0.35 +0.20    -0.269 OA ATOM     29  O   UNL     1      41.742  49.343  16.786 -1.01 -0.05    -0.269 OA ATOM     30  H   UNL     1      40.190  50.201  14.880 -0.20 -0.12    +0.173 HD ATOM     31  H   UNL     1      39.371  44.438  19.804 +0.10 -0.00    +0.167 HD ENDBRANCH   3   4ENDBRANCH   2   3ENDBRANCH   1   2BRANCH   1  32ATOM     32  N   UNL     1      38.844  43.092  23.339 -0.11 -0.02    -0.314 NA ATOM     33  H   UNL     1      39.463  42.385  22.946 +0.06 +0.01    +0.122 HD BRANCH  32  34ATOM     34  C   UNL     1      37.444  42.751  23.046 -0.42 +0.00    +0.053 C  ATOM     35  C   UNL     1      36.663  43.913  22.397 -0.15 +0.00    +0.021 C  ATOM     36  C   UNL     1      37.464  41.496  22.150 -0.53 +0.00    +0.021 C  ATOM     37  C   UNL     1      36.664  43.836  20.872 -0.45 +0.00    +0.033 C  ATOM     38  C   UNL     1      36.174  41.369  21.351 -0.56 +0.00    +0.033 C  ATOM     39  C   UNL     1      36.004  42.541  20.381 -0.44 -0.00    +0.114 C  BRANCH  39  40ATOM     40  O   UNL     1      34.605  42.753  20.196 -0.47 -0.03    -0.393 OA ATOM     41  H   UNL     1      34.198  41.888  20.015 +0.13 +0.03    +0.210 HD ENDBRANCH  39  40ENDBRANCH  32  34ENDBRANCH   1  32TORSDOF 6TERENDMDL