MODEL        2USER    Run = 2USERUSER    Estimated Free Energy of Binding    =  -7.24 kcal/mol  [=(1)+(2)+(3)-(4)]USERUSER    (1) Final Intermolecular Energy     = -11.72 kcal/molUSER        vdW + Hbond + desolv Energy     = -11.63 kcal/molUSER        Electrostatic Energy            =  -0.23 kcal/molUSER        Moving Ligand-Fixed Receptor    = -11.86 kcal/molUSER        Moving Ligand-Moving Receptor   =  +0.14 kcal/molUSER    (2) Final Total Internal Energy     =  -3.07 kcal/molUSER    (3) Torsional Free Energy           =  +4.47 kcal/molUSER    (4) Unbound System's Energy         =  -3.07 kcal/molUSERUSERREMARK SMILES COc1ccc(O)c(C(=O)c2ccc(NC[C@@H]3CCCNC[C@@H]3NC(=O)c3ccncc3)cc2)c1FREMARK SMILES IDX 16 1 15 2 14 4 11 5 12 6 34 7 13 8 33 9 9 10 10 11 8 12 3 13REMARK SMILES IDX 4 14 35 15 5 16 6 17 36 18 2 19 1 20 7 21 17 23 18 24 23 26REMARK SMILES IDX 22 27 21 28 20 30 19 31 24 33 25 34 26 36 27 37 28 38 32 39REMARK SMILES IDX 29 40 31 41 30 42REMARK H PARENT 15 3 7 22 21 29 24 35REMARK Flexibility Score:   99.900USER                              x       y       z     vdW  Elec       q    TypeUSER                           _______ _______ _______ _____ _____    ______ ____ROOTATOM      1  C   UNL     1      37.190  43.536  23.493 -0.33 +0.01    +0.118 C  ENDROOTBRANCH   1   2ATOM      2  N   UNL     1      38.283  44.505  23.364 -0.10 -0.03    -0.385 N  ATOM      3  H   UNL     1      38.166  45.322  23.955 +0.07 +0.02    +0.160 HD BRANCH   2   4ATOM      4  C   UNL     1      38.904  44.777  22.149 -0.30 +0.00    +0.034 A  ATOM      5  C   UNL     1      40.016  45.402  19.622 -0.40 -0.00    +0.023 A  ATOM      6  C   UNL     1      40.754  45.606  20.790 -0.33 +0.00    +0.014 A  ATOM      7  C   UNL     1      38.703  44.940  19.714 -0.37 -0.00    +0.014 A  ATOM      8  C   UNL     1      40.197  45.303  22.039 -0.26 +0.00    +0.026 A  ATOM      9  C   UNL     1      38.159  44.638  20.969 -0.34 +0.00    +0.026 A  BRANCH   5  10ATOM     10  C   UNL     1      40.632  45.769  18.324 -0.40 -0.01    +0.199 C  ATOM     11  O   UNL     1      41.759  45.349  18.056 -0.27 -0.02    -0.288 OA BRANCH  10  12ATOM     12  C   UNL     1      39.984  46.666  17.343 -0.41 -0.02    +0.104 A  ATOM     13  C   UNL     1      38.167  47.209  15.808 -0.32 -0.08    +0.155 A  ATOM     14  C   UNL     1      38.794  48.417  15.498 -0.47 -0.03    +0.053 A  ATOM     15  C   UNL     1      38.775  46.338  16.726 -0.29 -0.05    +0.179 A  ATOM     16  C   UNL     1      40.020  48.740  16.083 -0.49 -0.02    +0.051 A  ATOM     17  C   UNL     1      40.616  47.864  16.986 -0.41 -0.02    +0.130 A  ATOM     18  F   UNL     1      38.184  45.161  16.985 -0.08 +0.05    -0.202 F  BRANCH  13  19ATOM     19  O   UNL     1      36.977  46.776  15.287 -0.07 +0.31    -0.494 OA ATOM     20  C   UNL     1      35.872  46.675  16.178 -0.18 -0.28    +0.278 C  ENDBRANCH  13  19BRANCH  17  21ATOM     21  O   UNL     1      41.832  48.241  17.489 -0.50 -0.00    -0.507 OA ATOM     22  H   UNL     1      42.385  47.432  17.582 -0.33 -0.05    +0.293 HD ENDBRANCH  17  21ENDBRANCH  10  12ENDBRANCH   5  10ENDBRANCH   2   4ENDBRANCH   1   2BRANCH   1  23ATOM     23  C   UNL     1      37.471  42.490  24.601 -0.40 +0.00    +0.032 C  BRANCH  23  24ATOM     24  C   UNL     1      36.177  41.724  24.946 -0.35 -0.00    +0.009 CG0ATOM     25  G   UNL     1      35.434  42.082  26.233 +0.00 +0.00    +0.000 G0 ENDBRANCH  23  24BRANCH  23  26ATOM     26  C   UNL     1      38.188  43.154  25.799 -0.24 -0.00    +0.101 C  BRANCH  26  27ATOM     27  C   UNL     1      38.299  42.189  27.002 -0.33 -0.01    +0.106 C  BRANCH  27  28ATOM     28  N   UNL     1      37.193  42.263  27.966 -0.14 +0.09    -0.315 NA ATOM     29  H   UNL     1      37.520  41.845  28.840 -0.42 -0.05    +0.122 HD BRANCH  28  30ATOM     30  C   UNL     1      36.006  41.525  27.531 -0.59 -0.03    +0.081 C  BRANCH  30  31ATOM     31  C   UNL     1      35.434  42.083  26.234 -0.47 -0.00    +0.016 CG0ATOM     32  G   UNL     1      36.176  41.723  24.946 +0.00 +0.00    +0.000 G0 ENDBRANCH  30  31ENDBRANCH  28  30ENDBRANCH  27  28ENDBRANCH  26  27BRANCH  26  33ATOM     33  N   UNL     1      37.555  44.399  26.229 -0.09 +0.02    -0.348 N  ATOM     34  C   UNL     1      38.167  45.626  26.142 -0.19 -0.00    +0.251 C  ATOM     35  H   UNL     1      36.671  44.282  26.710 +0.09 -0.02    +0.164 HD ATOM     36  O   UNL     1      39.300  45.777  25.701 -0.09 -0.01    -0.269 OA BRANCH  34  37ATOM     37  C   UNL     1      37.396  46.797  26.637 -0.32 -0.00    +0.042 A  ATOM     38  C   UNL     1      36.769  46.693  27.880 -0.28 -0.01    +0.034 A  ATOM     39  C   UNL     1      37.305  47.992  25.921 -0.38 +0.00    +0.034 A  ATOM     40  C   UNL     1      36.057  47.781  28.345 -0.29 -0.02    +0.112 A  ATOM     41  C   UNL     1      36.568  49.023  26.476 -0.35 -0.00    +0.112 A  ATOM     42  N   UNL     1      35.939  48.943  27.666 -0.20 +0.02    -0.265 NA ENDBRANCH  34  37ENDBRANCH  26  33ENDBRANCH  23  26ENDBRANCH   1  23TORSDOF 9TERENDMDL