MODEL        2USER    Run = 2USERUSER    Estimated Free Energy of Binding    =  -7.85 kcal/mol  [=(1)+(2)+(3)-(4)]USERUSER    (1) Final Intermolecular Energy     = -12.02 kcal/molUSER        vdW + Hbond + desolv Energy     = -12.23 kcal/molUSER        Electrostatic Energy            =  -0.23 kcal/molUSER        Moving Ligand-Fixed Receptor    = -12.46 kcal/molUSER        Moving Ligand-Moving Receptor   =  +0.44 kcal/molUSER    (2) Final Total Internal Energy     =  -2.38 kcal/molUSER    (3) Torsional Free Energy           =  +4.18 kcal/molUSER    (4) Unbound System's Energy         =  -2.38 kcal/molUSERUSERREMARK SMILES COc1ccc(O)c(C(=O)c2ccc(C(=O)N[C@@H]3CCCNC[C@H]3NC(=O)c3ccncc3)cc2)c1FREMARK SMILES IDX 15 1 16 2 17 3 14 5 11 6 12 7 35 8 13 9 34 10 9 11 10 12REMARK SMILES IDX 8 13 3 14 4 15 36 16 5 17 6 18 37 19 2 20 1 21 7 22 18 24REMARK SMILES IDX 19 25 24 27 23 28 22 29 21 31 20 32 25 34 26 35 27 37 28 38REMARK SMILES IDX 29 39 33 40 30 41 32 42 31 43REMARK H PARENT 17 4 7 23 22 30 25 36REMARK Flexibility Score:   88.900USER                              x       y       z     vdW  Elec       q    TypeUSER                           _______ _______ _______ _____ _____    ______ ____ROOTATOM      1  C   UNL     1      37.784  44.116  22.332 -0.26 +0.02    +0.251 C  ATOM      2  O   UNL     1      36.587  44.293  22.529 -0.18 -0.05    -0.269 OA ATOM      3  N   UNL     1      38.623  43.515  23.249 -0.09 -0.02    -0.347 N  ATOM      4  H   UNL     1      39.620  43.594  23.102 +0.09 +0.01    +0.164 HD ENDROOTBRANCH   1   5ATOM      5  C   UNL     1      38.424  44.624  21.086 -0.34 +0.00    +0.039 A  ATOM      6  C   UNL     1      39.752  45.544  18.795 -0.42 -0.00    +0.023 A  ATOM      7  C   UNL     1      40.319  45.737  20.059 -0.36 +0.00    +0.013 A  ATOM      8  C   UNL     1      38.520  44.892  18.676 -0.38 -0.00    +0.013 A  ATOM      9  C   UNL     1      39.651  45.289  21.201 -0.33 +0.00    +0.014 A  ATOM     10  C   UNL     1      37.850  44.441  19.822 -0.35 -0.00    +0.014 A  BRANCH   6  11ATOM     11  C   UNL     1      40.534  45.965  17.612 -0.39 -0.02    +0.199 C  ATOM     12  O   UNL     1      41.690  45.551  17.505 -0.24 -0.00    -0.288 OA BRANCH  11  13ATOM     13  C   UNL     1      40.000  46.815  16.522 -0.41 -0.02    +0.104 A  ATOM     14  C   UNL     1      38.363  47.292  14.776 -0.35 -0.06    +0.155 A  ATOM     15  C   UNL     1      39.032  48.481  14.472 -0.47 -0.02    +0.053 A  ATOM     16  C   UNL     1      38.854  46.470  15.804 -0.29 -0.05    +0.179 A  ATOM     17  C   UNL     1      40.165  48.851  15.202 -0.55 -0.02    +0.051 A  ATOM     18  C   UNL     1      40.633  48.031  16.226 -0.45 -0.02    +0.130 A  ATOM     19  F   UNL     1      38.178  45.350  16.107 -0.07 +0.06    -0.202 F  BRANCH  14  20ATOM     20  O   UNL     1      37.239  46.833  14.143 -0.09 +0.23    -0.494 OA ATOM     21  C   UNL     1      36.663  47.675  13.149 -0.45 -0.13    +0.278 C  ENDBRANCH  14  20BRANCH  18  22ATOM     22  O   UNL     1      41.729  48.490  16.908 -0.62 -0.03    -0.507 OA ATOM     23  H   UNL     1      42.261  47.702  17.175 -0.35 -0.05    +0.293 HD ENDBRANCH  18  22ENDBRANCH  11  13ENDBRANCH   6  11ENDBRANCH   1   5BRANCH   3  24ATOM     24  C   UNL     1      38.165  43.231  24.615 -0.26 +0.00    +0.106 C  BRANCH  24  25ATOM     25  C   UNL     1      36.778  42.579  24.572 -0.44 +0.00    +0.028 CG0ATOM     26  G   UNL     1      36.372  41.791  25.829 +0.00 +0.00    +0.000 G0 ENDBRANCH  24  25BRANCH  24  27ATOM     27  C   UNL     1      38.231  44.517  25.487 -0.21 +0.00    +0.118 C  BRANCH  27  28ATOM     28  C   UNL     1      38.279  44.269  27.013 -0.24 -0.01    +0.108 C  BRANCH  28  29ATOM     29  N   UNL     1      37.907  42.932  27.485 -0.14 +0.04    -0.315 NA ATOM     30  H   UNL     1      38.578  42.246  27.147 +0.07 -0.01    +0.122 HD BRANCH  29  31ATOM     31  C   UNL     1      36.552  42.492  27.172 -0.45 -0.02    +0.081 C  BRANCH  31  32ATOM     32  C   UNL     1      36.373  41.788  25.830 -0.48 -0.00    +0.017 CG0ATOM     33  G   UNL     1      36.780  42.574  24.572 +0.00 +0.00    +0.000 G0 ENDBRANCH  31  32ENDBRANCH  29  31ENDBRANCH  28  29ENDBRANCH  27  28BRANCH  27  34ATOM     34  N   UNL     1      39.351  45.364  25.055 -0.03 -0.01    -0.346 N  ATOM     35  C   UNL     1      39.142  46.585  24.456 -0.19 +0.02    +0.251 C  ATOM     36  H   UNL     1      40.256  45.165  25.451 +0.06 +0.00    +0.164 HD ATOM     37  O   UNL     1      38.035  47.014  24.157 -0.51 -0.06    -0.269 OA BRANCH  35  38ATOM     38  C   UNL     1      40.349  47.408  24.201 -0.25 +0.00    +0.042 A  ATOM     39  C   UNL     1      40.587  48.508  25.027 -0.29 +0.00    +0.034 A  ATOM     40  C   UNL     1      41.226  47.130  23.151 -0.21 +0.00    +0.034 A  ATOM     41  C   UNL     1      41.710  49.273  24.781 -0.27 +0.02    +0.112 A  ATOM     42  C   UNL     1      42.322  47.959  22.988 -0.24 +0.02    +0.112 A  ATOM     43  N   UNL     1      42.585  49.020  23.784 -0.79 -0.08    -0.265 NA ENDBRANCH  35  38ENDBRANCH  27  34ENDBRANCH  24  27ENDBRANCH   3  24TORSDOF 8TERENDMDL