MODEL        6USER    Run = 6USERUSER    Estimated Free Energy of Binding    = -12.85 kcal/mol  [=(1)+(2)+(3)-(4)]USERUSER    (1) Final Intermolecular Energy     = -15.24 kcal/molUSER        vdW + Hbond + desolv Energy     = -15.11 kcal/molUSER        Electrostatic Energy            =  -0.13 kcal/molUSER        Moving Ligand-Fixed Receptor    = -15.24 kcal/molUSER        Moving Ligand-Moving Receptor   =  +0.00 kcal/molUSER    (2) Final Total Internal Energy     =  -2.56 kcal/molUSER    (3) Torsional Free Energy           =  +2.39 kcal/molUSER    (4) Unbound System's Energy         =  -2.56 kcal/molUSERUSERREMARK SMILES N#Cc1cnc(-c2ccc(CNCc3ccc(-c4csnn4)cc3)cc2)c(-c2ccccc2)c1REMARK SMILES IDX 11 1 10 2 7 3 8 4 26 5 9 6 25 7 6 8 3 9 4 10 34 11 5 12REMARK SMILES IDX 27 13 2 14 1 15 28 16 29 17 33 18 30 19 32 20 31 21 12 22REMARK SMILES IDX 13 24 14 25 15 26 24 27 16 28 23 29 17 30 18 31 19 32 22 33REMARK SMILES IDX 20 34 21 35REMARK H PARENT 12 23USER                              x       y       z     vdW  Elec       q    TypeUSER                           _______ _______ _______ _____ _____    ______ ____ROOTATOM      1  C   UNL     1      36.305  43.256  20.305 -0.41 -0.00    +0.117 C  ENDROOTBRANCH   1   2ATOM      2  C   UNL     1      35.451  43.796  19.183 -0.36 +0.01    -0.034 A  ATOM      3  C   UNL     1      33.819  44.828  17.100 -0.32 -0.00    +0.001 A  ATOM      4  C   UNL     1      34.154  43.463  17.156 -0.33 -0.00    +0.011 A  ATOM      5  C   UNL     1      34.334  45.667  18.100 -0.44 -0.01    +0.011 A  ATOM      6  C   UNL     1      34.953  42.951  18.185 -0.36 -0.00    +0.006 A  ATOM      7  C   UNL     1      35.131  45.159  19.132 -0.29 -0.00    +0.006 A  BRANCH   3   8ATOM      8  C   UNL     1      32.972  45.342  16.004 -0.25 -0.06    +0.078 A  ATOM      9  C   UNL     1      31.150  46.206  14.110 -0.52 -0.05    +0.071 A  ATOM     10  C   UNL     1      30.766  45.736  15.351 -0.36 -0.06    +0.131 A  ATOM     11  C   UNL     1      32.513  46.250  13.823 -0.15 -0.03    +0.032 A  ATOM     12  N   UNL     1      31.638  45.314  16.294 -0.67 +0.10    -0.254 NA ATOM     13  C   UNL     1      33.463  45.820  14.771 -0.14 -0.01    +0.009 A  BRANCH   9  14ATOM     14  C   UNL     1      30.175  46.639  13.162 -0.56 -0.05    +0.101 C  ATOM     15  N   UNL     1      29.383  46.992  12.392 -0.73 +0.09    -0.192 NA ENDBRANCH   9  14BRANCH  13  16ATOM     16  C   UNL     1      34.894  45.928  14.438 -0.34 +0.01    -0.016 A  ATOM     17  C   UNL     1      35.371  46.993  13.654 -0.41 -0.01    +0.009 A  ATOM     18  C   UNL     1      35.822  44.984  14.907 -0.34 -0.00    +0.009 A  ATOM     19  C   UNL     1      36.728  47.104  13.340 -0.58 -0.00    +0.001 A  ATOM     20  C   UNL     1      37.179  45.093  14.592 -0.39 -0.00    +0.001 A  ATOM     21  C   UNL     1      37.631  46.152  13.808 -0.45 -0.00    +0.000 A  ENDBRANCH  13  16ENDBRANCH   3   8ENDBRANCH   1   2BRANCH   1  22ATOM     22  N   UNL     1      37.231  44.282  20.784 -0.20 +0.00    -0.309 NA ATOM     23  H   UNL     1      37.210  44.279  21.802 +0.06 +0.01    +0.123 HD BRANCH  22  24ATOM     24  C   UNL     1      38.603  44.040  20.337 -0.25 -0.00    +0.117 C  BRANCH  24  25ATOM     25  C   UNL     1      39.090  45.048  19.322 -0.37 +0.00    -0.034 A  ATOM     26  C   UNL     1      38.384  45.266  18.132 -0.39 -0.00    +0.006 A  ATOM     27  C   UNL     1      40.269  45.768  19.544 -0.41 -0.00    +0.006 A  ATOM     28  C   UNL     1      38.843  46.194  17.190 -0.41 -0.00    +0.011 A  ATOM     29  C   UNL     1      40.729  46.693  18.602 -0.45 -0.00    +0.011 A  ATOM     30  C   UNL     1      40.019  46.924  17.415 -0.48 -0.00    +0.003 A  BRANCH  30  31ATOM     31  C   UNL     1      40.525  47.899  16.454 -0.46 -0.02    +0.105 A  ATOM     32  C   UNL     1      40.151  47.959  15.121 -0.45 -0.03    +0.118 A  ATOM     33  N   UNL     1      41.434  48.883  16.838 -1.02 -0.00    -0.138 NA ATOM     34  S   UNL     1      40.997  49.270  14.406 -0.83 +0.00    -0.020 S  ATOM     35  N   UNL     1      41.768  49.672  15.832 -1.05 -0.01    -0.091 NA ENDBRANCH  30  31ENDBRANCH  24  25ENDBRANCH  22  24ENDBRANCH   1  22TORSDOF 8TERENDMDL