REMARK SMILES Cc1c(CO)cccc1-n1c2ccncc2c2ccc(CO)nc21
REMARK SMILES IDX 10 1 11 2 12 3 13 4 14 5 15 6 16 7 17 8 18 9 19 10 20 11
REMARK SMILES IDX 23 12 24 13 9 14 2 15 3 16 6 17 8 18 7 19 1 20 4 21 5 22
REMARK SMILES IDX 21 24 22 25
REMARK H PARENT 5 23 22 26
ROOT
ATOM      1  N   UNL     1      -0.309   0.957   0.083  1.00  0.00    -0.293 N 
ATOM      2  C   UNL     1      -0.569   2.299  -0.195  1.00  0.00     0.059 A 
ATOM      3  C   UNL     1      -0.098   3.479   0.398  1.00  0.00     0.047 A 
ATOM      4  C   UNL     1      -0.554   4.661  -0.162  1.00  0.00     0.113 A 
ATOM      5  N   UNL     1      -1.390   4.740  -1.217  1.00  0.00    -0.264 NA
ATOM      6  C   UNL     1      -1.821   3.595  -1.797  1.00  0.00     0.122 A 
ATOM      7  C   UNL     1      -1.415   2.345  -1.308  1.00  0.00     0.028 A 
ATOM      8  C   UNL     1      -1.681   1.004  -1.704  1.00  0.00     0.029 A 
ATOM      9  C   UNL     1      -2.448   0.402  -2.717  1.00  0.00     0.015 A 
ATOM     10  C   UNL     1      -2.492  -0.990  -2.768  1.00  0.00     0.027 A 
ATOM     11  C   UNL     1      -1.790  -1.729  -1.821  1.00  0.00     0.068 A 
ATOM     12  N   UNL     1      -1.033  -1.186  -0.833  1.00  0.00    -0.232 NA
ATOM     13  C   UNL     1      -0.998   0.167  -0.828  1.00  0.00     0.146 A 
ENDROOT
BRANCH   1  14
ATOM     14  C   UNL     1       0.464   0.473   1.178  1.00  0.00     0.051 A 
ATOM     15  C   UNL     1       1.515  -0.461   1.006  1.00  0.00    -0.021 A 
ATOM     16  C   UNL     1       2.162  -0.967   2.164  1.00  0.00    -0.018 A 
ATOM     17  C   UNL     1       1.781  -0.502   3.436  1.00  0.00     0.006 A 
ATOM     18  C   UNL     1       0.116   0.935   2.458  1.00  0.00     0.027 A 
ATOM     19  C   UNL     1       0.776   0.450   3.582  1.00  0.00     0.003 A 
ATOM     20  C   UNL     1       1.987  -0.902  -0.360  1.00  0.00     0.047 C 
BRANCH  16  21
ATOM     21  C   UNL     1       3.261  -2.004   2.088  1.00  0.00     0.192 C 
BRANCH  21  22
ATOM     22  O   UNL     1       2.779  -3.238   1.576  1.00  0.00    -0.392 OA
ATOM     23  H   UNL     1       1.807  -3.216   1.611  1.00  0.00     0.211 HD
ENDBRANCH  21  22
ENDBRANCH  16  21
ENDBRANCH   1  14
BRANCH  11  24
ATOM     24  C   UNL     1      -1.843  -3.242  -1.865  1.00  0.00     0.212 C 
BRANCH  24  25
ATOM     25  O   UNL     1      -1.152  -3.816  -0.754  1.00  0.00    -0.390 OA
ATOM     26  H   UNL     1      -0.792  -3.049  -0.262  1.00  0.00     0.211 HD
ENDBRANCH  24  25
ENDBRANCH  11  24
TORSDOF 5
