MODEL        8USER    Run = 8USERUSER    Estimated Free Energy of Binding    =  -9.81 kcal/mol  [=(1)+(2)+(3)-(4)]USERUSER    (1) Final Intermolecular Energy     = -11.60 kcal/molUSER        vdW + Hbond + desolv Energy     = -11.59 kcal/molUSER        Electrostatic Energy            =  -0.00 kcal/molUSER        Moving Ligand-Fixed Receptor    = -11.60 kcal/molUSER        Moving Ligand-Moving Receptor   =  +0.00 kcal/molUSER    (2) Final Total Internal Energy     =  -0.92 kcal/molUSER    (3) Torsional Free Energy           =  +1.79 kcal/molUSER    (4) Unbound System's Energy         =  -0.92 kcal/molUSERUSERREMARK SMILES O=C(NCCCNc1ccc(F)cc1)c1ccc2c(c1)CSc1ccccc1-2REMARK SMILES IDX 5 1 4 2 3 3 2 4 1 5 15 7 16 8 20 9 17 10 19 11 18 12 21 13REMARK SMILES IDX 28 14 22 15 27 16 23 17 26 18 24 19 25 20 6 21 7 22 8 24REMARK SMILES IDX 9 25 14 26 10 27 13 28 11 29 12 30REMARK H PARENT 3 6 7 23USER                              x       y       z     vdW  Elec       q    TypeUSER                           _______ _______ _______ _____ _____    ______ ____ROOTATOM      1  C   UNL     1      39.918  48.925  14.756 -0.51 -0.02    +0.042 C  ENDROOTBRANCH   1   2ATOM      2  C   UNL     1      41.035  48.633  15.751 -0.56 -0.01    +0.118 C  BRANCH   2   3ATOM      3  N   UNL     1      40.562  47.785  16.831 -0.27 +0.06    -0.352 N  ATOM      4  C   UNL     1      40.213  46.470  16.590 -0.34 -0.03    +0.251 C  ATOM      5  O   UNL     1      40.388  45.908  15.515 -0.33 +0.01    -0.269 OA ATOM      6  H   UNL     1      40.109  48.250  17.606 +0.10 -0.04    +0.163 HD BRANCH   4   7ATOM      7  C   UNL     1      39.557  45.744  17.714 -0.41 -0.01    +0.040 A  ATOM      8  C   UNL     1      38.359  45.049  17.554 -0.37 -0.00    +0.014 A  ATOM      9  C   UNL     1      40.153  45.793  18.978 -0.44 -0.00    +0.019 A  ATOM     10  C   UNL     1      37.786  44.378  18.641 -0.34 -0.00    +0.010 A  ATOM     11  C   UNL     1      39.573  45.131  20.078 -0.36 +0.00    -0.029 A  ATOM     12  C   UNL     1      38.386  44.379  19.917 -0.35 +0.00    -0.013 A  ATOM     13  C   UNL     1      40.268  45.201  21.414 -0.29 +0.01    +0.111 C  ATOM     14  C   UNL     1      37.777  43.660  21.068 -0.36 -0.00    -0.004 A  ATOM     15  S   UNL     1      39.108  45.431  22.787 -0.36 -0.01    -0.121 SA ATOM     16  C   UNL     1      36.942  42.539  20.883 -0.41 +0.00    +0.010 A  ATOM     17  C   UNL     1      38.010  44.073  22.400 -0.34 +0.00    +0.015 A  ATOM     18  C   UNL     1      36.336  41.885  21.960 -0.53 +0.00    +0.001 A  ATOM     19  C   UNL     1      37.388  43.424  23.478 -0.35 +0.00    +0.016 A  ATOM     20  C   UNL     1      36.551  42.333  23.257 -0.42 +0.00    +0.001 A  ENDBRANCH   4   7ENDBRANCH   2   3ENDBRANCH   1   2BRANCH   1  21ATOM     21  C   UNL     1      38.539  48.871  15.409 -0.44 -0.07    +0.114 C  BRANCH  21  22ATOM     22  N   UNL     1      37.499  48.877  14.383 -0.24 +0.27    -0.385 N  ATOM     23  H   UNL     1      37.554  49.701  13.786 -0.42 -0.11    +0.160 HD BRANCH  22  24ATOM     24  C   UNL     1      37.185  47.724  13.663 -0.54 -0.02    +0.034 A  ATOM     25  C   UNL     1      36.577  47.738  12.400 -0.64 -0.01    +0.029 A  ATOM     26  C   UNL     1      37.623  46.485  14.161 -0.42 -0.01    +0.029 A  ATOM     27  C   UNL     1      36.351  46.553  11.692 -0.59 -0.02    +0.041 A  ATOM     28  C   UNL     1      37.399  45.297  13.459 -0.41 -0.01    +0.041 A  ATOM     29  C   UNL     1      36.757  45.342  12.232 -0.45 -0.04    +0.123 A  ATOM     30  F   UNL     1      36.543  44.208  11.553 -0.18 +0.07    -0.207 F  ENDBRANCH  22  24ENDBRANCH  21  22ENDBRANCH   1  21TORSDOF 6TERENDMDL