MODEL        1USER    Run = 1USERUSER    Estimated Free Energy of Binding    =  -8.52 kcal/mol  [=(1)+(2)+(3)-(4)]USERUSER    (1) Final Intermolecular Energy     = -10.61 kcal/molUSER        vdW + Hbond + desolv Energy     = -10.51 kcal/molUSER        Electrostatic Energy            =  -0.10 kcal/molUSER        Moving Ligand-Fixed Receptor    = -10.61 kcal/molUSER        Moving Ligand-Moving Receptor   =  +0.00 kcal/molUSER    (2) Final Total Internal Energy     =  -1.52 kcal/molUSER    (3) Torsional Free Energy           =  +2.09 kcal/molUSER    (4) Unbound System's Energy         =  -1.52 kcal/molUSERUSERREMARK SMILES CCCC1(CCS(=O)(=O)Nc2cc3c(cc2Cl)OCO3)CCCC1REMARK SMILES IDX 5 1 4 2 21 3 24 4 22 5 23 6 3 7 2 8 1 9 6 10 7 11 8 12 9 13REMARK SMILES IDX 10 14 11 16 12 17 16 18 13 19 15 20 14 21 20 22 18 23 19 24REMARK SMILES IDX 17 25REMARK H PARENT 10 15USER                              x       y       z     vdW  Elec       q    TypeUSER                           _______ _______ _______ _____ _____    ______ ____ROOTATOM      1  C   UNL     1      38.468  48.480  14.242 -0.56 -0.01    +0.025 C  ENDROOTBRANCH   1   2ATOM      2  C   UNL     1      37.365  47.417  14.033 -0.56 +0.01    -0.029 C  ATOM      3  C   UNL     1      36.697  47.585  12.650 -0.73 -0.00    +0.007 C  ATOM      4  C   UNL     1      37.986  46.009  13.851 -0.48 -0.00    +0.007 C  ATOM      5  C   UNL     1      36.131  46.212  12.291 -0.71 -0.00    +0.001 C  ATOM      6  C   UNL     1      36.942  45.198  13.090 -0.58 -0.00    +0.001 C  BRANCH   2   7ATOM      7  C   UNL     1      36.325  47.381  15.196 -0.35 -0.01    +0.007 C  BRANCH   7   8ATOM      8  C   UNL     1      36.143  46.074  15.984 -0.42 +0.00    -0.003 C  ATOM      9  C   UNL     1      35.158  46.140  17.136 -0.43 -0.00    +0.004 C  ENDBRANCH   7   8ENDBRANCH   2   7ENDBRANCH   1   2BRANCH   1  10ATOM     10  C   UNL     1      39.010  48.556  15.670 -0.44 -0.08    +0.160 C  BRANCH  10  11ATOM     11  S   UNL     1      40.800  48.479  15.681 -0.61 -0.04    +0.232 S  ATOM     12  O   UNL     1      41.294  48.734  14.347 -0.50 +0.02    -0.207 OA ATOM     13  O   UNL     1      41.272  49.224  16.828 -0.99 +0.01    -0.207 OA BRANCH  11  14ATOM     14  N   UNL     1      41.035  46.841  16.083 -0.11 +0.01    -0.282 N  ATOM     15  H   UNL     1      40.768  46.292  15.258 +0.13 +0.00    +0.180 HD BRANCH  14  16ATOM     16  C   UNL     1      40.385  46.396  17.286 -0.43 -0.01    +0.071 A  ATOM     17  C   UNL     1      39.155  45.738  17.182 -0.35 -0.02    +0.079 A  ATOM     18  C   UNL     1      41.011  46.543  18.547 -0.45 -0.00    +0.069 A  ATOM     19  C   UNL     1      38.586  45.265  18.345 -0.29 -0.02    +0.167 A  ATOM     20  C   UNL     1      40.409  46.054  19.708 -0.29 +0.00    +0.073 A  ATOM     21  C   UNL     1      39.194  45.417  19.570 -0.29 -0.01    +0.167 A  ATOM     22  O   UNL     1      37.398  44.610  18.435 -0.11 +0.08    -0.454 OA ATOM     23  O   UNL     1      38.462  44.878  20.581 -0.14 -0.00    -0.454 OA ATOM     24  C   UNL     1      37.333  44.351  19.854 -0.10 -0.03    +0.468 C  ATOM     25  Cl  UNL     1      42.530  47.358  18.687 -0.73 -0.00    -0.082 Cl ENDBRANCH  14  16ENDBRANCH  11  14ENDBRANCH  10  11ENDBRANCH   1  10TORSDOF 7TERENDMDL