REMARK SMILES O=C(NCCCNc1ccc(F)cc1)c1ccc2c(c1)CSc1ccccc1-2
REMARK SMILES IDX 5 1 4 2 3 3 2 4 1 5 15 7 16 8 20 9 17 10 19 11 18 12 21 13
REMARK SMILES IDX 28 14 22 15 27 16 23 17 26 18 24 19 25 20 6 21 7 22 8 24
REMARK SMILES IDX 9 25 14 26 10 27 13 28 11 29 12 30
REMARK H PARENT 3 6 7 23
ROOT
ATOM      1  C   UNL     1      -2.999  -1.878   0.672  1.00  0.00     0.042 C 
ENDROOT
BRANCH   1   2
ATOM      2  C   UNL     1      -2.311  -0.524   0.541  1.00  0.00     0.118 C 
BRANCH   2   3
ATOM      3  N   UNL     1      -0.866  -0.673   0.525  1.00  0.00    -0.352 N 
ATOM      4  C   UNL     1      -0.050   0.360   0.945  1.00  0.00     0.251 C 
ATOM      5  O   UNL     1      -0.469   1.390   1.459  1.00  0.00    -0.269 OA
ATOM      6  H   UNL     1      -0.485  -1.318  -0.154  1.00  0.00     0.163 HD
BRANCH   4   7
ATOM      7  C   UNL     1       1.411   0.185   0.707  1.00  0.00     0.040 A 
ATOM      8  C   UNL     1       2.006  -1.073   0.622  1.00  0.00     0.014 A 
ATOM      9  C   UNL     1       2.211   1.326   0.599  1.00  0.00     0.019 A 
ATOM     10  C   UNL     1       3.383  -1.184   0.391  1.00  0.00     0.010 A 
ATOM     11  C   UNL     1       3.599   1.220   0.381  1.00  0.00    -0.029 A 
ATOM     12  C   UNL     1       4.206  -0.050   0.240  1.00  0.00    -0.013 A 
ATOM     13  C   UNL     1       4.411   2.483   0.252  1.00  0.00     0.111 C 
ATOM     14  C   UNL     1       5.668  -0.172  -0.011  1.00  0.00    -0.004 A 
ATOM     15  S   UNL     1       6.001   2.375   1.114  1.00  0.00    -0.121 SA
ATOM     16  C   UNL     1       6.218  -1.307  -0.641  1.00  0.00     0.010 A 
ATOM     17  C   UNL     1       6.568   0.848   0.375  1.00  0.00     0.015 A 
ATOM     18  C   UNL     1       7.595  -1.443  -0.842  1.00  0.00     0.001 A 
ATOM     19  C   UNL     1       7.951   0.701   0.185  1.00  0.00     0.016 A 
ATOM     20  C   UNL     1       8.463  -0.444  -0.421  1.00  0.00     0.001 A 
ENDBRANCH   4   7
ENDBRANCH   2   3
ENDBRANCH   1   2
BRANCH   1  21
ATOM     21  C   UNL     1      -4.518  -1.746   0.745  1.00  0.00     0.114 C 
BRANCH  21  22
ATOM     22  N   UNL     1      -5.051  -1.373  -0.563  1.00  0.00    -0.385 N 
ATOM     23  H   UNL     1      -5.412  -2.177  -1.073  1.00  0.00     0.160 HD
BRANCH  22  24
ATOM     24  C   UNL     1      -5.853  -0.243  -0.723  1.00  0.00     0.034 A 
ATOM     25  C   UNL     1      -5.733   0.912   0.062  1.00  0.00     0.029 A 
ATOM     26  C   UNL     1      -6.737  -0.199  -1.815  1.00  0.00     0.029 A 
ATOM     27  C   UNL     1      -6.516   2.044  -0.190  1.00  0.00     0.041 A 
ATOM     28  C   UNL     1      -7.524   0.928  -2.071  1.00  0.00     0.041 A 
ATOM     29  C   UNL     1      -7.410   2.038  -1.250  1.00  0.00     0.123 A 
ATOM     30  F   UNL     1      -8.158   3.122  -1.493  1.00  0.00    -0.207 F 
ENDBRANCH  22  24
ENDBRANCH  21  22
ENDBRANCH   1  21
TORSDOF 6
