REMARK SMILES O=[N+]([O-])c1ccc(-c2ccnc(NCCO)n2)cc1
REMARK SMILES IDX 13 1 12 3 8 4 9 5 17 6 10 7 11 8 7 9 4 10 5 11 19 12 6 13
REMARK SMILES IDX 18 14 2 15 1 16 3 17 14 18 15 19 16 20
REMARK H PARENT 13 2 16 21
ROOT
ATOM      1  N   UNL     1      -2.610   0.910   0.637  1.00  0.00    -0.352 N 
ATOM      2  H   UNL     1      -2.041   1.748   0.694  1.00  0.00     0.163 HD
ENDROOT
BRANCH   1   3
ATOM      3  C   UNL     1      -1.783  -0.051   0.075  1.00  0.00     0.223 A 
ATOM      4  C   UNL     1       0.385  -0.682  -0.404  1.00  0.00     0.076 A 
ATOM      5  C   UNL     1      -0.062  -1.860  -0.968  1.00  0.00     0.049 A 
ATOM      6  N   UNL     1      -0.475   0.229   0.108  1.00  0.00    -0.213 NA
ATOM      7  C   UNL     1      -1.421  -2.050  -0.966  1.00  0.00     0.117 A 
ATOM      8  N   UNL     1      -2.292  -1.167  -0.454  1.00  0.00    -0.222 NA
BRANCH   4   9
ATOM      9  C   UNL     1       1.817  -0.320  -0.324  1.00  0.00     0.001 A 
ATOM     10  C   UNL     1       4.544   0.415  -0.171  1.00  0.00     0.269 A 
ATOM     11  C   UNL     1       3.567   1.402  -0.326  1.00  0.00     0.086 A 
ATOM     12  C   UNL     1       4.179  -0.932  -0.086  1.00  0.00     0.086 A 
ATOM     13  C   UNL     1       2.219   1.030  -0.398  1.00  0.00     0.017 A 
ATOM     14  C   UNL     1       2.826  -1.289  -0.161  1.00  0.00     0.017 A 
BRANCH  10  15
ATOM     15  N   UNL     1       5.960   0.795  -0.094  1.00  0.00     0.062 N 
ATOM     16  O   UNL     1       6.793  -0.114   0.038  1.00  0.00    -0.258 OA
ATOM     17  O   UNL     1       6.240   2.000  -0.168  1.00  0.00    -0.258 OA
ENDBRANCH  10  15
ENDBRANCH   4   9
ENDBRANCH   1   3
BRANCH   1  18
ATOM     18  C   UNL     1      -3.898   1.089  -0.015  1.00  0.00     0.144 C 
BRANCH  18  19
ATOM     19  C   UNL     1      -4.954   0.094   0.484  1.00  0.00     0.177 C 
BRANCH  19  20
ATOM     20  O   UNL     1      -6.269   0.563   0.179  1.00  0.00    -0.395 OA
ATOM     21  H   UNL     1      -6.460   1.291   0.794  1.00  0.00     0.210 HD
ENDBRANCH  19  20
ENDBRANCH  18  19
ENDBRANCH   1  18
TORSDOF 6
