REMARK SMILES C[C@@H]1[C@H]([C@@H](C)NC(=O)c2ccc(O)cc2)CCCN1C(=O)c1ccc(-c2cncs2)cc1F
REMARK SMILES IDX 4 1 5 2 3 3 2 4 19 5 16 6 18 7 17 8 1 9 20 10 21 11 22 12
REMARK SMILES IDX 23 13 32 14 24 15 31 16 25 17 33 18 26 19 27 20 30 21 28 22
REMARK SMILES IDX 29 23 6 24 7 25 8 27 9 28 10 29 15 30 11 31 14 32 12 33
REMARK SMILES IDX 13 34
REMARK H PARENT 6 26 13 35
ROOT
ATOM      1  C   UNL     1       1.749  -1.552  -2.462  1.00  0.00     0.084 C 
ATOM      2  C   UNL     1       1.237  -1.649  -3.898  1.00  0.00     0.031 C 
ENDROOT
BRANCH   1   3
ATOM      3  C   UNL     1       1.108  -2.526  -1.424  1.00  0.00     0.034 C 
ATOM      4  C   UNL     1      -0.227  -2.066  -0.785  1.00  0.00     0.087 C 
ATOM      5  N   UNL     1      -0.586  -2.944   0.358  1.00  0.00    -0.335 N 
ATOM      6  C   UNL     1       1.029  -3.985  -1.913  1.00  0.00     0.009 C 
ATOM      7  C   UNL     1      -0.086  -4.318   0.352  1.00  0.00     0.120 C 
ATOM      8  C   UNL     1       0.122  -4.866  -1.050  1.00  0.00     0.022 C 
ATOM      9  C   UNL     1      -1.405  -1.968  -1.758  1.00  0.00     0.031 C 
BRANCH   5  10
ATOM     10  C   UNL     1      -1.220  -2.511   1.527  1.00  0.00     0.257 C 
ATOM     11  O   UNL     1      -1.546  -3.250   2.451  1.00  0.00    -0.269 OA
BRANCH  10  12
ATOM     12  C   UNL     1      -1.546  -1.088   1.672  1.00  0.00     0.075 A 
ATOM     13  C   UNL     1      -2.849  -0.648   1.451  1.00  0.00     0.017 A 
ATOM     14  C   UNL     1      -0.560  -0.189   2.060  1.00  0.00     0.136 A 
ATOM     15  C   UNL     1      -3.143   0.714   1.572  1.00  0.00     0.010 A 
ATOM     16  C   UNL     1      -0.851   1.167   2.183  1.00  0.00     0.049 A 
ATOM     17  C   UNL     1      -2.147   1.642   1.930  1.00  0.00    -0.004 A 
ATOM     18  F   UNL     1       0.695  -0.601   2.283  1.00  0.00    -0.206 F 
BRANCH  17  19
ATOM     19  C   UNL     1      -2.465   3.072   2.000  1.00  0.00     0.054 A 
ATOM     20  C   UNL     1      -3.332   3.824   1.225  1.00  0.00     0.131 A 
ATOM     21  S   UNL     1      -1.747   4.105   3.173  1.00  0.00    -0.122 S 
ATOM     22  N   UNL     1      -3.421   5.167   1.530  1.00  0.00    -0.252 NA
ATOM     23  C   UNL     1      -2.625   5.428   2.541  1.00  0.00     0.176 A 
ENDBRANCH  17  19
ENDBRANCH  10  12
ENDBRANCH   5  10
ENDBRANCH   1   3
BRANCH   1  24
ATOM     24  N   UNL     1       1.667  -0.162  -2.015  1.00  0.00    -0.349 N 
ATOM     25  C   UNL     1       2.478   0.334  -1.015  1.00  0.00     0.251 C 
ATOM     26  H   UNL     1       1.042   0.464  -2.501  1.00  0.00     0.164 HD
ATOM     27  O   UNL     1       3.376  -0.317  -0.495  1.00  0.00    -0.269 OA
BRANCH  25  28
ATOM     28  C   UNL     1       2.224   1.739  -0.585  1.00  0.00     0.040 A 
ATOM     29  C   UNL     1       0.968   2.351  -0.718  1.00  0.00     0.017 A 
ATOM     30  C   UNL     1       3.277   2.447   0.010  1.00  0.00     0.017 A 
ATOM     31  C   UNL     1       0.780   3.660  -0.270  1.00  0.00     0.047 A 
ATOM     32  C   UNL     1       3.087   3.756   0.456  1.00  0.00     0.047 A 
ATOM     33  C   UNL     1       1.839   4.349   0.312  1.00  0.00     0.115 A 
BRANCH  33  34
ATOM     34  O   UNL     1       1.607   5.617   0.744  1.00  0.00    -0.508 OA
ATOM     35  H   UNL     1       2.434   5.982   1.105  1.00  0.00     0.293 HD
ENDBRANCH  33  34
ENDBRANCH  25  28
ENDBRANCH   1  24
TORSDOF 7
