REMARK SMILES Cc1c(-c2nc3ccccc3[nH]2)ccccc(=O)[nH]c2ccc(F)cc12
REMARK SMILES IDX 1 1 2 2 3 3 13 4 14 5 15 6 16 7 17 8 18 9 19 10 20 11 21 12
REMARK SMILES IDX 22 13 23 14 24 15 25 16 26 17 4 19 5 20 12 21 6 22 11 23
REMARK SMILES IDX 7 24 10 25 8 26 9 27
REMARK H PARENT 19 18 12 28
ROOT
ATOM      1  C   UNL     1      -0.193  -1.151   2.121  1.00  0.00     0.046 C 
ATOM      2  C   UNL     1      -0.671  -0.844   0.720  1.00  0.00    -0.031 A 
ATOM      3  C   UNL     1       0.074  -0.385  -0.317  1.00  0.00     0.021 A 
ATOM      4  C   UNL     1      -0.556  -0.107  -1.618  1.00  0.00     0.012 A 
ATOM      5  C   UNL     1      -0.911   1.122  -2.030  1.00  0.00     0.001 A 
ATOM      6  C   UNL     1      -0.751   2.302  -1.216  1.00  0.00     0.006 A 
ATOM      7  C   UNL     1      -1.563   2.675  -0.216  1.00  0.00     0.071 A 
ATOM      8  C   UNL     1      -2.862   2.025   0.047  1.00  0.00     0.248 A 
ATOM      9  O   UNL     1      -3.889   2.409  -0.502  1.00  0.00    -0.270 OA
ATOM     10  N   UNL     1      -2.867   1.134   1.102  1.00  0.00    -0.322 N 
ATOM     11  C   UNL     1      -3.141  -0.226   0.738  1.00  0.00     0.049 A 
ATOM     12  C   UNL     1      -4.483  -0.627   0.615  1.00  0.00     0.030 A 
ATOM     13  C   UNL     1      -4.798  -1.939   0.265  1.00  0.00     0.041 A 
ATOM     14  C   UNL     1      -3.775  -2.854   0.056  1.00  0.00     0.123 A 
ATOM     15  F   UNL     1      -4.077  -4.117  -0.271  1.00  0.00    -0.207 F 
ATOM     16  C   UNL     1      -2.443  -2.483   0.195  1.00  0.00     0.049 A 
ATOM     17  C   UNL     1      -2.109  -1.164   0.542  1.00  0.00     0.005 A 
ATOM     18  H   UNL     1      -3.691   1.432   1.616  1.00  0.00     0.170 HD
ENDROOT
BRANCH   3  19
ATOM     19  C   UNL     1       1.457  -0.066  -0.105  1.00  0.00     0.138 A 
ATOM     20  N   UNL     1       2.071   0.573   0.871  1.00  0.00    -0.229 NA
ATOM     21  N   UNL     1       2.364  -0.446  -1.070  1.00  0.00    -0.338 N 
ATOM     22  C   UNL     1       3.397   0.613   0.522  1.00  0.00     0.089 A 
ATOM     23  C   UNL     1       3.610  -0.017  -0.696  1.00  0.00     0.066 A 
ATOM     24  C   UNL     1       4.487   1.180   1.195  1.00  0.00     0.030 A 
ATOM     25  C   UNL     1       4.867  -0.132  -1.294  1.00  0.00     0.028 A 
ATOM     26  C   UNL     1       5.759   1.087   0.619  1.00  0.00     0.002 A 
ATOM     27  C   UNL     1       5.944   0.440  -0.605  1.00  0.00     0.002 A 
ATOM     28  H   UNL     1       2.140  -0.965  -1.907  1.00  0.00     0.168 HD
ENDBRANCH   3  19
TORSDOF 1
