MODEL        10USER    Run = 10USERUSER    Estimated Free Energy of Binding    =  -8.62 kcal/mol  [=(1)+(2)+(3)-(4)]USERUSER    (1) Final Intermolecular Energy     = -10.11 kcal/molUSER        vdW + Hbond + desolv Energy     =  -9.97 kcal/molUSER        Electrostatic Energy            =  -0.14 kcal/molUSER        Moving Ligand-Fixed Receptor    = -10.11 kcal/molUSER        Moving Ligand-Moving Receptor   =  +0.00 kcal/molUSER    (2) Final Total Internal Energy     =  -1.56 kcal/molUSER    (3) Torsional Free Energy           =  +1.49 kcal/molUSER    (4) Unbound System's Energy         =  -1.56 kcal/molUSERUSERREMARK SMILES Cc1c(CO)cccc1-n1c2ccncc2c2ccc(CO)nc21REMARK SMILES IDX 10 1 11 2 12 3 13 4 14 5 15 6 16 7 17 8 18 9 19 10 20 11REMARK SMILES IDX 23 12 24 13 9 14 2 15 3 16 6 17 8 18 7 19 1 20 4 21 5 22REMARK SMILES IDX 21 24 22 25REMARK H PARENT 5 23 22 26USER                              x       y       z     vdW  Elec       q    TypeUSER                           _______ _______ _______ _____ _____    ______ ____ROOTATOM      1  N   UNL     1      36.848  45.618  16.039 -0.15 +0.14    -0.293 N  ATOM      2  C   UNL     1      36.793  46.244  14.794 -0.36 -0.03    +0.059 A  ATOM      3  C   UNL     1      35.817  46.229  13.788 -0.44 -0.03    +0.047 A  ATOM      4  C   UNL     1      36.087  47.003  12.672 -0.56 -0.06    +0.113 A  ATOM      5  N   UNL     1      37.194  47.756  12.507 -0.99 +0.06    -0.264 NA ATOM      6  C   UNL     1      38.119  47.782  13.494 -0.37 -0.03    +0.122 A  ATOM      7  C   UNL     1      37.940  47.036  14.668 -0.43 -0.01    +0.028 A  ATOM      8  C   UNL     1      38.708  46.876  15.855 -0.41 -0.01    +0.029 A  ATOM      9  C   UNL     1      39.935  47.383  16.319 -0.50 -0.00    +0.015 A  ATOM     10  C   UNL     1      40.394  46.954  17.563 -0.49 -0.00    +0.027 A  ATOM     11  C   UNL     1      39.636  46.044  18.293 -0.40 -0.01    +0.068 A  ATOM     12  N   UNL     1      38.445  45.537  17.883 -0.25 +0.05    -0.232 NA ATOM     13  C   UNL     1      38.022  45.992  16.680 -0.28 -0.05    +0.146 A  ENDROOTBRANCH   1  14ATOM     14  C   UNL     1      35.899  44.678  16.535 -0.29 -0.02    +0.051 A  ATOM     15  C   UNL     1      34.871  45.047  17.437 -0.32 +0.01    -0.021 A  ATOM     16  C   UNL     1      34.035  44.025  17.960 -0.30 +0.01    -0.018 A  ATOM     17  C   UNL     1      34.215  42.694  17.542 -0.38 -0.00    +0.006 A  ATOM     18  C   UNL     1      36.045  43.344  16.119 -0.42 -0.01    +0.027 A  ATOM     19  C   UNL     1      35.202  42.357  16.620 -0.40 -0.00    +0.003 A  ATOM     20  C   UNL     1      34.616  46.484  17.827 -0.46 -0.04    +0.047 C  BRANCH  16  21ATOM     21  C   UNL     1      32.942  44.310  18.967 -0.33 -0.04    +0.192 C  BRANCH  21  22ATOM     22  O   UNL     1      33.204  43.682  20.213 -0.80 -0.02    -0.392 OA ATOM     23  H   UNL     1      33.190  44.369  20.902 -0.25 -0.01    +0.211 HD ENDBRANCH  21  22ENDBRANCH  16  21ENDBRANCH   1  14BRANCH  11  24ATOM     24  C   UNL     1      40.136  45.566  19.640 -0.33 -0.00    +0.212 C  BRANCH  24  25ATOM     25  O   UNL     1      39.049  45.257  20.514 -0.19 -0.00    -0.390 OA ATOM     26  H   UNL     1      38.245  45.425  19.980 +0.11 -0.00    +0.211 HD ENDBRANCH  24  25ENDBRANCH  11  24TORSDOF 5TERENDMDL