MODEL        5USER    Run = 5USERUSER    Estimated Free Energy of Binding    = -11.59 kcal/mol  [=(1)+(2)+(3)-(4)]USERUSER    (1) Final Intermolecular Energy     = -13.97 kcal/molUSER        vdW + Hbond + desolv Energy     = -13.70 kcal/molUSER        Electrostatic Energy            =  -0.27 kcal/molUSER        Moving Ligand-Fixed Receptor    = -13.97 kcal/molUSER        Moving Ligand-Moving Receptor   =  +0.00 kcal/molUSER    (2) Final Total Internal Energy     =  -1.53 kcal/molUSER    (3) Torsional Free Energy           =  +2.39 kcal/molUSER    (4) Unbound System's Energy         =  -1.53 kcal/molUSERUSERREMARK SMILES C[C@@H]1CN(Cc2ccc(-c3nc4ncccc4nc3-c3ccc(O[C@H]4CNCCO4)cc3)cc2)CC[C@@H]1n1c(O)nc2ncccc21REMARK SMILES IDX 6 1 7 2 8 3 9 4 33 5 34 6 5 7 4 8 2 9 3 10 37 11 36 12 35 13REMARK SMILES IDX 1 14 38 15 39 16 47 17 41 18 46 19 42 20 45 21 43 22 44 23REMARK SMILES IDX 40 24 10 26 11 27 19 28 12 29 18 30 13 31 17 32 14 33 16 34REMARK SMILES IDX 15 35 20 36 21 37 32 38 22 39 31 40 23 41 24 42 25 43 26 44REMARK SMILES IDX 30 45 27 46 29 47 28 48REMARK H PARENT 40 25 27 49USER                              x       y       z     vdW  Elec       q    TypeUSER                           _______ _______ _______ _____ _____    ______ ____ROOTATOM      1  C   UNL     1      35.670  42.949  19.539 -0.40 +0.00    -0.034 A  ATOM      2  C   UNL     1      35.222  41.816  18.850 -0.16 -0.00    +0.006 A  ATOM      3  C   UNL     1      33.965  41.809  18.238 -0.40 -0.00    +0.011 A  ATOM      4  C   UNL     1      33.127  42.937  18.282 -0.35 -0.00    +0.002 A  ATOM      5  C   UNL     1      33.577  44.060  18.996 -0.40 -0.00    +0.011 A  ATOM      6  C   UNL     1      34.834  44.070  19.607 -0.40 -0.00    +0.006 A  ENDROOTBRANCH   1   7ATOM      7  C   UNL     1      37.048  42.971  20.170 -0.28 -0.00    +0.120 C  BRANCH   7   8ATOM      8  N   UNL     1      38.029  43.783  19.424 -0.10 +0.02    -0.299 NA ATOM      9  C   UNL     1      40.033  45.256  19.639 -0.45 -0.00    +0.023 C  ATOM     10  C   UNL     1      38.915  44.485  20.367 -0.35 -0.00    +0.090 C  ATOM     11  C   UNL     1      39.380  46.230  18.633 -0.36 -0.01    +0.098 C  ATOM     12  C   UNL     1      38.385  45.524  17.705 -0.42 -0.01    +0.041 C  ATOM     13  C   UNL     1      37.360  44.734  18.522 -0.36 -0.02    +0.087 C  ATOM     14  C   UNL     1      41.041  44.283  19.017 -0.37 +0.00    +0.011 C  BRANCH  11  15ATOM     15  N   UNL     1      40.321  47.124  17.971 -0.29 +0.04    -0.289 N  ATOM     16  C   UNL     1      41.504  47.534  18.536 -0.14 -0.01    +0.296 A  ATOM     17  C   UNL     1      40.247  47.734  16.739 -0.45 -0.02    +0.091 A  ATOM     18  N   UNL     1      42.178  48.370  17.797 -0.52 -0.01    -0.175 NA ATOM     19  C   UNL     1      39.347  47.719  15.669 -0.49 -0.01    +0.032 A  ATOM     20  C   UNL     1      41.411  48.507  16.676 -0.29 -0.00    +0.181 A  ATOM     21  C   UNL     1      39.683  48.515  14.576 -0.51 -0.01    +0.022 A  ATOM     22  N   UNL     1      41.741  49.286  15.622 -0.82 -0.01    -0.235 NA ATOM     23  C   UNL     1      40.856  49.259  14.606 -0.51 -0.03    +0.114 A  BRANCH  16  24ATOM     24  O   UNL     1      41.951  47.135  19.709 -0.16 -0.04    -0.480 OA ATOM     25  H   UNL     1      42.587  47.844  19.920 +0.04 +0.01    +0.296 HD ENDBRANCH  16  24ENDBRANCH  11  15ENDBRANCH   7   8ENDBRANCH   1   7BRANCH   4  26ATOM     26  C   UNL     1      31.815  42.954  17.611 -0.24 -0.02    +0.099 A  ATOM     27  N   UNL     1      31.567  44.094  16.908 -0.25 +0.06    -0.224 NA ATOM     28  C   UNL     1      30.871  41.917  17.680 -0.22 -0.02    +0.097 A  ATOM     29  C   UNL     1      30.385  44.223  16.301 -0.19 -0.06    +0.178 A  ATOM     30  N   UNL     1      29.657  42.044  17.083 -0.12 +0.06    -0.242 NA ATOM     31  N   UNL     1      30.145  45.347  15.614 -0.32 +0.09    -0.235 NA ATOM     32  C   UNL     1      29.431  43.185  16.400 -0.20 -0.04    +0.108 A  ATOM     33  C   UNL     1      28.951  45.484  15.001 +0.19 -0.06    +0.114 A  ATOM     34  C   UNL     1      28.217  43.364  15.755 -0.21 -0.02    +0.034 A  ATOM     35  C   UNL     1      27.959  44.528  15.041 +0.20 -0.02    +0.022 A  BRANCH  28  36ATOM     36  C   UNL     1      31.079  40.627  18.359 -0.33 -0.00    +0.003 A  ATOM     37  C   UNL     1      30.827  39.418  17.689 -0.29 +0.00    +0.014 A  ATOM     38  C   UNL     1      31.544  40.552  19.681 -0.13 +0.00    +0.014 A  ATOM     39  C   UNL     1      30.987  38.181  18.326 -0.37 +0.01    +0.047 A  ATOM     40  C   UNL     1      31.704  39.317  20.318 -0.25 +0.01    +0.047 A  ATOM     41  C   UNL     1      31.406  38.128  19.653 -0.40 +0.03    +0.122 A  BRANCH  41  42ATOM     42  O   UNL     1      31.600  36.999  20.395 -0.29 -0.10    -0.464 OA BRANCH  42  43ATOM     43  C   UNL     1      30.494  36.480  21.137 -0.15 +0.02    +0.321 C  ATOM     44  C   UNL     1      30.536  37.037  22.585 -0.42 +0.00    +0.157 C  ATOM     45  O   UNL     1      29.276  36.909  20.492 -0.17 -0.01    -0.340 OA ATOM     46  N   UNL     1      29.362  36.657  23.402 -0.14 -0.06    -0.309 NA ATOM     47  C   UNL     1      28.127  36.491  21.234 -0.27 -0.05    +0.180 C  ATOM     48  C   UNL     1      28.146  37.050  22.665 -0.29 -0.01    +0.109 C  ATOM     49  H   UNL     1      29.359  35.645  23.521 +0.06 +0.05    +0.123 HD ENDBRANCH  42  43ENDBRANCH  41  42ENDBRANCH  28  36ENDBRANCH   4  26TORSDOF 8TERENDMDL