MODEL        4USER    Run = 4USERUSER    Estimated Free Energy of Binding    = -10.98 kcal/mol  [=(1)+(2)+(3)-(4)]USERUSER    (1) Final Intermolecular Energy     = -13.66 kcal/molUSER        vdW + Hbond + desolv Energy     = -13.66 kcal/molUSER        Electrostatic Energy            =  +0.00 kcal/molUSER        Moving Ligand-Fixed Receptor    = -13.66 kcal/molUSER        Moving Ligand-Moving Receptor   =  +0.00 kcal/molUSER    (2) Final Total Internal Energy     =  -2.66 kcal/molUSER    (3) Torsional Free Energy           =  +2.68 kcal/molUSER    (4) Unbound System's Energy         =  -2.66 kcal/molUSERUSERREMARK SMILES COc1ccc(O)c(C(=O)c2ccc(CN3CC[C@H](n4c(O)nc5ncccc54)C[C@H]3C)cc2)c1N1CCOCC1REMARK SMILES IDX 11 1 12 2 13 3 14 4 33 5 34 6 9 7 10 8 8 9 3 10 4 11 35 12REMARK SMILES IDX 5 13 6 14 2 15 1 16 36 17 37 18 41 19 38 20 40 21 39 22 7 23REMARK SMILES IDX 15 25 16 26 17 27 31 28 18 29 30 30 19 31 32 32 20 33 21 34REMARK SMILES IDX 29 35 23 36 28 37 24 38 27 39 25 40 26 41 22 42REMARK H PARENT 7 24 22 43USER                              x       y       z     vdW  Elec       q    TypeUSER                           _______ _______ _______ _____ _____    ______ ____ROOTATOM      1  C   UNL     1      32.962  43.210  17.751 -0.31 -0.01    +0.023 A  ATOM      2  C   UNL     1      33.876  42.699  16.825 -0.37 -0.01    +0.012 A  ATOM      3  C   UNL     1      34.519  43.553  15.921 -0.28 -0.00    +0.006 A  ATOM      4  C   UNL     1      34.245  44.929  15.910 -0.30 +0.02    -0.034 A  ATOM      5  C   UNL     1      33.317  45.433  16.831 -0.31 -0.00    +0.006 A  ATOM      6  C   UNL     1      32.686  44.584  17.745 -0.30 -0.00    +0.012 A  ENDROOTBRANCH   1   7ATOM      7  C   UNL     1      32.187  42.350  18.684 -0.27 -0.02    +0.198 C  ATOM      8  O   UNL     1      32.353  42.466  19.901 -0.52 -0.04    -0.288 OA BRANCH   7   9ATOM      9  C   UNL     1      31.114  41.430  18.248 -0.21 -0.01    +0.091 A  ATOM     10  C   UNL     1      29.161  40.820  16.941 -0.23 -0.01    +0.143 A  ATOM     11  C   UNL     1      29.156  39.561  17.565 -0.29 +0.01    +0.052 A  ATOM     12  C   UNL     1      30.133  41.799  17.293 -0.21 -0.02    +0.095 A  ATOM     13  C   UNL     1      30.142  39.222  18.488 -0.33 +0.01    +0.051 A  ATOM     14  C   UNL     1      31.131  40.140  18.802 -0.27 +0.00    +0.129 A  BRANCH  10  15ATOM     15  O   UNL     1      28.258  41.164  15.963 -0.08 +0.12    -0.495 OA ATOM     16  C   UNL     1      26.876  40.998  16.251 -0.18 -0.03    +0.278 C  ENDBRANCH  10  15BRANCH  12  17ATOM     17  N   UNL     1      30.206  43.077  16.697 -0.07 +0.12    -0.363 N  ATOM     18  C   UNL     1      29.049  43.993  16.838 -0.19 -0.03    +0.145 C  ATOM     19  C   UNL     1      30.765  43.029  15.327 -0.26 -0.09    +0.145 C  ATOM     20  C   UNL     1      28.449  44.368  15.473 -0.14 -0.13    +0.181 C  ATOM     21  C   UNL     1      30.723  44.439  14.711 -0.28 -0.14    +0.181 C  ATOM     22  O   UNL     1      29.400  44.993  14.595 -0.05 +0.40    -0.378 OA ENDBRANCH  12  17BRANCH  14  23ATOM     23  O   UNL     1      32.113  39.712  19.659 -0.67 -0.15    -0.507 OA ATOM     24  H   UNL     1      32.383  40.484  20.205 +0.19 +0.12    +0.293 HD ENDBRANCH  14  23ENDBRANCH   7   9ENDBRANCH   1   7BRANCH   4  25ATOM     25  C   UNL     1      34.906  45.839  14.896 -0.34 -0.10    +0.120 C  BRANCH  25  26ATOM     26  N   UNL     1      36.283  46.266  15.182 -0.17 +0.20    -0.296 NA ATOM     27  C   UNL     1      36.675  46.094  16.576 -0.37 -0.05    +0.087 C  ATOM     28  C   UNL     1      36.667  47.569  14.612 -0.46 -0.04    +0.056 C  ATOM     29  C   UNL     1      38.200  46.076  16.695 -0.42 -0.01    +0.041 C  ATOM     30  C   UNL     1      37.871  48.203  15.344 -0.54 -0.03    +0.044 C  ATOM     31  C   UNL     1      38.870  47.135  15.804 -0.45 -0.03    +0.095 C  ATOM     32  C   UNL     1      36.987  47.408  13.119 -0.66 -0.01    +0.024 C  BRANCH  31  33ATOM     33  N   UNL     1      40.066  47.708  16.406 -0.30 +0.07    -0.289 N  ATOM     34  C   UNL     1      40.707  48.836  15.966 -0.34 -0.06    +0.296 A  ATOM     35  C   UNL     1      40.767  47.261  17.503 -0.45 -0.01    +0.091 A  ATOM     36  N   UNL     1      41.756  49.153  16.676 -0.92 -0.03    -0.175 NA ATOM     37  C   UNL     1      40.638  46.183  18.382 -0.47 -0.00    +0.032 A  ATOM     38  C   UNL     1      41.800  48.191  17.647 -0.22 -0.00    +0.181 A  ATOM     39  C   UNL     1      41.592  46.118  19.396 -0.44 +0.00    +0.022 A  ATOM     40  N   UNL     1      42.725  48.134  18.630 -0.37 -0.00    -0.235 NA ATOM     41  C   UNL     1      42.578  47.092  19.476 -0.43 +0.02    +0.114 A  BRANCH  34  42ATOM     42  O   UNL     1      40.328  49.562  14.934 -0.20 +0.21    -0.480 OA ATOM     43  H   UNL     1      39.716  50.192  15.358 -0.19 -0.22    +0.296 HD ENDBRANCH  34  42ENDBRANCH  31  33ENDBRANCH  25  26ENDBRANCH   4  25TORSDOF 9TERENDMDL