REMARK SMILES COc1ccc(O)c(C(=O)c2ccc(CN3CC[C@H](n4c(O)nc5ncccc54)C[C@H]3C)cc2)c1N1CCOCC1
REMARK SMILES IDX 11 1 12 2 13 3 14 4 33 5 34 6 9 7 10 8 8 9 3 10 4 11 35 12
REMARK SMILES IDX 5 13 6 14 2 15 1 16 36 17 37 18 41 19 38 20 40 21 39 22 7 23
REMARK SMILES IDX 15 25 16 26 17 27 31 28 18 29 30 30 19 31 32 32 20 33 21 34
REMARK SMILES IDX 29 35 23 36 28 37 24 38 27 39 25 40 26 41 22 42
REMARK H PARENT 7 24 22 43
ROOT
ATOM      1  C   UNL     1      -2.301   2.336  -0.062  1.00  0.00     0.023 A 
ATOM      2  C   UNL     1      -1.942   1.690  -1.248  1.00  0.00     0.012 A 
ATOM      3  C   UNL     1      -0.661   1.860  -1.786  1.00  0.00     0.006 A 
ATOM      4  C   UNL     1       0.277   2.696  -1.162  1.00  0.00    -0.034 A 
ATOM      5  C   UNL     1      -0.094   3.353   0.019  1.00  0.00     0.006 A 
ATOM      6  C   UNL     1      -1.367   3.171   0.566  1.00  0.00     0.012 A 
ENDROOT
BRANCH   1   7
ATOM      7  C   UNL     1      -3.668   2.261   0.520  1.00  0.00     0.198 C 
ATOM      8  O   UNL     1      -4.033   3.116   1.331  1.00  0.00    -0.288 OA
BRANCH   7   9
ATOM      9  C   UNL     1      -4.688   1.280   0.088  1.00  0.00     0.091 A 
ATOM     10  C   UNL     1      -5.527  -0.963  -0.308  1.00  0.00     0.143 A 
ATOM     11  C   UNL     1      -6.728  -0.412  -0.786  1.00  0.00     0.052 A 
ATOM     12  C   UNL     1      -4.462  -0.119   0.117  1.00  0.00     0.095 A 
ATOM     13  C   UNL     1      -6.926   0.966  -0.788  1.00  0.00     0.051 A 
ATOM     14  C   UNL     1      -5.924   1.803  -0.324  1.00  0.00     0.129 A 
BRANCH  10  15
ATOM     15  O   UNL     1      -5.323  -2.319  -0.209  1.00  0.00    -0.495 OA
ATOM     16  C   UNL     1      -6.453  -3.170  -0.353  1.00  0.00     0.278 C 
ENDBRANCH  10  15
BRANCH  12  17
ATOM     17  N   UNL     1      -3.235  -0.604   0.621  1.00  0.00    -0.363 N 
ATOM     18  C   UNL     1      -2.557  -1.707  -0.101  1.00  0.00     0.145 C 
ATOM     19  C   UNL     1      -3.259  -0.779   2.091  1.00  0.00     0.145 C 
ATOM     20  C   UNL     1      -2.395  -2.953   0.785  1.00  0.00     0.181 C 
ATOM     21  C   UNL     1      -1.927  -1.397   2.551  1.00  0.00     0.181 C 
ATOM     22  O   UNL     1      -1.653  -2.693   1.988  1.00  0.00    -0.378 OA
ENDBRANCH  12  17
BRANCH  14  23
ATOM     23  O   UNL     1      -6.216   3.142  -0.282  1.00  0.00    -0.507 OA
ATOM     24  H   UNL     1      -5.595   3.558   0.357  1.00  0.00     0.293 HD
ENDBRANCH  14  23
ENDBRANCH   7   9
ENDBRANCH   1   7
BRANCH   4  25
ATOM     25  C   UNL     1       1.644   2.916  -1.777  1.00  0.00     0.120 C 
BRANCH  25  26
ATOM     26  N   UNL     1       2.722   2.015  -1.344  1.00  0.00    -0.296 NA
ATOM     27  C   UNL     1       2.485   0.614  -1.673  1.00  0.00     0.087 C 
ATOM     28  C   UNL     1       3.206   2.231   0.030  1.00  0.00     0.056 C 
ATOM     29  C   UNL     1       3.805  -0.160  -1.656  1.00  0.00     0.041 C 
ATOM     30  C   UNL     1       3.919   0.988   0.608  1.00  0.00     0.044 C 
ATOM     31  C   UNL     1       4.704   0.241  -0.475  1.00  0.00     0.095 C 
ATOM     32  C   UNL     1       4.152   3.440   0.063  1.00  0.00     0.024 C 
BRANCH  31  33
ATOM     33  N   UNL     1       5.471  -0.877   0.058  1.00  0.00    -0.289 N 
ATOM     34  C   UNL     1       6.837  -0.977   0.037  1.00  0.00     0.296 A 
ATOM     35  C   UNL     1       5.004  -2.014   0.678  1.00  0.00     0.091 A 
ATOM     36  N   UNL     1       7.291  -2.073   0.582  1.00  0.00    -0.175 NA
ATOM     37  C   UNL     1       3.739  -2.511   1.000  1.00  0.00     0.032 A 
ATOM     38  C   UNL     1       6.163  -2.724   1.000  1.00  0.00     0.181 A 
ATOM     39  C   UNL     1       3.727  -3.737   1.663  1.00  0.00     0.022 A 
ATOM     40  N   UNL     1       6.157  -3.911   1.645  1.00  0.00    -0.235 NA
ATOM     41  C   UNL     1       4.927  -4.371   1.958  1.00  0.00     0.114 A 
BRANCH  34  42
ATOM     42  O   UNL     1       7.649  -0.072  -0.470  1.00  0.00    -0.480 OA
ATOM     43  H   UNL     1       8.518  -0.492  -0.326  1.00  0.00     0.296 HD
ENDBRANCH  34  42
ENDBRANCH  31  33
ENDBRANCH  25  26
ENDBRANCH   4  25
TORSDOF 9
