MODEL        2USER    Run = 2USERUSER    Estimated Free Energy of Binding    = -13.04 kcal/mol  [=(1)+(2)+(3)-(4)]USERUSER    (1) Final Intermolecular Energy     = -15.43 kcal/molUSER        vdW + Hbond + desolv Energy     = -15.22 kcal/molUSER        Electrostatic Energy            =  -0.20 kcal/molUSER        Moving Ligand-Fixed Receptor    = -15.43 kcal/molUSER        Moving Ligand-Moving Receptor   =  +0.00 kcal/molUSER    (2) Final Total Internal Energy     =  -1.79 kcal/molUSER    (3) Torsional Free Energy           =  +2.39 kcal/molUSER    (4) Unbound System's Energy         =  -1.79 kcal/molUSERUSERREMARK SMILES C[C@@H]1CN(Cc2ccc(-c3nc4ncccc4nc3-c3ccc(S(N)(=O)=O)cc3)cc2)CC[C@@H]1n1c(O)nc2ncccc21REMARK SMILES IDX 6 1 7 2 8 3 9 4 30 5 31 6 5 7 4 8 2 9 3 10 34 11 33 12 32 13REMARK SMILES IDX 1 14 35 15 36 16 44 17 38 18 43 19 39 20 42 21 40 22 41 23REMARK SMILES IDX 37 24 10 26 11 27 19 28 12 29 18 30 13 31 17 32 14 33 16 34REMARK SMILES IDX 15 35 20 36 21 37 29 38 22 39 28 40 23 41 24 42 26 43 27 44REMARK SMILES IDX 25 45REMARK H PARENT 37 25 25 46 25 47USER                              x       y       z     vdW  Elec       q    TypeUSER                           _______ _______ _______ _____ _____    ______ ____ROOTATOM      1  C   UNL     1      40.559  44.094  21.924 -0.26 -0.00    -0.034 A  ATOM      2  C   UNL     1      41.296  43.873  20.756 -0.28 +0.00    +0.006 A  ATOM      3  C   UNL     1      41.017  44.592  19.589 -0.38 +0.00    +0.011 A  ATOM      4  C   UNL     1      40.013  45.572  19.560 -0.41 -0.00    +0.002 A  ATOM      5  C   UNL     1      39.285  45.797  20.739 -0.22 +0.00    +0.011 A  ATOM      6  C   UNL     1      39.556  45.073  21.904 -0.30 +0.00    +0.006 A  ENDROOTBRANCH   1   7ATOM      7  C   UNL     1      40.830  43.294  23.182 -0.24 +0.00    +0.120 C  BRANCH   7   8ATOM      8  N   UNL     1      39.728  43.191  24.152 -0.09 -0.01    -0.299 NA ATOM      9  C   UNL     1      37.305  42.913  24.518 -0.41 +0.00    +0.023 C  ATOM     10  C   UNL     1      38.525  42.541  23.641 -0.24 +0.01    +0.090 C  ATOM     11  C   UNL     1      37.723  43.102  26.003 -0.28 -0.01    +0.098 C  ATOM     12  C   UNL     1      38.954  42.253  26.338 -0.29 -0.00    +0.041 C  ATOM     13  C   UNL     1      40.142  42.668  25.459 -0.17 -0.00    +0.087 C  ATOM     14  C   UNL     1      36.196  41.885  24.281 -0.30 -0.00    +0.011 C  BRANCH  11  15ATOM     15  N   UNL     1      36.630  43.048  26.963 -0.19 +0.05    -0.289 N  ATOM     16  C   UNL     1      35.945  41.899  27.313 -0.31 -0.09    +0.296 A  ATOM     17  C   UNL     1      36.032  44.089  27.645 -0.41 -0.02    +0.091 A  ATOM     18  N   UNL     1      34.930  42.142  28.097 -0.41 +0.07    -0.175 NA ATOM     19  C   UNL     1      36.267  45.460  27.777 -0.29 -0.01    +0.032 A  ATOM     20  C   UNL     1      34.970  43.485  28.320 -0.34 -0.06    +0.181 A  ATOM     21  C   UNL     1      35.376  46.159  28.589 -0.20 -0.01    +0.022 A  ATOM     22  N   UNL     1      34.103  44.157  29.109 -0.47 +0.05    -0.235 NA ATOM     23  C   UNL     1      34.340  45.478  29.210 -0.28 -0.03    +0.114 A  BRANCH  16  24ATOM     24  O   UNL     1      36.240  40.667  26.926 -0.17 +0.19    -0.480 OA ATOM     25  H   UNL     1      35.620  40.378  26.241 -0.25 -0.18    +0.296 HD ENDBRANCH  16  24ENDBRANCH  11  15ENDBRANCH   7   8ENDBRANCH   1   7BRANCH   4  26ATOM     26  C   UNL     1      39.729  46.309  18.318 -0.37 -0.01    +0.099 A  ATOM     27  N   UNL     1      40.714  47.179  17.960 -0.35 +0.02    -0.224 NA ATOM     28  C   UNL     1      38.580  46.144  17.531 -0.33 -0.02    +0.097 A  ATOM     29  C   UNL     1      40.583  47.857  16.819 -0.39 -0.03    +0.178 A  ATOM     30  N   UNL     1      38.440  46.816  16.358 -0.24 +0.09    -0.242 NA ATOM     31  N   UNL     1      41.558  48.706  16.471 -0.83 -0.01    -0.235 NA ATOM     32  C   UNL     1      39.434  47.662  16.017 -0.42 -0.04    +0.108 A  ATOM     33  C   UNL     1      41.434  49.389  15.314 -0.52 -0.01    +0.114 A  ATOM     34  C   UNL     1      39.345  48.382  14.837 -0.51 -0.01    +0.034 A  ATOM     35  C   UNL     1      40.354  49.262  14.466 -0.35 -0.01    +0.022 A  BRANCH  28  36ATOM     36  C   UNL     1      37.426  45.294  17.873 -0.36 -0.00    +0.002 A  ATOM     37  C   UNL     1      37.615  44.102  18.599 -0.26 -0.00    +0.012 A  ATOM     38  C   UNL     1      36.119  45.619  17.466 -0.34 -0.01    +0.012 A  ATOM     39  C   UNL     1      36.539  43.272  18.923 -0.19 -0.00    +0.022 A  ATOM     40  C   UNL     1      35.036  44.793  17.781 -0.31 -0.01    +0.022 A  ATOM     41  C   UNL     1      35.255  43.618  18.501 -0.28 -0.02    +0.082 A  BRANCH  41  42ATOM     42  S   UNL     1      33.887  42.564  18.902 -0.41 -0.03    +0.238 S  ATOM     43  O   UNL     1      32.662  43.303  18.706 -0.28 +0.03    -0.207 OA ATOM     44  O   UNL     1      34.195  41.875  20.135 -0.33 -0.03    -0.207 OA BRANCH  42  45ATOM     45  N   UNL     1      33.987  41.406  17.685 -0.28 +0.09    -0.225 NA ATOM     46  H   UNL     1      33.373  41.596  16.894 -0.25 -0.08    +0.137 HD ATOM     47  H   UNL     1      34.961  41.302  17.399 -0.45 -0.08    +0.137 HD ENDBRANCH  42  45ENDBRANCH  41  42ENDBRANCH  28  36ENDBRANCH   4  26TORSDOF 8TERENDMDL