REMARK SMILES C[C@@H]1CN(Cc2ccc(-c3nc4ncccc4nc3-c3ccc(S(N)(=O)=O)cc3)cc2)CC[C@@H]1n1c(O)nc2ncccc21
REMARK SMILES IDX 6 1 7 2 8 3 9 4 30 5 31 6 5 7 4 8 2 9 3 10 34 11 33 12 32 13
REMARK SMILES IDX 1 14 35 15 36 16 44 17 38 18 43 19 39 20 42 21 40 22 41 23
REMARK SMILES IDX 37 24 10 26 11 27 19 28 12 29 18 30 13 31 17 32 14 33 16 34
REMARK SMILES IDX 15 35 20 36 21 37 29 38 22 39 28 40 23 41 24 42 26 43 27 44
REMARK SMILES IDX 25 45
REMARK H PARENT 37 25 25 46 25 47
ROOT
ATOM      1  C   UNL     1      -0.155   1.347  -0.966  1.00  0.00    -0.034 A 
ATOM      2  C   UNL     1      -0.480   0.479  -2.014  1.00  0.00     0.006 A 
ATOM      3  C   UNL     1      -1.429  -0.532  -1.835  1.00  0.00     0.011 A 
ATOM      4  C   UNL     1      -2.102  -0.691  -0.614  1.00  0.00     0.002 A 
ATOM      5  C   UNL     1      -1.780   0.190   0.430  1.00  0.00     0.011 A 
ATOM      6  C   UNL     1      -0.824   1.196   0.256  1.00  0.00     0.006 A 
ENDROOT
BRANCH   1   7
ATOM      7  C   UNL     1       0.899   2.422  -1.140  1.00  0.00     0.120 C 
BRANCH   7   8
ATOM      8  N   UNL     1       2.290   2.039  -0.848  1.00  0.00    -0.299 NA
ATOM      9  C   UNL     1       4.013   1.630   0.868  1.00  0.00     0.023 C 
ATOM     10  C   UNL     1       2.512   1.533   0.503  1.00  0.00     0.090 C 
ATOM     11  C   UNL     1       4.907   1.413  -0.385  1.00  0.00     0.098 C 
ATOM     12  C   UNL     1       4.199   0.525  -1.415  1.00  0.00     0.041 C 
ATOM     13  C   UNL     1       2.892   1.185  -1.878  1.00  0.00     0.087 C 
ATOM     14  C   UNL     1       4.298   0.688   2.040  1.00  0.00     0.011 C 
BRANCH  11  15
ATOM     15  N   UNL     1       6.295   1.079  -0.102  1.00  0.00    -0.289 N 
ATOM     16  C   UNL     1       7.312   2.002   0.052  1.00  0.00     0.296 A 
ATOM     17  C   UNL     1       6.874  -0.170   0.004  1.00  0.00     0.091 A 
ATOM     18  N   UNL     1       8.484   1.439   0.174  1.00  0.00    -0.175 NA
ATOM     19  C   UNL     1       6.410  -1.488  -0.002  1.00  0.00     0.032 A 
ATOM     20  C   UNL     1       8.235   0.100   0.154  1.00  0.00     0.181 A 
ATOM     21  C   UNL     1       7.380  -2.480   0.127  1.00  0.00     0.022 A 
ATOM     22  N   UNL     1       9.181  -0.857   0.279  1.00  0.00    -0.235 NA
ATOM     23  C   UNL     1       8.713  -2.119   0.257  1.00  0.00     0.114 A 
BRANCH  16  24
ATOM     24  O   UNL     1       7.172   3.319   0.080  1.00  0.00    -0.480 OA
ATOM     25  H   UNL     1       6.243   3.550   0.223  1.00  0.00     0.296 HD
ENDBRANCH  16  24
ENDBRANCH  11  15
ENDBRANCH   7   8
ENDBRANCH   1   7
BRANCH   4  26
ATOM     26  C   UNL     1      -3.090  -1.770  -0.444  1.00  0.00     0.099 A 
ATOM     27  N   UNL     1      -2.599  -3.010  -0.720  1.00  0.00    -0.224 NA
ATOM     28  C   UNL     1      -4.412  -1.588  -0.015  1.00  0.00     0.097 A 
ATOM     29  C   UNL     1      -3.395  -4.066  -0.544  1.00  0.00     0.178 A 
ATOM     30  N   UNL     1      -5.230  -2.655   0.185  1.00  0.00    -0.242 NA
ATOM     31  N   UNL     1      -2.904  -5.281  -0.812  1.00  0.00    -0.235 NA
ATOM     32  C   UNL     1      -4.718  -3.874  -0.082  1.00  0.00     0.108 A 
ATOM     33  C   UNL     1      -3.702  -6.353  -0.628  1.00  0.00     0.114 A 
ATOM     34  C   UNL     1      -5.506  -5.000   0.094  1.00  0.00     0.034 A 
ATOM     35  C   UNL     1      -5.003  -6.266  -0.178  1.00  0.00     0.022 A 
BRANCH  28  36
ATOM     36  C   UNL     1      -5.059  -0.286   0.229  1.00  0.00     0.002 A 
ATOM     37  C   UNL     1      -5.726  -0.044   1.445  1.00  0.00     0.012 A 
ATOM     38  C   UNL     1      -5.061   0.734  -0.741  1.00  0.00     0.012 A 
ATOM     39  C   UNL     1      -6.359   1.177   1.694  1.00  0.00     0.022 A 
ATOM     40  C   UNL     1      -5.695   1.957  -0.503  1.00  0.00     0.022 A 
ATOM     41  C   UNL     1      -6.349   2.167   0.711  1.00  0.00     0.082 A 
BRANCH  41  42
ATOM     42  S   UNL     1      -7.158   3.715   1.019  1.00  0.00     0.238 S 
ATOM     43  O   UNL     1      -6.707   4.674   0.038  1.00  0.00    -0.207 OA
ATOM     44  O   UNL     1      -7.114   3.972   2.441  1.00  0.00    -0.207 OA
BRANCH  42  45
ATOM     45  N   UNL     1      -8.758   3.334   0.664  1.00  0.00    -0.225 NA
ATOM     46  H   UNL     1      -8.868   2.427   0.212  1.00  0.00     0.137 HD
ATOM     47  H   UNL     1      -9.319   3.411   1.514  1.00  0.00     0.137 HD
ENDBRANCH  42  45
ENDBRANCH  41  42
ENDBRANCH  28  36
ENDBRANCH   4  26
TORSDOF 8
