REMARK SMILES COc1cc(F)c(=O)[nH]c1C(=O)c1ccc(C(=O)N[C@@H]2CCN(C3CC3)C[C@H]2NC(=O)c2cnn(C)c2)cc1
REMARK SMILES IDX 13 1 14 2 15 3 16 4 38 5 39 6 11 7 12 8 10 9 3 10 4 11 5 12
REMARK SMILES IDX 9 13 7 14 6 15 8 17 2 18 1 19 17 20 19 21 18 22 20 24 21 25
REMARK SMILES IDX 28 26 22 27 27 28 23 29 29 30 30 31 31 33 32 34 33 35 37 36
REMARK SMILES IDX 34 37 35 38 36 39 24 40 25 41 26 42
REMARK H PARENT 9 16 19 23 29 32
ROOT
ATOM      1  C   UNL     1       4.633   1.261   0.386  1.00  0.00     0.024 A 
ATOM      2  C   UNL     1       4.005   0.021   0.196  1.00  0.00     0.013 A 
ATOM      3  C   UNL     1       2.657  -0.141   0.530  1.00  0.00     0.014 A 
ATOM      4  C   UNL     1       1.936   0.934   1.065  1.00  0.00     0.039 A 
ATOM      5  C   UNL     1       2.557   2.171   1.258  1.00  0.00     0.014 A 
ATOM      6  C   UNL     1       3.898   2.339   0.900  1.00  0.00     0.013 A 
ENDROOT
BRANCH   1   7
ATOM      7  C   UNL     1       6.072   1.478   0.069  1.00  0.00     0.213 C 
ATOM      8  O   UNL     1       6.511   2.598  -0.169  1.00  0.00    -0.287 OA
BRANCH   7   9
ATOM      9  C   UNL     1       6.977   0.300   0.140  1.00  0.00     0.132 A 
ATOM     10  C   UNL     1       7.390  -0.316  -0.982  1.00  0.00     0.149 A 
ATOM     11  C   UNL     1       8.231  -1.492  -0.882  1.00  0.00     0.094 A 
ATOM     12  C   UNL     1       8.636  -1.928   0.316  1.00  0.00     0.191 A 
ATOM     13  N   UNL     1       7.386  -0.146   1.380  1.00  0.00    -0.314 N 
ATOM     14  C   UNL     1       8.205  -1.238   1.567  1.00  0.00     0.284 A 
ATOM     15  F   UNL     1       9.421  -3.013   0.454  1.00  0.00    -0.201 F 
ATOM     16  H   UNL     1       7.100   0.346   2.218  1.00  0.00     0.170 HD
ATOM     17  O   UNL     1       8.534  -1.618   2.685  1.00  0.00    -0.266 OA
BRANCH  10  18
ATOM     18  O   UNL     1       6.979   0.018  -2.251  1.00  0.00    -0.494 OA
ATOM     19  C   UNL     1       7.912   0.905  -2.873  1.00  0.00     0.278 C 
ENDBRANCH  10  18
ENDBRANCH   7   9
ENDBRANCH   1   7
BRANCH   4  20
ATOM     20  C   UNL     1       0.533   0.753   1.505  1.00  0.00     0.251 C 
ATOM     21  N   UNL     1      -0.278   0.047   0.639  1.00  0.00    -0.347 N 
ATOM     22  O   UNL     1       0.172   1.195   2.586  1.00  0.00    -0.269 OA
ATOM     23  H   UNL     1       0.069  -0.174  -0.285  1.00  0.00     0.164 HD
BRANCH  21  24
ATOM     24  C   UNL     1      -1.668  -0.273   0.974  1.00  0.00     0.107 C 
ATOM     25  C   UNL     1      -1.729  -1.444   1.957  1.00  0.00     0.042 C 
ATOM     26  C   UNL     1      -2.514  -0.560  -0.300  1.00  0.00     0.118 C 
ATOM     27  C   UNL     1      -3.180  -1.797   2.310  1.00  0.00     0.087 C 
ATOM     28  C   UNL     1      -3.415  -1.804  -0.121  1.00  0.00     0.111 C 
ATOM     29  N   UNL     1      -4.102  -1.719   1.172  1.00  0.00    -0.298 NA
BRANCH  26  30
ATOM     30  N   UNL     1      -3.343   0.609  -0.626  1.00  0.00    -0.346 N 
ATOM     31  C   UNL     1      -3.756   0.849  -1.918  1.00  0.00     0.254 C 
ATOM     32  H   UNL     1      -3.944   0.922   0.125  1.00  0.00     0.164 HD
ATOM     33  O   UNL     1      -3.269   0.264  -2.881  1.00  0.00    -0.269 OA
BRANCH  31  34
ATOM     34  C   UNL     1      -4.829   1.819  -2.059  1.00  0.00     0.077 A 
ATOM     35  C   UNL     1      -5.549   2.564  -1.093  1.00  0.00     0.149 A 
ATOM     36  C   UNL     1      -5.397   2.216  -3.257  1.00  0.00     0.122 A 
ATOM     37  N   UNL     1      -6.493   3.342  -1.630  1.00  0.00    -0.181 NA
ATOM     38  N   UNL     1      -6.371   3.118  -2.950  1.00  0.00    -0.275 N 
ATOM     39  C   UNL     1      -7.243   3.799  -3.876  1.00  0.00     0.173 C 
ENDBRANCH  31  34
ENDBRANCH  26  30
BRANCH  29  40
ATOM     40  C   UNL     1      -5.346  -2.499   1.225  1.00  0.00     0.056 C 
ATOM     41  C   UNL     1      -5.988  -2.929   2.512  1.00  0.00     0.021 C 
ATOM     42  C   UNL     1      -5.369  -3.953   1.604  1.00  0.00     0.021 C 
ENDBRANCH  29  40
ENDBRANCH  21  24
ENDBRANCH   4  20
TORSDOF 8
