MODEL        7USER    Run = 7USERUSER    Estimated Free Energy of Binding    =  -8.11 kcal/mol  [=(1)+(2)+(3)-(4)]USERUSER    (1) Final Intermolecular Energy     = -12.29 kcal/molUSER        vdW + Hbond + desolv Energy     = -12.98 kcal/molUSER        Electrostatic Energy            =  -0.15 kcal/molUSER        Moving Ligand-Fixed Receptor    = -13.13 kcal/molUSER        Moving Ligand-Moving Receptor   =  +0.85 kcal/molUSER    (2) Final Total Internal Energy     =  -3.59 kcal/molUSER    (3) Torsional Free Energy           =  +4.18 kcal/molUSER    (4) Unbound System's Energy         =  -3.59 kcal/molUSERUSERREMARK SMILES COc1ccc(=O)[nH]c1C(=O)c1ccc(C(=O)N[C@@H]2CCCN(C3COC3)C[C@H]2NC(=O)c2cnc(F)c(Cl)c2)cc1REMARK SMILES IDX 16 1 17 2 18 3 15 5 12 6 13 7 42 8 14 9 41 10 10 11 11 12REMARK SMILES IDX 9 13 3 14 4 15 5 16 8 17 6 18 7 20 2 21 1 22 19 23 20 24REMARK SMILES IDX 21 25 29 27 28 28 23 29 22 30 24 32 25 33 27 34 26 35 30 36REMARK SMILES IDX 31 37 32 39 33 40 34 41 40 42 35 43 38 44 36 45 39 46 37 47REMARK H PARENT 18 4 8 19 30 38REMARK Flexibility Score:   88.900USER                              x       y       z     vdW  Elec       q    TypeUSER                           _______ _______ _______ _____ _____    ______ ____ROOTATOM      1  C   UNL     1      35.238  42.983  20.006 -0.31 -0.01    +0.251 C  ATOM      2  O   UNL     1      35.248  42.053  19.208 -0.32 +0.03    -0.269 OA ATOM      3  N   UNL     1      34.398  44.072  19.881 -0.17 +0.04    -0.347 N  ATOM      4  H   UNL     1      34.510  44.865  20.494 -0.04 -0.05    +0.164 HD ENDROOTBRANCH   1   5ATOM      5  C   UNL     1      36.200  42.991  21.147 -0.40 +0.00    +0.039 A  ATOM      6  C   UNL     1      38.025  42.887  23.288 -0.33 +0.00    +0.024 A  ATOM      7  C   UNL     1      37.668  44.118  22.723 -0.35 +0.00    +0.013 A  ATOM      8  C   UNL     1      37.436  41.712  22.803 -0.41 +0.00    +0.013 A  ATOM      9  C   UNL     1      36.757  44.170  21.660 -0.29 +0.00    +0.014 A  ATOM     10  C   UNL     1      36.533  41.763  21.738 -0.55 +0.00    +0.014 A  BRANCH   6  11ATOM     11  C   UNL     1      39.011  42.783  24.400 -0.13 +0.01    +0.213 C  ATOM     12  O   UNL     1      40.151  43.217  24.275 -0.13 -0.01    -0.287 OA BRANCH  11  13ATOM     13  C   UNL     1      38.529  42.220  25.694 -0.16 -0.00    +0.132 A  ATOM     14  C   UNL     1      37.276  42.456  26.118 -0.26 -0.01    +0.146 A  ATOM     15  C   UNL     1      36.859  41.961  27.416 -0.43 -0.01    +0.054 A  ATOM     16  C   UNL     1      37.694  41.223  28.169 -0.32 -0.02    +0.075 A  ATOM     17  N   UNL     1      39.392  41.457  26.453 -0.10 +0.01    -0.316 N  ATOM     18  C   UNL     1      39.063  40.924  27.674 -0.23 -0.00    +0.248 A  ATOM     19  H   UNL     1      40.321  41.246  26.109 -0.06 -0.02    +0.170 HD ATOM     20  O   UNL     1      39.850  40.259  28.335 -0.63 -0.03    -0.270 OA BRANCH  14  21ATOM     21  O   UNL     1      36.374  43.259  25.458 -0.10 +0.00    -0.494 OA ATOM     22  C   UNL     1      35.563  43.989  26.380 -0.12 -0.04    +0.278 C  ENDBRANCH  14  21ENDBRANCH  11  13ENDBRANCH   6  11ENDBRANCH   1   5BRANCH   3  23ATOM     23  C   UNL     1      33.398  44.158  18.802 -0.38 -0.02    +0.106 C  BRANCH  23  24ATOM     24  C   UNL     1      32.238  43.217  19.146 -0.43 -0.00    +0.028 C  BRANCH  24  25ATOM     25  C   UNL     1      31.060  43.294  18.186 -0.28 -0.00    +0.018 CG0ATOM     26  G   UNL     1      31.474  43.306  16.710 +0.00 +0.00    +0.000 G0 ENDBRANCH  24  25ENDBRANCH  23  24BRANCH  23  27ATOM     27  C   UNL     1      34.057  43.951  17.409 -0.28 -0.05    +0.118 C  BRANCH  27  28ATOM     28  C   UNL     1      33.407  44.767  16.261 -0.31 -0.07    +0.112 C  BRANCH  28  29ATOM     29  N   UNL     1      31.934  44.606  16.205 -0.25 +0.13    -0.294 NA BRANCH  29  30ATOM     30  C   UNL     1      31.465  43.308  16.714 -0.31 -0.03    +0.085 CG0ATOM     31  G   UNL     1      31.058  43.296  18.192 +0.00 +0.00    +0.000 G0 ENDBRANCH  29  30BRANCH  29  32ATOM     32  C   UNL     1      31.470  44.953  14.825 -0.40 -0.07    +0.108 C  ATOM     33  C   UNL     1      32.114  46.234  14.268 -0.32 -0.15    +0.181 C  ATOM     34  C   UNL     1      30.173  45.777  14.770 -0.39 -0.10    +0.181 C  ATOM     35  O   UNL     1      30.939  47.010  14.638 -0.73 +0.17    -0.378 OA ENDBRANCH  29  32ENDBRANCH  28  29ENDBRANCH  27  28BRANCH  27  36ATOM     36  N   UNL     1      35.496  44.277  17.453 -0.07 +0.13    -0.346 N  ATOM     37  C   UNL     1      35.950  45.563  17.670 -0.23 -0.12    +0.253 C  ATOM     38  H   UNL     1      36.060  43.507  17.802 +0.11 -0.04    +0.164 HD ATOM     39  O   UNL     1      35.214  46.541  17.773 -0.36 +0.22    -0.269 OA BRANCH  37  40ATOM     40  C   UNL     1      37.420  45.734  17.815 -0.29 -0.02    +0.059 A  ATOM     41  C   UNL     1      38.177  46.544  16.969 -0.29 -0.05    +0.128 A  ATOM     42  C   UNL     1      38.086  45.093  18.871 -0.35 -0.01    +0.040 A  ATOM     43  N   UNL     1      39.520  46.715  17.075 -0.30 +0.05    -0.226 NA ATOM     44  C   UNL     1      39.465  45.261  19.013 -0.36 -0.01    +0.096 A  ATOM     45  C   UNL     1      40.135  46.066  18.096 -0.31 -0.02    +0.231 A  ATOM     46  Cl  UNL     1      40.297  44.482  20.304 -0.48 -0.00    -0.079 Cl ATOM     47  F   UNL     1      41.464  46.236  18.208 -0.16 +0.00    -0.183 F  ENDBRANCH  37  40ENDBRANCH  27  36ENDBRANCH  23  27ENDBRANCH   3  23TORSDOF 8TERENDMDL