REMARK SMILES COc1ccc(=O)[nH]c1C(=O)c1ccc(C(=O)N[C@@H]2CCN(C3CC3)C[C@H]2NC(=O)c2cc(N)nc(F)c2)cc1
REMARK SMILES IDX 16 1 17 2 18 3 15 5 12 6 13 7 40 8 14 9 39 10 10 11 11 12
REMARK SMILES IDX 9 13 3 14 4 15 5 16 8 17 6 18 7 20 2 21 1 22 19 23 20 24
REMARK SMILES IDX 27 25 21 26 26 27 22 28 28 29 29 30 30 32 31 33 32 34 38 35
REMARK SMILES IDX 33 36 36 37 35 38 37 39 34 40 23 43 24 44 25 45
REMARK H PARENT 18 4 8 19 28 31 34 41 34 42
ROOT
ATOM      1  C   UNL     1       0.293   0.161   1.488  1.00  0.00     0.251 C 
ATOM      2  O   UNL     1       0.125   0.754   2.547  1.00  0.00    -0.269 OA
ATOM      3  N   UNL     1      -0.733  -0.090   0.603  1.00  0.00    -0.347 N 
ATOM      4  H   UNL     1      -0.566  -0.624  -0.241  1.00  0.00     0.164 HD
ENDROOT
BRANCH   1   5
ATOM      5  C   UNL     1       1.653  -0.322   1.109  1.00  0.00     0.039 A 
ATOM      6  C   UNL     1       4.264  -1.223   0.549  1.00  0.00     0.024 A 
ATOM      7  C   UNL     1       4.059  -0.169   1.447  1.00  0.00     0.013 A 
ATOM      8  C   UNL     1       3.153  -1.823  -0.063  1.00  0.00     0.013 A 
ATOM      9  C   UNL     1       2.761   0.277   1.723  1.00  0.00     0.014 A 
ATOM     10  C   UNL     1       1.856  -1.382   0.216  1.00  0.00     0.014 A 
BRANCH   6  11
ATOM     11  C   UNL     1       5.614  -1.776   0.237  1.00  0.00     0.213 C 
ATOM     12  O   UNL     1       5.746  -2.739  -0.517  1.00  0.00    -0.287 OA
BRANCH  11  13
ATOM     13  C   UNL     1       6.807  -1.165   0.877  1.00  0.00     0.132 A 
ATOM     14  C   UNL     1       7.366  -0.053   0.367  1.00  0.00     0.146 A 
ATOM     15  C   UNL     1       8.510   0.531   1.030  1.00  0.00     0.054 A 
ATOM     16  C   UNL     1       9.051  -0.059   2.107  1.00  0.00     0.075 A 
ATOM     17  N   UNL     1       7.361  -1.790   1.974  1.00  0.00    -0.316 N 
ATOM     18  C   UNL     1       8.467  -1.321   2.635  1.00  0.00     0.248 A 
ATOM     19  H   UNL     1       6.952  -2.653   2.320  1.00  0.00     0.170 HD
ATOM     20  O   UNL     1       8.955  -1.887   3.603  1.00  0.00    -0.270 OA
BRANCH  14  21
ATOM     21  O   UNL     1       6.867   0.650  -0.703  1.00  0.00    -0.494 OA
ATOM     22  C   UNL     1       7.450   0.197  -1.928  1.00  0.00     0.278 C 
ENDBRANCH  14  21
ENDBRANCH  11  13
ENDBRANCH   6  11
ENDBRANCH   1   5
BRANCH   3  23
ATOM     23  C   UNL     1      -2.139   0.065   0.982  1.00  0.00     0.107 C 
ATOM     24  C   UNL     1      -2.637  -1.196   1.693  1.00  0.00     0.042 C 
ATOM     25  C   UNL     1      -3.028   0.379  -0.259  1.00  0.00     0.118 C 
ATOM     26  C   UNL     1      -2.606  -2.416   0.766  1.00  0.00     0.087 C 
ATOM     27  C   UNL     1      -3.652  -0.922  -0.838  1.00  0.00     0.111 C 
ATOM     28  N   UNL     1      -2.745  -2.065  -0.657  1.00  0.00    -0.298 NA
BRANCH  25  29
ATOM     29  N   UNL     1      -4.052   1.387   0.072  1.00  0.00    -0.346 N 
ATOM     30  C   UNL     1      -4.857   1.922  -0.917  1.00  0.00     0.251 C 
ATOM     31  H   UNL     1      -3.832   2.001   0.846  1.00  0.00     0.164 HD
ATOM     32  O   UNL     1      -4.863   1.525  -2.076  1.00  0.00    -0.269 OA
BRANCH  30  33
ATOM     33  C   UNL     1      -5.715   3.069  -0.525  1.00  0.00     0.047 A 
ATOM     34  C   UNL     1      -6.145   3.949  -1.522  1.00  0.00     0.060 A 
ATOM     35  C   UNL     1      -6.122   3.273   0.788  1.00  0.00     0.074 A 
ATOM     36  C   UNL     1      -6.942   5.022  -1.163  1.00  0.00     0.127 A 
ATOM     37  C   UNL     1      -6.927   4.366   1.038  1.00  0.00     0.215 A 
ATOM     38  N   UNL     1      -7.338   5.242   0.099  1.00  0.00    -0.203 NA
ATOM     39  F   UNL     1      -7.327   4.580   2.299  1.00  0.00    -0.185 F 
BRANCH  36  40
ATOM     40  N   UNL     1      -7.413   5.907  -2.128  1.00  0.00    -0.384 N 
ATOM     41  H   UNL     1      -6.676   6.282  -2.714  1.00  0.00     0.158 HD
ATOM     42  H   UNL     1      -7.934   6.639  -1.653  1.00  0.00     0.158 HD
ENDBRANCH  36  40
ENDBRANCH  30  33
ENDBRANCH  25  29
BRANCH  28  43
ATOM     43  C   UNL     1      -3.105  -3.230  -1.482  1.00  0.00     0.056 C 
ATOM     44  C   UNL     1      -2.828  -3.211  -2.961  1.00  0.00     0.021 C 
ATOM     45  C   UNL     1      -1.995  -4.069  -2.057  1.00  0.00     0.021 C 
ENDBRANCH  28  43
ENDBRANCH   3  23
TORSDOF 9
