MODEL        10USER    Run = 10USERUSER    Estimated Free Energy of Binding    = -10.90 kcal/mol  [=(1)+(2)+(3)-(4)]USERUSER    (1) Final Intermolecular Energy     = -13.58 kcal/molUSER        vdW + Hbond + desolv Energy     = -13.06 kcal/molUSER        Electrostatic Energy            =  -0.52 kcal/molUSER        Moving Ligand-Fixed Receptor    = -13.58 kcal/molUSER        Moving Ligand-Moving Receptor   =  +0.00 kcal/molUSER    (2) Final Total Internal Energy     =  -1.94 kcal/molUSER    (3) Torsional Free Energy           =  +2.68 kcal/molUSER    (4) Unbound System's Energy         =  -1.94 kcal/molUSERUSERREMARK SMILES COc1ccc(=O)[nH]c1C(=O)c1ccc(C(=O)N[C@@H]2CCN(C(C)C)C[C@H]2NC(=O)c2cc(N)nc(F)c2)cc1REMARK SMILES IDX 16 1 17 2 18 3 15 5 12 6 13 7 40 8 14 9 39 10 10 11 11 12REMARK SMILES IDX 9 13 3 14 4 15 5 16 8 17 6 18 7 20 2 21 1 22 19 23 20 24REMARK SMILES IDX 27 25 21 26 26 27 22 28 28 29 29 30 30 32 31 33 32 34 38 35REMARK SMILES IDX 33 36 36 37 35 38 37 39 34 40 23 43 24 44 25 45REMARK H PARENT 18 4 8 19 28 31 34 41 34 42USER                              x       y       z     vdW  Elec       q    TypeUSER                           _______ _______ _______ _____ _____    ______ ____ROOTATOM      1  C   UNL     1      38.744  44.738  18.732 -0.28 -0.02    +0.251 C  ATOM      2  O   UNL     1      38.717  43.983  17.766 -0.16 +0.03    -0.269 OA ATOM      3  N   UNL     1      37.644  45.073  19.486 -0.10 +0.03    -0.347 N  ATOM      4  H   UNL     1      37.768  45.679  20.286 +0.13 +0.01    +0.164 HD ENDROOTBRANCH   1   5ATOM      5  C   UNL     1      40.019  45.347  19.166 -0.41 -0.00    +0.039 A  ATOM      6  C   UNL     1      42.420  46.526  19.957 -0.39 +0.01    +0.024 A  ATOM      7  C   UNL     1      41.895  46.796  18.686 -0.53 +0.00    +0.013 A  ATOM      8  C   UNL     1      41.753  45.642  20.819 -0.33 +0.00    +0.013 A  ATOM      9  C   UNL     1      40.697  46.196  18.287 -0.49 -0.00    +0.014 A  ATOM     10  C   UNL     1      40.547  45.059  20.429 -0.36 +0.00    +0.014 A  BRANCH   6  11ATOM     11  C   UNL     1      43.689  47.140  20.426 -0.16 +0.10    +0.213 C  ATOM     12  O   UNL     1      44.591  47.382  19.632 -0.12 -0.27    -0.287 OA BRANCH  11  13ATOM     13  C   UNL     1      43.858  47.335  21.894 -0.26 +0.05    +0.132 A  ATOM     14  C   UNL     1      44.577  46.464  22.627 -0.17 +0.08    +0.146 A  ATOM     15  C   UNL     1      44.732  46.692  24.050 -0.10 +0.01    +0.054 A  ATOM     16  C   UNL     1      44.117  47.720  24.653 -0.15 +0.01    +0.075 A  ATOM     17  N   UNL     1      43.229  48.401  22.504 -0.20 -0.06    -0.316 N  ATOM     18  C   UNL     1      43.286  48.653  23.851 -0.19 +0.07    +0.248 A  ATOM     19  H   UNL     1      42.645  49.027  21.961 -0.20 +0.02    +0.170 HD ATOM     20  O   UNL     1      42.696  49.592  24.371 -0.73 -0.10    -0.270 OA BRANCH  14  21ATOM     21  O   UNL     1      45.312  45.432  22.096 -0.30 -0.55    -0.494 OA ATOM     22  C   UNL     1      44.825  44.163  22.533 -0.13 +0.12    +0.278 C  ENDBRANCH  14  21ENDBRANCH  11  13ENDBRANCH   6  11ENDBRANCH   1   5BRANCH   3  23ATOM     23  C   UNL     1      36.301  44.535  19.219 -0.33 -0.02    +0.107 C  ATOM     24  C   UNL     1      35.875  43.588  20.351 -0.46 -0.00    +0.042 C  ATOM     25  C   UNL     1      36.201  43.811  17.858 -0.29 -0.03    +0.118 C  ATOM     26  C   UNL     1      34.892  42.499  19.903 -0.43 -0.00    +0.087 C  ATOM     27  C   UNL     1      34.747  43.319  17.635 -0.32 -0.04    +0.111 C  ATOM     28  N   UNL     1      33.986  43.010  18.871 -0.18 +0.04    -0.299 NA BRANCH  25  29ATOM     29  N   UNL     1      36.640  44.657  16.748 -0.10 +0.13    -0.346 N  ATOM     30  C   UNL     1      35.988  45.821  16.420 -0.24 -0.17    +0.251 C  ATOM     31  H   UNL     1      37.310  44.238  16.108 +0.10 -0.05    +0.164 HD ATOM     32  O   UNL     1      35.032  46.255  17.053 -0.28 +0.26    -0.269 OA BRANCH  30  33ATOM     33  C   UNL     1      36.470  46.538  15.211 -0.36 -0.03    +0.047 A  ATOM     34  C   UNL     1      35.858  46.401  13.964 -0.42 -0.04    +0.060 A  ATOM     35  C   UNL     1      37.586  47.357  15.338 -0.39 -0.04    +0.074 A  ATOM     36  C   UNL     1      36.374  47.109  12.886 -0.53 -0.06    +0.127 A  ATOM     37  C   UNL     1      38.021  48.016  14.210 -0.36 -0.10    +0.215 A  ATOM     38  N   UNL     1      37.441  47.911  12.997 -0.91 +0.05    -0.203 NA ATOM     39  F   UNL     1      39.087  48.822  14.318 -0.16 +0.09    -0.185 F  BRANCH  36  40ATOM     40  N   UNL     1      35.776  46.994  11.627 -0.26 +0.23    -0.384 N  ATOM     41  H   UNL     1      34.886  46.510  11.707 -0.20 -0.14    +0.158 HD ATOM     42  H   UNL     1      35.600  47.918  11.242 -0.20 -0.13    +0.158 HD ENDBRANCH  36  40ENDBRANCH  30  33ENDBRANCH  25  29BRANCH  28  43ATOM     43  C   UNL     1      32.828  42.120  18.601 -0.41 -0.01    +0.050 C  ATOM     44  C   UNL     1      31.650  42.883  17.971 -0.34 -0.00    +0.024 C  ATOM     45  C   UNL     1      33.191  40.969  17.644 -0.39 -0.01    +0.024 C  ENDBRANCH  28  43ENDBRANCH   3  23TORSDOF 9TERENDMDL