REMARK SMILES COc1ccc(=O)[nH]c1C(=O)c1ccc(C(=O)N[C@@H]2CCCN(C3COC3)C[C@H]2NC(=O)c2cnc(F)c(Cl)c2)cc1
REMARK SMILES IDX 16 1 17 2 18 3 15 5 12 6 13 7 42 8 14 9 41 10 10 11 11 12
REMARK SMILES IDX 9 13 3 14 4 15 5 16 8 17 6 18 7 20 2 21 1 22 19 23 20 24
REMARK SMILES IDX 21 25 29 27 28 28 23 29 22 30 24 32 25 33 27 34 26 35 30 36
REMARK SMILES IDX 31 37 32 39 33 40 34 41 40 42 35 43 38 44 36 45 39 46 37 47
REMARK H PARENT 18 4 8 19 30 38
REMARK Flexibility Score:   88.900
ROOT
ATOM      1  C   UNL     1       0.596   0.300   1.553  1.00  0.00     0.251 C 
ATOM      2  O   UNL     1       0.023   0.974   2.401  1.00  0.00    -0.269 OA
ATOM      3  N   UNL     1      -0.046  -0.658   0.794  1.00  0.00    -0.347 N 
ATOM      4  H   UNL     1       0.491  -1.267   0.196  1.00  0.00     0.164 HD
ENDROOT
BRANCH   1   5
ATOM      5  C   UNL     1       2.064   0.466   1.342  1.00  0.00     0.039 A 
ATOM      6  C   UNL     1       4.845   0.806   1.061  1.00  0.00     0.024 A 
ATOM      7  C   UNL     1       4.097   0.219   0.032  1.00  0.00     0.013 A 
ATOM      8  C   UNL     1       4.191   1.256   2.215  1.00  0.00     0.013 A 
ATOM      9  C   UNL     1       2.713   0.054   0.170  1.00  0.00     0.014 A 
ATOM     10  C   UNL     1       2.811   1.084   2.356  1.00  0.00     0.014 A 
BRANCH   6  11
ATOM     11  C   UNL     1       6.322   0.975   0.968  1.00  0.00     0.213 C 
ATOM     12  O   UNL     1       6.909   1.792   1.669  1.00  0.00    -0.287 OA
BRANCH  11  13
ATOM     13  C   UNL     1       7.063   0.049   0.064  1.00  0.00     0.132 A 
ATOM     14  C   UNL     1       7.728   0.522  -1.004  1.00  0.00     0.146 A 
ATOM     15  C   UNL     1       8.375  -0.409  -1.908  1.00  0.00     0.054 A 
ATOM     16  C   UNL     1       8.363  -1.729  -1.657  1.00  0.00     0.075 A 
ATOM     17  N   UNL     1       7.051  -1.303   0.337  1.00  0.00    -0.316 N 
ATOM     18  C   UNL     1       7.667  -2.244  -0.449  1.00  0.00     0.248 A 
ATOM     19  H   UNL     1       6.584  -1.650   1.167  1.00  0.00     0.170 HD
ATOM     20  O   UNL     1       7.633  -3.440  -0.191  1.00  0.00    -0.270 OA
BRANCH  14  21
ATOM     21  O   UNL     1       7.736   1.844  -1.387  1.00  0.00    -0.494 OA
ATOM     22  C   UNL     1       8.916   2.506  -0.929  1.00  0.00     0.278 C 
ENDBRANCH  14  21
ENDBRANCH  11  13
ENDBRANCH   6  11
ENDBRANCH   1   5
BRANCH   3  23
ATOM     23  C   UNL     1      -1.496  -0.892   0.909  1.00  0.00     0.106 C 
BRANCH  23  24
ATOM     24  C   UNL     1      -1.766  -2.377   0.639  1.00  0.00     0.028 C 
BRANCH  24  25
ATOM     25  C   UNL     1      -3.241  -2.749   0.593  1.00  0.00     0.018 CG0
ATOM     26  G   UNL     1      -3.871  -2.581  -0.794  1.00  0.00     0.000 G0
ENDBRANCH  24  25
ENDBRANCH  23  24
BRANCH  23  27
ATOM     27  C   UNL     1      -2.298   0.119   0.041  1.00  0.00     0.118 C 
BRANCH  27  28
ATOM     28  C   UNL     1      -2.766  -0.437  -1.329  1.00  0.00     0.112 C 
BRANCH  28  29
ATOM     29  N   UNL     1      -4.041  -1.189  -1.239  1.00  0.00    -0.294 NA
BRANCH  29  30
ATOM     30  C   UNL     1      -3.871  -2.581  -0.794  1.00  0.00     0.085 CG0
ATOM     31  G   UNL     1      -3.241  -2.749   0.593  1.00  0.00     0.000 G0
ENDBRANCH  29  30
BRANCH  29  32
ATOM     32  C   UNL     1      -4.785  -1.019  -2.526  1.00  0.00     0.108 C 
ATOM     33  C   UNL     1      -6.115  -1.791  -2.570  1.00  0.00     0.181 C 
ATOM     34  C   UNL     1      -4.372  -1.993  -3.642  1.00  0.00     0.181 C 
ATOM     35  O   UNL     1      -5.486  -2.874  -3.313  1.00  0.00    -0.378 OA
ENDBRANCH  29  32
ENDBRANCH  28  29
ENDBRANCH  27  28
BRANCH  27  36
ATOM     36  N   UNL     1      -3.481   0.616   0.769  1.00  0.00    -0.346 N 
ATOM     37  C   UNL     1      -3.784   1.961   0.845  1.00  0.00     0.253 C 
ATOM     38  H   UNL     1      -4.252  -0.047   0.759  1.00  0.00     0.164 HD
ATOM     39  O   UNL     1      -3.073   2.850   0.384  1.00  0.00    -0.269 OA
BRANCH  37  40
ATOM     40  C   UNL     1      -5.070   2.318   1.502  1.00  0.00     0.059 A 
ATOM     41  C   UNL     1      -5.792   1.424   2.292  1.00  0.00     0.128 A 
ATOM     42  C   UNL     1      -5.573   3.621   1.366  1.00  0.00     0.040 A 
ATOM     43  N   UNL     1      -6.970   1.721   2.899  1.00  0.00    -0.226 NA
ATOM     44  C   UNL     1      -6.775   3.959   1.990  1.00  0.00     0.096 A 
ATOM     45  C   UNL     1      -7.436   2.985   2.732  1.00  0.00     0.231 A 
ATOM     46  Cl  UNL     1      -7.405   5.554   1.834  1.00  0.00    -0.079 Cl
ATOM     47  F   UNL     1      -8.600   3.285   3.336  1.00  0.00    -0.183 F 
ENDBRANCH  37  40
ENDBRANCH  27  36
ENDBRANCH  23  27
ENDBRANCH   3  23
TORSDOF 8
