MODEL        10USER    Run = 10USERUSER    Estimated Free Energy of Binding    = -10.25 kcal/mol  [=(1)+(2)+(3)-(4)]USERUSER    (1) Final Intermolecular Energy     = -12.93 kcal/molUSER        vdW + Hbond + desolv Energy     = -12.62 kcal/molUSER        Electrostatic Energy            =  -0.31 kcal/molUSER        Moving Ligand-Fixed Receptor    = -12.93 kcal/molUSER        Moving Ligand-Moving Receptor   =  +0.00 kcal/molUSER    (2) Final Total Internal Energy     =  -2.10 kcal/molUSER    (3) Torsional Free Energy           =  +2.68 kcal/molUSER    (4) Unbound System's Energy         =  -2.10 kcal/molUSERUSERREMARK SMILES COc1ccc(=O)[nH]c1C(=O)c1ccc(C(=O)N[C@@H]2CCN(C3CC3)C[C@H]2NC(=O)c2cc(N)nc(F)c2)cc1REMARK SMILES IDX 16 1 17 2 18 3 15 5 12 6 13 7 40 8 14 9 39 10 10 11 11 12REMARK SMILES IDX 9 13 3 14 4 15 5 16 8 17 6 18 7 20 2 21 1 22 19 23 20 24REMARK SMILES IDX 27 25 21 26 26 27 22 28 28 29 29 30 30 32 31 33 32 34 38 35REMARK SMILES IDX 33 36 36 37 35 38 37 39 34 40 23 43 24 44 25 45REMARK H PARENT 18 4 8 19 28 31 34 41 34 42USER                              x       y       z     vdW  Elec       q    TypeUSER                           _______ _______ _______ _____ _____    ______ ____ROOTATOM      1  C   UNL     1      35.573  43.444  20.207 -0.31 -0.01    +0.251 C  ATOM      2  O   UNL     1      34.510  42.834  20.224 -0.61 -0.02    -0.269 OA ATOM      3  N   UNL     1      35.913  44.322  19.202 -0.15 +0.06    -0.347 N  ATOM      4  H   UNL     1      36.820  44.773  19.197 +0.10 -0.02    +0.164 HD ENDROOTBRANCH   1   5ATOM      5  C   UNL     1      36.563  43.250  21.307 -0.41 +0.00    +0.039 A  ATOM      6  C   UNL     1      38.402  43.038  23.432 -0.29 +0.00    +0.024 A  ATOM      7  C   UNL     1      38.345  44.206  22.663 -0.32 +0.00    +0.013 A  ATOM      8  C   UNL     1      37.531  41.980  23.130 -0.37 +0.00    +0.013 A  ATOM      9  C   UNL     1      37.430  44.309  21.608 -0.37 +0.00    +0.014 A  ATOM     10  C   UNL     1      36.614  42.084  22.080 -0.52 +0.00    +0.014 A  BRANCH   6  11ATOM     11  C   UNL     1      39.323  42.873  24.594 -0.15 +0.01    +0.213 C  ATOM     12  O   UNL     1      40.515  43.162  24.505 -0.12 -0.00    -0.287 OA BRANCH  11  13ATOM     13  C   UNL     1      38.785  42.320  25.864 -0.17 -0.00    +0.132 A  ATOM     14  C   UNL     1      37.576  42.695  26.319 -0.23 -0.01    +0.146 A  ATOM     15  C   UNL     1      37.072  42.118  27.544 -0.39 -0.01    +0.054 A  ATOM     16  C   UNL     1      37.822  41.264  28.257 -0.27 -0.01    +0.075 A  ATOM     17  N   UNL     1      39.573  41.455  26.594 -0.13 +0.02    -0.316 N  ATOM     18  C   UNL     1      39.183  40.896  27.783 -0.21 -0.00    +0.248 A  ATOM     19  H   UNL     1      40.501  41.216  26.257 -0.10 -0.03    +0.170 HD ATOM     20  O   UNL     1      39.892  40.135  28.426 -0.66 -0.04    -0.270 OA BRANCH  14  21ATOM     21  O   UNL     1      36.715  43.528  25.646 -0.09 +0.01    -0.494 OA ATOM     22  C   UNL     1      36.872  44.882  26.079 -0.22 -0.02    +0.278 C  ENDBRANCH  14  21ENDBRANCH  11  13ENDBRANCH   6  11ENDBRANCH   1   5BRANCH   3  23ATOM     23  C   UNL     1      35.176  44.377  17.938 -0.30 -0.04    +0.107 C  ATOM     24  C   UNL     1      36.025  43.795  16.805 -0.39 -0.01    +0.042 C  ATOM     25  C   UNL     1      34.740  45.835  17.600 -0.38 -0.08    +0.118 C  ATOM     26  C   UNL     1      37.291  44.625  16.565 -0.34 -0.03    +0.087 C  ATOM     27  C   UNL     1      35.776  46.521  16.665 -0.33 -0.10    +0.111 C  ATOM     28  N   UNL     1      37.137  46.039  16.945 -0.17 +0.14    -0.298 NA BRANCH  25  29ATOM     29  N   UNL     1      33.380  45.857  17.033 -0.09 +0.33    -0.346 N  ATOM     30  C   UNL     1      33.103  45.208  15.843 -0.20 -0.20    +0.251 C  ATOM     31  H   UNL     1      32.837  46.691  17.220 -0.46 -0.25    +0.164 HD ATOM     32  O   UNL     1      33.907  44.493  15.258 -0.15 +0.16    -0.269 OA BRANCH  30  33ATOM     33  C   UNL     1      31.764  45.452  15.251 -0.40 -0.03    +0.047 A  ATOM     34  C   UNL     1      31.694  46.055  13.991 -0.45 -0.04    +0.060 A  ATOM     35  C   UNL     1      30.591  45.076  15.894 -0.31 -0.03    +0.074 A  ATOM     36  C   UNL     1      30.448  46.288  13.435 -0.50 -0.08    +0.127 A  ATOM     37  C   UNL     1      29.401  45.342  15.247 -0.12 -0.11    +0.215 A  ATOM     38  N   UNL     1      29.305  45.941  14.043 -0.18 +0.17    -0.203 NA ATOM     39  F   UNL     1      28.260  44.989  15.853 -0.05 +0.05    -0.185 F  BRANCH  36  40ATOM     40  N   UNL     1      30.335  46.862  12.172 -0.33 +0.17    -0.384 N  ATOM     41  H   UNL     1      29.800  46.293  11.526 +0.08 -0.13    +0.158 HD ATOM     42  H   UNL     1      31.272  47.052  11.829 -0.13 -0.07    +0.158 HD ENDBRANCH  36  40ENDBRANCH  30  33ENDBRANCH  25  29BRANCH  28  43ATOM     43  C   UNL     1      38.187  46.888  16.359 -0.42 -0.02    +0.056 C  ATOM     44  C   UNL     1      38.533  46.748  14.901 -0.48 -0.01    +0.021 C  ATOM     45  C   UNL     1      37.779  47.954  15.377 -0.54 -0.01    +0.021 C  ENDBRANCH  28  43ENDBRANCH   3  23TORSDOF 9TERENDMDL