MODEL        10USER    Run = 10USERUSER    Estimated Free Energy of Binding    = -10.38 kcal/mol  [=(1)+(2)+(3)-(4)]USERUSER    (1) Final Intermolecular Energy     = -12.77 kcal/molUSER        vdW + Hbond + desolv Energy     = -12.63 kcal/molUSER        Electrostatic Energy            =  -0.14 kcal/molUSER        Moving Ligand-Fixed Receptor    = -12.77 kcal/molUSER        Moving Ligand-Moving Receptor   =  +0.00 kcal/molUSER    (2) Final Total Internal Energy     =  -2.28 kcal/molUSER    (3) Torsional Free Energy           =  +2.39 kcal/molUSER    (4) Unbound System's Energy         =  -2.28 kcal/molUSERUSERREMARK SMILES COc1cc(F)c(=O)[nH]c1C(=O)c1ccc(C(=O)N[C@@H]2CCN(C3CC3)C[C@H]2NC(=O)c2cnn(C)c2)cc1REMARK SMILES IDX 13 1 14 2 15 3 16 4 38 5 39 6 11 7 12 8 10 9 3 10 4 11 5 12REMARK SMILES IDX 9 13 7 14 6 15 8 17 2 18 1 19 17 20 19 21 18 22 20 24 21 25REMARK SMILES IDX 28 26 22 27 27 28 23 29 29 30 30 31 31 33 32 34 33 35 37 36REMARK SMILES IDX 34 37 35 38 36 39 24 40 25 41 26 42REMARK H PARENT 9 16 19 23 29 32USER                              x       y       z     vdW  Elec       q    TypeUSER                           _______ _______ _______ _____ _____    ______ ____ROOTATOM      1  C   UNL     1      36.982  45.127  16.911 -0.33 -0.01    +0.024 A  ATOM      2  C   UNL     1      36.572  43.886  16.400 -0.36 -0.00    +0.013 A  ATOM      3  C   UNL     1      35.211  43.603  16.252 -0.38 -0.01    +0.014 A  ATOM      4  C   UNL     1      34.255  44.556  16.625 -0.28 -0.02    +0.039 A  ATOM      5  C   UNL     1      34.657  45.793  17.136 -0.36 -0.01    +0.014 A  ATOM      6  C   UNL     1      36.019  46.085  17.260 -0.35 -0.01    +0.013 A  ENDROOTBRANCH   1   7ATOM      7  C   UNL     1      38.418  45.468  17.110 -0.29 -0.05    +0.213 C  ATOM      8  O   UNL     1      39.131  44.811  17.860 -0.24 +0.04    -0.287 OA BRANCH   7   9ATOM      9  C   UNL     1      38.980  46.580  16.298 -0.34 -0.04    +0.132 A  ATOM     10  C   UNL     1      38.539  46.806  15.047 -0.32 -0.05    +0.149 A  ATOM     11  C   UNL     1      39.139  47.864  14.260 -0.39 -0.03    +0.094 A  ATOM     12  C   UNL     1      40.087  48.643  14.793 -0.39 -0.06    +0.191 A  ATOM     13  N   UNL     1      39.960  47.375  16.854 -0.27 +0.07    -0.314 N  ATOM     14  C   UNL     1      40.566  48.418  16.188 -0.33 -0.06    +0.284 A  ATOM     15  F   UNL     1      40.667  49.640  14.099 -0.16 +0.08    -0.201 F  ATOM     16  H   UNL     1      40.260  47.221  17.809 +0.10 -0.03    +0.170 HD ATOM     17  O   UNL     1      41.448  49.094  16.707 -1.04 -0.01    -0.266 OA BRANCH  10  18ATOM     18  O   UNL     1      37.617  46.024  14.392 -0.08 +0.19    -0.494 OA ATOM     19  C   UNL     1      36.764  46.822  13.568 -0.37 -0.14    +0.278 C  ENDBRANCH  10  18ENDBRANCH   7   9ENDBRANCH   1   7BRANCH   4  20ATOM     20  C   UNL     1      32.810  44.237  16.557 -0.20 -0.12    +0.251 C  ATOM     21  N   UNL     1      32.500  42.901  16.406 -0.12 +0.17    -0.347 N  ATOM     22  O   UNL     1      31.983  45.132  16.660 -0.63 +0.10    -0.269 OA ATOM     23  H   UNL     1      33.244  42.246  16.205 -0.35 -0.10    +0.164 HD BRANCH  21  24ATOM     24  C   UNL     1      31.113  42.428  16.396 -0.30 -0.05    +0.107 C  ATOM     25  C   UNL     1      30.242  43.331  15.521 -0.32 -0.03    +0.042 C  ATOM     26  C   UNL     1      30.537  42.312  17.837 -0.20 -0.02    +0.118 C  ATOM     27  C   UNL     1      28.784  42.854  15.509 -0.10 -0.06    +0.087 C  ATOM     28  C   UNL     1      29.105  42.890  17.930 -0.05 -0.01    +0.111 C  ATOM     29  N   UNL     1      28.306  42.379  16.811 -0.07 +0.08    -0.298 NA BRANCH  26  30ATOM     30  N   UNL     1      30.530  40.905  18.263 -0.07 +0.02    -0.346 N  ATOM     31  C   UNL     1      31.697  40.176  18.322 -0.30 -0.02    +0.254 C  ATOM     32  H   UNL     1      29.793  40.665  18.913 +0.10 -0.00    +0.164 HD ATOM     33  O   UNL     1      32.740  40.564  17.802 -0.34 +0.08    -0.269 OA BRANCH  31  34ATOM     34  C   UNL     1      31.617  38.931  19.067 -0.40 +0.01    +0.077 A  ATOM     35  C   UNL     1      31.898  37.595  18.689 -0.40 +0.03    +0.149 A  ATOM     36  C   UNL     1      31.208  38.811  20.384 -0.36 +0.02    +0.122 A  ATOM     37  N   UNL     1      31.670  36.715  19.669 -0.68 -0.06    -0.181 NA ATOM     38  N   UNL     1      31.260  37.485  20.692 -0.31 -0.04    -0.275 N  ATOM     39  C   UNL     1      30.914  36.875  21.953 -0.38 +0.01    +0.173 C  ENDBRANCH  31  34ENDBRANCH  26  30BRANCH  29  40ATOM     40  C   UNL     1      26.860  42.392  17.073 -0.23 -0.01    +0.056 C  ATOM     41  C   UNL     1      26.065  43.657  17.213 -0.39 -0.00    +0.021 C  ATOM     42  C   UNL     1      26.287  42.775  18.408 -0.36 -0.00    +0.021 C  ENDBRANCH  29  40ENDBRANCH  21  24ENDBRANCH   4  20TORSDOF 8TERENDMDL