MODEL        2USER    Run = 2USERUSER    Estimated Free Energy of Binding    = -11.27 kcal/mol  [=(1)+(2)+(3)-(4)]USERUSER    (1) Final Intermolecular Energy     = -14.25 kcal/molUSER        vdW + Hbond + desolv Energy     = -13.65 kcal/molUSER        Electrostatic Energy            =  -0.60 kcal/molUSER        Moving Ligand-Fixed Receptor    = -14.25 kcal/molUSER        Moving Ligand-Moving Receptor   =  +0.00 kcal/molUSER    (2) Final Total Internal Energy     =  -2.74 kcal/molUSER    (3) Torsional Free Energy           =  +2.98 kcal/molUSER    (4) Unbound System's Energy         =  -2.74 kcal/molUSERUSERREMARK SMILES COc1ccc(O)c(C(=O)c2ccc(C(=O)N[C@@H]3CCN(CC(=O)N(C)C)C[C@H]3NC(=O)c3ccncc3)cc2)c1FREMARK SMILES IDX 11 1 12 2 13 3 14 4 39 5 40 6 9 7 10 8 8 9 3 10 4 11 41 12REMARK SMILES IDX 5 13 6 14 42 15 2 16 1 17 7 18 15 20 17 21 16 22 18 24 19 25REMARK SMILES IDX 29 26 20 27 28 28 21 29 30 30 31 31 32 33 33 34 34 35 38 36REMARK SMILES IDX 35 37 37 38 36 39 22 40 23 41 25 42 24 43 26 44 27 45REMARK H PARENT 7 19 17 23 30 32USER                              x       y       z     vdW  Elec       q    TypeUSER                           _______ _______ _______ _____ _____    ______ ____ROOTATOM      1  C   UNL     1      41.057  46.048  20.496 -0.31 +0.00    +0.023 A  ATOM      2  C   UNL     1      40.454  45.173  21.408 -0.30 +0.00    +0.013 A  ATOM      3  C   UNL     1      39.215  44.597  21.104 -0.33 +0.00    +0.014 A  ATOM      4  C   UNL     1      38.585  44.866  19.880 -0.34 -0.00    +0.039 A  ATOM      5  C   UNL     1      39.194  45.734  18.965 -0.39 -0.00    +0.014 A  ATOM      6  C   UNL     1      40.431  46.315  19.270 -0.34 -0.00    +0.013 A  ENDROOTBRANCH   1   7ATOM      7  C   UNL     1      42.389  46.653  20.748 -0.30 +0.04    +0.199 C  ATOM      8  O   UNL     1      43.226  46.632  19.842 -0.27 -0.13    -0.288 OA BRANCH   7   9ATOM      9  C   UNL     1      42.795  47.231  22.047 -0.27 +0.02    +0.104 A  ATOM     10  C   UNL     1      42.268  48.111  24.265 -0.24 +0.02    +0.155 A  ATOM     11  C   UNL     1      43.626  48.348  24.490 -0.26 +0.01    +0.053 A  ATOM     12  C   UNL     1      41.865  47.559  23.038 -0.16 +0.02    +0.179 A  ATOM     13  C   UNL     1      44.561  48.053  23.495 -0.24 +0.01    +0.051 A  ATOM     14  C   UNL     1      44.146  47.513  22.279 -0.24 +0.05    +0.130 A  ATOM     15  F   UNL     1      40.551  47.380  22.813 +0.01 -0.02    -0.202 F  BRANCH  10  16ATOM     16  O   UNL     1      41.260  48.378  25.152 -0.09 -0.06    -0.494 OA ATOM     17  C   UNL     1      41.632  48.920  26.413 -0.18 +0.03    +0.278 C  ENDBRANCH  10  16BRANCH  14  18ATOM     18  O   UNL     1      45.124  47.292  21.347 -0.65 -0.59    -0.507 OA ATOM     19  H   UNL     1      44.889  47.800  20.536 -0.30 +0.21    +0.293 HD ENDBRANCH  14  18ENDBRANCH   7   9ENDBRANCH   1   7BRANCH   4  20ATOM     20  C   UNL     1      37.263  44.231  19.617 -0.25 -0.02    +0.251 C  ATOM     21  N   UNL     1      36.366  44.954  18.856 -0.11 +0.07    -0.347 N  ATOM     22  O   UNL     1      37.019  43.109  20.054 -0.24 +0.01    -0.269 OA ATOM     23  H   UNL     1      36.704  45.757  18.334 +0.09 -0.05    +0.164 HD BRANCH  21  24ATOM     24  C   UNL     1      35.087  44.370  18.436 -0.32 -0.03    +0.107 C  ATOM     25  C   UNL     1      34.404  43.603  19.575 -0.44 -0.00    +0.042 C  ATOM     26  C   UNL     1      35.267  43.522  17.155 -0.33 -0.04    +0.118 C  ATOM     27  C   UNL     1      34.287  42.108  19.288 -0.38 -0.00    +0.087 C  ATOM     28  C   UNL     1      33.974  42.712  16.915 -0.37 -0.05    +0.112 C  ATOM     29  N   UNL     1      33.624  41.794  18.016 -0.20 +0.08    -0.292 NA BRANCH  26  30ATOM     30  N   UNL     1      35.603  44.399  16.028 -0.11 +0.16    -0.346 N  ATOM     31  C   UNL     1      36.844  44.991  15.913 -0.24 -0.10    +0.251 C  ATOM     32  H   UNL     1      34.825  44.762  15.486 +0.11 -0.10    +0.164 HD ATOM     33  O   UNL     1      37.771  44.781  16.684 -0.22 +0.07    -0.269 OA BRANCH  31  34ATOM     34  C   UNL     1      37.000  45.974  14.807 -0.36 -0.02    +0.042 A  ATOM     35  C   UNL     1      37.537  47.245  15.013 -0.42 -0.02    +0.034 A  ATOM     36  C   UNL     1      36.584  45.600  13.527 -0.45 -0.01    +0.034 A  ATOM     37  C   UNL     1      37.667  48.077  13.916 -0.45 -0.05    +0.112 A  ATOM     38  C   UNL     1      36.756  46.504  12.498 -0.54 -0.04    +0.112 A  ATOM     39  N   UNL     1      37.295  47.730  12.664 -0.97 +0.06    -0.265 NA ENDBRANCH  31  34ENDBRANCH  26  30BRANCH  29  40ATOM     40  C   UNL     1      32.157  41.640  18.131 -0.30 -0.04    +0.185 C  BRANCH  40  41ATOM     41  C   UNL     1      31.722  40.346  18.862 -0.29 +0.00    +0.236 C  ATOM     42  N   UNL     1      30.576  39.712  18.364 -0.14 -0.02    -0.348 N  ATOM     43  O   UNL     1      32.328  39.898  19.836 -0.88 -0.11    -0.273 OA ATOM     44  C   UNL     1      30.141  38.484  19.010 -0.36 +0.03    +0.146 C  ATOM     45  C   UNL     1      30.024  39.956  17.041 -0.29 +0.00    +0.146 C  ENDBRANCH  40  41ENDBRANCH  29  40ENDBRANCH  21  24ENDBRANCH   4  20TORSDOF 10TERENDMDL