REMARK SMILES COc1ccc(O)c(C(=O)c2ccc(C(=O)N[C@@H]3CCN(C(C)=O)C[C@H]3NC(=O)c3ccncc3)cc2)c1F
REMARK SMILES IDX 11 1 12 2 13 3 14 4 36 5 37 6 9 7 10 8 8 9 3 10 4 11 38 12
REMARK SMILES IDX 5 13 6 14 39 15 2 16 1 17 7 18 15 20 17 21 16 22 18 24 19 25
REMARK SMILES IDX 26 26 20 27 25 28 21 29 27 30 28 31 29 33 30 34 31 35 35 36
REMARK SMILES IDX 32 37 34 38 33 39 22 40 23 41 24 42
REMARK H PARENT 7 19 17 23 27 32
ROOT
ATOM      1  C   UNL     1       3.201   1.357  -1.009  1.00  0.00     0.023 A 
ATOM      2  C   UNL     1       2.104   1.493  -1.872  1.00  0.00     0.013 A 
ATOM      3  C   UNL     1       1.010   0.626  -1.777  1.00  0.00     0.014 A 
ATOM      4  C   UNL     1       1.002  -0.388  -0.812  1.00  0.00     0.039 A 
ATOM      5  C   UNL     1       2.099  -0.526   0.049  1.00  0.00     0.014 A 
ATOM      6  C   UNL     1       3.190   0.345  -0.042  1.00  0.00     0.013 A 
ENDROOT
BRANCH   1   7
ATOM      7  C   UNL     1       4.342   2.303  -1.170  1.00  0.00     0.199 C 
ATOM      8  O   UNL     1       4.305   3.204  -2.003  1.00  0.00    -0.288 OA
BRANCH   7   9
ATOM      9  C   UNL     1       5.550   2.171  -0.348  1.00  0.00     0.104 A 
ATOM     10  C   UNL     1       7.695   1.098   0.026  1.00  0.00     0.155 A 
ATOM     11  C   UNL     1       7.904   1.935   1.127  1.00  0.00     0.053 A 
ATOM     12  C   UNL     1       6.510   1.228  -0.708  1.00  0.00     0.179 A 
ATOM     13  C   UNL     1       6.938   2.883   1.493  1.00  0.00     0.051 A 
ATOM     14  C   UNL     1       5.761   2.998   0.755  1.00  0.00     0.130 A 
ATOM     15  F   UNL     1       6.290   0.421  -1.760  1.00  0.00    -0.202 F 
BRANCH  10  16
ATOM     16  O   UNL     1       8.557   0.128  -0.407  1.00  0.00    -0.494 OA
ATOM     17  C   UNL     1       9.813   0.028   0.252  1.00  0.00     0.278 C 
ENDBRANCH  10  16
BRANCH  14  18
ATOM     18  O   UNL     1       4.804   3.896   1.131  1.00  0.00    -0.507 OA
ATOM     19  H   UNL     1       5.178   4.521   1.774  1.00  0.00     0.293 HD
ENDBRANCH  14  18
ENDBRANCH   7   9
ENDBRANCH   1   7
BRANCH   4  20
ATOM     20  C   UNL     1      -0.124  -1.359  -0.690  1.00  0.00     0.251 C 
ATOM     21  N   UNL     1      -1.341  -0.953  -1.204  1.00  0.00    -0.347 N 
ATOM     22  O   UNL     1       0.049  -2.436  -0.130  1.00  0.00    -0.269 OA
ATOM     23  H   UNL     1      -1.486   0.059  -1.177  1.00  0.00     0.164 HD
BRANCH  21  24
ATOM     24  C   UNL     1      -2.558  -1.729  -0.965  1.00  0.00     0.108 C 
ATOM     25  C   UNL     1      -2.544  -3.104  -1.661  1.00  0.00     0.048 C 
ATOM     26  C   UNL     1      -3.824  -0.913  -1.397  1.00  0.00     0.124 C 
ATOM     27  C   UNL     1      -3.778  -3.921  -1.246  1.00  0.00     0.121 C 
ATOM     28  C   UNL     1      -4.946  -1.852  -1.877  1.00  0.00     0.146 C 
ATOM     29  N   UNL     1      -4.955  -3.065  -1.067  1.00  0.00    -0.341 N 
BRANCH  26  30
ATOM     30  N   UNL     1      -4.299  -0.072  -0.294  1.00  0.00    -0.345 N 
ATOM     31  C   UNL     1      -3.615   1.047   0.120  1.00  0.00     0.251 C 
ATOM     32  H   UNL     1      -5.117  -0.412   0.207  1.00  0.00     0.164 HD
ATOM     33  O   UNL     1      -2.601   1.443  -0.449  1.00  0.00    -0.269 OA
BRANCH  31  34
ATOM     34  C   UNL     1      -4.151   1.779   1.302  1.00  0.00     0.042 A 
ATOM     35  C   UNL     1      -5.037   1.204   2.215  1.00  0.00     0.034 A 
ATOM     36  C   UNL     1      -3.720   3.093   1.503  1.00  0.00     0.034 A 
ATOM     37  C   UNL     1      -5.462   1.978   3.281  1.00  0.00     0.112 A 
ATOM     38  C   UNL     1      -4.205   3.781   2.599  1.00  0.00     0.112 A 
ATOM     39  N   UNL     1      -5.069   3.252   3.491  1.00  0.00    -0.265 NA
ENDBRANCH  31  34
ENDBRANCH  26  30
BRANCH  29  40
ATOM     40  C   UNL     1      -5.707  -3.065   0.102  1.00  0.00     0.219 C 
ATOM     41  C   UNL     1      -5.772  -4.358   0.874  1.00  0.00     0.114 C 
ATOM     42  O   UNL     1      -6.287  -2.055   0.509  1.00  0.00    -0.275 OA
ENDBRANCH  29  40
ENDBRANCH  21  24
ENDBRANCH   4  20
TORSDOF 9
