MODEL        9USER    Run = 9USERUSER    Estimated Free Energy of Binding    =  -9.94 kcal/mol  [=(1)+(2)+(3)-(4)]USERUSER    (1) Final Intermolecular Energy     = -12.63 kcal/molUSER        vdW + Hbond + desolv Energy     = -12.17 kcal/molUSER        Electrostatic Energy            =  -0.46 kcal/molUSER        Moving Ligand-Fixed Receptor    = -12.63 kcal/molUSER        Moving Ligand-Moving Receptor   =  +0.00 kcal/molUSER    (2) Final Total Internal Energy     =  -3.10 kcal/molUSER    (3) Torsional Free Energy           =  +2.68 kcal/molUSER    (4) Unbound System's Energy         =  -3.10 kcal/molUSERUSERREMARK SMILES COc1ccc(O)c(C(=O)c2ccc(C(=O)N[C@@H]3CCN(C(C)=O)C[C@H]3NC(=O)c3ccncc3)cc2)c1FREMARK SMILES IDX 11 1 12 2 13 3 14 4 36 5 37 6 9 7 10 8 8 9 3 10 4 11 38 12REMARK SMILES IDX 5 13 6 14 39 15 2 16 1 17 7 18 15 20 17 21 16 22 18 24 19 25REMARK SMILES IDX 26 26 20 27 25 28 21 29 27 30 28 31 29 33 30 34 31 35 35 36REMARK SMILES IDX 32 37 34 38 33 39 22 40 23 41 24 42REMARK H PARENT 7 19 17 23 27 32USER                              x       y       z     vdW  Elec       q    TypeUSER                           _______ _______ _______ _____ _____    ______ ____ROOTATOM      1  C   UNL     1      36.622  45.044  16.816 -0.32 -0.01    +0.023 A  ATOM      2  C   UNL     1      36.266  43.688  16.767 -0.36 -0.00    +0.013 A  ATOM      3  C   UNL     1      34.921  43.303  16.793 -0.38 -0.01    +0.014 A  ATOM      4  C   UNL     1      33.916  44.274  16.866 -0.28 -0.02    +0.039 A  ATOM      5  C   UNL     1      34.272  45.628  16.917 -0.32 -0.01    +0.014 A  ATOM      6  C   UNL     1      35.616  46.014  16.885 -0.35 -0.01    +0.013 A  ENDROOTBRANCH   1   7ATOM      7  C   UNL     1      38.073  45.389  16.799 -0.29 -0.06    +0.199 C  ATOM      8  O   UNL     1      38.870  44.808  17.530 -0.22 +0.04    -0.288 OA BRANCH   7   9ATOM      9  C   UNL     1      38.584  46.447  15.921 -0.34 -0.03    +0.104 A  ATOM     10  C   UNL     1      38.474  47.605  13.790 -0.34 -0.04    +0.155 A  ATOM     11  C   UNL     1      39.455  48.494  14.240 -0.41 -0.02    +0.053 A  ATOM     12  C   UNL     1      38.043  46.583  14.644 -0.29 -0.07    +0.179 A  ATOM     13  C   UNL     1      40.003  48.358  15.524 -0.52 -0.02    +0.051 A  ATOM     14  C   UNL     1      39.567  47.333  16.362 -0.39 -0.04    +0.130 A  ATOM     15  F   UNL     1      37.110  45.713  14.220 -0.08 +0.08    -0.202 F  BRANCH  10  16ATOM     16  O   UNL     1      37.887  47.631  12.554 -0.71 +0.03    -0.494 OA ATOM     17  C   UNL     1      36.471  47.746  12.506 -0.49 -0.12    +0.278 C  ENDBRANCH  10  16BRANCH  14  18ATOM     18  O   UNL     1      40.124  47.177  17.598 -0.18 +0.09    -0.507 OA ATOM     19  H   UNL     1      40.030  46.254  17.885 +0.20 -0.03    +0.293 HD ENDBRANCH  14  18ENDBRANCH   7   9ENDBRANCH   1   7BRANCH   4  20ATOM     20  C   UNL     1      32.469  43.916  16.929 -0.19 -0.09    +0.251 C  ATOM     21  N   UNL     1      32.152  42.600  16.650 -0.10 +0.16    -0.347 N  ATOM     22  O   UNL     1      31.633  44.774  17.186 -0.54 +0.04    -0.269 OA ATOM     23  H   UNL     1      32.800  42.144  16.004 -0.48 -0.12    +0.164 HD BRANCH  21  24ATOM     24  C   UNL     1      30.760  42.178  16.484 -0.31 -0.04    +0.108 C  ATOM     25  C   UNL     1      29.936  43.146  15.613 -0.29 -0.03    +0.048 C  ATOM     26  C   UNL     1      30.075  41.983  17.879 -0.11 -0.02    +0.124 C  ATOM     27  C   UNL     1      28.536  42.567  15.356 +0.01 -0.09    +0.121 C  ATOM     28  C   UNL     1      28.568  42.290  17.799 -0.08 -0.02    +0.146 C  ATOM     29  N   UNL     1      28.037  41.829  16.521 -0.06 +0.09    -0.341 N  BRANCH  26  30ATOM     30  N   UNL     1      30.292  40.621  18.376 -0.06 +0.01    -0.345 N  ATOM     31  C   UNL     1      31.475  40.236  18.963 -0.26 +0.01    +0.251 C  ATOM     32  H   UNL     1      29.550  39.951  18.183 +0.09 +0.01    +0.164 HD ATOM     33  O   UNL     1      32.395  41.025  19.161 -0.50 -0.01    -0.269 OA BRANCH  31  34ATOM     34  C   UNL     1      31.610  38.806  19.358 -0.42 +0.01    +0.042 A  ATOM     35  C   UNL     1      31.060  38.286  20.532 -0.45 +0.01    +0.034 A  ATOM     36  C   UNL     1      32.303  37.955  18.493 -0.46 +0.00    +0.034 A  ATOM     37  C   UNL     1      31.242  36.939  20.792 -0.41 +0.02    +0.112 A  ATOM     38  C   UNL     1      32.430  36.625  18.846 -0.42 +0.03    +0.112 A  ATOM     39  N   UNL     1      31.916  36.099  19.978 -0.31 -0.07    -0.265 NA ENDBRANCH  31  34ENDBRANCH  26  30BRANCH  29  40ATOM     40  C   UNL     1      27.586  40.517  16.436 -0.21 +0.01    +0.219 C  ATOM     41  C   UNL     1      26.318  40.278  15.657 -0.35 +0.01    +0.114 C  ATOM     42  O   UNL     1      28.195  39.579  16.957 -0.16 -0.11    -0.275 OA ENDBRANCH  29  40ENDBRANCH  21  24ENDBRANCH   4  20TORSDOF 9TERENDMDL