REMARK SMILES COc1ccc(O)c(C(=O)c2ccc(C(=O)N[C@@H]3CCN(C)C[C@H]3NC(=O)c3cncnc3)cc2)c1F
REMARK SMILES IDX 11 1 12 2 13 3 14 4 34 5 35 6 9 7 10 8 8 9 3 10 4 11 36 12
REMARK SMILES IDX 5 13 6 14 37 15 2 16 1 17 7 18 15 20 17 21 16 22 18 24 19 25
REMARK SMILES IDX 24 26 20 27 23 28 21 29 22 30 25 31 26 32 27 34 28 35 29 36
REMARK SMILES IDX 33 37 30 38 32 39 31 40
REMARK H PARENT 7 19 17 23 25 33
ROOT
ATOM      1  C   UNL     1       3.464  -1.208   0.387  1.00  0.00     0.023 A 
ATOM      2  C   UNL     1       2.477  -1.425  -0.583  1.00  0.00     0.013 A 
ATOM      3  C   UNL     1       1.126  -1.350  -0.229  1.00  0.00     0.014 A 
ATOM      4  C   UNL     1       0.764  -1.074   1.097  1.00  0.00     0.039 A 
ATOM      5  C   UNL     1       1.756  -0.866   2.065  1.00  0.00     0.014 A 
ATOM      6  C   UNL     1       3.105  -0.949   1.715  1.00  0.00     0.013 A 
ENDROOT
BRANCH   1   7
ATOM      7  C   UNL     1       4.901  -1.286   0.049  1.00  0.00     0.199 C 
ATOM      8  O   UNL     1       5.639  -1.965   0.765  1.00  0.00    -0.288 OA
BRANCH   7   9
ATOM      9  C   UNL     1       5.482  -0.619  -1.140  1.00  0.00     0.104 A 
ATOM     10  C   UNL     1       5.477   1.152  -2.820  1.00  0.00     0.155 A 
ATOM     11  C   UNL     1       6.621   0.602  -3.402  1.00  0.00     0.053 A 
ATOM     12  C   UNL     1       4.922   0.537  -1.688  1.00  0.00     0.179 A 
ATOM     13  C   UNL     1       7.208  -0.538  -2.846  1.00  0.00     0.051 A 
ATOM     14  C   UNL     1       6.648  -1.135  -1.718  1.00  0.00     0.130 A 
ATOM     15  F   UNL     1       3.844   1.100  -1.118  1.00  0.00    -0.202 F 
BRANCH  10  16
ATOM     16  O   UNL     1       4.822   2.269  -3.263  1.00  0.00    -0.494 OA
ATOM     17  C   UNL     1       5.368   2.946  -4.388  1.00  0.00     0.278 C 
ENDBRANCH  10  16
BRANCH  14  18
ATOM     18  O   UNL     1       7.303  -2.233  -1.227  1.00  0.00    -0.507 OA
ATOM     19  H   UNL     1       6.925  -2.440  -0.340  1.00  0.00     0.293 HD
ENDBRANCH  14  18
ENDBRANCH   7   9
ENDBRANCH   1   7
BRANCH   4  20
ATOM     20  C   UNL     1      -0.657  -0.951   1.508  1.00  0.00     0.251 C 
ATOM     21  N   UNL     1      -1.558  -1.779   0.875  1.00  0.00    -0.347 N 
ATOM     22  O   UNL     1      -0.986  -0.138   2.367  1.00  0.00    -0.269 OA
ATOM     23  H   UNL     1      -1.228  -2.450   0.195  1.00  0.00     0.164 HD
BRANCH  21  24
ATOM     24  C   UNL     1      -2.999  -1.736   1.159  1.00  0.00     0.107 C 
ATOM     25  C   UNL     1      -3.651  -3.061   0.759  1.00  0.00     0.042 C 
ATOM     26  C   UNL     1      -3.705  -0.541   0.461  1.00  0.00     0.118 C 
ATOM     27  C   UNL     1      -5.154  -3.038   1.019  1.00  0.00     0.086 C 
ATOM     28  C   UNL     1      -5.233  -0.635   0.682  1.00  0.00     0.111 C 
ATOM     29  N   UNL     1      -5.785  -1.942   0.281  1.00  0.00    -0.304 NA
ATOM     30  C   UNL     1      -7.236  -1.959   0.472  1.00  0.00     0.105 C 
BRANCH  26  31
ATOM     31  N   UNL     1      -3.178   0.741   0.948  1.00  0.00    -0.346 N 
ATOM     32  C   UNL     1      -3.362   1.918   0.260  1.00  0.00     0.254 C 
ATOM     33  H   UNL     1      -2.454   0.672   1.661  1.00  0.00     0.164 HD
ATOM     34  O   UNL     1      -4.051   1.995  -0.752  1.00  0.00    -0.269 OA
BRANCH  32  35
ATOM     35  C   UNL     1      -2.678   3.126   0.765  1.00  0.00     0.076 A 
ATOM     36  C   UNL     1      -2.655   4.272  -0.006  1.00  0.00     0.128 A 
ATOM     37  C   UNL     1      -2.053   3.238   1.990  1.00  0.00     0.128 A 
ATOM     38  N   UNL     1      -2.062   5.430   0.373  1.00  0.00    -0.244 NA
ATOM     39  N   UNL     1      -1.446   4.369   2.425  1.00  0.00    -0.244 NA
ATOM     40  C   UNL     1      -1.482   5.415   1.583  1.00  0.00     0.221 A 
ENDBRANCH  32  35
ENDBRANCH  26  31
ENDBRANCH  21  24
ENDBRANCH   4  20
TORSDOF 8
