MODEL        7USER    Run = 7USERUSER    Estimated Free Energy of Binding    = -10.10 kcal/mol  [=(1)+(2)+(3)-(4)]USERUSER    (1) Final Intermolecular Energy     = -12.49 kcal/molUSER        vdW + Hbond + desolv Energy     = -12.34 kcal/molUSER        Electrostatic Energy            =  -0.14 kcal/molUSER        Moving Ligand-Fixed Receptor    = -12.49 kcal/molUSER        Moving Ligand-Moving Receptor   =  +0.00 kcal/molUSER    (2) Final Total Internal Energy     =  -2.82 kcal/molUSER    (3) Torsional Free Energy           =  +2.39 kcal/molUSER    (4) Unbound System's Energy         =  -2.82 kcal/molUSERUSERREMARK SMILES COc1ccc(O)c(C(=O)c2ccc(C(=O)N[C@@H]3CCN(C)C[C@H]3NC(=O)c3cncnc3)cc2)c1FREMARK SMILES IDX 11 1 12 2 13 3 14 4 34 5 35 6 9 7 10 8 8 9 3 10 4 11 36 12REMARK SMILES IDX 5 13 6 14 37 15 2 16 1 17 7 18 15 20 17 21 16 22 18 24 19 25REMARK SMILES IDX 24 26 20 27 23 28 21 29 22 30 25 31 26 32 27 34 28 35 29 36REMARK SMILES IDX 33 37 30 38 32 39 31 40REMARK H PARENT 7 19 17 23 25 33USER                              x       y       z     vdW  Elec       q    TypeUSER                           _______ _______ _______ _____ _____    ______ ____ROOTATOM      1  C   UNL     1      39.014  46.852  16.291 -0.42 -0.01    +0.023 A  ATOM      2  C   UNL     1      40.224  46.912  16.995 -0.49 -0.00    +0.013 A  ATOM      3  C   UNL     1      40.349  46.246  18.219 -0.47 -0.00    +0.014 A  ATOM      4  C   UNL     1      39.260  45.535  18.743 -0.40 -0.00    +0.039 A  ATOM      5  C   UNL     1      38.050  45.486  18.038 -0.37 -0.00    +0.014 A  ATOM      6  C   UNL     1      37.921  46.158  16.821 -0.38 -0.00    +0.013 A  ENDROOTBRANCH   1   7ATOM      7  C   UNL     1      38.846  47.550  14.998 -0.40 -0.07    +0.199 C  ATOM      8  O   UNL     1      39.583  48.503  14.742 -0.36 +0.11    -0.288 OA BRANCH   7   9ATOM      9  C   UNL     1      37.858  47.122  13.979 -0.41 -0.04    +0.104 A  ATOM     10  C   UNL     1      36.812  45.401  12.600 -0.41 -0.06    +0.155 A  ATOM     11  C   UNL     1      35.972  46.365  12.037 -0.58 -0.03    +0.053 A  ATOM     12  C   UNL     1      37.744  45.791  13.572 -0.27 -0.06    +0.179 A  ATOM     13  C   UNL     1      36.056  47.695  12.456 -0.59 -0.03    +0.051 A  ATOM     14  C   UNL     1      36.985  48.066  13.428 -0.48 -0.06    +0.130 A  ATOM     15  F   UNL     1      38.518  44.846  14.131 +0.00 +0.05    -0.202 F  BRANCH  10  16ATOM     16  O   UNL     1      36.814  44.070  12.282 -0.14 +0.15    -0.494 OA ATOM     17  C   UNL     1      37.301  43.704  10.997 -0.30 -0.08    +0.278 C  ENDBRANCH  10  16BRANCH  14  18ATOM     18  O   UNL     1      36.980  49.385  13.795 -0.14 +0.32    -0.507 OA ATOM     19  H   UNL     1      37.887  49.616  14.106 -0.32 -0.24    +0.293 HD ENDBRANCH  14  18ENDBRANCH   7   9ENDBRANCH   1   7BRANCH   4  20ATOM     20  C   UNL     1      39.360  44.786  20.021 -0.27 -0.00    +0.251 C  ATOM     21  N   UNL     1      38.175  44.386  20.598 -0.15 +0.00    -0.347 N  ATOM     22  O   UNL     1      40.458  44.554  20.519 -0.22 -0.01    -0.269 OA ATOM     23  H   UNL     1      37.301  44.579  20.130 +0.10 -0.01    +0.164 HD BRANCH  21  24ATOM     24  C   UNL     1      38.128  43.669  21.880 -0.33 +0.00    +0.107 C  ATOM     25  C   UNL     1      36.854  42.825  21.961 -0.47 +0.00    +0.042 C  ATOM     26  C   UNL     1      38.234  44.627  23.099 -0.30 +0.01    +0.118 C  ATOM     27  C   UNL     1      36.764  42.088  23.293 -0.47 +0.01    +0.086 C  ATOM     28  C   UNL     1      38.035  43.830  24.409 -0.26 +0.01    +0.111 C  ATOM     29  N   UNL     1      36.791  43.037  24.408 -0.19 -0.02    -0.304 NA ATOM     30  C   UNL     1      36.635  42.339  25.685 -0.40 -0.01    +0.105 C  BRANCH  26  31ATOM     31  N   UNL     1      39.520  45.337  23.102 -0.09 -0.02    -0.346 N  ATOM     32  C   UNL     1      39.615  46.680  23.383 -0.20 +0.02    +0.254 C  ATOM     33  H   UNL     1      40.284  44.857  22.629 +0.09 +0.01    +0.164 HD ATOM     34  O   UNL     1      38.653  47.354  23.737 -0.34 -0.04    -0.269 OA BRANCH  32  35ATOM     35  C   UNL     1      40.934  47.326  23.227 -0.17 +0.01    +0.076 A  ATOM     36  C   UNL     1      41.889  46.745  22.415 -0.19 +0.02    +0.128 A  ATOM     37  C   UNL     1      41.319  48.512  23.817 -0.27 +0.02    +0.128 A  ATOM     38  N   UNL     1      43.122  47.264  22.203 -0.21 -0.06    -0.244 NA ATOM     39  N   UNL     1      42.536  49.081  23.641 -0.86 -0.08    -0.244 NA ATOM     40  C   UNL     1      43.382  48.418  22.835 -0.20 +0.05    +0.221 A  ENDBRANCH  32  35ENDBRANCH  26  31ENDBRANCH  21  24ENDBRANCH   4  20TORSDOF 8TERENDMDL