REMARK SMILES COc1ccc(O)c(C(=O)c2ccc(C(=O)N[C@@H]3CCN(CC(=O)N(C)C)C[C@H]3NC(=O)c3ccncc3)cc2)c1F
REMARK SMILES IDX 11 1 12 2 13 3 14 4 39 5 40 6 9 7 10 8 8 9 3 10 4 11 41 12
REMARK SMILES IDX 5 13 6 14 42 15 2 16 1 17 7 18 15 20 17 21 16 22 18 24 19 25
REMARK SMILES IDX 29 26 20 27 28 28 21 29 30 30 31 31 32 33 33 34 34 35 38 36
REMARK SMILES IDX 35 37 37 38 36 39 22 40 23 41 25 42 24 43 26 44 27 45
REMARK H PARENT 7 19 17 23 30 32
ROOT
ATOM      1  C   UNL     1       4.392  -0.691   0.873  1.00  0.00     0.023 A 
ATOM      2  C   UNL     1       4.170   0.631   0.469  1.00  0.00     0.013 A 
ATOM      3  C   UNL     1       2.883   1.039   0.101  1.00  0.00     0.014 A 
ATOM      4  C   UNL     1       1.806   0.142   0.160  1.00  0.00     0.039 A 
ATOM      5  C   UNL     1       2.028  -1.178   0.573  1.00  0.00     0.014 A 
ATOM      6  C   UNL     1       3.316  -1.589   0.937  1.00  0.00     0.013 A 
ENDROOT
BRANCH   1   7
ATOM      7  C   UNL     1       5.727  -1.166   1.315  1.00  0.00     0.199 C 
ATOM      8  O   UNL     1       5.787  -1.969   2.249  1.00  0.00    -0.288 OA
BRANCH   7   9
ATOM      9  C   UNL     1       7.001  -0.687   0.736  1.00  0.00     0.104 A 
ATOM     10  C   UNL     1       8.341   0.104  -1.147  1.00  0.00     0.155 A 
ATOM     11  C   UNL     1       9.456   0.197  -0.311  1.00  0.00     0.053 A 
ATOM     12  C   UNL     1       7.122  -0.346  -0.614  1.00  0.00     0.179 A 
ATOM     13  C   UNL     1       9.354  -0.170   1.033  1.00  0.00     0.051 A 
ATOM     14  C   UNL     1       8.140  -0.623   1.547  1.00  0.00     0.130 A 
ATOM     15  F   UNL     1       6.068  -0.478  -1.439  1.00  0.00    -0.202 F 
BRANCH  10  16
ATOM     16  O   UNL     1       8.323   0.414  -2.481  1.00  0.00    -0.494 OA
ATOM     17  C   UNL     1       9.553   0.819  -3.069  1.00  0.00     0.278 C 
ENDBRANCH  10  16
BRANCH  14  18
ATOM     18  O   UNL     1       8.140  -1.000   2.863  1.00  0.00    -0.507 OA
ATOM     19  H   UNL     1       7.318  -1.516   3.029  1.00  0.00     0.293 HD
ENDBRANCH  14  18
ENDBRANCH   7   9
ENDBRANCH   1   7
BRANCH   4  20
ATOM     20  C   UNL     1       0.461   0.632  -0.253  1.00  0.00     0.251 C 
ATOM     21  N   UNL     1      -0.630  -0.003   0.306  1.00  0.00    -0.347 N 
ATOM     22  O   UNL     1       0.360   1.569  -1.040  1.00  0.00    -0.269 OA
ATOM     23  H   UNL     1      -0.487  -0.600   1.115  1.00  0.00     0.164 HD
BRANCH  21  24
ATOM     24  C   UNL     1      -1.994   0.482   0.063  1.00  0.00     0.107 C 
ATOM     25  C   UNL     1      -2.333   1.701   0.930  1.00  0.00     0.042 C 
ATOM     26  C   UNL     1      -3.018  -0.668   0.205  1.00  0.00     0.118 C 
ATOM     27  C   UNL     1      -3.451   1.416   1.930  1.00  0.00     0.087 C 
ATOM     28  C   UNL     1      -4.439  -0.064   0.219  1.00  0.00     0.112 C 
ATOM     29  N   UNL     1      -4.678   0.889   1.320  1.00  0.00    -0.292 NA
BRANCH  26  30
ATOM     30  N   UNL     1      -2.825  -1.635  -0.881  1.00  0.00    -0.346 N 
ATOM     31  C   UNL     1      -3.317  -2.922  -0.805  1.00  0.00     0.251 C 
ATOM     32  H   UNL     1      -2.105  -1.417  -1.563  1.00  0.00     0.164 HD
ATOM     33  O   UNL     1      -4.004  -3.333   0.122  1.00  0.00    -0.269 OA
BRANCH  31  34
ATOM     34  C   UNL     1      -2.921  -3.841  -1.905  1.00  0.00     0.042 A 
ATOM     35  C   UNL     1      -2.633  -3.381  -3.190  1.00  0.00     0.034 A 
ATOM     36  C   UNL     1      -2.848  -5.208  -1.630  1.00  0.00     0.034 A 
ATOM     37  C   UNL     1      -2.247  -4.311  -4.138  1.00  0.00     0.112 A 
ATOM     38  C   UNL     1      -2.454  -6.056  -2.646  1.00  0.00     0.112 A 
ATOM     39  N   UNL     1      -2.145  -5.635  -3.891  1.00  0.00    -0.265 NA
ENDBRANCH  31  34
ENDBRANCH  26  30
BRANCH  29  40
ATOM     40  C   UNL     1      -5.639   1.938   0.914  1.00  0.00     0.185 C 
BRANCH  40  41
ATOM     41  C   UNL     1      -6.225   2.740   2.101  1.00  0.00     0.236 C 
ATOM     42  N   UNL     1      -7.004   3.856   1.767  1.00  0.00    -0.348 N 
ATOM     43  O   UNL     1      -6.013   2.438   3.276  1.00  0.00    -0.273 OA
ATOM     44  C   UNL     1      -7.589   4.629   2.851  1.00  0.00     0.146 C 
ATOM     45  C   UNL     1      -7.590   4.073   0.454  1.00  0.00     0.146 C 
ENDBRANCH  40  41
ENDBRANCH  29  40
ENDBRANCH  21  24
ENDBRANCH   4  20
TORSDOF 10
