MODEL        8USER    Run = 8USERUSER    Estimated Free Energy of Binding    =  -9.44 kcal/mol  [=(1)+(2)+(3)-(4)]USERUSER    (1) Final Intermolecular Energy     = -11.83 kcal/molUSER        vdW + Hbond + desolv Energy     = -11.72 kcal/molUSER        Electrostatic Energy            =  -0.10 kcal/molUSER        Moving Ligand-Fixed Receptor    = -11.83 kcal/molUSER        Moving Ligand-Moving Receptor   =  +0.00 kcal/molUSER    (2) Final Total Internal Energy     =  -1.65 kcal/molUSER    (3) Torsional Free Energy           =  +2.39 kcal/molUSER    (4) Unbound System's Energy         =  -1.65 kcal/molUSERUSERREMARK SMILES COc1ccc(O)c(C(=O)c2ccc(CN3CC[C@@H](n4c(O)nc5cc(F)ccc54)[C@@H](C)C3)cc2)c1FREMARK SMILES IDX 11 1 12 2 13 3 14 4 34 5 35 6 9 7 10 8 8 9 3 10 4 11 36 12REMARK SMILES IDX 5 13 6 14 37 15 2 16 1 17 7 18 15 20 16 21 17 22 33 23 18 24REMARK SMILES IDX 31 25 19 26 32 27 20 28 21 29 30 30 23 31 29 32 24 33 28 34REMARK SMILES IDX 25 35 26 36 27 37 22 38REMARK H PARENT 7 19 22 39USER                              x       y       z     vdW  Elec       q    TypeUSER                           _______ _______ _______ _____ _____    ______ ____ROOTATOM      1  C   UNL     1      37.336  42.737  24.076 -0.37 +0.00    +0.023 A  ATOM      2  C   UNL     1      37.398  44.091  23.742 -0.33 +0.00    +0.012 A  ATOM      3  C   UNL     1      37.401  44.471  22.398 -0.33 +0.00    +0.006 A  ATOM      4  C   UNL     1      37.330  43.510  21.377 -0.38 -0.00    -0.034 A  ATOM      5  C   UNL     1      37.252  42.155  21.729 -0.46 +0.00    +0.006 A  ATOM      6  C   UNL     1      37.242  41.771  23.072 -0.43 +0.00    +0.012 A  ENDROOTBRANCH   1   7ATOM      7  C   UNL     1      37.315  42.295  25.487 -0.29 -0.01    +0.199 C  ATOM      8  O   UNL     1      37.972  41.302  25.805 -0.19 +0.01    -0.288 OA BRANCH   7   9ATOM      9  C   UNL     1      36.511  42.969  26.531 -0.33 -0.01    +0.104 A  ATOM     10  C   UNL     1      36.035  44.886  27.964 -0.32 -0.04    +0.155 A  ATOM     11  C   UNL     1      34.946  44.203  28.512 -0.54 -0.02    +0.053 A  ATOM     12  C   UNL     1      36.812  44.258  26.980 -0.26 -0.03    +0.179 A  ATOM     13  C   UNL     1      34.654  42.903  28.093 -0.49 -0.02    +0.051 A  ATOM     14  C   UNL     1      35.437  42.289  27.119 -0.45 -0.03    +0.130 A  ATOM     15  F   UNL     1      37.877  44.915  26.490 -0.04 +0.01    -0.202 F  BRANCH  10  16ATOM     16  O   UNL     1      36.421  46.158  28.296 -0.17 +0.12    -0.494 OA ATOM     17  C   UNL     1      35.430  47.014  28.849 -0.29 -0.06    +0.278 C  ENDBRANCH  10  16BRANCH  14  18ATOM     18  O   UNL     1      35.091  41.008  26.784 -0.26 +0.22    -0.507 OA ATOM     19  H   UNL     1      35.856  40.598  26.317 -0.22 -0.16    +0.293 HD ENDBRANCH  14  18ENDBRANCH   7   9ENDBRANCH   1   7BRANCH   4  20ATOM     20  C   UNL     1      37.346  43.941  19.924 -0.34 -0.01    +0.120 C  BRANCH  20  21ATOM     21  N   UNL     1      36.085  43.820  19.182 -0.16 +0.05    -0.299 NA ATOM     22  C   UNL     1      35.564  42.463  19.093 -0.39 -0.01    +0.087 C  ATOM     23  C   UNL     1      35.063  44.798  19.574 -0.27 -0.02    +0.090 C  ATOM     24  C   UNL     1      34.564  42.358  17.937 -0.44 -0.01    +0.041 C  ATOM     25  C   UNL     1      33.677  44.556  18.920 -0.47 -0.01    +0.023 C  ATOM     26  C   UNL     1      33.857  43.697  17.650 -0.30 -0.03    +0.098 C  ATOM     27  C   UNL     1      32.687  43.965  19.932 -0.49 -0.00    +0.011 C  BRANCH  26  28ATOM     28  N   UNL     1      32.665  43.606  16.816 -0.12 +0.11    -0.291 N  ATOM     29  C   UNL     1      32.260  44.457  15.825 -0.14 -0.15    +0.295 A  ATOM     30  C   UNL     1      31.715  42.602  16.884 -0.26 -0.03    +0.072 A  ATOM     31  N   UNL     1      31.132  44.107  15.268 -0.25 +0.11    -0.195 NA ATOM     32  C   UNL     1      31.587  41.450  17.674 -0.32 -0.01    +0.032 A  ATOM     33  C   UNL     1      30.772  42.952  15.914 -0.27 -0.05    +0.095 A  ATOM     34  C   UNL     1      30.456  40.654  17.458 -0.31 -0.00    +0.041 A  ATOM     35  C   UNL     1      29.644  42.144  15.714 -0.26 -0.04    +0.070 A  ATOM     36  C   UNL     1      29.510  41.001  16.498 -0.29 -0.02    +0.125 A  ATOM     37  F   UNL     1      28.440  40.211  16.321 -0.09 -0.02    -0.207 F  BRANCH  29  38ATOM     38  O   UNL     1      32.916  45.525  15.421 -0.10 +0.44    -0.480 OA ATOM     39  H   UNL     1      32.430  46.234  15.882 -0.29 -0.39    +0.296 HD ENDBRANCH  29  38ENDBRANCH  26  28ENDBRANCH  20  21ENDBRANCH   4  20TORSDOF 8TERENDMDL