REMARK SMILES COc1ccc(O)c(C(=O)c2ccc(CN3CC[C@@H](n4c(O)nc5cc(F)ccc54)[C@@H](C)C3)cc2)c1F
REMARK SMILES IDX 11 1 12 2 13 3 14 4 34 5 35 6 9 7 10 8 8 9 3 10 4 11 36 12
REMARK SMILES IDX 5 13 6 14 37 15 2 16 1 17 7 18 15 20 16 21 17 22 33 23 18 24
REMARK SMILES IDX 31 25 19 26 32 27 20 28 21 29 30 30 23 31 29 32 24 33 28 34
REMARK SMILES IDX 25 35 26 36 27 37 22 38
REMARK H PARENT 7 19 22 39
ROOT
ATOM      1  C   UNL     1       3.357  -0.905  -0.300  1.00  0.00     0.023 A 
ATOM      2  C   UNL     1       2.947   0.351   0.152  1.00  0.00     0.012 A 
ATOM      3  C   UNL     1       1.771   0.915  -0.350  1.00  0.00     0.006 A 
ATOM      4  C   UNL     1       0.990   0.231  -1.295  1.00  0.00    -0.034 A 
ATOM      5  C   UNL     1       1.408  -1.036  -1.727  1.00  0.00     0.006 A 
ATOM      6  C   UNL     1       2.579  -1.607  -1.223  1.00  0.00     0.012 A 
ENDROOT
BRANCH   1   7
ATOM      7  C   UNL     1       4.586  -1.543   0.218  1.00  0.00     0.199 C 
ATOM      8  O   UNL     1       4.536  -2.722   0.573  1.00  0.00    -0.288 OA
BRANCH   7   9
ATOM      9  C   UNL     1       5.869  -0.819   0.365  1.00  0.00     0.104 A 
ATOM     10  C   UNL     1       7.427   0.936  -0.302  1.00  0.00     0.155 A 
ATOM     11  C   UNL     1       8.317   0.522   0.693  1.00  0.00     0.053 A 
ATOM     12  C   UNL     1       6.211   0.256  -0.460  1.00  0.00     0.179 A 
ATOM     13  C   UNL     1       7.999  -0.571   1.503  1.00  0.00     0.051 A 
ATOM     14  C   UNL     1       6.790  -1.241   1.332  1.00  0.00     0.130 A 
ATOM     15  F   UNL     1       5.384   0.645  -1.445  1.00  0.00    -0.202 F 
BRANCH  10  16
ATOM     16  O   UNL     1       7.629   1.988  -1.157  1.00  0.00    -0.494 OA
ATOM     17  C   UNL     1       8.906   2.612  -1.130  1.00  0.00     0.278 C 
ENDBRANCH  10  16
BRANCH  14  18
ATOM     18  O   UNL     1       6.571  -2.312   2.156  1.00  0.00    -0.507 OA
ATOM     19  H   UNL     1       5.781  -2.796   1.821  1.00  0.00     0.293 HD
ENDBRANCH  14  18
ENDBRANCH   7   9
ENDBRANCH   1   7
BRANCH   4  20
ATOM     20  C   UNL     1      -0.275   0.865  -1.837  1.00  0.00     0.120 C 
BRANCH  20  21
ATOM     21  N   UNL     1      -1.541   0.453  -1.218  1.00  0.00    -0.299 NA
ATOM     22  C   UNL     1      -1.928  -0.924  -1.492  1.00  0.00     0.087 C 
ATOM     23  C   UNL     1      -1.656   0.805   0.202  1.00  0.00     0.090 C 
ATOM     24  C   UNL     1      -3.428  -1.110  -1.238  1.00  0.00     0.041 C 
ATOM     25  C   UNL     1      -2.910   0.214   0.898  1.00  0.00     0.023 C 
ATOM     26  C   UNL     1      -3.967  -0.137  -0.172  1.00  0.00     0.098 C 
ATOM     27  C   UNL     1      -2.533  -0.964   1.805  1.00  0.00     0.011 C 
BRANCH  26  28
ATOM     28  N   UNL     1      -5.278  -0.471   0.370  1.00  0.00    -0.291 N 
ATOM     29  C   UNL     1      -5.722  -1.683   0.822  1.00  0.00     0.295 A 
ATOM     30  C   UNL     1      -6.328   0.417   0.532  1.00  0.00     0.072 A 
ATOM     31  N   UNL     1      -6.960  -1.661   1.237  1.00  0.00    -0.195 NA
ATOM     32  C   UNL     1      -6.477   1.788   0.276  1.00  0.00     0.032 A 
ATOM     33  C   UNL     1      -7.359  -0.361   1.064  1.00  0.00     0.095 A 
ATOM     34  C   UNL     1      -7.721   2.357   0.569  1.00  0.00     0.041 A 
ATOM     35  C   UNL     1      -8.600   0.226   1.349  1.00  0.00     0.070 A 
ATOM     36  C   UNL     1      -8.755   1.586   1.093  1.00  0.00     0.125 A 
ATOM     37  F   UNL     1      -9.933   2.170   1.362  1.00  0.00    -0.207 F 
BRANCH  29  38
ATOM     38  O   UNL     1      -5.006  -2.787   0.874  1.00  0.00    -0.480 OA
ATOM     39  H   UNL     1      -5.641  -3.409   1.274  1.00  0.00     0.296 HD
ENDBRANCH  29  38
ENDBRANCH  26  28
ENDBRANCH  20  21
ENDBRANCH   4  20
TORSDOF 8
