REMARK SMILES COc1ccc(O)c(C(=O)c2ccc(CN3CCC(n4c(O)nc5ccccc54)CC3)c(C(N)=O)c2)c1F
REMARK SMILES IDX 11 1 12 2 13 3 14 4 32 5 36 6 9 7 10 8 8 9 3 10 4 11 37 12
REMARK SMILES IDX 5 13 6 14 38 15 2 16 1 17 7 18 33 20 34 21 35 22 15 25 16 26
REMARK SMILES IDX 17 27 31 28 18 29 30 30 19 31 20 32 21 33 29 34 23 35 28 36
REMARK SMILES IDX 24 37 27 38 25 39 26 40 22 41
REMARK H PARENT 7 19 34 23 34 24 22 42
ROOT
ATOM      1  C   UNL     1      -3.670  -1.959  -0.399  1.00  0.00     0.024 A 
ATOM      2  C   UNL     1      -3.102  -1.845   0.872  1.00  0.00     0.012 A 
ATOM      3  C   UNL     1      -1.715  -1.920   1.020  1.00  0.00     0.006 A 
ATOM      4  C   UNL     1      -0.873  -2.121  -0.090  1.00  0.00    -0.021 A 
ATOM      5  C   UNL     1      -1.469  -2.259  -1.360  1.00  0.00     0.044 A 
ATOM      6  C   UNL     1      -2.859  -2.175  -1.513  1.00  0.00     0.026 A 
ENDROOT
BRANCH   1   7
ATOM      7  C   UNL     1      -5.135  -1.951  -0.582  1.00  0.00     0.199 C 
ATOM      8  O   UNL     1      -5.647  -2.871  -1.221  1.00  0.00    -0.288 OA
BRANCH   7   9
ATOM      9  C   UNL     1      -6.021  -0.929   0.023  1.00  0.00     0.104 A 
ATOM     10  C   UNL     1      -6.422   1.308   0.896  1.00  0.00     0.155 A 
ATOM     11  C   UNL     1      -7.739   0.946   1.195  1.00  0.00     0.053 A 
ATOM     12  C   UNL     1      -5.568   0.363   0.310  1.00  0.00     0.179 A 
ATOM     13  C   UNL     1      -8.211  -0.328   0.883  1.00  0.00     0.051 A 
ATOM     14  C   UNL     1      -7.359  -1.255   0.292  1.00  0.00     0.130 A 
ATOM     15  F   UNL     1      -4.304   0.698   0.014  1.00  0.00    -0.202 F 
BRANCH  10  16
ATOM     16  O   UNL     1      -6.103   2.592   1.246  1.00  0.00    -0.494 OA
ATOM     17  C   UNL     1      -4.929   3.152   0.663  1.00  0.00     0.278 C 
ENDBRANCH  10  16
BRANCH  14  18
ATOM     18  O   UNL     1      -7.905  -2.477  -0.003  1.00  0.00    -0.507 OA
ATOM     19  H   UNL     1      -7.267  -2.965  -0.571  1.00  0.00     0.293 HD
ENDBRANCH  14  18
ENDBRANCH   7   9
ENDBRANCH   1   7
BRANCH   5  20
ATOM     20  C   UNL     1      -0.701  -2.516  -2.601  1.00  0.00     0.249 C 
ATOM     21  N   UNL     1       0.055  -3.653  -2.621  1.00  0.00    -0.366 N 
ATOM     22  O   UNL     1      -0.823  -1.798  -3.583  1.00  0.00    -0.270 OA
ATOM     23  H   UNL     1       0.008  -4.339  -1.883  1.00  0.00     0.159 HD
ATOM     24  H   UNL     1       0.499  -3.900  -3.495  1.00  0.00     0.159 HD
ENDBRANCH   5  20
BRANCH   4  25
ATOM     25  C   UNL     1       0.625  -2.183   0.133  1.00  0.00     0.120 C 
BRANCH  25  26
ATOM     26  N   UNL     1       1.371  -1.153  -0.600  1.00  0.00    -0.299 NA
ATOM     27  C   UNL     1       1.193   0.198  -0.053  1.00  0.00     0.087 C 
ATOM     28  C   UNL     1       2.772  -1.557  -0.770  1.00  0.00     0.087 C 
ATOM     29  C   UNL     1       2.460   0.797   0.555  1.00  0.00     0.041 C 
ATOM     30  C   UNL     1       3.624  -0.435  -1.357  1.00  0.00     0.041 C 
ATOM     31  C   UNL     1       3.596   0.824  -0.476  1.00  0.00     0.095 C 
BRANCH  31  32
ATOM     32  N   UNL     1       4.885   1.115   0.142  1.00  0.00    -0.291 N 
ATOM     33  C   UNL     1       5.577   0.314   1.008  1.00  0.00     0.295 A 
ATOM     34  C   UNL     1       5.646   2.253  -0.038  1.00  0.00     0.072 A 
ATOM     35  N   UNL     1       6.713   0.826   1.396  1.00  0.00    -0.195 NA
ATOM     36  C   UNL     1       5.474   3.422  -0.790  1.00  0.00     0.029 A 
ATOM     37  C   UNL     1       6.777   2.036   0.754  1.00  0.00     0.092 A 
ATOM     38  C   UNL     1       6.492   4.382  -0.725  1.00  0.00     0.002 A 
ATOM     39  C   UNL     1       7.785   3.012   0.807  1.00  0.00     0.031 A 
ATOM     40  C   UNL     1       7.630   4.183   0.058  1.00  0.00     0.002 A 
BRANCH  33  41
ATOM     41  O   UNL     1       5.176  -0.865   1.435  1.00  0.00    -0.480 OA
ATOM     42  H   UNL     1       5.930  -1.120   1.996  1.00  0.00     0.296 HD
ENDBRANCH  33  41
ENDBRANCH  31  32
ENDBRANCH  25  26
ENDBRANCH   4  25
TORSDOF 9
