MODEL        4USER    Run = 4USERUSER    Estimated Free Energy of Binding    = -10.42 kcal/mol  [=(1)+(2)+(3)-(4)]USERUSER    (1) Final Intermolecular Energy     = -13.11 kcal/molUSER        vdW + Hbond + desolv Energy     = -12.75 kcal/molUSER        Electrostatic Energy            =  -0.36 kcal/molUSER        Moving Ligand-Fixed Receptor    = -13.11 kcal/molUSER        Moving Ligand-Moving Receptor   =  +0.00 kcal/molUSER    (2) Final Total Internal Energy     =  -2.13 kcal/molUSER    (3) Torsional Free Energy           =  +2.68 kcal/molUSER    (4) Unbound System's Energy         =  -2.13 kcal/molUSERUSERREMARK SMILES COc1ccc(O)c(C(=O)c2ccc(CN3CCC(n4c(O)nc5ccccc54)CC3)c(C(N)=O)c2)c1FREMARK SMILES IDX 11 1 12 2 13 3 14 4 32 5 36 6 9 7 10 8 8 9 3 10 4 11 37 12REMARK SMILES IDX 5 13 6 14 38 15 2 16 1 17 7 18 33 20 34 21 35 22 15 25 16 26REMARK SMILES IDX 17 27 31 28 18 29 30 30 19 31 20 32 21 33 29 34 23 35 28 36REMARK SMILES IDX 24 37 27 38 25 39 26 40 22 41REMARK H PARENT 7 19 34 23 34 24 22 42USER                              x       y       z     vdW  Elec       q    TypeUSER                           _______ _______ _______ _____ _____    ______ ____ROOTATOM      1  C   UNL     1      42.018  46.760  18.935 -0.51 +0.00    +0.024 A  ATOM      2  C   UNL     1      41.544  45.546  18.432 -0.40 +0.00    +0.012 A  ATOM      3  C   UNL     1      40.878  45.518  17.204 -0.29 -0.00    +0.006 A  ATOM      4  C   UNL     1      40.664  46.696  16.464 -0.43 +0.00    -0.021 A  ATOM      5  C   UNL     1      41.128  47.913  17.003 -0.46 -0.00    +0.044 A  ATOM      6  C   UNL     1      41.804  47.943  18.230 -0.37 -0.00    +0.026 A  ENDROOTBRANCH   1   7ATOM      7  C   UNL     1      42.666  46.834  20.260 -0.34 +0.05    +0.199 C  ATOM      8  O   UNL     1      43.885  47.003  20.303 -0.40 -0.19    -0.288 OA BRANCH   7   9ATOM      9  C   UNL     1      41.912  46.782  21.534 -0.16 +0.01    +0.104 A  ATOM     10  C   UNL     1      40.174  45.840  22.955 -0.17 +0.01    +0.155 A  ATOM     11  C   UNL     1      40.505  46.759  23.955 -0.20 +0.00    +0.053 A  ATOM     12  C   UNL     1      40.882  45.859  21.745 -0.18 +0.02    +0.179 A  ATOM     13  C   UNL     1      41.551  47.661  23.769 -0.25 +0.01    +0.051 A  ATOM     14  C   UNL     1      42.255  47.665  22.570 -0.15 +0.02    +0.130 A  ATOM     15  F   UNL     1      40.578  44.981  20.779 -0.07 -0.01    -0.202 F  BRANCH  10  16ATOM     16  O   UNL     1      39.137  45.009  23.282 -0.03 -0.03    -0.494 OA ATOM     17  C   UNL     1      38.108  44.840  22.310 -0.24 +0.02    +0.278 C  ENDBRANCH  10  16BRANCH  14  18ATOM     18  O   UNL     1      43.282  48.567  22.473 -0.52 -0.09    -0.507 OA ATOM     19  H   UNL     1      43.663  48.498  21.569 -0.44 -0.04    +0.293 HD ENDBRANCH  14  18ENDBRANCH   7   9ENDBRANCH   1   7BRANCH   5  20ATOM     20  C   UNL     1      40.930  49.227  16.347 -0.34 -0.04    +0.249 C  ATOM     21  N   UNL     1      39.726  49.422  15.732 -0.24 +0.18    -0.366 N  ATOM     22  O   UNL     1      41.764  50.116  16.442 -0.99 -0.02    -0.270 OA ATOM     23  H   UNL     1      38.971  48.759  15.815 +0.09 -0.09    +0.159 HD ATOM     24  H   UNL     1      39.532  50.347  15.374 -0.37 -0.14    +0.159 HD ENDBRANCH   5  20BRANCH   4  25ATOM     25  C   UNL     1      39.945  46.600  15.133 -0.43 -0.02    +0.120 C  BRANCH  25  26ATOM     26  N   UNL     1      38.483  46.676  15.249 -0.18 +0.11    -0.299 NA ATOM     27  C   UNL     1      37.775  45.857  14.257 -0.42 -0.03    +0.087 C  ATOM     28  C   UNL     1      38.065  46.442  16.636 -0.39 -0.03    +0.087 C  ATOM     29  C   UNL     1      36.998  44.686  14.855 -0.39 -0.01    +0.041 C  ATOM     30  C   UNL     1      36.549  46.323  16.765 -0.39 -0.03    +0.041 C  ATOM     31  C   UNL     1      35.990  45.181  15.901 -0.34 -0.05    +0.095 C  BRANCH  31  32ATOM     32  N   UNL     1      35.443  44.084  16.691 -0.13 +0.12    -0.291 N  ATOM     33  C   UNL     1      35.725  42.754  16.551 -0.22 -0.11    +0.295 A  ATOM     34  C   UNL     1      34.541  44.190  17.731 -0.26 -0.03    +0.072 A  ATOM     35  N   UNL     1      35.095  41.995  17.406 -0.32 +0.08    -0.195 NA ATOM     36  C   UNL     1      33.884  45.269  18.336 -0.41 -0.01    +0.029 A  ATOM     37  C   UNL     1      34.351  42.871  18.154 -0.30 -0.02    +0.092 A  ATOM     38  C   UNL     1      33.020  44.980  19.400 -0.11 -0.00    +0.002 A  ATOM     39  C   UNL     1      33.479  42.602  19.220 -0.37 -0.00    +0.031 A  ATOM     40  C   UNL     1      32.819  43.670  19.838 -0.45 -0.00    +0.002 A  BRANCH  33  41ATOM     41  O   UNL     1      36.545  42.243  15.656 -0.19 +0.17    -0.480 OA ATOM     42  H   UNL     1      36.409  41.291  15.810 +0.01 -0.16    +0.296 HD ENDBRANCH  33  41ENDBRANCH  31  32ENDBRANCH  25  26ENDBRANCH   4  25TORSDOF 9TERENDMDL