MODEL        1USER    Run = 1USERUSER    Estimated Free Energy of Binding    =  -7.95 kcal/mol  [=(1)+(2)+(3)-(4)]USERUSER    (1) Final Intermolecular Energy     =  -9.74 kcal/molUSER        vdW + Hbond + desolv Energy     =  -9.47 kcal/molUSER        Electrostatic Energy            =  -0.28 kcal/molUSER        Moving Ligand-Fixed Receptor    =  -9.74 kcal/molUSER        Moving Ligand-Moving Receptor   =  +0.00 kcal/molUSER    (2) Final Total Internal Energy     =  -1.25 kcal/molUSER    (3) Torsional Free Energy           =  +1.79 kcal/molUSER    (4) Unbound System's Energy         =  -1.25 kcal/molUSERUSERREMARK SMILES COc1ccc(O)c(C(=O)c2ccc(CN3CCN(C)CC3)c(F)c2)c1FREMARK SMILES IDX 11 1 12 2 13 3 14 4 23 5 24 6 25 7 9 8 10 9 8 10 3 11 4 12REMARK SMILES IDX 26 13 5 14 6 15 27 16 2 17 1 18 7 19 15 21 16 22 17 23 22 24REMARK SMILES IDX 18 25 21 26 19 27 20 28REMARK H PARENT 7 20USER                              x       y       z     vdW  Elec       q    TypeUSER                           _______ _______ _______ _____ _____    ______ ____ROOTATOM      1  C   UNL     1      42.035  46.658  19.540 -0.45 +0.00    +0.026 A  ATOM      2  C   UNL     1      41.499  45.429  19.137 -0.39 +0.00    +0.013 A  ATOM      3  C   UNL     1      40.924  45.294  17.871 -0.40 -0.00    +0.009 A  ATOM      4  C   UNL     1      40.891  46.383  16.987 -0.36 -0.00    +0.002 A  ATOM      5  C   UNL     1      41.451  47.597  17.402 -0.26 -0.01    +0.128 A  ATOM      6  F   UNL     1      41.434  48.658  16.582 -0.18 +0.00    -0.207 F  ATOM      7  C   UNL     1      42.026  47.743  18.661 -0.39 -0.00    +0.051 A  ENDROOTBRANCH   1   8ATOM      8  C   UNL     1      42.665  46.747  20.877 -0.31 +0.05    +0.199 C  ATOM      9  O   UNL     1      43.894  46.753  20.955 -0.43 -0.19    -0.288 OA BRANCH   8  10ATOM     10  C   UNL     1      41.891  46.883  22.130 -0.18 +0.01    +0.104 A  ATOM     11  C   UNL     1      40.180  46.105  23.685 -0.15 +0.01    +0.155 A  ATOM     12  C   UNL     1      40.441  47.200  24.514 -0.21 +0.00    +0.053 A  ATOM     13  C   UNL     1      40.917  45.955  22.500 -0.15 +0.02    +0.179 A  ATOM     14  C   UNL     1      41.437  48.116  24.170 -0.29 +0.01    +0.051 A  ATOM     15  C   UNL     1      42.165  47.949  22.995 -0.21 +0.02    +0.130 A  ATOM     16  F   UNL     1      40.685  44.879  21.732 -0.04 -0.01    -0.202 F  BRANCH  11  17ATOM     17  O   UNL     1      39.246  45.133  23.925 -0.01 -0.03    -0.494 OA ATOM     18  C   UNL     1      38.104  45.104  23.078 -0.21 +0.03    +0.278 C  ENDBRANCH  11  17BRANCH  15  19ATOM     19  O   UNL     1      43.145  48.874  22.750 -0.70 -0.14    -0.507 OA ATOM     20  H   UNL     1      43.636  48.587  21.946 -0.41 +0.00    +0.293 HD ENDBRANCH  15  19ENDBRANCH   8  10ENDBRANCH   1   8BRANCH   4  21ATOM     21  C   UNL     1      40.290  46.250  15.608 -0.39 -0.01    +0.123 C  BRANCH  21  22ATOM     22  N   UNL     1      38.966  46.876  15.484 -0.20 +0.09    -0.296 NA ATOM     23  C   UNL     1      39.032  48.188  14.805 -0.52 -0.04    +0.100 C  ATOM     24  C   UNL     1      37.997  45.979  14.820 -0.39 -0.03    +0.100 C  ATOM     25  C   UNL     1      37.697  48.583  14.136 -0.50 -0.05    +0.099 C  ATOM     26  C   UNL     1      37.757  46.282  13.324 -0.40 -0.03    +0.099 C  ATOM     27  N   UNL     1      37.333  47.667  13.036 -0.77 +0.09    -0.304 NA ATOM     28  C   UNL     1      35.902  47.751  12.757 -0.55 -0.06    +0.105 C  ENDBRANCH  21  22ENDBRANCH   4  21TORSDOF 6TERENDMDL