REMARK SMILES COc1ccc(O)c(C(=O)c2ccc(CN3CCN(C)CC3)c(F)c2)c1F
REMARK SMILES IDX 11 1 12 2 13 3 14 4 23 5 24 6 25 7 9 8 10 9 8 10 3 11 4 12
REMARK SMILES IDX 26 13 5 14 6 15 27 16 2 17 1 18 7 19 15 21 16 22 17 23 22 24
REMARK SMILES IDX 18 25 21 26 19 27 20 28
REMARK H PARENT 7 20
ROOT
ATOM      1  C   UNL     1      -1.455  -0.310   1.044  1.00  0.00     0.026 A 
ATOM      2  C   UNL     1      -0.456  -1.149   1.552  1.00  0.00     0.013 A 
ATOM      3  C   UNL     1       0.728  -1.346   0.837  1.00  0.00     0.009 A 
ATOM      4  C   UNL     1       0.933  -0.694  -0.388  1.00  0.00     0.002 A 
ATOM      5  C   UNL     1      -0.069   0.156  -0.868  1.00  0.00     0.128 A 
ATOM      6  F   UNL     1       0.095   0.793  -2.037  1.00  0.00    -0.207 F 
ATOM      7  C   UNL     1      -1.253   0.360  -0.165  1.00  0.00     0.051 A 
ENDROOT
BRANCH   1   8
ATOM      8  C   UNL     1      -2.679  -0.103   1.851  1.00  0.00     0.199 C 
ATOM      9  O   UNL     1      -2.577  -0.025   3.076  1.00  0.00    -0.288 OA
BRANCH   8  10
ATOM     10  C   UNL     1      -4.022   0.070   1.256  1.00  0.00     0.104 A 
ATOM     11  C   UNL     1      -5.668  -0.391  -0.485  1.00  0.00     0.155 A 
ATOM     12  C   UNL     1      -6.581   0.446   0.162  1.00  0.00     0.053 A 
ATOM     13  C   UNL     1      -4.395  -0.576   0.076  1.00  0.00     0.179 A 
ATOM     14  C   UNL     1      -6.230   1.071   1.361  1.00  0.00     0.051 A 
ATOM     15  C   UNL     1      -4.966   0.871   1.909  1.00  0.00     0.130 A 
ATOM     16  F   UNL     1      -3.540  -1.413  -0.533  1.00  0.00    -0.202 F 
BRANCH  11  17
ATOM     17  O   UNL     1      -5.902  -1.071  -1.650  1.00  0.00    -0.494 OA
ATOM     18  C   UNL     1      -7.186  -0.925  -2.243  1.00  0.00     0.278 C 
ENDBRANCH  11  17
BRANCH  15  19
ATOM     19  O   UNL     1      -4.715   1.494   3.103  1.00  0.00    -0.507 OA
ATOM     20  H   UNL     1      -3.891   1.107   3.478  1.00  0.00     0.293 HD
ENDBRANCH  15  19
ENDBRANCH   8  10
ENDBRANCH   1   8
BRANCH   4  21
ATOM     21  C   UNL     1       2.215  -0.881  -1.165  1.00  0.00     0.123 C 
BRANCH  21  22
ATOM     22  N   UNL     1       3.174   0.218  -0.983  1.00  0.00    -0.296 NA
ATOM     23  C   UNL     1       3.689   0.284   0.402  1.00  0.00     0.100 C 
ATOM     24  C   UNL     1       4.280   0.145  -1.961  1.00  0.00     0.100 C 
ATOM     25  C   UNL     1       5.067   0.974   0.495  1.00  0.00     0.099 C 
ATOM     26  C   UNL     1       5.591  -0.460  -1.410  1.00  0.00     0.099 C 
ATOM     27  N   UNL     1       6.121   0.211  -0.206  1.00  0.00    -0.304 NA
ATOM     28  C   UNL     1       7.253   1.078  -0.519  1.00  0.00     0.105 C 
ENDBRANCH  21  22
ENDBRANCH   4  21
TORSDOF 6
