
     RDKit          3D

 47 49  0  0  0  0  0  0  0  0999 V2000
    7.5698    0.4882    2.2259 C   0  0  0  0  0  0  0  0  0  0  0  0
    6.4351    0.8259    1.3170 C   0  0  0  0  0  0  0  0  0  0  0  0
    5.6329   -0.0192    0.6600 C   0  0  0  0  0  0  0  0  0  0  0  0
    5.6614   -1.4634    0.6664 C   0  0  0  0  0  0  0  0  0  0  0  0
    4.6992   -1.9357   -0.1296 C   0  0  0  0  0  0  0  0  0  0  0  0
    4.3267   -3.2079   -0.4102 O   0  0  0  0  0  0  0  0  0  0  0  0
    4.0868   -0.7000   -0.6249 C   0  0  0  0  0  0  0  0  0  0  0  0
    2.9289   -0.7199   -1.5705 C   0  0  0  0  0  0  0  0  0  0  0  0
    3.0819   -1.1168   -2.7165 O   0  0  0  0  0  0  0  0  0  0  0  0
    1.6431   -0.2349   -1.0141 C   0  0  0  0  0  0  0  0  0  0  0  0
    0.5325   -0.2725   -1.7649 C   0  0  0  0  0  0  0  0  0  0  0  0
   -0.7714    0.1615   -1.2493 C   0  0  0  0  0  0  0  0  0  0  0  0
   -0.9334    1.4954   -0.8509 C   0  0  0  0  0  0  0  0  0  0  0  0
   -2.1597    1.9520   -0.3604 C   0  0  0  0  0  0  0  0  0  0  0  0
   -3.2575    1.0900   -0.2502 C   0  0  0  0  0  0  0  0  0  0  0  0
   -4.5481    1.5669    0.2733 C   0  0  0  0  0  0  0  0  0  0  0  0
   -5.1671    0.9301    1.3622 C   0  0  0  0  0  0  0  0  0  0  0  0
   -6.3916    1.3826    1.8608 C   0  0  0  0  0  0  0  0  0  0  0  0
   -7.0188    2.4799    1.2768 C   0  0  0  0  0  0  0  0  0  0  0  0
   -6.4229    3.1257    0.1962 C   0  0  0  0  0  0  0  0  0  0  0  0
   -5.1980    2.6735   -0.3005 C   0  0  0  0  0  0  0  0  0  0  0  0
   -3.0894   -0.2445   -0.6564 C   0  0  0  0  0  0  0  0  0  0  0  0
   -1.8647   -0.7215   -1.1649 C   0  0  0  0  0  0  0  0  0  0  0  0
   -1.7739   -2.1781   -1.5644 C   0  0  0  0  0  0  0  0  0  0  0  0
   -1.2454   -3.0496   -0.4349 C   0  0  0  0  0  0  0  0  0  0  0  0
    4.6089    0.4038   -0.1584 N   0  0  0  0  0  0  0  0  0  0  0  0
    8.4847    0.9756    1.8720 H   0  0  0  0  0  0  0  0  0  0  0  0
    7.3556    0.8569    3.2337 H   0  0  0  0  0  0  0  0  0  0  0  0
    7.7641   -0.5843    2.2940 H   0  0  0  0  0  0  0  0  0  0  0  0
    6.2510    1.8910    1.1833 H   0  0  0  0  0  0  0  0  0  0  0  0
    6.3531   -2.0569    1.2408 H   0  0  0  0  0  0  0  0  0  0  0  0
    4.9401   -3.8109    0.0444 H   0  0  0  0  0  0  0  0  0  0  0  0
    1.6481    0.1259    0.0092 H   0  0  0  0  0  0  0  0  0  0  0  0
    0.5483   -0.6596   -2.7801 H   0  0  0  0  0  0  0  0  0  0  0  0
   -0.1052    2.1973   -0.9256 H   0  0  0  0  0  0  0  0  0  0  0  0
   -2.2494    2.9917   -0.0543 H   0  0  0  0  0  0  0  0  0  0  0  0
   -4.6881    0.0746    1.8390 H   0  0  0  0  0  0  0  0  0  0  0  0
   -6.8519    0.8780    2.7065 H   0  0  0  0  0  0  0  0  0  0  0  0
   -7.9708    2.8340    1.6650 H   0  0  0  0  0  0  0  0  0  0  0  0
   -6.9104    3.9813   -0.2628 H   0  0  0  0  0  0  0  0  0  0  0  0
   -4.7541    3.1859   -1.1522 H   0  0  0  0  0  0  0  0  0  0  0  0
   -3.9365   -0.9273   -0.5874 H   0  0  0  0  0  0  0  0  0  0  0  0
   -2.7657   -2.5392   -1.8630 H   0  0  0  0  0  0  0  0  0  0  0  0
   -1.1475   -2.2924   -2.4543 H   0  0  0  0  0  0  0  0  0  0  0  0
   -0.2375   -2.7469   -0.1308 H   0  0  0  0  0  0  0  0  0  0  0  0
   -1.8926   -2.9906    0.4470 H   0  0  0  0  0  0  0  0  0  0  0  0
   -1.2007   -4.0955   -0.7525 H   0  0  0  0  0  0  0  0  0  0  0  0
  1  2  1  0
  2  3  2  3
  3  4  1  0
  4  5  2  0
  5  6  1  0
  5  7  1  0
  7  8  1  0
  8  9  2  0
  8 10  1  0
 10 11  2  0
 11 12  1  0
 12 13  2  0
 13 14  1  0
 14 15  2  0
 15 16  1  0
 16 17  2  0
 17 18  1  0
 18 19  2  0
 19 20  1  0
 20 21  2  0
 15 22  1  0
 22 23  2  0
 23 24  1  0
 24 25  1  0
  7 26  2  0
 26  3  1  0
 23 12  1  0
 21 16  1  0
  1 27  1  0
  1 28  1  0
  1 29  1  0
  2 30  1  0
  4 31  1  0
  6 32  1  0
 10 33  1  0
 11 34  1  0
 13 35  1  0
 14 36  1  0
 17 37  1  0
 18 38  1  0
 19 39  1  0
 20 40  1  0
 21 41  1  0
 22 42  1  0
 24 43  1  0
 24 44  1  0
 25 45  1  0
 25 46  1  0
 25 47  1  0
M  END
$$$$
