
     RDKit          3D

 45 48  0  0  0  0  0  0  0  0999 V2000
   -0.1849    2.2044    0.3121 C   0  0  0  0  0  0  0  0  0  0  0  0
   -0.2813    0.7135   -0.0296 C   0  0  0  0  0  0  0  0  0  0  0  0
   -1.7447    0.2834   -0.1131 C   0  0  0  0  0  0  0  0  0  0  0  0
   -2.4816    0.0494    0.9888 C   0  0  0  0  0  0  0  0  0  0  0  0
   -3.8302   -0.3750    0.9574 C   0  0  0  0  0  0  0  0  0  0  0  0
   -5.0165    0.3300    1.0299 C   0  0  0  0  0  0  0  0  0  0  0  0
   -6.0780   -0.6021    0.9638 C   0  0  0  0  0  0  0  0  0  0  0  0
   -5.5161   -1.8550    0.8664 C   0  0  0  0  0  0  0  0  0  0  0  0
   -4.1498   -1.7141    0.8744 N   0  0  0  0  0  0  0  0  0  0  0  0
   -3.2197   -2.8223    0.8013 C   0  0  0  0  0  0  0  0  0  0  0  0
   -2.3076    0.0940   -1.5009 C   0  0  0  0  0  0  0  0  0  0  0  0
   -1.6397    0.0190   -2.6155 N   0  0  0  0  0  0  0  0  0  0  0  0
   -0.3040    0.1209   -2.4533 C   0  0  0  0  0  0  0  0  0  0  0  0
    0.5738   -0.0717   -3.4796 N   0  0  0  0  0  0  0  0  0  0  0  0
    1.8576    0.0767   -3.0164 C   0  0  0  0  0  0  0  0  0  0  0  0
    1.7999    0.3739   -1.6658 C   0  0  0  0  0  0  0  0  0  0  0  0
    2.9825    0.5886   -0.8525 C   0  0  0  0  0  0  0  0  0  0  0  0
    3.9598    1.5105   -1.2483 C   0  0  0  0  0  0  0  0  0  0  0  0
    5.0919    1.7250   -0.4595 C   0  0  0  0  0  0  0  0  0  0  0  0
    5.2559    1.0190    0.7329 C   0  0  0  0  0  0  0  0  0  0  0  0
    4.2860    0.0936    1.1369 C   0  0  0  0  0  0  0  0  0  0  0  0
    4.4102   -0.6769    2.3970 C   0  0  0  0  0  0  0  0  0  0  0  0
    3.5847   -1.4531    2.8416 O   0  0  0  0  0  0  0  0  0  0  0  0
    5.5638   -0.4377    3.0450 O   0  0  0  0  0  0  0  0  0  0  0  0
    3.1525   -0.1204    0.3417 C   0  0  0  0  0  0  0  0  0  0  0  0
    0.4192    0.4109   -1.3165 C   0  0  0  0  0  0  0  0  0  0  0  0
   -0.6795    2.4264    1.2641 H   0  0  0  0  0  0  0  0  0  0  0  0
    0.8599    2.5213    0.4037 H   0  0  0  0  0  0  0  0  0  0  0  0
   -0.6500    2.8265   -0.4620 H   0  0  0  0  0  0  0  0  0  0  0  0
    0.2006    0.1383    0.7708 H   0  0  0  0  0  0  0  0  0  0  0  0
   -2.0395    0.1974    1.9718 H   0  0  0  0  0  0  0  0  0  0  0  0
   -5.1073    1.4055    1.1147 H   0  0  0  0  0  0  0  0  0  0  0  0
   -7.1378   -0.3841    0.9873 H   0  0  0  0  0  0  0  0  0  0  0  0
   -5.9793   -2.8307    0.7961 H   0  0  0  0  0  0  0  0  0  0  0  0
   -3.7702   -3.7645    0.8677 H   0  0  0  0  0  0  0  0  0  0  0  0
   -2.6929   -2.7695   -0.1547 H   0  0  0  0  0  0  0  0  0  0  0  0
   -2.5213   -2.7499    1.6388 H   0  0  0  0  0  0  0  0  0  0  0  0
   -3.4025   -0.0106   -1.5719 H   0  0  0  0  0  0  0  0  0  0  0  0
    0.2968   -0.2979   -4.4240 H   0  0  0  0  0  0  0  0  0  0  0  0
    2.6966   -0.0524   -3.6872 H   0  0  0  0  0  0  0  0  0  0  0  0
    3.8393    2.0758   -2.1702 H   0  0  0  0  0  0  0  0  0  0  0  0
    5.8432    2.4458   -0.7733 H   0  0  0  0  0  0  0  0  0  0  0  0
    6.1408    1.1977    1.3390 H   0  0  0  0  0  0  0  0  0  0  0  0
    5.5089   -1.0063    3.8413 H   0  0  0  0  0  0  0  0  0  0  0  0
    2.4103   -0.8535    0.6507 H   0  0  0  0  0  0  0  0  0  0  0  0
  1  2  1  0
  2  3  1  0
  3  4  2  3
  4  5  1  0
  5  6  2  0
  6  7  1  0
  7  8  2  0
  8  9  1  0
  9 10  1  0
  3 11  1  0
 11 12  2  0
 12 13  1  0
 13 14  1  0
 14 15  1  0
 15 16  2  0
 16 17  1  0
 17 18  2  0
 18 19  1  0
 19 20  2  0
 20 21  1  0
 21 22  1  0
 22 23  2  0
 22 24  1  0
 21 25  2  0
 16 26  1  0
 26  2  1  0
  9  5  1  0
 26 13  2  0
 25 17  1  0
  1 27  1  0
  1 28  1  0
  1 29  1  0
  2 30  1  0
  4 31  1  0
  6 32  1  0
  7 33  1  0
  8 34  1  0
 10 35  1  0
 10 36  1  0
 10 37  1  0
 11 38  1  0
 14 39  1  0
 15 40  1  0
 18 41  1  0
 19 42  1  0
 20 43  1  0
 24 44  1  0
 25 45  1  0
M  END
$$$$
