
     RDKit          3D

 52 53  0  0  0  0  0  0  0  0999 V2000
    0.0652   -4.7836   -2.9193 C   0  0  0  0  0  0  0  0  0  0  0  0
   -0.5316   -4.2257   -1.6331 C   0  0  0  0  0  0  0  0  0  0  0  0
   -0.5598   -2.7208   -1.6406 C   0  0  0  0  0  0  0  0  0  0  0  0
   -0.1065   -1.8889   -0.6812 C   0  0  0  0  0  0  0  0  0  0  0  0
    0.4768   -2.3995    0.5468 C   0  0  0  0  0  0  0  0  0  0  0  0
    1.6567   -1.9823    1.0315 C   0  0  0  0  0  0  0  0  0  0  0  0
    2.5919   -1.0567    0.3096 C   0  0  0  0  0  0  0  0  0  0  0  0
    2.5157    0.3855    0.7066 C   0  0  0  0  0  0  0  0  0  0  0  0
    3.8306    1.0813    0.7888 C   0  0  0  0  0  0  0  0  0  0  0  0
    4.1618    1.8389    1.6866 O   0  0  0  0  0  0  0  0  0  0  0  0
    4.5830    0.7547   -0.2970 O   0  0  0  0  0  0  0  0  0  0  0  0
    5.8763    1.3688   -0.3540 C   0  0  0  0  0  0  0  0  0  0  0  0
    5.7860    2.7536   -0.9717 C   0  0  0  0  0  0  0  0  0  0  0  0
    1.4775    1.1843    1.0112 C   0  0  0  0  0  0  0  0  0  0  0  0
    0.1256    1.0011    1.0932 N   0  0  0  0  0  0  0  0  0  0  0  0
   -0.5781    0.3057    0.2613 C   0  0  0  0  0  0  0  0  0  0  0  0
   -1.9585    0.3203    0.3195 N   0  0  0  0  0  0  0  0  0  0  0  0
   -2.7042    1.0660    1.3340 C   0  0  0  0  0  0  0  0  0  0  0  0
   -4.1095    0.4549    1.4990 C   0  0  0  0  0  0  0  0  0  0  0  0
   -5.1849    1.5286    1.6228 C   0  0  0  0  0  0  0  0  0  0  0  0
   -5.2283    2.3692    0.4312 N   0  0  0  0  0  0  0  0  0  0  0  0
   -3.9115    2.8289   -0.0203 C   0  0  0  0  0  0  0  0  0  0  0  0
   -2.7704    2.5520    0.9555 C   0  0  0  0  0  0  0  0  0  0  0  0
   -0.1972   -0.4926   -0.7968 N   0  0  0  0  0  0  0  0  0  0  0  0
   -0.5365   -4.4977   -3.7908 H   0  0  0  0  0  0  0  0  0  0  0  0
    0.0953   -5.8785   -2.8815 H   0  0  0  0  0  0  0  0  0  0  0  0
    1.0899   -4.4232   -3.0752 H   0  0  0  0  0  0  0  0  0  0  0  0
   -1.5613   -4.5913   -1.5260 H   0  0  0  0  0  0  0  0  0  0  0  0
    0.0338   -4.6225   -0.7836 H   0  0  0  0  0  0  0  0  0  0  0  0
   -1.0017   -2.2842   -2.5337 H   0  0  0  0  0  0  0  0  0  0  0  0
   -0.1241   -3.0988    1.1207 H   0  0  0  0  0  0  0  0  0  0  0  0
    1.9847   -2.3580    1.9982 H   0  0  0  0  0  0  0  0  0  0  0  0
    3.6105   -1.4391    0.4828 H   0  0  0  0  0  0  0  0  0  0  0  0
    2.4765   -1.1304   -0.7805 H   0  0  0  0  0  0  0  0  0  0  0  0
    6.3403    1.4025    0.6376 H   0  0  0  0  0  0  0  0  0  0  0  0
    6.5083    0.7275   -0.9799 H   0  0  0  0  0  0  0  0  0  0  0  0
    5.3270    2.7054   -1.9642 H   0  0  0  0  0  0  0  0  0  0  0  0
    6.7796    3.2009   -1.0638 H   0  0  0  0  0  0  0  0  0  0  0  0
    5.1613    3.4151   -0.3631 H   0  0  0  0  0  0  0  0  0  0  0  0
    1.7230    2.2048    1.3257 H   0  0  0  0  0  0  0  0  0  0  0  0
   -2.3544   -0.5856    0.0992 H   0  0  0  0  0  0  0  0  0  0  0  0
   -2.1864    0.9751    2.2959 H   0  0  0  0  0  0  0  0  0  0  0  0
   -4.3634   -0.2027    0.6562 H   0  0  0  0  0  0  0  0  0  0  0  0
   -4.1279   -0.1839    2.3925 H   0  0  0  0  0  0  0  0  0  0  0  0
   -6.1607    1.0512    1.7574 H   0  0  0  0  0  0  0  0  0  0  0  0
   -5.0149    2.1419    2.5165 H   0  0  0  0  0  0  0  0  0  0  0  0
   -5.8370    3.1740    0.5962 H   0  0  0  0  0  0  0  0  0  0  0  0
   -3.6932    2.3543   -0.9849 H   0  0  0  0  0  0  0  0  0  0  0  0
   -3.9630    3.9084   -0.2146 H   0  0  0  0  0  0  0  0  0  0  0  0
   -2.9250    3.1522    1.8626 H   0  0  0  0  0  0  0  0  0  0  0  0
   -1.8247    2.8982    0.5231 H   0  0  0  0  0  0  0  0  0  0  0  0
   -0.7628   -0.2594   -1.6063 H   0  0  0  0  0  0  0  0  0  0  0  0
  1  2  1  0
  2  3  1  0
  3  4  2  3
  4  5  1  0
  5  6  2  3
  6  7  1  0
  7  8  1  0
  8  9  1  0
  9 10  2  0
  9 11  1  0
 11 12  1  0
 12 13  1  0
  8 14  2  3
 14 15  1  0
 15 16  2  3
 16 17  1  0
 17 18  1  0
 18 19  1  0
 19 20  1  0
 20 21  1  0
 21 22  1  0
 22 23  1  0
 16 24  1  0
 24  4  1  0
 23 18  1  0
  1 25  1  0
  1 26  1  0
  1 27  1  0
  2 28  1  0
  2 29  1  0
  3 30  1  0
  5 31  1  0
  6 32  1  0
  7 33  1  0
  7 34  1  0
 12 35  1  0
 12 36  1  0
 13 37  1  0
 13 38  1  0
 13 39  1  0
 14 40  1  0
 17 41  1  0
 18 42  1  0
 19 43  1  0
 19 44  1  0
 20 45  1  0
 20 46  1  0
 21 47  1  0
 22 48  1  0
 22 49  1  0
 23 50  1  0
 23 51  1  0
 24 52  1  0
M  END
$$$$
