
     RDKit          3D

 35 36  0  0  0  0  0  0  0  0999 V2000
   -2.2328    1.3762    2.3286 C   0  0  0  0  0  0  0  0  0  0  0  0
   -2.5006    0.9191    0.9193 C   0  0  0  0  0  0  0  0  0  0  0  0
   -3.3211    1.7080    0.0931 C   0  0  0  0  0  0  0  0  0  0  0  0
   -3.5714    1.3294   -1.2237 C   0  0  0  0  0  0  0  0  0  0  0  0
   -3.0034    0.1642   -1.7164 C   0  0  0  0  0  0  0  0  0  0  0  0
   -3.2388   -0.1961   -2.9851 F   0  0  0  0  0  0  0  0  0  0  0  0
   -2.1942   -0.6350   -0.9172 C   0  0  0  0  0  0  0  0  0  0  0  0
   -1.9417   -0.2804    0.4163 C   0  0  0  0  0  0  0  0  0  0  0  0
   -1.0817   -1.0554    1.2569 N   0  0  0  0  0  0  0  0  0  0  0  0
   -0.5523   -2.2105    0.7525 N   0  0  0  0  0  0  0  0  0  0  0  0
    0.6070   -2.1192    0.1581 C   0  0  0  0  0  0  0  0  0  0  0  0
    1.1567   -3.3931   -0.4637 C   0  0  0  0  0  0  0  0  0  0  0  0
    1.0650   -3.6752   -1.6406 O   0  0  0  0  0  0  0  0  0  0  0  0
    1.7827   -4.1567    0.4374 O   0  0  0  0  0  0  0  0  0  0  0  0
    1.4531   -0.9106    0.0190 C   0  0  0  0  0  0  0  0  0  0  0  0
    1.8912   -0.5102   -1.2495 C   0  0  0  0  0  0  0  0  0  0  0  0
    2.6886    0.6303   -1.3835 C   0  0  0  0  0  0  0  0  0  0  0  0
    3.0473    1.3628   -0.2424 C   0  0  0  0  0  0  0  0  0  0  0  0
    3.8815    2.5639   -0.3808 N   0  0  0  0  0  0  0  0  0  0  0  0
    4.2674    2.8696   -1.5178 O   0  0  0  0  0  0  0  0  0  0  0  0
    4.1525    3.1985    0.6486 O   0  0  0  0  0  0  0  0  0  0  0  0
    2.6171    0.9596    1.0297 C   0  0  0  0  0  0  0  0  0  0  0  0
    1.8202   -0.1810    1.1568 C   0  0  0  0  0  0  0  0  0  0  0  0
   -2.6565    2.3684    2.5170 H   0  0  0  0  0  0  0  0  0  0  0  0
   -1.1552    1.4429    2.5106 H   0  0  0  0  0  0  0  0  0  0  0  0
   -2.6826    0.6802    3.0438 H   0  0  0  0  0  0  0  0  0  0  0  0
   -3.7635    2.6276    0.4705 H   0  0  0  0  0  0  0  0  0  0  0  0
   -4.2005    1.9355   -1.8676 H   0  0  0  0  0  0  0  0  0  0  0  0
   -1.7842   -1.5424   -1.3472 H   0  0  0  0  0  0  0  0  0  0  0  0
   -1.5872   -1.2095    2.1345 H   0  0  0  0  0  0  0  0  0  0  0  0
    2.0521   -4.9547   -0.0617 H   0  0  0  0  0  0  0  0  0  0  0  0
    1.6008   -1.0640   -2.1411 H   0  0  0  0  0  0  0  0  0  0  0  0
    3.0127    0.9358   -2.3768 H   0  0  0  0  0  0  0  0  0  0  0  0
    2.8884    1.5187    1.9232 H   0  0  0  0  0  0  0  0  0  0  0  0
    1.4832   -0.4967    2.1421 H   0  0  0  0  0  0  0  0  0  0  0  0
  1  2  1  0
  2  3  2  0
  3  4  1  0
  4  5  2  0
  5  6  1  0
  5  7  1  0
  7  8  2  0
  8  9  1  0
  9 10  1  0
 10 11  2  3
 11 12  1  0
 12 13  2  0
 12 14  1  0
 11 15  1  0
 15 16  2  0
 16 17  1  0
 17 18  2  0
 18 19  1  0
 19 20  2  0
 19 21  1  0
 18 22  1  0
 22 23  2  0
  8  2  1  0
 23 15  1  0
  1 24  1  0
  1 25  1  0
  1 26  1  0
  3 27  1  0
  4 28  1  0
  7 29  1  0
  9 30  1  0
 14 31  1  0
 16 32  1  0
 17 33  1  0
 22 34  1  0
 23 35  1  0
M  CHG  2  19   1  21  -1
M  END
$$$$
