
     RDKit          3D

 43 44  0  0  0  0  0  0  0  0999 V2000
   -2.5210   -3.6508    1.8705 C   0  0  0  0  0  0  0  0  0  0  0  0
   -2.0533   -2.4270    1.3141 O   0  0  0  0  0  0  0  0  0  0  0  0
   -2.9985   -1.5886    0.7683 C   0  0  0  0  0  0  0  0  0  0  0  0
   -4.3719   -1.8387    0.7448 C   0  0  0  0  0  0  0  0  0  0  0  0
   -5.2402   -0.9120    0.1615 C   0  0  0  0  0  0  0  0  0  0  0  0
   -4.7468    0.2713   -0.4008 C   0  0  0  0  0  0  0  0  0  0  0  0
   -5.7227    1.2216   -1.0017 C   0  0  0  0  0  0  0  0  0  0  0  0
   -5.2460    2.1750   -1.8571 N   0  0  0  0  0  0  0  0  0  0  0  0
   -6.9219    1.1394   -0.7652 O   0  0  0  0  0  0  0  0  0  0  0  0
   -3.3720    0.5326   -0.3633 C   0  0  0  0  0  0  0  0  0  0  0  0
   -2.4943   -0.3963    0.2035 C   0  0  0  0  0  0  0  0  0  0  0  0
   -1.0940   -0.2046    0.2650 N   0  0  0  0  0  0  0  0  0  0  0  0
   -0.3468    0.7908   -0.3288 C   0  0  0  0  0  0  0  0  0  0  0  0
   -0.7683    1.6502   -1.1000 O   0  0  0  0  0  0  0  0  0  0  0  0
    1.1188    0.7677   -0.0481 C   0  0  0  0  0  0  0  0  0  0  0  0
    1.6372    0.2045    1.1197 C   0  0  0  0  0  0  0  0  0  0  0  0
    3.0238    0.1863    1.3434 C   0  0  0  0  0  0  0  0  0  0  0  0
    3.9459    0.7216    0.4250 C   0  0  0  0  0  0  0  0  0  0  0  0
    5.3241    0.7039    0.6722 N   0  0  0  0  0  0  0  0  0  0  0  0
    6.2408    1.1607   -0.3720 C   0  0  0  0  0  0  0  0  0  0  0  0
    5.8596   -0.3111    1.5789 C   0  0  0  0  0  0  0  0  0  0  0  0
    3.3925    1.3193   -0.7207 C   0  0  0  0  0  0  0  0  0  0  0  0
    2.0118    1.3483   -0.9527 C   0  0  0  0  0  0  0  0  0  0  0  0
    1.6074    1.9739   -2.1052 O   0  0  0  0  0  0  0  0  0  0  0  0
   -3.0033   -4.2722    1.1089 H   0  0  0  0  0  0  0  0  0  0  0  0
   -1.6518   -4.1996    2.2456 H   0  0  0  0  0  0  0  0  0  0  0  0
   -3.1899   -3.4682    2.7179 H   0  0  0  0  0  0  0  0  0  0  0  0
   -4.8039   -2.7389    1.1690 H   0  0  0  0  0  0  0  0  0  0  0  0
   -6.3102   -1.1152    0.1481 H   0  0  0  0  0  0  0  0  0  0  0  0
   -4.3114    2.1645   -2.2405 H   0  0  0  0  0  0  0  0  0  0  0  0
   -5.9358    2.7493   -2.3239 H   0  0  0  0  0  0  0  0  0  0  0  0
   -2.9967    1.4729   -0.7461 H   0  0  0  0  0  0  0  0  0  0  0  0
   -0.6112   -0.9709    0.7236 H   0  0  0  0  0  0  0  0  0  0  0  0
    0.9904   -0.2001    1.8928 H   0  0  0  0  0  0  0  0  0  0  0  0
    3.3642   -0.2462    2.2802 H   0  0  0  0  0  0  0  0  0  0  0  0
    6.0329    2.1975   -0.6580 H   0  0  0  0  0  0  0  0  0  0  0  0
    6.1850    0.5149   -1.2552 H   0  0  0  0  0  0  0  0  0  0  0  0
    7.2777    1.1509   -0.0172 H   0  0  0  0  0  0  0  0  0  0  0  0
    6.9539   -0.2703    1.6220 H   0  0  0  0  0  0  0  0  0  0  0  0
    5.5813   -1.3189    1.2512 H   0  0  0  0  0  0  0  0  0  0  0  0
    5.5123   -0.1490    2.6047 H   0  0  0  0  0  0  0  0  0  0  0  0
    4.0221    1.7855   -1.4722 H   0  0  0  0  0  0  0  0  0  0  0  0
    0.6303    2.0759   -2.0608 H   0  0  0  0  0  0  0  0  0  0  0  0
  1  2  1  0
  2  3  1  0
  3  4  2  0
  4  5  1  0
  5  6  2  0
  6  7  1  0
  7  8  1  0
  7  9  2  0
  6 10  1  0
 10 11  2  0
 11 12  1  0
 12 13  1  0
 13 14  2  0
 13 15  1  0
 15 16  2  0
 16 17  1  0
 17 18  2  0
 18 19  1  0
 19 20  1  0
 19 21  1  0
 18 22  1  0
 22 23  2  0
 23 24  1  0
 11  3  1  0
 23 15  1  0
  1 25  1  0
  1 26  1  0
  1 27  1  0
  4 28  1  0
  5 29  1  0
  8 30  1  0
  8 31  1  0
 10 32  1  0
 12 33  1  0
 16 34  1  0
 17 35  1  0
 20 36  1  0
 20 37  1  0
 20 38  1  0
 21 39  1  0
 21 40  1  0
 21 41  1  0
 22 42  1  0
 24 43  1  0
M  END
$$$$
