MODEL        9USER    Run = 9USERUSER    Estimated Free Energy of Binding    =  -9.26 kcal/mol  [=(1)+(2)+(3)-(4)]USERUSER    (1) Final Intermolecular Energy     = -11.35 kcal/molUSER        vdW + Hbond + desolv Energy     = -10.91 kcal/molUSER        Electrostatic Energy            =  -0.44 kcal/molUSER        Moving Ligand-Fixed Receptor    = -11.35 kcal/molUSER        Moving Ligand-Moving Receptor   =  +0.00 kcal/molUSER    (2) Final Total Internal Energy     =  -1.42 kcal/molUSER    (3) Torsional Free Energy           =  +2.09 kcal/molUSER    (4) Unbound System's Energy         =  -1.42 kcal/molUSERUSERREMARK SMILES Cc1cc(Nc2ncc(F)c(N[C@H]3CC[C@@H](O)CC3)n2)ccc1C(=O)NOREMARK SMILES IDX 6 1 7 2 8 3 9 4 10 5 11 6 20 7 5 8 4 10 2 11 3 12 23 13REMARK SMILES IDX 22 14 21 15 1 16 24 17 26 18 25 19 27 21 12 23 13 25 19 26REMARK SMILES IDX 14 27 18 28 15 29 16 30 17 31REMARK H PARENT 5 9 26 20 27 22 12 24 17 32USER                              x       y       z     vdW  Elec       q    TypeUSER                           _______ _______ _______ _____ _____    ______ ____ROOTATOM      1  C   UNL     1      15.032 -14.721 -10.604 -0.16 -0.07    +0.229 A  ATOM      2  N   UNL     1      14.520 -15.906 -10.241 -0.21 +0.06    -0.218 NA ATOM      3  C   UNL     1      13.521 -16.396 -11.000 -0.26 -0.04    +0.158 A  ATOM      4  C   UNL     1      13.010 -15.742 -12.091 -0.15 -0.05    +0.183 A  ATOM      5  F   UNL     1      12.024 -16.296 -12.810 -0.04 +0.03    -0.201 F  ATOM      6  C   UNL     1      13.573 -14.518 -12.394 -0.18 -0.06    +0.168 A  ATOM      7  N   UNL     1      14.585 -14.013 -11.660 -0.21 +0.07    -0.192 NA ENDROOTBRANCH   1   8ATOM      8  N   UNL     1      16.070 -14.118  -9.899 -0.13 +0.08    -0.324 N  ATOM      9  H   UNL     1      16.917 -14.193 -10.444 +0.11 -0.03    +0.170 HD BRANCH   8  10ATOM     10  C   UNL     1      16.187 -13.551  -8.626 -0.35 -0.01    +0.041 A  ATOM     11  C   UNL     1      17.237 -13.338  -6.409 -0.39 +0.00    -0.036 A  ATOM     12  C   UNL     1      17.160 -13.923  -7.689 -0.36 -0.00    +0.030 A  ATOM     13  C   UNL     1      16.270 -12.384  -6.047 -0.41 -0.01    +0.045 A  ATOM     14  C   UNL     1      15.301 -11.988  -6.975 -0.41 -0.01    +0.016 A  ATOM     15  C   UNL     1      15.260 -12.571  -8.244 -0.37 -0.01    +0.027 A  ATOM     16  C   UNL     1      18.353 -13.762  -5.494 -0.51 +0.01    +0.045 C  BRANCH  13  17ATOM     17  C   UNL     1      16.207 -11.744  -4.709 -0.38 -0.03    +0.274 C  ATOM     18  N   UNL     1      17.281 -10.954  -4.367 -0.37 -0.01    -0.234 N  ATOM     19  O   UNL     1      15.289 -11.982  -3.929 -0.91 +0.03    -0.267 OA ATOM     20  H   UNL     1      18.179 -11.054  -4.829 +0.17 +0.02    +0.199 HD BRANCH  18  21ATOM     21  O   UNL     1      17.323 -10.567  -3.005 -0.96 -0.05    -0.288 OA ATOM     22  H   UNL     1      16.368 -10.491  -2.781 -0.21 -0.02    +0.246 HD ENDBRANCH  18  21ENDBRANCH  13  17ENDBRANCH   8  10ENDBRANCH   1   8BRANCH   6  23ATOM     23  N   UNL     1      13.194 -13.726 -13.474 -0.12 +0.18    -0.365 N  ATOM     24  H   UNL     1      14.048 -13.318 -13.851 -0.49 -0.12    +0.162 HD BRANCH  23  25ATOM     25  C   UNL     1      12.123 -12.745 -13.297 -0.37 -0.04    +0.081 C  ATOM     26  C   UNL     1      10.743 -13.422 -13.335 -0.31 -0.01    +0.027 C  ATOM     27  C   UNL     1      12.343 -12.037 -11.950 -0.35 -0.01    +0.027 C  ATOM     28  C   UNL     1       9.620 -12.432 -13.022 -0.36 -0.01    +0.034 C  ATOM     29  C   UNL     1      11.218 -11.050 -11.639 -0.59 -0.01    +0.034 C  ATOM     30  C   UNL     1       9.842 -11.712 -11.692 -0.29 -0.01    +0.114 C  BRANCH  30  31ATOM     31  O   UNL     1       9.750 -12.652 -10.625 -0.92 +0.00    -0.393 OA ATOM     32  H   UNL     1      10.368 -12.369  -9.929 -0.41 -0.28    +0.210 HD ENDBRANCH  30  31ENDBRANCH  23  25ENDBRANCH   6  23TORSDOF 7TERENDMDL