REMARK SMILES Cc1cc(Nc2ncc(Cl)c(N[C@H]3CC[C@@H](O)C(C)(C)C3)n2)ccc1-c1nnn[nH]1
REMARK SMILES IDX 6 1 7 2 8 3 9 4 10 5 11 6 22 7 5 8 4 10 2 11 3 12 25 13
REMARK SMILES IDX 24 14 23 15 1 16 26 17 27 18 30 19 28 20 29 21 12 23 13 25
REMARK SMILES IDX 14 26 21 27 15 28 18 29 16 30 19 31 20 32 17 33
REMARK H PARENT 5 9 30 22 12 24 17 34
ROOT
ATOM      1  C   UNL     1       0.968  -0.227  -1.543  1.00  0.00     0.229 A 
ATOM      2  N   UNL     1       1.468  -0.370  -2.776  1.00  0.00    -0.220 NA
ATOM      3  C   UNL     1       0.585  -0.512  -3.784  1.00  0.00     0.139 A 
ATOM      4  C   UNL     1      -0.777  -0.506  -3.608  1.00  0.00     0.101 A 
ATOM      5  Cl  UNL     1      -1.833  -0.676  -4.954  1.00  0.00    -0.079 Cl
ATOM      6  C   UNL     1      -1.224  -0.332  -2.304  1.00  0.00     0.150 A 
ATOM      7  N   UNL     1      -0.352  -0.205  -1.281  1.00  0.00    -0.194 NA
ENDROOT
BRANCH   1   8
ATOM      8  N   UNL     1       1.785  -0.077  -0.426  1.00  0.00    -0.324 N 
ATOM      9  H   UNL     1       1.200  -0.016   0.394  1.00  0.00     0.170 HD
BRANCH   8  10
ATOM     10  C   UNL     1       3.167  -0.113  -0.221  1.00  0.00     0.041 A 
ATOM     11  C   UNL     1       5.039   0.122   1.373  1.00  0.00    -0.038 A 
ATOM     12  C   UNL     1       3.660   0.122   1.074  1.00  0.00     0.030 A 
ATOM     13  C   UNL     1       5.962  -0.082   0.331  1.00  0.00     0.024 A 
ATOM     14  C   UNL     1       5.474  -0.330  -0.960  1.00  0.00     0.014 A 
ATOM     15  C   UNL     1       4.101  -0.338  -1.230  1.00  0.00     0.027 A 
ATOM     16  C   UNL     1       5.454   0.341   2.803  1.00  0.00     0.045 C 
BRANCH  13  17
ATOM     17  C   UNL     1       7.408  -0.052   0.515  1.00  0.00     0.179 A 
ATOM     18  N   UNL     1       8.303  -0.892   0.029  1.00  0.00    -0.109 NA
ATOM     19  N   UNL     1       8.096   0.930   1.174  1.00  0.00    -0.239 N 
ATOM     20  N   UNL     1       9.533  -0.431   0.438  1.00  0.00    -0.024 NA
ATOM     21  N   UNL     1       9.412   0.685   1.140  1.00  0.00    -0.048 NA
ATOM     22  H   UNL     1       7.752   1.764   1.630  1.00  0.00     0.194 HD
ENDBRANCH  13  17
ENDBRANCH   8  10
ENDBRANCH   1   8
BRANCH   6  23
ATOM     23  N   UNL     1      -2.604  -0.367  -2.030  1.00  0.00    -0.366 N 
ATOM     24  H   UNL     1      -3.121   0.115  -2.761  1.00  0.00     0.162 HD
BRANCH  23  25
ATOM     25  C   UNL     1      -3.045  -0.034  -0.674  1.00  0.00     0.081 C 
ATOM     26  C   UNL     1      -3.040   1.486  -0.464  1.00  0.00     0.027 C 
ATOM     27  C   UNL     1      -4.465  -0.601  -0.489  1.00  0.00     0.034 C 
ATOM     28  C   UNL     1      -3.632   1.878   0.890  1.00  0.00     0.034 C 
ATOM     29  C   UNL     1      -5.110  -0.232   0.870  1.00  0.00    -0.007 C 
ATOM     30  C   UNL     1      -5.035   1.301   1.108  1.00  0.00     0.120 C 
ATOM     31  C   UNL     1      -4.392  -0.976   2.016  1.00  0.00     0.014 C 
ATOM     32  C   UNL     1      -6.579  -0.702   0.859  1.00  0.00     0.014 C 
BRANCH  30  33
ATOM     33  O   UNL     1      -5.947   2.004   0.262  1.00  0.00    -0.393 OA
ATOM     34  H   UNL     1      -5.771   1.772  -0.663  1.00  0.00     0.210 HD
ENDBRANCH  30  33
ENDBRANCH  23  25
ENDBRANCH   6  23
TORSDOF 6
