REMARK SMILES Cc1cc(Nc2ncc(F)c(N[C@H]3CC[C@@H](O)CC3)n2)ccc1C(=O)NS(C)(=O)=O
REMARK SMILES IDX 6 1 7 2 8 3 9 4 10 5 11 6 20 7 5 8 4 10 2 11 3 12 23 13
REMARK SMILES IDX 22 14 21 15 1 16 24 17 26 18 25 19 27 21 28 22 29 23 30 24
REMARK SMILES IDX 12 25 13 27 19 28 14 29 18 30 15 31 16 32 17 33
REMARK H PARENT 5 9 26 20 12 26 17 34
ROOT
ATOM      1  C   UNL     1       0.548   0.056   0.537  1.00  0.00     0.229 A 
ATOM      2  N   UNL     1       0.495   1.262  -0.046  1.00  0.00    -0.218 NA
ATOM      3  C   UNL     1       1.674   1.862  -0.297  1.00  0.00     0.158 A 
ATOM      4  C   UNL     1       2.891   1.306   0.011  1.00  0.00     0.183 A 
ATOM      5  F   UNL     1       4.023   1.960  -0.274  1.00  0.00    -0.201 F 
ATOM      6  C   UNL     1       2.867   0.059   0.602  1.00  0.00     0.168 A 
ATOM      7  N   UNL     1       1.700  -0.561   0.869  1.00  0.00    -0.192 NA
ENDROOT
BRANCH   1   8
ATOM      8  N   UNL     1      -0.602  -0.685   0.786  1.00  0.00    -0.324 N 
ATOM      9  H   UNL     1      -0.339  -1.582   1.172  1.00  0.00     0.170 HD
BRANCH   8  10
ATOM     10  C   UNL     1      -1.961  -0.360   0.842  1.00  0.00     0.041 A 
ATOM     11  C   UNL     1      -3.824   1.239   0.878  1.00  0.00    -0.036 A 
ATOM     12  C   UNL     1      -2.445   0.956   0.836  1.00  0.00     0.030 A 
ATOM     13  C   UNL     1      -4.727   0.167   0.901  1.00  0.00     0.043 A 
ATOM     14  C   UNL     1      -4.268  -1.152   0.864  1.00  0.00     0.016 A 
ATOM     15  C   UNL     1      -2.896  -1.407   0.832  1.00  0.00     0.027 A 
ATOM     16  C   UNL     1      -4.293   2.666   0.915  1.00  0.00     0.045 C 
BRANCH  13  17
ATOM     17  C   UNL     1      -6.182   0.393   1.007  1.00  0.00     0.264 C 
ATOM     18  N   UNL     1      -6.896  -0.028  -0.117  1.00  0.00    -0.249 N 
ATOM     19  O   UNL     1      -6.683   0.841   2.024  1.00  0.00    -0.268 OA
ATOM     20  H   UNL     1      -6.420  -0.327  -0.965  1.00  0.00     0.183 HD
BRANCH  18  21
ATOM     21  S   UNL     1      -8.538   0.139  -0.303  1.00  0.00     0.232 S 
ATOM     22  C   UNL     1      -9.163  -1.040   0.874  1.00  0.00     0.183 C 
ATOM     23  O   UNL     1      -8.940   1.465   0.098  1.00  0.00    -0.207 OA
ATOM     24  O   UNL     1      -8.825  -0.364  -1.632  1.00  0.00    -0.207 OA
ENDBRANCH  18  21
ENDBRANCH  13  17
ENDBRANCH   8  10
ENDBRANCH   1   8
BRANCH   6  25
ATOM     25  N   UNL     1       3.986  -0.662   1.005  1.00  0.00    -0.365 N 
ATOM     26  H   UNL     1       3.619  -1.538   1.377  1.00  0.00     0.162 HD
BRANCH  25  27
ATOM     27  C   UNL     1       5.140  -0.884   0.130  1.00  0.00     0.081 C 
ATOM     28  C   UNL     1       4.799  -1.018  -1.356  1.00  0.00     0.027 C 
ATOM     29  C   UNL     1       6.258   0.131   0.409  1.00  0.00     0.027 C 
ATOM     30  C   UNL     1       6.020  -1.429  -2.181  1.00  0.00     0.034 C 
ATOM     31  C   UNL     1       7.133   0.407  -0.816  1.00  0.00     0.034 C 
ATOM     32  C   UNL     1       7.338  -0.844  -1.661  1.00  0.00     0.114 C 
BRANCH  32  33
ATOM     33  O   UNL     1       8.193  -0.552  -2.760  1.00  0.00    -0.393 OA
ATOM     34  H   UNL     1       7.779   0.148  -3.291  1.00  0.00     0.210 HD
ENDBRANCH  32  33
ENDBRANCH  25  27
ENDBRANCH   6  25
TORSDOF 7
