MODEL        1USER    Run = 1USERUSER    Estimated Free Energy of Binding    = -10.16 kcal/mol  [=(1)+(2)+(3)-(4)]USERUSER    (1) Final Intermolecular Energy     = -12.25 kcal/molUSER        vdW + Hbond + desolv Energy     = -11.87 kcal/molUSER        Electrostatic Energy            =  -0.38 kcal/molUSER        Moving Ligand-Fixed Receptor    = -12.25 kcal/molUSER        Moving Ligand-Moving Receptor   =  +0.00 kcal/molUSER    (2) Final Total Internal Energy     =  -1.35 kcal/molUSER    (3) Torsional Free Energy           =  +2.09 kcal/molUSER    (4) Unbound System's Energy         =  -1.35 kcal/molUSERUSERREMARK SMILES Cc1cc(Nc2ncc(F)c(N[C@H]3CC[C@@H](O)CC3)n2)ccc1C(=O)NS(C)(=O)=OREMARK SMILES IDX 6 1 7 2 8 3 9 4 10 5 11 6 20 7 5 8 4 10 2 11 3 12 23 13REMARK SMILES IDX 22 14 21 15 1 16 24 17 26 18 25 19 27 21 28 22 29 23 30 24REMARK SMILES IDX 12 25 13 27 19 28 14 29 18 30 15 31 16 32 17 33REMARK H PARENT 5 9 26 20 12 26 17 34USER                              x       y       z     vdW  Elec       q    TypeUSER                           _______ _______ _______ _____ _____    ______ ____ROOTATOM      1  C   UNL     1      17.931 -15.863  -7.905 -0.26 +0.01    +0.229 A  ATOM      2  N   UNL     1      18.854 -16.686  -7.386 -0.27 -0.03    -0.218 NA ATOM      3  C   UNL     1      19.379 -16.330  -6.199 -0.32 +0.05    +0.158 A  ATOM      4  C   UNL     1      19.019 -15.193  -5.518 -0.35 +0.06    +0.183 A  ATOM      5  F   UNL     1      19.581 -14.906  -4.338 -0.18 -0.11    -0.201 F  ATOM      6  C   UNL     1      18.058 -14.398  -6.110 -0.32 +0.01    +0.168 A  ATOM      7  N   UNL     1      17.520 -14.729  -7.301 -0.28 +0.01    -0.192 NA ENDROOTBRANCH   1   8ATOM      8  N   UNL     1      17.275 -16.160  -9.094 -0.17 +0.01    -0.324 N  ATOM      9  H   UNL     1      17.611 -17.047  -9.444 +0.11 +0.00    +0.170 HD BRANCH   8  10ATOM     10  C   UNL     1      16.141 -15.635  -9.723 -0.32 -0.01    +0.041 A  ATOM     11  C   UNL     1      13.901 -15.837 -10.708 -0.32 +0.01    -0.036 A  ATOM     12  C   UNL     1      15.030 -16.408 -10.091 -0.29 -0.01    +0.030 A  ATOM     13  C   UNL     1      13.890 -14.453 -10.933 -0.28 -0.02    +0.043 A  ATOM     14  C   UNL     1      14.967 -13.658 -10.535 -0.32 -0.01    +0.016 A  ATOM     15  C   UNL     1      16.079 -14.249  -9.933 -0.34 -0.01    +0.027 A  ATOM     16  C   UNL     1      12.754 -16.713 -11.125 -0.44 -0.01    +0.045 C  BRANCH  13  17ATOM     17  C   UNL     1      12.765 -13.800 -11.631 -0.18 -0.13    +0.264 C  ATOM     18  N   UNL     1      11.603 -13.714 -10.860 -0.07 +0.20    -0.249 N  ATOM     19  O   UNL     1      12.897 -13.328 -12.747 -0.23 +0.12    -0.268 OA ATOM     20  H   UNL     1      11.527 -14.189  -9.963 -0.36 -0.27    +0.183 HD BRANCH  18  21ATOM     21  S   UNL     1      10.167 -13.073 -11.394 -0.46 -0.04    +0.232 S  ATOM     22  C   UNL     1      10.693 -11.520 -12.086 -0.42 -0.08    +0.183 C  ATOM     23  O   UNL     1       9.626 -13.900 -12.444 -0.69 -0.02    -0.207 OA ATOM     24  O   UNL     1       9.406 -12.789 -10.193 -1.14 -0.09    -0.207 OA ENDBRANCH  18  21ENDBRANCH  13  17ENDBRANCH   8  10ENDBRANCH   1   8BRANCH   6  25ATOM     25  N   UNL     1      17.573 -13.202  -5.593 -0.18 -0.01    -0.365 N  ATOM     26  H   UNL     1      18.393 -12.717  -5.229 +0.13 +0.02    +0.162 HD BRANCH  25  27ATOM     27  C   UNL     1      16.706 -12.304  -6.359 -0.45 -0.01    +0.081 C  ATOM     28  C   UNL     1      16.149 -11.121  -5.564 -0.59 -0.01    +0.027 C  ATOM     29  C   UNL     1      17.359 -11.892  -7.686 -0.44 -0.00    +0.027 C  ATOM     30  C   UNL     1      15.113 -10.335  -6.371 -0.63 -0.01    +0.034 C  ATOM     31  C   UNL     1      16.887 -10.524  -8.185 -0.50 -0.01    +0.034 C  ATOM     32  C   UNL     1      15.415 -10.283  -7.873 -0.59 -0.04    +0.114 C  BRANCH  32  33ATOM     33  O   UNL     1      15.009  -9.023  -8.394 -0.45 +0.16    -0.393 OA ATOM     34  H   UNL     1      14.697  -8.474  -7.657 -0.25 -0.12    +0.210 HD ENDBRANCH  32  33ENDBRANCH  25  27ENDBRANCH   6  25TORSDOF 7TERENDMDL