MODEL        6USER    Run = 6USERUSER    Estimated Free Energy of Binding    =  -8.45 kcal/mol  [=(1)+(2)+(3)-(4)]USERUSER    (1) Final Intermolecular Energy     = -11.13 kcal/molUSER        vdW + Hbond + desolv Energy     = -10.76 kcal/molUSER        Electrostatic Energy            =  -0.37 kcal/molUSER        Moving Ligand-Fixed Receptor    = -11.13 kcal/molUSER        Moving Ligand-Moving Receptor   =  +0.00 kcal/molUSER    (2) Final Total Internal Energy     =  -1.58 kcal/molUSER    (3) Torsional Free Energy           =  +2.68 kcal/molUSER    (4) Unbound System's Energy         =  -1.58 kcal/molUSERUSERREMARK SMILES COc1ccc(O)c(C(=O)c2ccc(Nc3ncc(F)c(N[C@H]4CC[C@@H](O)CC4)n3)cc2)c1FREMARK SMILES IDX 15 1 14 3 11 4 12 5 32 6 13 7 31 8 9 9 10 10 8 11 3 12 4 13REMARK SMILES IDX 33 14 5 15 6 16 34 17 2 18 1 19 7 20 16 22 17 23 30 24 18 25REMARK SMILES IDX 21 26 19 27 20 28 22 29 23 31 29 32 24 33 28 34 25 35 26 36REMARK SMILES IDX 27 37REMARK H PARENT 15 2 7 21 22 30 27 38USER                              x       y       z     vdW  Elec       q    TypeUSER                           _______ _______ _______ _____ _____    ______ ____ROOTATOM      1  N   UNL     1      10.774 -10.271 -12.967 -0.28 +0.25    -0.324 N  ATOM      2  H   UNL     1      11.600  -9.751 -13.220 -0.32 -0.15    +0.170 HD ENDROOTBRANCH   1   3ATOM      3  C   UNL     1       9.619  -9.535 -12.681 -0.49 -0.02    +0.041 A  ATOM      4  C   UNL     1       7.241  -8.061 -12.253 -0.37 -0.00    +0.023 A  ATOM      5  C   UNL     1       7.312  -8.986 -13.295 -0.31 -0.00    +0.014 A  ATOM      6  C   UNL     1       8.338  -7.894 -11.408 -0.45 -0.00    +0.014 A  ATOM      7  C   UNL     1       8.494  -9.706 -13.506 -0.22 -0.02    +0.027 A  ATOM      8  C   UNL     1       9.516  -8.620 -11.628 -0.54 -0.00    +0.027 A  BRANCH   4   9ATOM      9  C   UNL     1       6.006  -7.291 -11.972 -0.24 -0.01    +0.199 C  ATOM     10  O   UNL     1       5.972  -6.091 -12.249 -0.14 +0.07    -0.288 OA BRANCH   9  11ATOM     11  C   UNL     1       4.815  -7.880 -11.320 -0.25 +0.01    +0.104 A  ATOM     12  C   UNL     1       2.988  -9.496 -11.253 -0.37 +0.09    +0.155 A  ATOM     13  C   UNL     1       2.571  -8.969 -10.029 -0.38 +0.02    +0.053 A  ATOM     14  C   UNL     1       4.106  -8.939 -11.891 -0.22 +0.07    +0.179 A  ATOM     15  C   UNL     1       3.251  -7.886  -9.464 -0.48 +0.01    +0.051 A  ATOM     16  C   UNL     1       4.355  -7.340 -10.113 -0.27 +0.01    +0.130 A  ATOM     17  F   UNL     1       4.476  -9.431 -13.084 -0.06 -0.13    -0.202 F  BRANCH  12  18ATOM     18  O   UNL     1       2.395 -10.541 -11.910 -0.56 -0.68    -0.494 OA ATOM     19  C   UNL     1       1.894 -11.610 -11.119 -0.51 +0.27    +0.278 C  ENDBRANCH  12  18BRANCH  16  20ATOM     20  O   UNL     1       4.946  -6.264  -9.506 -0.09 +0.01    -0.507 OA ATOM     21  H   UNL     1       5.360  -5.712 -10.209 +0.18 -0.05    +0.293 HD ENDBRANCH  16  20ENDBRANCH   9  11ENDBRANCH   4   9ENDBRANCH   1   3BRANCH   1  22ATOM     22  C   UNL     1      11.069 -11.631 -13.016 -0.24 -0.15    +0.229 A  ATOM     23  N   UNL     1      10.105 -12.566 -13.048 -0.20 +0.09    -0.218 NA ATOM     24  N   UNL     1      12.385 -11.922 -13.013 -0.27 +0.10    -0.192 NA ATOM     25  C   UNL     1      10.502 -13.852 -13.090 -0.18 -0.03    +0.158 A  ATOM     26  C   UNL     1      12.761 -13.217 -13.041 -0.24 -0.08    +0.168 A  ATOM     27  C   UNL     1      11.819 -14.230 -13.094 -0.14 -0.06    +0.183 A  ATOM     28  F   UNL     1      12.165 -15.525 -13.129 -0.01 +0.04    -0.201 F  BRANCH  26  29ATOM     29  N   UNL     1      14.125 -13.556 -13.093 -0.11 +0.18    -0.365 N  ATOM     30  H   UNL     1      14.377 -13.867 -14.029 -0.50 -0.13    +0.162 HD BRANCH  29  31ATOM     31  C   UNL     1      14.661 -14.405 -12.029 -0.34 -0.03    +0.081 C  ATOM     32  C   UNL     1      16.142 -14.753 -12.285 -0.50 -0.01    +0.027 C  ATOM     33  C   UNL     1      14.456 -13.661 -10.693 -0.37 -0.01    +0.027 C  ATOM     34  C   UNL     1      17.085 -13.779 -11.588 -0.52 -0.01    +0.034 C  ATOM     35  C   UNL     1      15.462 -14.108  -9.635 -0.38 -0.01    +0.034 C  ATOM     36  C   UNL     1      16.900 -13.802 -10.068 -0.37 -0.02    +0.114 C  BRANCH  36  37ATOM     37  O   UNL     1      17.298 -12.529  -9.565 -0.17 +0.07    -0.393 OA ATOM     38  H   UNL     1      16.817 -12.375  -8.734 +0.15 -0.05    +0.210 HD ENDBRANCH  36  37ENDBRANCH  29  31ENDBRANCH  26  29ENDBRANCH   1  22TORSDOF 9TERENDMDL