REMARK SMILES COc1ccc(O)c(C(=O)c2ccc(Nc3ncc(F)c(N[C@H]4CC[C@@H](O)CC4)n3)cc2)c1F
REMARK SMILES IDX 15 1 14 3 11 4 12 5 32 6 13 7 31 8 9 9 10 10 8 11 3 12 4 13
REMARK SMILES IDX 33 14 5 15 6 16 34 17 2 18 1 19 7 20 16 22 17 23 30 24 18 25
REMARK SMILES IDX 21 26 19 27 20 28 22 29 23 31 29 32 24 33 28 34 25 35 26 36
REMARK SMILES IDX 27 37
REMARK H PARENT 15 2 7 21 22 30 27 38
ROOT
ATOM      1  N   UNL     1      -0.543   0.922   0.523  1.00  0.00    -0.324 N 
ATOM      2  H   UNL     1      -0.886   0.725  -0.405  1.00  0.00     0.170 HD
ENDROOT
BRANCH   1   3
ATOM      3  C   UNL     1       0.825   1.183   0.655  1.00  0.00     0.041 A 
ATOM      4  C   UNL     1       3.619   1.615   0.799  1.00  0.00     0.023 A 
ATOM      5  C   UNL     1       3.030   1.246  -0.410  1.00  0.00     0.014 A 
ATOM      6  C   UNL     1       2.815   1.800   1.925  1.00  0.00     0.014 A 
ATOM      7  C   UNL     1       1.649   1.025  -0.473  1.00  0.00     0.027 A 
ATOM      8  C   UNL     1       1.434   1.577   1.851  1.00  0.00     0.027 A 
BRANCH   4   9
ATOM      9  C   UNL     1       5.072   1.883   0.914  1.00  0.00     0.199 C 
ATOM     10  O   UNL     1       5.455   2.822   1.613  1.00  0.00    -0.288 OA
BRANCH   9  11
ATOM     11  C   UNL     1       6.099   1.106   0.183  1.00  0.00     0.104 A 
ATOM     12  C   UNL     1       6.916  -0.971  -0.801  1.00  0.00     0.155 A 
ATOM     13  C   UNL     1       8.074  -0.313  -1.221  1.00  0.00     0.053 A 
ATOM     14  C   UNL     1       5.940  -0.253  -0.095  1.00  0.00     0.179 A 
ATOM     15  C   UNL     1       8.260   1.039  -0.919  1.00  0.00     0.051 A 
ATOM     16  C   UNL     1       7.285   1.737  -0.211  1.00  0.00     0.130 A 
ATOM     17  F   UNL     1       4.848  -0.905   0.335  1.00  0.00    -0.202 F 
BRANCH  12  18
ATOM     18  O   UNL     1       6.630  -2.292  -1.023  1.00  0.00    -0.494 OA
ATOM     19  C   UNL     1       7.624  -3.076  -1.669  1.00  0.00     0.278 C 
ENDBRANCH  12  18
BRANCH  16  20
ATOM     20  O   UNL     1       7.559   3.049   0.068  1.00  0.00    -0.507 OA
ATOM     21  H   UNL     1       6.910   3.355   0.743  1.00  0.00     0.293 HD
ENDBRANCH  16  20
ENDBRANCH   9  11
ENDBRANCH   4   9
ENDBRANCH   1   3
BRANCH   1  22
ATOM     22  C   UNL     1      -1.614   0.893   1.412  1.00  0.00     0.229 A 
ATOM     23  N   UNL     1      -1.450   1.101   2.728  1.00  0.00    -0.218 NA
ATOM     24  N   UNL     1      -2.808   0.627   0.846  1.00  0.00    -0.192 NA
ATOM     25  C   UNL     1      -2.553   1.047   3.498  1.00  0.00     0.158 A 
ATOM     26  C   UNL     1      -3.899   0.563   1.637  1.00  0.00     0.168 A 
ATOM     27  C   UNL     1      -3.803   0.786   3.000  1.00  0.00     0.183 A 
ATOM     28  F   UNL     1      -4.871   0.735   3.808  1.00  0.00    -0.201 F 
BRANCH  26  29
ATOM     29  N   UNL     1      -5.168   0.341   1.074  1.00  0.00    -0.365 N 
ATOM     30  H   UNL     1      -5.716  -0.277   1.668  1.00  0.00     0.162 HD
BRANCH  29  31
ATOM     31  C   UNL     1      -5.237  -0.000  -0.347  1.00  0.00     0.081 C 
ATOM     32  C   UNL     1      -4.855  -1.475  -0.587  1.00  0.00     0.027 C 
ATOM     33  C   UNL     1      -6.665   0.323  -0.834  1.00  0.00     0.027 C 
ATOM     34  C   UNL     1      -6.078  -2.385  -0.606  1.00  0.00     0.034 C 
ATOM     35  C   UNL     1      -7.050  -0.511  -2.054  1.00  0.00     0.034 C 
ATOM     36  C   UNL     1      -7.046  -2.009  -1.731  1.00  0.00     0.114 C 
BRANCH  36  37
ATOM     37  O   UNL     1      -8.351  -2.423  -1.335  1.00  0.00    -0.393 OA
ATOM     38  H   UNL     1      -8.953  -2.263  -2.082  1.00  0.00     0.210 HD
ENDBRANCH  36  37
ENDBRANCH  29  31
ENDBRANCH  26  29
ENDBRANCH   1  22
TORSDOF 9
