MODEL        1USER    Run = 1USERUSER    Estimated Free Energy of Binding    =  -9.89 kcal/mol  [=(1)+(2)+(3)-(4)]USERUSER    (1) Final Intermolecular Energy     = -11.68 kcal/molUSER        vdW + Hbond + desolv Energy     = -11.31 kcal/molUSER        Electrostatic Energy            =  -0.36 kcal/molUSER        Moving Ligand-Fixed Receptor    = -11.68 kcal/molUSER        Moving Ligand-Moving Receptor   =  +0.00 kcal/molUSER    (2) Final Total Internal Energy     =  -1.33 kcal/molUSER    (3) Torsional Free Energy           =  +1.79 kcal/molUSER    (4) Unbound System's Energy         =  -1.33 kcal/molUSERUSERREMARK SMILES Cc1cc(Nc2ncc(Cl)c(N[C@H]3CC[C@@H](O)CC3)n2)ccc1-c1nnn[nH]1REMARK SMILES IDX 6 1 7 2 8 3 9 4 10 5 11 6 20 7 5 8 4 10 2 11 3 12 23 13REMARK SMILES IDX 22 14 21 15 1 16 24 17 25 18 28 19 26 20 27 21 12 23 13 25REMARK SMILES IDX 19 26 14 27 18 28 15 29 16 30 17 31REMARK H PARENT 5 9 28 22 12 24 17 32USER                              x       y       z     vdW  Elec       q    TypeUSER                           _______ _______ _______ _____ _____    ______ ____ROOTATOM      1  C   UNL     1      17.540 -15.427  -7.942 -0.25 -0.01    +0.229 A  ATOM      2  N   UNL     1      18.732 -15.959  -7.649 -0.27 -0.02    -0.220 NA ATOM      3  C   UNL     1      19.391 -15.448  -6.590 -0.33 +0.03    +0.139 A  ATOM      4  C   UNL     1      18.919 -14.413  -5.820 -0.41 +0.02    +0.101 A  ATOM      5  Cl  UNL     1      19.812 -13.893  -4.447 -0.83 -0.03    -0.079 Cl ATOM      6  C   UNL     1      17.689 -13.901  -6.205 -0.32 -0.00    +0.150 A  ATOM      7  N   UNL     1      16.996 -14.415  -7.243 -0.26 +0.03    -0.194 NA ENDROOTBRANCH   1   8ATOM      8  N   UNL     1      16.763 -15.888  -9.000 -0.17 +0.02    -0.324 N  ATOM      9  H   UNL     1      17.193 -16.719  -9.381 +0.11 -0.00    +0.170 HD BRANCH   8  10ATOM     10  C   UNL     1      15.556 -15.478  -9.574 -0.29 -0.01    +0.041 A  ATOM     11  C   UNL     1      13.917 -13.776 -10.260 -0.32 +0.02    -0.038 A  ATOM     12  C   UNL     1      15.138 -14.147  -9.656 -0.33 -0.01    +0.030 A  ATOM     13  C   UNL     1      13.078 -14.770 -10.799 -0.32 -0.01    +0.024 A  ATOM     14  C   UNL     1      13.493 -16.109 -10.719 -0.37 -0.00    +0.014 A  ATOM     15  C   UNL     1      14.711 -16.452 -10.120 -0.30 -0.01    +0.027 A  ATOM     16  C   UNL     1      13.550 -12.314 -10.289 -0.27 -0.03    +0.045 C  BRANCH  13  17ATOM     17  C   UNL     1      11.799 -14.448 -11.428 -0.14 -0.07    +0.179 A  ATOM     18  N   UNL     1      11.259 -14.975 -12.510 -0.47 +0.01    -0.109 NA ATOM     19  N   UNL     1      10.911 -13.520 -10.953 -0.14 +0.14    -0.239 N  ATOM     20  N   UNL     1      10.049 -14.349 -12.693 -0.82 -0.00    -0.024 NA ATOM     21  N   UNL     1       9.831 -13.454 -11.741 -0.67 -0.00    -0.048 NA ATOM     22  H   UNL     1      10.966 -12.937 -10.129 -0.42 -0.36    +0.194 HD ENDBRANCH  13  17ENDBRANCH   8  10ENDBRANCH   1   8BRANCH   6  23ATOM     23  N   UNL     1      17.038 -12.842  -5.556 -0.18 +0.02    -0.366 N  ATOM     24  H   UNL     1      16.128 -13.226  -5.300 +0.12 -0.04    +0.162 HD BRANCH  23  25ATOM     25  C   UNL     1      16.850 -11.631  -6.370 -0.46 -0.01    +0.081 C  ATOM     26  C   UNL     1      17.407 -11.823  -7.795 -0.43 -0.00    +0.027 C  ATOM     27  C   UNL     1      15.352 -11.309  -6.412 -0.58 -0.01    +0.027 C  ATOM     28  C   UNL     1      16.705 -10.963  -8.848 -0.53 -0.01    +0.034 C  ATOM     29  C   UNL     1      15.061 -10.019  -7.182 -0.66 -0.01    +0.034 C  ATOM     30  C   UNL     1      16.109  -9.696  -8.249 -0.62 -0.03    +0.114 C  BRANCH  30  31ATOM     31  O   UNL     1      15.513  -8.929  -9.288 -0.40 +0.13    -0.393 OA ATOM     32  H   UNL     1      14.961  -8.245  -8.873 +0.02 -0.11    +0.210 HD ENDBRANCH  30  31ENDBRANCH  23  25ENDBRANCH   6  23TORSDOF 6TERENDMDL