REMARK SMILES Cc1cc(Nc2ncc(F)c(N[C@H]3CC[C@@H](O)CC3)n2)ccc1C(=O)NO
REMARK SMILES IDX 6 1 7 2 8 3 9 4 10 5 11 6 20 7 5 8 4 10 2 11 3 12 23 13
REMARK SMILES IDX 22 14 21 15 1 16 24 17 26 18 25 19 27 21 12 23 13 25 19 26
REMARK SMILES IDX 14 27 18 28 15 29 16 30 17 31
REMARK H PARENT 5 9 26 20 27 22 12 24 17 32
ROOT
ATOM      1  C   UNL     1       0.504  -0.700  -0.168  1.00  0.00     0.229 A 
ATOM      2  N   UNL     1       0.688  -1.296   1.019  1.00  0.00    -0.218 NA
ATOM      3  C   UNL     1      -0.395  -1.848   1.599  1.00  0.00     0.158 A 
ATOM      4  C   UNL     1      -1.649  -1.812   1.046  1.00  0.00     0.183 A 
ATOM      5  F   UNL     1      -2.680  -2.395   1.672  1.00  0.00    -0.201 F 
ATOM      6  C   UNL     1      -1.767  -1.164  -0.168  1.00  0.00     0.168 A 
ATOM      7  N   UNL     1      -0.695  -0.618  -0.777  1.00  0.00    -0.192 NA
ENDROOT
BRANCH   1   8
ATOM      8  N   UNL     1       1.550  -0.100  -0.863  1.00  0.00    -0.324 N 
ATOM      9  H   UNL     1       1.191   0.266  -1.733  1.00  0.00     0.170 HD
BRANCH   8  10
ATOM     10  C   UNL     1       2.929   0.006  -0.654  1.00  0.00     0.041 A 
ATOM     11  C   UNL     1       4.992  -0.417   0.622  1.00  0.00    -0.036 A 
ATOM     12  C   UNL     1       3.601  -0.558   0.438  1.00  0.00     0.030 A 
ATOM     13  C   UNL     1       5.716   0.359  -0.299  1.00  0.00     0.045 A 
ATOM     14  C   UNL     1       5.065   0.916  -1.405  1.00  0.00     0.016 A 
ATOM     15  C   UNL     1       3.688   0.744  -1.573  1.00  0.00     0.027 A 
ATOM     16  C   UNL     1       5.632  -1.108   1.795  1.00  0.00     0.045 C 
BRANCH  13  17
ATOM     17  C   UNL     1       7.170   0.633  -0.179  1.00  0.00     0.274 C 
ATOM     18  N   UNL     1       7.606   1.048   1.059  1.00  0.00    -0.234 N 
ATOM     19  O   UNL     1       7.914   0.574  -1.154  1.00  0.00    -0.267 OA
ATOM     20  H   UNL     1       6.966   1.448   1.737  1.00  0.00     0.199 HD
BRANCH  18  21
ATOM     21  O   UNL     1       8.932   1.546   1.085  1.00  0.00    -0.288 OA
ATOM     22  H   UNL     1       9.228   1.396   0.159  1.00  0.00     0.246 HD
ENDBRANCH  18  21
ENDBRANCH  13  17
ENDBRANCH   8  10
ENDBRANCH   1   8
BRANCH   6  23
ATOM     23  N   UNL     1      -2.956  -1.048  -0.882  1.00  0.00    -0.365 N 
ATOM     24  H   UNL     1      -2.748  -0.490  -1.709  1.00  0.00     0.162 HD
BRANCH  23  25
ATOM     25  C   UNL     1      -4.165  -0.606  -0.186  1.00  0.00     0.081 C 
ATOM     26  C   UNL     1      -4.045   0.864   0.248  1.00  0.00     0.027 C 
ATOM     27  C   UNL     1      -5.358  -0.795  -1.137  1.00  0.00     0.027 C 
ATOM     28  C   UNL     1      -5.349   1.380   0.860  1.00  0.00     0.034 C 
ATOM     29  C   UNL     1      -6.659  -0.276  -0.524  1.00  0.00     0.034 C 
ATOM     30  C   UNL     1      -6.541   1.179  -0.074  1.00  0.00     0.114 C 
BRANCH  30  31
ATOM     31  O   UNL     1      -6.381   1.999  -1.229  1.00  0.00    -0.393 OA
ATOM     32  H   UNL     1      -6.395   2.926  -0.936  1.00  0.00     0.210 HD
ENDBRANCH  30  31
ENDBRANCH  23  25
ENDBRANCH   6  23
TORSDOF 7
