MODEL        3USER    Run = 3USERUSER    Estimated Free Energy of Binding    = -10.36 kcal/mol  [=(1)+(2)+(3)-(4)]USERUSER    (1) Final Intermolecular Energy     = -12.15 kcal/molUSER        vdW + Hbond + desolv Energy     = -12.17 kcal/molUSER        Electrostatic Energy            =  +0.03 kcal/molUSER        Moving Ligand-Fixed Receptor    = -12.15 kcal/molUSER        Moving Ligand-Moving Receptor   =  +0.00 kcal/molUSER    (2) Final Total Internal Energy     =  -1.16 kcal/molUSER    (3) Torsional Free Energy           =  +1.79 kcal/molUSER    (4) Unbound System's Energy         =  -1.16 kcal/molUSERUSERREMARK SMILES Cc1cc(Nc2ncc(Cl)c(N[C@H]3CC[C@@H](O)C(C)(C)C3)n2)ccc1-c1nnn[nH]1REMARK SMILES IDX 6 1 7 2 8 3 9 4 10 5 11 6 22 7 5 8 4 10 2 11 3 12 25 13REMARK SMILES IDX 24 14 23 15 1 16 26 17 27 18 30 19 28 20 29 21 12 23 13 25REMARK SMILES IDX 14 26 21 27 15 28 18 29 16 30 19 31 20 32 17 33REMARK H PARENT 5 9 30 22 12 24 17 34USER                              x       y       z     vdW  Elec       q    TypeUSER                           _______ _______ _______ _____ _____    ______ ____ROOTATOM      1  C   UNL     1      15.870 -15.079 -10.092 -0.19 -0.05    +0.229 A  ATOM      2  N   UNL     1      16.162 -16.232 -10.706 -0.19 +0.03    -0.220 NA ATOM      3  C   UNL     1      15.125 -16.974 -11.141 -0.26 -0.02    +0.139 A  ATOM      4  C   UNL     1      13.811 -16.604 -10.997 -0.30 -0.02    +0.101 A  ATOM      5  Cl  UNL     1      12.549 -17.605 -11.599 -0.54 +0.02    -0.079 Cl ATOM      6  C   UNL     1      13.585 -15.385 -10.369 -0.27 -0.06    +0.150 A  ATOM      7  N   UNL     1      14.612 -14.637  -9.912 -0.22 +0.08    -0.194 NA ENDROOTBRANCH   1   8ATOM      8  N   UNL     1      16.859 -14.233  -9.598 -0.15 +0.06    -0.324 N  ATOM      9  H   UNL     1      17.500 -14.016 -10.346 +0.11 -0.03    +0.170 HD BRANCH   8  10ATOM     10  C   UNL     1      17.057 -13.576  -8.380 -0.34 -0.01    +0.041 A  ATOM     11  C   UNL     1      18.007 -13.661  -6.102 -0.42 -0.00    -0.038 A  ATOM     12  C   UNL     1      17.772 -14.238  -7.368 -0.37 -0.00    +0.030 A  ATOM     13  C   UNL     1      17.472 -12.390  -5.823 -0.44 -0.00    +0.024 A  ATOM     14  C   UNL     1      16.768 -11.720  -6.835 -0.43 -0.00    +0.014 A  ATOM     15  C   UNL     1      16.560 -12.308  -8.087 -0.39 -0.01    +0.027 A  ATOM     16  C   UNL     1      18.824 -14.441  -5.108 -0.55 +0.01    +0.045 C  BRANCH  13  17ATOM     17  C   UNL     1      17.608 -11.721  -4.535 -0.37 +0.02    +0.179 A  ATOM     18  N   UNL     1      16.645 -11.265  -3.754 -0.98 -0.00    -0.109 NA ATOM     19  N   UNL     1      18.788 -11.526  -3.871 -0.36 -0.04    -0.239 N  ATOM     20  N   UNL     1      17.260 -10.755  -2.634 -1.01 -0.01    -0.024 NA ATOM     21  N   UNL     1      18.573 -10.912  -2.701 -0.91 -0.01    -0.048 NA ATOM     22  H   UNL     1      19.727 -11.790  -4.134 -0.03 +0.01    +0.194 HD ENDBRANCH  13  17ENDBRANCH   8  10ENDBRANCH   1   8BRANCH   6  23ATOM     23  N   UNL     1      12.265 -14.957 -10.133 -0.17 +0.27    -0.366 N  ATOM     24  H   UNL     1      11.668 -15.753  -9.922 -0.14 -0.09    +0.162 HD BRANCH  23  25ATOM     25  C   UNL     1      11.672 -14.005 -11.075 -0.23 -0.05    +0.081 C  ATOM     26  C   UNL     1      12.402 -12.657 -11.010 -0.30 -0.02    +0.027 C  ATOM     27  C   UNL     1      11.780 -14.612 -12.487 -0.28 -0.01    +0.034 C  ATOM     28  C   UNL     1      11.905 -11.686 -12.081 -0.45 -0.02    +0.034 C  ATOM     29  C   UNL     1      11.287 -13.666 -13.610 -0.31 +0.00    -0.007 C  ATOM     30  C   UNL     1      11.977 -12.279 -13.493 -0.35 -0.07    +0.120 C  ATOM     31  C   UNL     1       9.755 -13.498 -13.526 -0.35 -0.00    +0.014 C  ATOM     32  C   UNL     1      11.610 -14.312 -14.972 -0.31 -0.01    +0.014 C  BRANCH  30  33ATOM     33  O   UNL     1      13.350 -12.346 -13.883 -0.24 +0.23    -0.393 OA ATOM     34  H   UNL     1      13.486 -13.126 -14.443 -0.43 -0.18    +0.210 HD ENDBRANCH  30  33ENDBRANCH  23  25ENDBRANCH   6  23TORSDOF 6TERENDMDL