MODEL        4USER    Run = 4USERUSER    Estimated Free Energy of Binding    = -12.37 kcal/mol  [=(1)+(2)+(3)-(4)]USERUSER    (1) Final Intermolecular Energy     = -15.65 kcal/molUSER        vdW + Hbond + desolv Energy     = -15.60 kcal/molUSER        Electrostatic Energy            =  -0.05 kcal/molUSER        Moving Ligand-Fixed Receptor    = -15.65 kcal/molUSER        Moving Ligand-Moving Receptor   =  +0.00 kcal/molUSER    (2) Final Total Internal Energy     =  -2.75 kcal/molUSER    (3) Torsional Free Energy           =  +3.28 kcal/molUSER    (4) Unbound System's Energy         =  -2.75 kcal/molUSERUSERREMARK SMILES Oc1nc2ccccc2n1[C@@H]1CCN(Cc2ccc(-c3nc4cc(OCCN5CCOCC5)ccc4nc3-c3nccc(F)n3)cc2)C[C@H]1OREMARK SMILES IDX 16 1 17 2 18 3 19 4 46 5 47 6 15 7 14 8 11 9 12 10 49 11REMARK SMILES IDX 13 12 48 13 10 14 2 15 3 16 4 17 9 18 5 19 8 20 6 21 7 22REMARK SMILES IDX 1 23 50 25 20 27 21 28 38 29 22 30 37 31 23 32 36 33 24 34REMARK SMILES IDX 35 35 34 36 39 37 40 38 45 39 41 40 43 41 42 42 44 43 25 44REMARK SMILES IDX 26 45 27 46 28 47 29 48 33 49 30 50 32 51 31 52REMARK H PARENT 1 24 50 26USER                              x       y       z     vdW  Elec       q    TypeUSER                           _______ _______ _______ _____ _____    ______ ____ROOTATOM      1  C   UNL     1      36.840  43.901  20.994 -0.39 -0.00    -0.034 A  ATOM      2  C   UNL     1      36.557  42.537  21.121 -0.47 +0.00    +0.006 A  ATOM      3  C   UNL     1      35.505  41.960  20.403 -0.36 -0.00    +0.011 A  ATOM      4  C   UNL     1      34.697  42.732  19.550 -0.43 -0.00    +0.003 A  ATOM      5  C   UNL     1      35.002  44.096  19.417 -0.39 -0.00    +0.011 A  ATOM      6  C   UNL     1      36.057  44.674  20.129 -0.11 -0.00    +0.006 A  ENDROOTBRANCH   1   7ATOM      7  C   UNL     1      37.988  44.529  21.754 -0.34 +0.01    +0.120 C  BRANCH   7   8ATOM      8  N   UNL     1      39.270  44.474  21.027 -0.15 -0.01    -0.296 NA ATOM      9  C   UNL     1      40.755  45.638  18.690 -0.44 -0.00    +0.124 C  ATOM     10  C   UNL     1      39.321  45.106  18.583 -0.45 -0.00    +0.044 C  ATOM     11  C   UNL     1      41.202  45.803  20.158 -0.35 +0.01    +0.151 C  ATOM     12  C   UNL     1      39.067  44.029  19.636 -0.16 -0.00    +0.087 C  ATOM     13  C   UNL     1      40.001  45.756  21.122 -0.25 +0.01    +0.118 C  BRANCH   9  14ATOM     14  N   UNL     1      40.934  46.839  17.882 -0.31 +0.02    -0.288 N  ATOM     15  C   UNL     1      41.835  47.845  18.098 -0.22 -0.01    +0.295 A  ATOM     16  N   UNL     1      41.752  48.811  17.226 -0.79 -0.02    -0.195 NA ATOM     17  C   UNL     1      40.735  48.428  16.387 -0.49 -0.02    +0.092 A  ATOM     18  C   UNL     1      40.197  47.197  16.772 -0.45 -0.01    +0.072 A  ATOM     19  C   UNL     1      40.213  49.091  15.267 -0.55 -0.01    +0.031 A  ATOM     20  C   UNL     1      39.140  46.593  16.078 -0.42 -0.01    +0.029 A  ATOM     21  C   UNL     1      39.159  48.501  14.561 -0.52 -0.00    +0.002 A  ATOM     22  C   UNL     1      38.632  47.273  14.964 -0.47 -0.00    +0.002 A  BRANCH  15  23ATOM     23  O   UNL     1      42.711  47.875  19.080 -0.31 -0.02    -0.480 OA ATOM     24  H   UNL     1      42.953  48.820  19.079 -0.36 -0.04    +0.296 HD ENDBRANCH  15  23ENDBRANCH   9  14BRANCH  11  25ATOM     25  O   UNL     1      42.114  44.732  20.476 -0.11 -0.09    -0.390 OA ATOM     26  H   UNL     1      41.578  44.015  20.873 +0.11 +0.03    +0.211 HD ENDBRANCH  11  25ENDBRANCH   7   8ENDBRANCH   1   7BRANCH   4  27ATOM     27  C   UNL     1      33.589  42.135  18.784 -0.34 -0.01    +0.101 A  ATOM     28  N   UNL     1      32.841  41.241  19.494 -0.38 -0.03    -0.244 NA ATOM     29  C   UNL     1      33.270  42.448  17.458 -0.27 -0.05    +0.135 A  ATOM     30  C   UNL     1      31.774  40.693  18.883 -0.31 -0.00    +0.093 A  ATOM     31  N   UNL     1      32.179  41.898  16.843 -0.07 +0.12    -0.240 NA ATOM     32  C   UNL     1      30.980  39.781  19.566 -0.26 +0.01    +0.077 A  ATOM     33  C   UNL     1      31.441  41.032  17.555 -0.28 -0.02    +0.090 A  ATOM     34  C   UNL     1      29.862  39.187  18.974 -0.26 +0.02    +0.121 A  ATOM     35  C   UNL     1      30.326  40.449  16.972 -0.34 -0.00    +0.034 A  ATOM     36  C   UNL     1      29.535  39.531  17.667 -0.32 +0.01    +0.049 A  BRANCH  29  37ATOM     37  C   UNL     1      34.085  43.345  16.630 -0.23 -0.08    +0.183 A  ATOM     38  N   UNL     1      35.413  43.101  16.557 -0.27 +0.09    -0.235 NA ATOM     39  N   UNL     1      33.459  44.361  16.014 -0.20 +0.11    -0.198 NA ATOM     40  C   UNL     1      36.139  43.936  15.795 -0.32 -0.04    +0.118 A  ATOM     41  C   UNL     1      34.241  45.154  15.269 -0.12 -0.16    +0.216 A  ATOM     42  C   UNL     1      35.596  44.996  15.118 -0.28 -0.04    +0.080 A  ATOM     43  F   UNL     1      33.651  46.181  14.638 -0.09 +0.22    -0.185 F  ENDBRANCH  29  37BRANCH  34  44ATOM     44  O   UNL     1      29.191  38.308  19.775 -0.07 -0.06    -0.492 OA BRANCH  44  45ATOM     45  C   UNL     1      27.781  38.136  19.583 -0.19 +0.01    +0.245 C  BRANCH  45  46ATOM     46  C   UNL     1      27.014  38.456  20.879 -0.26 -0.04    +0.126 C  BRANCH  46  47ATOM     47  N   UNL     1      25.792  39.254  20.675 -0.14 +0.11    -0.295 NA ATOM     48  C   UNL     1      25.880  40.569  21.353 -0.39 -0.02    +0.113 C  ATOM     49  C   UNL     1      25.506  39.439  19.233 -0.28 -0.03    +0.113 C  ATOM     50  C   UNL     1      25.008  41.639  20.676 -0.41 -0.04    +0.175 C  ATOM     51  C   UNL     1      26.012  40.781  18.683 -0.19 -0.02    +0.175 C  ATOM     52  O   UNL     1      25.402  41.908  19.326 -0.15 +0.07    -0.379 OA ENDBRANCH  46  47ENDBRANCH  45  46ENDBRANCH  44  45ENDBRANCH  34  44ENDBRANCH   4  27TORSDOF 11TERENDMDL