REMARK SMILES Oc1nc2ccccc2n1[C@@H]1CCN(Cc2ccc(-c3nc4cc(OCCN5CCOCC5)ccc4nc3-c3nccc(F)n3)cc2)C[C@H]1O
REMARK SMILES IDX 16 1 17 2 18 3 19 4 46 5 47 6 15 7 14 8 11 9 12 10 49 11
REMARK SMILES IDX 13 12 48 13 10 14 2 15 3 16 4 17 9 18 5 19 8 20 6 21 7 22
REMARK SMILES IDX 1 23 50 25 20 27 21 28 38 29 22 30 37 31 23 32 36 33 24 34
REMARK SMILES IDX 35 35 34 36 39 37 40 38 45 39 41 40 43 41 42 42 44 43 25 44
REMARK SMILES IDX 26 45 27 46 28 47 29 48 33 49 30 50 32 51 31 52
REMARK H PARENT 1 24 50 26
ROOT
ATOM      1  C   UNL     1      -2.590  -1.923  -0.589  1.00  0.00    -0.034 A 
ATOM      2  C   UNL     1      -2.210  -2.063   0.751  1.00  0.00     0.006 A 
ATOM      3  C   UNL     1      -0.870  -1.927   1.127  1.00  0.00     0.011 A 
ATOM      4  C   UNL     1       0.130  -1.664   0.175  1.00  0.00     0.003 A 
ATOM      5  C   UNL     1      -0.266  -1.508  -1.164  1.00  0.00     0.011 A 
ATOM      6  C   UNL     1      -1.605  -1.637  -1.542  1.00  0.00     0.006 A 
ENDROOT
BRANCH   1   7
ATOM      7  C   UNL     1      -4.040  -2.050  -1.001  1.00  0.00     0.120 C 
BRANCH   7   8
ATOM      8  N   UNL     1      -4.654  -0.765  -1.384  1.00  0.00    -0.296 NA
ATOM      9  C   UNL     1      -7.034   0.999  -0.889  1.00  0.00     0.124 C 
ATOM     10  C   UNL     1      -7.158  -0.499  -1.194  1.00  0.00     0.044 C 
ATOM     11  C   UNL     1      -5.583   1.401  -0.550  1.00  0.00     0.151 C 
ATOM     12  C   UNL     1      -5.966  -0.979  -2.021  1.00  0.00     0.087 C 
ATOM     13  C   UNL     1      -4.713   0.168  -0.238  1.00  0.00     0.118 C 
BRANCH   9  14
ATOM     14  N   UNL     1      -8.009   1.415   0.113  1.00  0.00    -0.288 N 
ATOM     15  C   UNL     1      -7.958   1.168   1.457  1.00  0.00     0.295 A 
ATOM     16  N   UNL     1      -8.984   1.640   2.110  1.00  0.00    -0.195 NA
ATOM     17  C   UNL     1      -9.762   2.229   1.144  1.00  0.00     0.092 A 
ATOM     18  C   UNL     1      -9.182   2.103  -0.121  1.00  0.00     0.072 A 
ATOM     19  C   UNL     1     -10.990   2.894   1.279  1.00  0.00     0.031 A 
ATOM     20  C   UNL     1      -9.787   2.616  -1.276  1.00  0.00     0.029 A 
ATOM     21  C   UNL     1     -11.607   3.414   0.136  1.00  0.00     0.002 A 
ATOM     22  C   UNL     1     -11.013   3.274  -1.120  1.00  0.00     0.002 A 
BRANCH  15  23
ATOM     23  O   UNL     1      -6.991   0.518   2.069  1.00  0.00    -0.480 OA
ATOM     24  H   UNL     1      -7.301   0.559   2.993  1.00  0.00     0.296 HD
ENDBRANCH  15  23
ENDBRANCH   9  14
BRANCH  11  25
ATOM     25  O   UNL     1      -5.032   2.103  -1.683  1.00  0.00    -0.390 OA
ATOM     26  H   UNL     1      -4.254   1.588  -1.981  1.00  0.00     0.211 HD
ENDBRANCH  11  25
ENDBRANCH   7   8
ENDBRANCH   1   7
BRANCH   4  27
ATOM     27  C   UNL     1       1.544  -1.514   0.559  1.00  0.00     0.101 A 
ATOM     28  N   UNL     1       2.116  -0.352   0.129  1.00  0.00    -0.244 NA
ATOM     29  C   UNL     1       2.270  -2.434   1.323  1.00  0.00     0.135 A 
ATOM     30  C   UNL     1       3.391  -0.112   0.487  1.00  0.00     0.093 A 
ATOM     31  N   UNL     1       3.563  -2.183   1.695  1.00  0.00    -0.240 NA
ATOM     32  C   UNL     1       4.016   1.059   0.077  1.00  0.00     0.077 A 
ATOM     33  C   UNL     1       4.111  -1.030   1.280  1.00  0.00     0.090 A 
ATOM     34  C   UNL     1       5.337   1.352   0.425  1.00  0.00     0.121 A 
ATOM     35  C   UNL     1       5.419  -0.734   1.633  1.00  0.00     0.034 A 
ATOM     36  C   UNL     1       6.038   0.446   1.212  1.00  0.00     0.049 A 
BRANCH  29  37
ATOM     37  C   UNL     1       1.724  -3.729   1.746  1.00  0.00     0.183 A 
ATOM     38  N   UNL     1       1.394  -4.618   0.783  1.00  0.00    -0.235 NA
ATOM     39  N   UNL     1       1.572  -3.938   3.065  1.00  0.00    -0.198 NA
ATOM     40  C   UNL     1       0.894  -5.796   1.194  1.00  0.00     0.118 A 
ATOM     41  C   UNL     1       1.071  -5.133   3.406  1.00  0.00     0.216 A 
ATOM     42  C   UNL     1       0.708  -6.111   2.514  1.00  0.00     0.080 A 
ATOM     43  F   UNL     1       0.904  -5.378   4.714  1.00  0.00    -0.185 F 
ENDBRANCH  29  37
BRANCH  34  44
ATOM     44  O   UNL     1       5.806   2.539  -0.062  1.00  0.00    -0.492 OA
BRANCH  44  45
ATOM     45  C   UNL     1       7.180   2.880   0.157  1.00  0.00     0.245 C 
BRANCH  45  46
ATOM     46  C   UNL     1       8.079   2.215  -0.902  1.00  0.00     0.126 C 
BRANCH  46  47
ATOM     47  N   UNL     1       9.517   2.490  -0.730  1.00  0.00    -0.295 NA
ATOM     48  C   UNL     1      10.042   1.888   0.518  1.00  0.00     0.113 C 
ATOM     49  C   UNL     1      10.298   2.016  -1.896  1.00  0.00     0.113 C 
ATOM     50  C   UNL     1      11.544   1.573   0.432  1.00  0.00     0.175 C 
ATOM     51  C   UNL     1      10.930   0.633  -1.679  1.00  0.00     0.175 C 
ATOM     52  O   UNL     1      11.856   0.613  -0.584  1.00  0.00    -0.379 OA
ENDBRANCH  46  47
ENDBRANCH  45  46
ENDBRANCH  44  45
ENDBRANCH  34  44
ENDBRANCH   4  27
TORSDOF 11
