MODEL        8USER    Run = 8USERUSER    Estimated Free Energy of Binding    = -10.95 kcal/mol  [=(1)+(2)+(3)-(4)]USERUSER    (1) Final Intermolecular Energy     = -13.04 kcal/molUSER        vdW + Hbond + desolv Energy     = -13.00 kcal/molUSER        Electrostatic Energy            =  -0.04 kcal/molUSER        Moving Ligand-Fixed Receptor    = -13.04 kcal/molUSER        Moving Ligand-Moving Receptor   =  +0.00 kcal/molUSER    (2) Final Total Internal Energy     =  -3.33 kcal/molUSER    (3) Torsional Free Energy           =  +2.09 kcal/molUSER    (4) Unbound System's Energy         =  -3.33 kcal/molUSERUSERREMARK SMILES CN1CCN([C@H]2CN(Cc3ccc(-c4nc5ccccc5nc4-c4ncccn4)cc3)CC[C@H]2n2c(O)nc3ccccc32)CC1REMARK SMILES IDX 6 1 7 2 8 3 32 4 33 5 34 6 5 7 2 8 3 9 46 10 4 11 45 12 1 13REMARK SMILES IDX 35 14 36 15 44 16 38 17 43 18 39 19 42 20 40 21 41 22 37 23REMARK SMILES IDX 9 25 10 26 11 27 31 28 12 29 30 30 13 31 14 32 15 33 23 34REMARK SMILES IDX 16 35 22 36 17 37 21 38 18 39 20 40 19 41 24 42 25 43 29 44REMARK SMILES IDX 26 45 28 46 27 47REMARK H PARENT 37 24USER                              x       y       z     vdW  Elec       q    TypeUSER                           _______ _______ _______ _____ _____    ______ ____ROOTATOM      1  C   UNL     1      39.689  44.241  26.177 -0.14 -0.00    +0.094 C  ATOM      2  C   UNL     1      40.491  43.982  24.866 -0.13 +0.00    +0.106 C  ATOM      3  N   UNL     1      41.854  44.547  24.896 -0.01 -0.01    -0.297 NA ATOM      4  C   UNL     1      41.788  46.006  25.040 -0.08 +0.01    +0.087 C  ATOM      5  C   UNL     1      41.179  46.359  26.388 -0.12 +0.00    +0.043 C  ATOM      6  C   UNL     1      39.794  45.742  26.618 -0.14 +0.00    +0.112 C  ENDROOTBRANCH   1   7ATOM      7  N   UNL     1      38.285  43.733  26.177 -0.07 +0.01    -0.294 NA ATOM      8  N   UNL     1      36.069  41.935  27.023 -0.27 +0.08    -0.304 NA ATOM      9  C   UNL     1      36.202  43.312  27.531 -0.44 -0.03    +0.099 C  ATOM     10  C   UNL     1      36.668  41.864  25.679 -0.38 -0.02    +0.099 C  ATOM     11  C   UNL     1      37.672  43.789  27.526 -0.32 -0.01    +0.100 C  ATOM     12  C   UNL     1      38.135  42.359  25.655 -0.28 -0.00    +0.100 C  ATOM     13  C   UNL     1      34.665  41.535  26.986 -0.58 -0.04    +0.105 C  ENDBRANCH   1   7BRANCH   6  14ATOM     14  N   UNL     1      38.719  46.638  26.192 -0.11 -0.00    -0.289 N  ATOM     15  C   UNL     1      37.808  46.463  25.190 -0.12 +0.03    +0.295 A  ATOM     16  C   UNL     1      38.446  47.876  26.755 -0.23 -0.00    +0.072 A  ATOM     17  N   UNL     1      36.950  47.441  25.087 -0.63 -0.04    -0.195 NA ATOM     18  C   UNL     1      39.038  48.624  27.785 -0.15 -0.00    +0.029 A  ATOM     19  C   UNL     1      37.329  48.333  26.055 -0.34 +0.00    +0.092 A  ATOM     20  C   UNL     1      38.459  49.857  28.103 -0.22 +0.00    +0.002 A  ATOM     21  C   UNL     1      36.762  49.573  26.392 -0.37 +0.00    +0.031 A  ATOM     22  C   UNL     1      37.337  50.325  27.422 -0.22 +0.00    +0.002 A  BRANCH  15  23ATOM     23  O   UNL     1      37.761  45.443  24.364 -0.38 -0.07    -0.480 OA ATOM     24  H   UNL     1      37.665  44.705  24.992 +0.16 +0.02    +0.296 HD ENDBRANCH  15  23ENDBRANCH   6  14BRANCH   3  25ATOM     25  C   UNL     1      42.584  44.165  23.669 -0.13 +0.01    +0.120 C  BRANCH  25  26ATOM     26  C   UNL     1      41.882  44.579  22.390 -0.21 -0.00    -0.034 A  ATOM     27  C   UNL     1      41.871  45.919  21.976 -0.26 +0.00    +0.006 A  ATOM     28  C   UNL     1      41.253  43.622  21.584 -0.32 +0.00    +0.006 A  ATOM     29  C   UNL     1      41.215  46.298  20.802 -0.22 +0.00    +0.011 A  ATOM     30  C   UNL     1      40.604  44.002  20.404 -0.21 +0.00    +0.011 A  ATOM     31  C   UNL     1      40.574  45.345  19.998 -0.40 +0.00    +0.003 A  BRANCH  31  32ATOM     32  C   UNL     1      39.856  45.748  18.782 -0.38 -0.01    +0.101 A  ATOM     33  N   UNL     1      40.594  46.529  17.943 -0.32 +0.02    -0.244 NA ATOM     34  C   UNL     1      38.523  45.429  18.504 -0.30 -0.02    +0.135 A  ATOM     35  C   UNL     1      39.987  46.996  16.838 -0.43 -0.02    +0.089 A  ATOM     36  N   UNL     1      37.910  45.913  17.377 -0.23 +0.07    -0.240 NA ATOM     37  C   UNL     1      40.695  47.802  15.955 -0.51 -0.00    +0.030 A  ATOM     38  C   UNL     1      38.638  46.688  16.555 -0.35 -0.03    +0.090 A  ATOM     39  C   UNL     1      40.102  48.310  14.799 -0.55 -0.00    +0.002 A  ATOM     40  C   UNL     1      38.055  47.200  15.401 -0.42 -0.01    +0.030 A  ATOM     41  C   UNL     1      38.775  48.009  14.522 -0.52 -0.00    +0.002 A  BRANCH  34  42ATOM     42  C   UNL     1      37.707  44.559  19.366 -0.24 -0.02    +0.180 A  ATOM     43  N   UNL     1      36.906  43.649  18.769 -0.15 +0.04    -0.235 NA ATOM     44  N   UNL     1      37.780  44.746  20.702 -0.23 -0.00    -0.235 NA ATOM     45  C   UNL     1      36.147  42.891  19.581 -0.30 -0.01    +0.115 A  ATOM     46  C   UNL     1      36.990  43.965  21.462 -0.32 +0.01    +0.115 A  ATOM     47  C   UNL     1      36.146  43.010  20.951 -0.42 +0.00    +0.040 A  ENDBRANCH  34  42ENDBRANCH  31  32ENDBRANCH  25  26ENDBRANCH   3  25TORSDOF 7TERENDMDL