REMARK SMILES COc1ncc(C2CC2)c(N(C)CCN2CCN(c3nc4ccccc4[nH]3)CC2)c1/C=C1\SC(=N)NC1=O
REMARK SMILES IDX 11 1 12 2 10 3 3 4 4 5 30 6 5 7 6 8 2 9 1 10 31 11 32 12
REMARK SMILES IDX 33 13 37 14 34 15 36 16 38 17 35 19 7 21 8 22 9 23 13 24
REMARK SMILES IDX 14 25 15 26 16 27 29 28 17 29 28 30 18 31 19 32 20 33 27 34
REMARK SMILES IDX 21 35 26 36 22 37 25 38 23 39 24 40
REMARK H PARENT 36 18 35 20 27 41
ROOT
ATOM      1  N   UNL     1      -1.812  -0.038   0.807  1.00  0.00    -0.372 N 
ATOM      2  C   UNL     1      -1.385   1.110   1.601  1.00  0.00     0.143 C 
ENDROOT
BRANCH   1   3
ATOM      3  C   UNL     1      -3.206  -0.284   0.812  1.00  0.00     0.054 A 
ATOM      4  C   UNL     1      -5.282  -0.289  -0.439  1.00  0.00     0.222 A 
ATOM      5  N   UNL     1      -5.974  -0.798   0.598  1.00  0.00    -0.221 NA
ATOM      6  C   UNL     1      -3.913  -0.018  -0.392  1.00  0.00     0.062 A 
ATOM      7  C   UNL     1      -5.272  -1.042   1.728  1.00  0.00     0.121 A 
ATOM      8  C   UNL     1      -3.906  -0.803   1.931  1.00  0.00    -0.002 A 
BRANCH   4   9
ATOM      9  O   UNL     1      -5.946  -0.041  -1.628  1.00  0.00    -0.481 OA
ATOM     10  C   UNL     1      -7.336  -0.341  -1.573  1.00  0.00     0.280 C 
ENDBRANCH   4   9
BRANCH   6  11
ATOM     11  C   UNL     1      -3.196   0.502  -1.571  1.00  0.00     0.037 C 
BRANCH  11  12
ATOM     12  C   UNL     1      -3.183   1.779  -1.967  1.00  0.00     0.081 C 
ATOM     13  S   UNL     1      -3.999   3.128  -1.258  1.00  0.00    -0.047 SA
ATOM     14  C   UNL     1      -2.387   2.227  -3.145  1.00  0.00     0.264 C 
ATOM     15  C   UNL     1      -3.362   4.202  -2.452  1.00  0.00     0.165 C 
ATOM     16  N   UNL     1      -2.565   3.568  -3.330  1.00  0.00    -0.301 N 
ATOM     17  O   UNL     1      -1.671   1.515  -3.832  1.00  0.00    -0.268 OA
ATOM     18  H   UNL     1      -2.111   4.065  -4.078  1.00  0.00     0.172 HD
BRANCH  15  19
ATOM     19  N   UNL     1      -3.603   5.457  -2.514  1.00  0.00    -0.278 NA
ATOM     20  H   UNL     1      -4.236   5.690  -1.739  1.00  0.00     0.190 HD
ENDBRANCH  15  19
ENDBRANCH  11  12
ENDBRANCH   6  11
BRANCH   8  21
ATOM     21  C   UNL     1      -3.251  -1.151   3.258  1.00  0.00     0.023 C 
ATOM     22  C   UNL     1      -4.024  -1.136   4.562  1.00  0.00     0.009 C 
ATOM     23  C   UNL     1      -3.013  -0.069   4.289  1.00  0.00     0.009 C 
ENDBRANCH   8  21
ENDBRANCH   1   3
BRANCH   1  24
ATOM     24  C   UNL     1      -0.966  -1.243   0.870  1.00  0.00     0.131 C 
BRANCH  24  25
ATOM     25  C   UNL     1       0.180  -1.130  -0.165  1.00  0.00     0.106 C 
BRANCH  25  26
ATOM     26  N   UNL     1       1.032  -2.334  -0.246  1.00  0.00    -0.298 NA
ATOM     27  C   UNL     1       1.882  -2.295  -1.459  1.00  0.00     0.106 C 
ATOM     28  C   UNL     1       1.924  -2.492   0.926  1.00  0.00     0.106 C 
ATOM     29  C   UNL     1       3.030  -1.257  -1.433  1.00  0.00     0.135 C 
ATOM     30  C   UNL     1       3.079  -1.471   1.030  1.00  0.00     0.135 C 
ATOM     31  N   UNL     1       3.863  -1.414  -0.224  1.00  0.00    -0.340 N 
BRANCH  31  32
ATOM     32  C   UNL     1       5.015  -0.693  -0.134  1.00  0.00     0.203 A 
ATOM     33  N   UNL     1       5.489  -0.048   0.908  1.00  0.00    -0.213 NA
ATOM     34  N   UNL     1       5.896  -0.619  -1.186  1.00  0.00    -0.324 N 
ATOM     35  C   UNL     1       6.686   0.490   0.506  1.00  0.00     0.091 A 
ATOM     36  C   UNL     1       6.965   0.151  -0.811  1.00  0.00     0.067 A 
ATOM     37  C   UNL     1       7.601   1.281   1.217  1.00  0.00     0.030 A 
ATOM     38  C   UNL     1       8.120   0.556  -1.483  1.00  0.00     0.028 A 
ATOM     39  C   UNL     1       8.768   1.705   0.569  1.00  0.00     0.002 A 
ATOM     40  C   UNL     1       9.020   1.348  -0.759  1.00  0.00     0.002 A 
ATOM     41  H   UNL     1       5.783  -1.090  -2.068  1.00  0.00     0.170 HD
ENDBRANCH  31  32
ENDBRANCH  25  26
ENDBRANCH  24  25
ENDBRANCH   1  24
TORSDOF 10
