MODEL        6USER    Run = 6USERUSER    Estimated Free Energy of Binding    = -10.89 kcal/mol  [=(1)+(2)+(3)-(4)]USERUSER    (1) Final Intermolecular Energy     = -13.87 kcal/molUSER        vdW + Hbond + desolv Energy     = -13.81 kcal/molUSER        Electrostatic Energy            =  -0.06 kcal/molUSER        Moving Ligand-Fixed Receptor    = -13.87 kcal/molUSER        Moving Ligand-Moving Receptor   =  +0.00 kcal/molUSER    (2) Final Total Internal Energy     =  -1.83 kcal/molUSER    (3) Torsional Free Energy           =  +2.98 kcal/molUSER    (4) Unbound System's Energy         =  -1.83 kcal/molUSERUSERREMARK SMILES COc1ncc(C2CC2)c(N(C)CCN2CCN(c3nc4ccccc4[nH]3)CC2)c1/C=C1\SC(=N)NC1=OREMARK SMILES IDX 11 1 12 2 10 3 3 4 4 5 30 6 5 7 6 8 2 9 1 10 31 11 32 12REMARK SMILES IDX 33 13 37 14 34 15 36 16 38 17 35 19 7 21 8 22 9 23 13 24REMARK SMILES IDX 14 25 15 26 16 27 29 28 17 29 28 30 18 31 19 32 20 33 27 34REMARK SMILES IDX 21 35 26 36 22 37 25 38 23 39 24 40REMARK H PARENT 36 18 35 20 27 41USER                              x       y       z     vdW  Elec       q    TypeUSER                           _______ _______ _______ _____ _____    ______ ____ROOTATOM      1  N   UNL     1      37.506  44.628  26.354 -0.09 +0.03    -0.372 N  ATOM      2  C   UNL     1      38.715  43.976  26.848 -0.19 -0.01    +0.143 C  ENDROOTBRANCH   1   3ATOM      3  C   UNL     1      36.416  44.632  27.257 -0.36 -0.01    +0.054 A  ATOM      4  C   UNL     1      35.080  45.894  28.837 -0.22 -0.06    +0.222 A  ATOM      5  N   UNL     1      34.235  44.864  29.035 -0.50 +0.05    -0.221 NA ATOM      6  C   UNL     1      36.172  45.838  27.969 -0.23 -0.02    +0.062 A  ATOM      7  C   UNL     1      34.494  43.732  28.342 -0.51 -0.03    +0.121 A  ATOM      8  C   UNL     1      35.558  43.520  27.455 -0.53 +0.00    -0.002 A  BRANCH   4   9ATOM      9  O   UNL     1      34.849  47.084  29.504 -0.23 +0.09    -0.481 OA ATOM     10  C   UNL     1      33.468  47.377  29.679 -0.24 -0.02    +0.280 C  ENDBRANCH   4   9BRANCH   6  11ATOM     11  C   UNL     1      37.042  47.009  27.759 -0.30 -0.01    +0.037 C  BRANCH  11  12ATOM     12  C   UNL     1      36.719  48.096  27.050 -0.37 -0.01    +0.081 C  ATOM     13  S   UNL     1      36.082  49.597  27.623 -0.39 -0.00    -0.047 SA ATOM     14  C   UNL     1      36.901  48.151  25.571 -0.32 +0.00    +0.264 C  ATOM     15  C   UNL     1      36.028  50.241  26.020 -0.37 +0.00    +0.165 C  ATOM     16  N   UNL     1      36.481  49.364  25.107 -0.30 +0.02    -0.301 N  ATOM     17  O   UNL     1      37.369  47.261  24.879 -0.68 -0.06    -0.268 OA ATOM     18  H   UNL     1      36.521  49.601  24.130 -0.44 -0.03    +0.172 HD BRANCH  15  19ATOM     19  N   UNL     1      35.612  51.411  25.713 -0.24 -0.02    -0.278 NA ATOM     20  H   UNL     1      35.118  51.789  26.530 +0.10 +0.02    +0.190 HD ENDBRANCH  15  19ENDBRANCH  11  12ENDBRANCH   6  11BRANCH   8  21ATOM     21  C   UNL     1      35.706  42.192  26.730 -0.58 -0.01    +0.023 C  ATOM     22  C   UNL     1      34.841  40.993  27.069 -0.71 -0.00    +0.009 C  ATOM     23  C   UNL     1      36.285  40.996  27.455 -0.66 -0.00    +0.009 C  ENDBRANCH   8  21ENDBRANCH   1   3BRANCH   1  24ATOM     24  C   UNL     1      37.147  44.385  24.945 -0.30 +0.01    +0.131 C  BRANCH  24  25ATOM     25  C   UNL     1      38.423  44.416  24.069 -0.25 +0.01    +0.106 C  BRANCH  25  26ATOM     26  N   UNL     1      38.549  43.262  23.156 -0.12 -0.02    -0.298 NA ATOM     27  C   UNL     1      37.492  43.295  22.118 -0.38 +0.01    +0.106 C  ATOM     28  C   UNL     1      39.859  43.209  22.466 -0.26 +0.01    +0.106 C  ATOM     29  C   UNL     1      37.651  44.399  21.044 -0.34 +0.00    +0.135 C  ATOM     30  C   UNL     1      40.096  44.300  21.398 -0.26 +0.01    +0.135 C  ATOM     31  N   UNL     1      38.987  44.345  20.419 -0.13 +0.00    -0.340 N  BRANCH  31  32ATOM     32  C   UNL     1      39.226  45.136  19.336 -0.27 -0.01    +0.203 A  ATOM     33  N   UNL     1      38.525  45.229  18.228 -0.26 +0.03    -0.213 NA ATOM     34  N   UNL     1      40.268  46.032  19.321 -0.21 +0.01    -0.324 N  ATOM     35  C   UNL     1      39.153  46.179  17.463 -0.37 -0.02    +0.091 A  ATOM     36  C   UNL     1      40.257  46.698  18.124 -0.42 -0.01    +0.067 A  ATOM     37  C   UNL     1      38.832  46.660  16.184 -0.40 -0.01    +0.030 A  ATOM     38  C   UNL     1      41.084  47.687  17.585 -0.51 -0.00    +0.028 A  ATOM     39  C   UNL     1      39.644  47.650  15.616 -0.52 -0.00    +0.002 A  ATOM     40  C   UNL     1      40.751  48.152  16.307 -0.56 -0.00    +0.002 A  ATOM     41  H   UNL     1      40.902  46.192  20.085 +0.10 +0.01    +0.170 HD ENDBRANCH  31  32ENDBRANCH  25  26ENDBRANCH  24  25ENDBRANCH   1  24TORSDOF 10TERENDMDL