REMARK SMILES CN1CCN([C@H]2CN(Cc3ccc(-c4nc5ccccc5nc4-c4ncccn4)cc3)CC[C@H]2n2c(O)nc3ccccc32)CC1
REMARK SMILES IDX 6 1 7 2 8 3 32 4 33 5 34 6 5 7 2 8 3 9 46 10 4 11 45 12 1 13
REMARK SMILES IDX 35 14 36 15 44 16 38 17 43 18 39 19 42 20 40 21 41 22 37 23
REMARK SMILES IDX 9 25 10 26 11 27 31 28 12 29 30 30 13 31 14 32 15 33 23 34
REMARK SMILES IDX 16 35 22 36 17 37 21 38 18 39 20 40 19 41 24 42 25 43 29 44
REMARK SMILES IDX 26 45 28 46 27 47
REMARK H PARENT 37 24
ROOT
ATOM      1  C   UNL     1      -2.913  -0.361   0.743  1.00  0.00     0.094 C 
ATOM      2  C   UNL     1      -1.825  -1.234   0.047  1.00  0.00     0.106 C 
ATOM      3  N   UNL     1      -0.507  -0.575  -0.022  1.00  0.00    -0.297 NA
ATOM      4  C   UNL     1      -0.602   0.653  -0.820  1.00  0.00     0.087 C 
ATOM      5  C   UNL     1      -1.511   1.650  -0.117  1.00  0.00     0.043 C 
ATOM      6  C   UNL     1      -2.912   1.102   0.179  1.00  0.00     0.112 C 
ENDROOT
BRANCH   1   7
ATOM      7  N   UNL     1      -4.279  -0.964   0.792  1.00  0.00    -0.294 NA
ATOM      8  N   UNL     1      -6.583  -2.314   2.105  1.00  0.00    -0.304 NA
ATOM      9  C   UNL     1      -6.582  -0.870   1.811  1.00  0.00     0.099 C 
ATOM     10  C   UNL     1      -5.726  -3.001   1.123  1.00  0.00     0.099 C 
ATOM     11  C   UNL     1      -5.150  -0.289   1.784  1.00  0.00     0.100 C 
ATOM     12  C   UNL     1      -4.294  -2.414   1.071  1.00  0.00     0.100 C 
ATOM     13  C   UNL     1      -7.943  -2.845   2.066  1.00  0.00     0.105 C 
ENDBRANCH   1   7
BRANCH   6  14
ATOM     14  N   UNL     1      -3.855   1.400  -0.899  1.00  0.00    -0.289 N 
ATOM     15  C   UNL     1      -4.015   0.762  -2.095  1.00  0.00     0.295 A 
ATOM     16  C   UNL     1      -4.775   2.439  -0.885  1.00  0.00     0.072 A 
ATOM     17  N   UNL     1      -4.976   1.256  -2.827  1.00  0.00    -0.195 NA
ATOM     18  C   UNL     1      -5.076   3.454   0.036  1.00  0.00     0.029 A 
ATOM     19  C   UNL     1      -5.465   2.303  -2.090  1.00  0.00     0.092 A 
ATOM     20  C   UNL     1      -6.115   4.334  -0.289  1.00  0.00     0.002 A 
ATOM     21  C   UNL     1      -6.505   3.195  -2.396  1.00  0.00     0.031 A 
ATOM     22  C   UNL     1      -6.822   4.207  -1.483  1.00  0.00     0.002 A 
BRANCH  15  23
ATOM     23  O   UNL     1      -3.291  -0.243  -2.533  1.00  0.00    -0.480 OA
ATOM     24  H   UNL     1      -3.741  -0.437  -3.375  1.00  0.00     0.296 HD
ENDBRANCH  15  23
ENDBRANCH   6  14
BRANCH   3  25
ATOM     25  C   UNL     1       0.491  -1.504  -0.592  1.00  0.00     0.120 C 
BRANCH  25  26
ATOM     26  C   UNL     1       1.920  -1.011  -0.471  1.00  0.00    -0.034 A 
ATOM     27  C   UNL     1       2.413  -0.525   0.748  1.00  0.00     0.006 A 
ATOM     28  C   UNL     1       2.782  -1.057  -1.574  1.00  0.00     0.006 A 
ATOM     29  C   UNL     1       3.728  -0.062   0.853  1.00  0.00     0.011 A 
ATOM     30  C   UNL     1       4.101  -0.602  -1.465  1.00  0.00     0.011 A 
ATOM     31  C   UNL     1       4.591  -0.096  -0.251  1.00  0.00     0.003 A 
BRANCH  31  32
ATOM     32  C   UNL     1       5.961   0.421  -0.150  1.00  0.00     0.101 A 
ATOM     33  N   UNL     1       6.042   1.780  -0.233  1.00  0.00    -0.244 NA
ATOM     34  C   UNL     1       7.105  -0.376  -0.038  1.00  0.00     0.135 A 
ATOM     35  C   UNL     1       7.269   2.329  -0.216  1.00  0.00     0.089 A 
ATOM     36  N   UNL     1       8.353   0.192  -0.026  1.00  0.00    -0.240 NA
ATOM     37  C   UNL     1       7.404   3.709  -0.305  1.00  0.00     0.030 A 
ATOM     38  C   UNL     1       8.430   1.531  -0.114  1.00  0.00     0.090 A 
ATOM     39  C   UNL     1       8.659   4.319  -0.295  1.00  0.00     0.002 A 
ATOM     40  C   UNL     1       9.676   2.148  -0.106  1.00  0.00     0.030 A 
ATOM     41  C   UNL     1       9.800   3.534  -0.197  1.00  0.00     0.002 A 
BRANCH  34  42
ATOM     42  C   UNL     1       7.056  -1.841   0.092  1.00  0.00     0.180 A 
ATOM     43  N   UNL     1       6.265  -2.365   1.054  1.00  0.00    -0.235 NA
ATOM     44  N   UNL     1       7.834  -2.574  -0.735  1.00  0.00    -0.235 NA
ATOM     45  C   UNL     1       6.267  -3.705   1.170  1.00  0.00     0.115 A 
ATOM     46  C   UNL     1       7.801  -3.909  -0.564  1.00  0.00     0.115 A 
ATOM     47  C   UNL     1       7.027  -4.536   0.381  1.00  0.00     0.040 A 
ENDBRANCH  34  42
ENDBRANCH  31  32
ENDBRANCH  25  26
ENDBRANCH   3  25
TORSDOF 7
