REMARK SMILES COc1ccc(CC=C(Nc2ccc(Cl)cc2)N(C)C)cc1
REMARK SMILES IDX 8 1 7 2 6 3 3 4 4 5 22 6 5 7 21 8 2 9 1 10 9 11 10 12 11 14
REMARK SMILES IDX 12 15 17 16 13 17 16 18 14 19 15 20 18 21 19 22 20 23
REMARK H PARENT 10 13
ROOT
ATOM      1  C   UNL     1      -0.344  -0.393  -0.154  1.00  0.00     0.022 C 
ENDROOT
BRANCH   1   2
ATOM      2  C   UNL     1       0.819  -1.117  -0.770  1.00  0.00     0.066 C 
BRANCH   2   3
ATOM      3  C   UNL     1       2.093  -0.301  -0.736  1.00  0.00    -0.044 A 
ATOM      4  C   UNL     1       4.447   1.247  -0.653  1.00  0.00     0.118 A 
ATOM      5  C   UNL     1       3.595   1.308  -1.758  1.00  0.00     0.046 A 
ATOM      6  C   UNL     1       4.117   0.412   0.415  1.00  0.00     0.046 A 
ATOM      7  C   UNL     1       2.426   0.544  -1.801  1.00  0.00     0.008 A 
ATOM      8  C   UNL     1       2.946  -0.354   0.374  1.00  0.00     0.008 A 
BRANCH   4   9
ATOM      9  O   UNL     1       5.555   2.044  -0.740  1.00  0.00    -0.497 OA
ATOM     10  C   UNL     1       6.446   2.027   0.368  1.00  0.00     0.278 C 
ENDBRANCH   4   9
ENDBRANCH   2   3
ENDBRANCH   1   2
BRANCH   1  11
ATOM     11  C   UNL     1      -1.237  -0.894   0.725  1.00  0.00     0.101 C 
BRANCH  11  12
ATOM     12  N   UNL     1      -2.272  -0.113   1.204  1.00  0.00    -0.342 N 
ATOM     13  H   UNL     1      -2.655  -0.508   2.055  1.00  0.00     0.168 HD
BRANCH  12  14
ATOM     14  C   UNL     1      -3.267   0.557   0.457  1.00  0.00     0.040 A 
ATOM     15  C   UNL     1      -3.381   0.477  -0.936  1.00  0.00     0.027 A 
ATOM     16  C   UNL     1      -4.154   1.400   1.146  1.00  0.00     0.027 A 
ATOM     17  C   UNL     1      -4.367   1.195  -1.622  1.00  0.00     0.022 A 
ATOM     18  C   UNL     1      -5.141   2.122   0.467  1.00  0.00     0.022 A 
ATOM     19  C   UNL     1      -5.243   2.014  -0.916  1.00  0.00     0.041 A 
ATOM     20  Cl  UNL     1      -6.456   2.898  -1.757  1.00  0.00    -0.084 Cl
ENDBRANCH  12  14
ENDBRANCH  11  12
BRANCH  11  21
ATOM     21  N   UNL     1      -1.085  -2.188   1.222  1.00  0.00    -0.365 N 
ATOM     22  C   UNL     1      -2.230  -3.103   1.183  1.00  0.00     0.144 C 
ATOM     23  C   UNL     1      -0.233  -2.383   2.400  1.00  0.00     0.144 C 
ENDBRANCH  11  21
ENDBRANCH   1  11
TORSDOF 7
