MODEL        2USER    Run = 2USERUSER    Estimated Free Energy of Binding    =  -9.06 kcal/mol  [=(1)+(2)+(3)-(4)]USERUSER    (1) Final Intermolecular Energy     = -10.25 kcal/molUSER        vdW + Hbond + desolv Energy     = -10.13 kcal/molUSER        Electrostatic Energy            =  -0.12 kcal/molUSER        Moving Ligand-Fixed Receptor    = -10.25 kcal/molUSER        Moving Ligand-Moving Receptor   =  +0.00 kcal/molUSER    (2) Final Total Internal Energy     =  -0.50 kcal/molUSER    (3) Torsional Free Energy           =  +1.19 kcal/molUSER    (4) Unbound System's Energy         =  -0.50 kcal/molUSERUSERREMARK SMILES Cc1ccc(O)cc1Nc1nccc(-c2cc3ncccc3[nH]2)n1REMARK SMILES IDX 9 1 8 3 2 4 3 5 4 6 7 7 5 8 1 9 6 10 10 12 11 13 24 14 12 15REMARK SMILES IDX 14 16 13 17 15 18 16 19 23 20 17 21 22 22 18 23 21 24 19 25REMARK SMILES IDX 20 26REMARK H PARENT 9 2 6 11 23 27USER                              x       y       z     vdW  Elec       q    TypeUSER                           _______ _______ _______ _____ _____    ______ ____ROOTATOM      1  N   UNL     1      38.418  48.359  14.773 -0.27 +0.17    -0.324 N  ATOM      2  H   UNL     1      38.416  49.337  14.525 -0.37 -0.13    +0.170 HD ENDROOTBRANCH   1   3ATOM      3  C   UNL     1      39.220  47.974  15.857 -0.47 -0.02    +0.047 A  ATOM      4  C   UNL     1      40.498  48.562  16.032 -0.57 +0.01    -0.027 A  ATOM      5  C   UNL     1      41.326  48.148  17.093 -0.48 -0.00    +0.009 A  ATOM      6  C   UNL     1      40.916  47.148  17.971 -0.49 -0.00    +0.046 A  ATOM      7  C   UNL     1      38.838  46.963  16.750 -0.38 -0.02    +0.072 A  ATOM      8  C   UNL     1      39.674  46.561  17.790 -0.37 -0.02    +0.117 A  ATOM      9  C   UNL     1      41.005  49.634  15.103 -0.70 -0.01    +0.046 C  BRANCH   8  10ATOM     10  O   UNL     1      39.226  45.574  18.620 -0.13 +0.05    -0.508 OA ATOM     11  H   UNL     1      38.271  45.691  18.750 +0.17 -0.04    +0.293 HD ENDBRANCH   8  10ENDBRANCH   1   3BRANCH   1  12ATOM     12  C   UNL     1      37.454  47.706  14.011 -0.35 -0.11    +0.227 A  ATOM     13  N   UNL     1      37.765  47.552  12.713 -0.91 +0.03    -0.221 NA ATOM     14  N   UNL     1      36.323  47.238  14.554 -0.27 +0.17    -0.211 NA ATOM     15  C   UNL     1      36.874  46.907  11.937 -0.58 -0.04    +0.117 A  ATOM     16  C   UNL     1      35.459  46.595  13.742 -0.41 -0.07    +0.092 A  ATOM     17  C   UNL     1      35.688  46.401  12.402 -0.52 -0.03    +0.051 A  BRANCH  16  18ATOM     18  C   UNL     1      34.258  46.119  14.419 -0.15 -0.07    +0.067 A  ATOM     19  C   UNL     1      34.057  45.504  15.645 -0.26 -0.05    +0.058 A  ATOM     20  N   UNL     1      33.012  46.245  13.838 -0.10 +0.32    -0.352 N  ATOM     21  C   UNL     1      32.672  45.259  15.792 -0.27 -0.07    +0.089 A  ATOM     22  C   UNL     1      32.034  45.730  14.650 -0.39 -0.05    +0.065 A  ATOM     23  N   UNL     1      32.013  44.679  16.825 -0.40 +0.09    -0.255 NA ATOM     24  C   UNL     1      30.653  45.630  14.492 -0.48 -0.02    +0.030 A  ATOM     25  C   UNL     1      30.675  44.591  16.656 -0.17 -0.02    +0.112 A  ATOM     26  C   UNL     1      29.966  45.035  15.547 -0.35 -0.01    +0.022 A  ATOM     27  H   UNL     1      32.866  46.668  12.929 -0.46 -0.16    +0.167 HD ENDBRANCH  16  18ENDBRANCH   1  12TORSDOF 4TERENDMDL