MODEL        6USER    Run = 6USERUSER    Estimated Free Energy of Binding    =  -7.74 kcal/mol  [=(1)+(2)+(3)-(4)]USERUSER    (1) Final Intermolecular Energy     =  -8.64 kcal/molUSER        vdW + Hbond + desolv Energy     =  -8.39 kcal/molUSER        Electrostatic Energy            =  -0.25 kcal/molUSER        Moving Ligand-Fixed Receptor    =  -8.64 kcal/molUSER        Moving Ligand-Moving Receptor   =  +0.00 kcal/molUSER    (2) Final Total Internal Energy     =  -0.39 kcal/molUSER    (3) Torsional Free Energy           =  +0.89 kcal/molUSER    (4) Unbound System's Energy         =  -0.39 kcal/molUSERUSERREMARK SMILES O=C(Nc1ccc(O)cc1)c1cc2ncccc2[nH]1REMARK SMILES IDX 4 1 5 2 6 3 7 4 9 5 10 6 3 7 2 8 1 9 11 11 12 12 19 13 13 14REMARK SMILES IDX 18 15 14 16 17 17 15 18 16 19 8 21REMARK H PARENT 3 10 19 20 8 22USER                              x       y       z     vdW  Elec       q    TypeUSER                           _______ _______ _______ _____ _____    ______ ____ROOTATOM      1  C   UNL     1      41.370  46.964  18.382 -0.50 -0.00    +0.041 A  ATOM      2  C   UNL     1      42.546  47.723  18.292 -0.35 -0.00    +0.030 A  ATOM      3  C   UNL     1      43.466  47.741  19.343 -0.03 +0.01    +0.048 A  ATOM      4  C   UNL     1      43.213  47.001  20.488 -0.34 +0.04    +0.115 A  ATOM      5  C   UNL     1      42.054  46.243  20.599 -0.35 +0.01    +0.048 A  ATOM      6  C   UNL     1      41.134  46.225  19.544 -0.41 +0.00    +0.030 A  ENDROOTBRANCH   1   7ATOM      7  N   UNL     1      40.498  47.002  17.274 -0.28 +0.05    -0.321 N  ATOM      8  C   UNL     1      40.521  47.877  16.205 -0.39 -0.05    +0.272 C  ATOM      9  O   UNL     1      41.327  48.786  16.045 -0.86 +0.01    -0.267 OA ATOM     10  H   UNL     1      39.772  46.302  17.268 +0.11 -0.03    +0.170 HD BRANCH   8  11ATOM     11  C   UNL     1      39.478  47.650  15.221 -0.43 -0.03    +0.107 A  ATOM     12  C   UNL     1      38.756  48.497  14.392 -0.45 -0.03    +0.062 A  ATOM     13  N   UNL     1      39.018  46.371  14.962 -0.18 +0.09    -0.349 N  ATOM     14  C   UNL     1      37.859  47.711  13.633 -0.45 -0.03    +0.089 A  ATOM     15  C   UNL     1      38.037  46.384  14.003 -0.39 -0.02    +0.065 A  ATOM     16  N   UNL     1      36.962  48.107  12.700 -0.96 +0.07    -0.255 NA ATOM     17  C   UNL     1      37.290  45.359  13.425 -0.44 -0.01    +0.030 A  ATOM     18  C   UNL     1      36.245  47.104  12.148 -0.58 -0.05    +0.112 A  ATOM     19  C   UNL     1      36.364  45.756  12.463 -0.56 -0.01    +0.022 A  ATOM     20  H   UNL     1      39.374  45.548  15.431 +0.11 -0.03    +0.167 HD ENDBRANCH   8  11ENDBRANCH   1   7BRANCH   4  21ATOM     21  O   UNL     1      44.134  47.045  21.492 -0.34 -0.30    -0.508 OA ATOM     22  H   UNL     1      44.393  47.971  21.633 -0.33 +0.08    +0.293 HD ENDBRANCH   4  21TORSDOF 3TERENDMDL