REMARK SMILES O=C(C=Cc1ccc(O)c(O)c1)Nc1cccc(C(=O)O)c1
REMARK SMILES IDX 1 1 2 2 13 3 3 5 4 6 5 7 6 8 12 9 7 10 10 11 8 12 11 13 9 15
REMARK SMILES IDX 14 17 15 18 22 19 16 20 18 21 17 22 19 23 20 24 21 25
REMARK H PARENT 13 4 11 14 9 16 21 26
ROOT
ATOM      1  O   UNL     1      -1.004   0.642   1.373  1.00  0.00    -0.270 OA
ATOM      2  C   UNL     1      -0.651   0.100   0.335  1.00  0.00     0.248 C 
ATOM      3  N   UNL     1      -1.462  -0.434  -0.646  1.00  0.00    -0.322 N 
ATOM      4  H   UNL     1      -1.006  -0.843  -1.450  1.00  0.00     0.170 HD
ENDROOT
BRANCH   2   5
ATOM      5  C   UNL     1       0.795  -0.051  -0.001  1.00  0.00     0.072 C 
BRANCH   5   6
ATOM      6  C   UNL     1       1.728   0.452   0.824  1.00  0.00     0.014 C 
BRANCH   6   7
ATOM      7  C   UNL     1       3.175   0.341   0.595  1.00  0.00    -0.022 A 
ATOM      8  C   UNL     1       4.025   0.221   1.708  1.00  0.00     0.012 A 
ATOM      9  C   UNL     1       3.740   0.400  -0.686  1.00  0.00     0.058 A 
ATOM     10  C   UNL     1       5.413   0.133   1.551  1.00  0.00     0.051 A 
ATOM     11  C   UNL     1       5.118   0.310  -0.834  1.00  0.00     0.157 A 
ATOM     12  C   UNL     1       5.951   0.176   0.273  1.00  0.00     0.157 A 
BRANCH  11  13
ATOM     13  O   UNL     1       5.656   0.360  -2.089  1.00  0.00    -0.504 OA
ATOM     14  H   UNL     1       6.621   0.290  -1.944  1.00  0.00     0.293 HD
ENDBRANCH  11  13
BRANCH  12  15
ATOM     15  O   UNL     1       7.298   0.095   0.050  1.00  0.00    -0.504 OA
ATOM     16  H   UNL     1       7.742   0.014   0.911  1.00  0.00     0.293 HD
ENDBRANCH  12  15
ENDBRANCH   6   7
ENDBRANCH   5   6
ENDBRANCH   2   5
BRANCH   3  17
ATOM     17  C   UNL     1      -2.874  -0.473  -0.665  1.00  0.00     0.042 A 
ATOM     18  C   UNL     1      -3.475  -1.069  -1.783  1.00  0.00     0.026 A 
ATOM     19  C   UNL     1      -3.688   0.039   0.349  1.00  0.00     0.041 A 
ATOM     20  C   UNL     1      -4.865  -1.154  -1.890  1.00  0.00     0.003 A 
ATOM     21  C   UNL     1      -5.085  -0.044   0.247  1.00  0.00     0.061 A 
ATOM     22  C   UNL     1      -5.670  -0.642  -0.876  1.00  0.00     0.016 A 
BRANCH  21  23
ATOM     23  C   UNL     1      -5.987   0.485   1.299  1.00  0.00     0.335 C 
ATOM     24  O   UNL     1      -7.204   0.448   1.274  1.00  0.00    -0.246 OA
BRANCH  23  25
ATOM     25  O   UNL     1      -5.327   1.036   2.331  1.00  0.00    -0.478 OA
ATOM     26  H   UNL     1      -6.033   1.339   2.938  1.00  0.00     0.297 HD
ENDBRANCH  23  25
ENDBRANCH  21  23
ENDBRANCH   3  17
TORSDOF 8
