MODEL        5USER    Run = 5USERUSER    Estimated Free Energy of Binding    =  -8.99 kcal/mol  [=(1)+(2)+(3)-(4)]USERUSER    (1) Final Intermolecular Energy     = -10.18 kcal/molUSER        vdW + Hbond + desolv Energy     = -10.08 kcal/molUSER        Electrostatic Energy            =  -0.10 kcal/molUSER        Moving Ligand-Fixed Receptor    = -10.18 kcal/molUSER        Moving Ligand-Moving Receptor   =  +0.00 kcal/molUSER    (2) Final Total Internal Energy     =  -0.80 kcal/molUSER    (3) Torsional Free Energy           =  +1.19 kcal/molUSER    (4) Unbound System's Energy         =  -0.80 kcal/molUSERUSERREMARK SMILES Cc1nn(C)c(C)c1N1CCN(C(=O)c2cc(C(C)(C)C)[nH]c2N2CCOC2)CC1REMARK SMILES IDX 9 1 10 2 11 3 12 4 13 5 14 6 29 7 30 8 8 9 2 10 3 11 4 12REMARK SMILES IDX 6 13 1 14 5 15 7 16 15 17 16 18 23 19 17 20 22 21 24 23REMARK SMILES IDX 25 24 28 25 26 26 27 27 18 28 19 29 20 30 21 31REMARK H PARENT 22 22USER                              x       y       z     vdW  Elec       q    TypeUSER                           _______ _______ _______ _____ _____    ______ ____ROOTATOM      1  N   UNL     1      39.477  46.514  16.797 -0.19 +0.08    -0.365 N  ATOM      2  C   UNL     1      40.815  46.949  17.227 -0.45 -0.02    +0.138 C  ATOM      3  C   UNL     1      41.455  45.932  18.190 -0.42 +0.00    +0.141 C  ATOM      4  N   UNL     1      40.623  45.669  19.367 -0.21 -0.01    -0.335 N  ATOM      5  C   UNL     1      41.250  45.426  20.590 -0.25 +0.03    +0.257 C  ATOM      6  O   UNL     1      42.473  45.372  20.697 -0.17 -0.08    -0.269 OA ATOM      7  C   UNL     1      39.180  45.873  19.194 -0.33 -0.01    +0.141 C  ATOM      8  C   UNL     1      38.723  45.668  17.736 -0.37 -0.03    +0.138 C  ENDROOTBRANCH   1   9ATOM      9  C   UNL     1      38.912  46.972  15.645 -0.39 -0.03    +0.081 A  ATOM     10  C   UNL     1      39.223  48.150  14.901 -0.47 -0.03    +0.083 A  ATOM     11  N   UNL     1      38.452  48.263  13.812 -0.51 +0.06    -0.176 NA ATOM     12  N   UNL     1      37.652  47.185  13.863 -0.27 +0.11    -0.271 N  ATOM     13  C   UNL     1      37.901  46.356  14.929 -0.36 -0.02    +0.059 A  ATOM     14  C   UNL     1      40.206  49.221  15.197 -0.57 -0.03    +0.071 C  ATOM     15  C   UNL     1      36.662  47.007  12.826 -0.56 -0.08    +0.174 C  ATOM     16  C   UNL     1      37.194  45.065  15.127 -0.38 -0.03    +0.068 C  ENDBRANCH   1   9BRANCH   5  17ATOM     17  C   UNL     1      40.391  45.258  21.754 -0.24 +0.01    +0.082 A  ATOM     18  C   UNL     1      39.517  44.155  22.000 -0.25 +0.00    +0.039 A  ATOM     19  C   UNL     1      40.294  46.104  22.853 -0.19 +0.01    +0.121 A  ATOM     20  C   UNL     1      38.865  44.365  23.202 -0.26 +0.00    +0.023 A  ATOM     21  N   UNL     1      39.338  45.565  23.683 -0.08 -0.02    -0.344 N  ATOM     22  H   UNL     1      39.037  46.002  24.538 +0.08 +0.01    +0.168 HD BRANCH  19  23ATOM     23  N   UNL     1      40.898  47.275  23.190 -0.09 -0.04    -0.332 N  ATOM     24  C   UNL     1      40.454  48.179  24.239 -0.29 +0.02    +0.149 C  ATOM     25  C   UNL     1      42.269  47.607  22.843 -0.19 +0.04    +0.281 C  ATOM     26  C   UNL     1      41.730  48.911  24.625 -0.32 +0.04    +0.184 C  ATOM     27  O   UNL     1      42.543  48.884  23.447 -0.87 -0.10    -0.359 OA ENDBRANCH  19  23BRANCH  20  28ATOM     28  C   UNL     1      37.818  43.525  23.914 -0.37 +0.00    +0.002 C  ATOM     29  C   UNL     1      36.912  42.761  22.928 -0.47 +0.00    +0.017 C  ATOM     30  C   UNL     1      36.922  44.431  24.781 -0.35 +0.00    +0.017 C  ATOM     31  C   UNL     1      38.524  42.500  24.820 -0.27 +0.00    +0.017 C  ENDBRANCH  20  28ENDBRANCH   5  17TORSDOF 4TERENDMDL