MODEL        5USER    Run = 5USERUSER    Estimated Free Energy of Binding    =  -7.85 kcal/mol  [=(1)+(2)+(3)-(4)]USERUSER    (1) Final Intermolecular Energy     = -12.02 kcal/molUSER        vdW + Hbond + desolv Energy     = -12.14 kcal/molUSER        Electrostatic Energy            =  -0.34 kcal/molUSER        Moving Ligand-Fixed Receptor    = -12.48 kcal/molUSER        Moving Ligand-Moving Receptor   =  +0.45 kcal/molUSER    (2) Final Total Internal Energy     =  -2.72 kcal/molUSER    (3) Torsional Free Energy           =  +4.18 kcal/molUSER    (4) Unbound System's Energy         =  -2.72 kcal/molUSERUSERREMARK SMILES COc1ccc(O)c(C(=O)c2ccc(C(=O)N[C@@H]3CCCN(C)C[C@H]3NC(=O)c3ccncc3)cc2)c1FREMARK SMILES IDX 15 1 16 2 17 3 14 5 11 6 12 7 36 8 13 9 35 10 9 11 10 12REMARK SMILES IDX 8 13 3 14 4 15 37 16 5 17 6 18 38 19 2 20 1 21 7 22 18 24REMARK SMILES IDX 19 25 25 27 24 28 22 29 23 30 21 31 20 32 26 34 27 35 28 37REMARK SMILES IDX 29 38 30 39 34 40 31 41 33 42 32 43REMARK H PARENT 17 4 7 23 26 36REMARK Flexibility Score:   88.900USER                              x       y       z     vdW  Elec       q    TypeUSER                           _______ _______ _______ _____ _____    ______ ____ROOTATOM      1  C   UNL     1      40.012  44.098  22.635 -0.15 +0.01    +0.251 C  ATOM      2  O   UNL     1      40.771  43.280  23.140 -0.17 -0.01    -0.269 OA ATOM      3  N   UNL     1      38.725  44.343  23.075 -0.09 -0.02    -0.347 N  ATOM      4  H   UNL     1      38.339  45.245  22.822 +0.08 +0.02    +0.164 HD ENDROOTBRANCH   1   5ATOM      5  C   UNL     1      40.476  44.930  21.492 -0.27 +0.00    +0.039 A  ATOM      6  C   UNL     1      41.269  46.520  19.329 -0.41 +0.00    +0.023 A  ATOM      7  C   UNL     1      39.914  46.223  19.516 -0.22 -0.00    +0.013 A  ATOM      8  C   UNL     1      42.221  46.053  20.243 -0.33 +0.00    +0.013 A  ATOM      9  C   UNL     1      39.521  45.428  20.597 -0.35 +0.00    +0.014 A  ATOM     10  C   UNL     1      41.828  45.254  21.321 -0.30 +0.00    +0.014 A  BRANCH   6  11ATOM     11  C   UNL     1      41.726  47.395  18.222 -0.43 -0.01    +0.199 C  ATOM     12  O   UNL     1      42.787  48.007  18.345 -0.44 -0.01    -0.288 OA BRANCH  11  13ATOM     13  C   UNL     1      40.936  47.615  16.992 -0.42 -0.01    +0.104 A  ATOM     14  C   UNL     1      39.396  46.831  15.272 -0.35 -0.04    +0.155 A  ATOM     15  C   UNL     1      39.434  48.090  14.669 -0.49 -0.02    +0.053 A  ATOM     16  C   UNL     1      40.154  46.604  16.430 -0.34 -0.03    +0.179 A  ATOM     17  C   UNL     1      40.240  49.099  15.205 -0.53 -0.02    +0.051 A  ATOM     18  C   UNL     1      40.998  48.855  16.348 -0.46 -0.02    +0.130 A  ATOM     19  F   UNL     1      40.140  45.380  16.982 -0.02 +0.02    -0.202 F  BRANCH  14  20ATOM     20  O   UNL     1      38.664  45.761  14.829 -0.10 +0.13    -0.494 OA ATOM     21  C   UNL     1      37.340  45.625  15.333 -0.23 -0.11    +0.278 C  ENDBRANCH  14  20BRANCH  18  22ATOM     22  O   UNL     1      41.786  49.884  16.788 -0.74 -0.08    -0.507 OA ATOM     23  H   UNL     1      41.359  50.729  16.517 -0.29 -0.08    +0.293 HD ENDBRANCH  18  22ENDBRANCH  11  13ENDBRANCH   6  11ENDBRANCH   1   5BRANCH   3  24ATOM     24  C   UNL     1      38.191  43.700  24.285 -0.26 +0.01    +0.106 C  BRANCH  24  25ATOM     25  C   UNL     1      36.857  42.968  24.015 -0.41 +0.00    +0.028 CG0ATOM     26  G   UNL     1      36.616  41.760  24.916 +0.00 +0.00    +0.000 G0 ENDBRANCH  24  25BRANCH  24  27ATOM     27  C   UNL     1      38.113  44.705  25.468 -0.23 +0.00    +0.118 C  BRANCH  27  28ATOM     28  C   UNL     1      38.148  44.054  26.872 -0.24 -0.01    +0.111 C  BRANCH  28  29ATOM     29  N   UNL     1      38.173  42.582  26.778 -0.12 +0.03    -0.304 NA ATOM     30  C   UNL     1      38.642  41.980  28.030 -0.37 -0.01    +0.105 C  BRANCH  29  31ATOM     31  C   UNL     1      36.879  41.998  26.403 -0.43 -0.01    +0.084 C  BRANCH  31  32ATOM     32  C   UNL     1      36.617  41.759  24.912 -0.40 -0.00    +0.018 CG0ATOM     33  G   UNL     1      36.859  42.966  24.010 +0.00 +0.00    +0.000 G0 ENDBRANCH  31  32ENDBRANCH  29  31ENDBRANCH  28  29ENDBRANCH  27  28BRANCH  27  34ATOM     34  N   UNL     1      39.188  45.701  25.379 -0.04 -0.01    -0.346 N  ATOM     35  C   UNL     1      39.115  46.801  24.560 -0.20 +0.02    +0.251 C  ATOM     36  H   UNL     1      40.024  45.464  25.897 +0.06 +0.00    +0.164 HD ATOM     37  O   UNL     1      38.093  47.113  23.955 -0.43 -0.06    -0.269 OA BRANCH  35  38ATOM     38  C   UNL     1      40.338  47.638  24.440 -0.26 +0.00    +0.042 A  ATOM     39  C   UNL     1      41.135  47.475  23.305 -0.21 +0.00    +0.034 A  ATOM     40  C   UNL     1      40.730  48.541  25.429 -0.28 +0.00    +0.034 A  ATOM     41  C   UNL     1      42.280  48.242  23.196 -0.28 +0.02    +0.112 A  ATOM     42  C   UNL     1      41.894  49.262  25.224 -0.29 +0.02    +0.112 A  ATOM     43  N   UNL     1      42.673  49.137  24.128 -0.72 -0.08    -0.265 NA ENDBRANCH  35  38ENDBRANCH  27  34ENDBRANCH  24  27ENDBRANCH   3  24TORSDOF 8TERENDMDL