MODEL        1USER    Run = 1USERUSER    Estimated Free Energy of Binding    =  -8.25 kcal/mol  [=(1)+(2)+(3)-(4)]USERUSER    (1) Final Intermolecular Energy     = -10.63 kcal/molUSER        vdW + Hbond + desolv Energy     =  -9.90 kcal/molUSER        Electrostatic Energy            =  -0.74 kcal/molUSER        Moving Ligand-Fixed Receptor    = -10.63 kcal/molUSER        Moving Ligand-Moving Receptor   =  +0.00 kcal/molUSER    (2) Final Total Internal Energy     =  -1.73 kcal/molUSER    (3) Torsional Free Energy           =  +2.39 kcal/molUSER    (4) Unbound System's Energy         =  -1.73 kcal/molUSERUSERREMARK SMILES O=C(C=Cc1ccc(O)c(O)c1)Nc1cccc(C(=O)O)c1REMARK SMILES IDX 1 1 2 2 13 3 3 5 4 6 5 7 6 8 12 9 7 10 10 11 8 12 11 13 9 15REMARK SMILES IDX 14 17 15 18 22 19 16 20 18 21 17 22 19 23 20 24 21 25REMARK H PARENT 13 4 11 14 9 16 21 26USER                              x       y       z     vdW  Elec       q    TypeUSER                           _______ _______ _______ _____ _____    ______ ____ROOTATOM      1  O   UNL     1      32.673  30.869  24.145 -0.45 -0.07    -0.270 OA ATOM      2  C   UNL     1      32.302  30.069  23.298 -0.44 +0.03    +0.248 C  ATOM      3  N   UNL     1      31.025  29.917  22.796 -0.33 +0.00    -0.322 N  ATOM      4  H   UNL     1      30.889  29.207  22.090 +0.07 -0.02    +0.170 HD ENDROOTBRANCH   2   5ATOM      5  C   UNL     1      33.259  29.107  22.677 -0.33 -0.00    +0.072 C  BRANCH   5   6ATOM      6  C   UNL     1      34.366  29.565  22.070 -0.54 -0.00    +0.014 C  BRANCH   6   7ATOM      7  C   UNL     1      35.481  30.213  22.773 -0.34 +0.00    -0.022 A  ATOM      8  C   UNL     1      36.706  30.362  22.099 -0.40 -0.00    +0.012 A  ATOM      9  C   UNL     1      35.383  30.643  24.103 -0.19 +0.00    +0.058 A  ATOM     10  C   UNL     1      37.809  30.953  22.727 -0.43 +0.01    +0.051 A  ATOM     11  C   UNL     1      36.481  31.230  24.719 -0.38 +0.02    +0.157 A  ATOM     12  C   UNL     1      37.686  31.387  24.039 -0.40 +0.03    +0.157 A  BRANCH  11  13ATOM     13  O   UNL     1      36.370  31.652  26.013 -0.29 -0.04    -0.504 OA ATOM     14  H   UNL     1      37.295  31.737  26.323 -0.30 -0.07    +0.293 HD ENDBRANCH  11  13BRANCH  12  15ATOM     15  O   UNL     1      38.724  31.972  24.710 -0.65 -0.18    -0.504 OA ATOM     16  H   UNL     1      38.358  32.456  25.469 -0.19 -0.07    +0.293 HD ENDBRANCH  12  15ENDBRANCH   6   7ENDBRANCH   5   6ENDBRANCH   2   5BRANCH   3  17ATOM     17  C   UNL     1      29.870  30.648  23.151 -0.51 +0.00    +0.042 A  ATOM     18  C   UNL     1      29.248  30.300  24.359 -0.55 +0.01    +0.026 A  ATOM     19  C   UNL     1      29.325  31.679  22.381 -0.44 -0.00    +0.041 A  ATOM     20  C   UNL     1      28.101  30.968  24.793 -0.49 +0.00    +0.003 A  ATOM     21  C   UNL     1      28.173  32.354  22.812 -0.41 +0.01    +0.061 A  ATOM     22  C   UNL     1      27.563  31.994  24.020 -0.33 +0.01    +0.016 A  BRANCH  21  23ATOM     23  C   UNL     1      27.561  33.454  22.027 -0.24 -0.09    +0.335 C  ATOM     24  O   UNL     1      27.711  33.642  20.834 -0.29 +0.16    -0.246 OA BRANCH  23  25ATOM     25  O   UNL     1      26.793  34.267  22.771 -0.67 +0.00    -0.478 OA ATOM     26  H   UNL     1      26.140  34.631  22.138 -0.37 -0.48    +0.297 HD ENDBRANCH  23  25ENDBRANCH  21  23ENDBRANCH   3  17TORSDOF 8TERENDMDL