MODEL        2USER    Run = 2USERUSER    Estimated Free Energy of Binding    =  -9.25 kcal/mol  [=(1)+(2)+(3)-(4)]USERUSER    (1) Final Intermolecular Energy     = -11.04 kcal/molUSER        vdW + Hbond + desolv Energy     = -11.05 kcal/molUSER        Electrostatic Energy            =  +0.01 kcal/molUSER        Moving Ligand-Fixed Receptor    = -11.04 kcal/molUSER        Moving Ligand-Moving Receptor   =  +0.00 kcal/molUSER    (2) Final Total Internal Energy     =  -1.73 kcal/molUSER    (3) Torsional Free Energy           =  +1.79 kcal/molUSER    (4) Unbound System's Energy         =  -1.73 kcal/molUSERUSERREMARK SMILES COc1ccc(Nc2nc(N3CCN(C)CC3)cc(OC)c2-c2ccccc2F)cc1REMARK SMILES IDX 7 1 6 3 3 4 4 5 31 6 5 7 30 8 2 9 1 10 8 11 9 12 22 13 10 14REMARK SMILES IDX 19 15 18 16 23 17 24 18 28 19 25 20 27 21 26 22 29 23 11 24REMARK SMILES IDX 12 25 17 26 13 27 16 28 14 29 15 30 20 31 21 32REMARK H PARENT 7 2USER                              x       y       z     vdW  Elec       q    TypeUSER                           _______ _______ _______ _____ _____    ______ ____ROOTATOM      1  N   UNL     1      38.871  45.098  16.989 -0.08 +0.06    -0.340 N  ATOM      2  H   UNL     1      39.460  44.303  17.200 +0.14 -0.02    +0.168 HD ENDROOTBRANCH   1   3ATOM      3  C   UNL     1      39.574  46.280  16.683 -0.42 -0.01    +0.040 A  ATOM      4  C   UNL     1      41.049  48.638  16.155 -0.48 -0.01    +0.119 A  ATOM      5  C   UNL     1      40.979  48.117  17.448 -0.40 -0.01    +0.048 A  ATOM      6  C   UNL     1      40.399  47.968  15.121 -0.50 -0.01    +0.048 A  ATOM      7  C   UNL     1      40.258  46.945  17.709 -0.47 -0.00    +0.030 A  ATOM      8  C   UNL     1      39.675  46.795  15.385 -0.45 -0.01    +0.030 A  BRANCH   4   9ATOM      9  O   UNL     1      41.780  49.790  16.039 -0.81 -0.05    -0.497 OA ATOM     10  C   UNL     1      41.815  50.400  14.756 -0.48 -0.06    +0.278 C  ENDBRANCH   4   9ENDBRANCH   1   3BRANCH   1  11ATOM     11  C   UNL     1      37.591  44.990  17.572 -0.26 -0.04    +0.144 A  ATOM     12  N   UNL     1      37.498  44.377  18.776 -0.22 +0.03    -0.213 NA ATOM     13  C   UNL     1      36.462  45.462  16.879 -0.30 -0.03    +0.070 A  ATOM     14  C   UNL     1      36.302  44.252  19.382 -0.29 -0.02    +0.134 A  ATOM     15  C   UNL     1      35.210  45.283  17.489 -0.25 -0.07    +0.134 A  ATOM     16  C   UNL     1      35.139  44.676  18.741 -0.31 -0.03    +0.094 A  BRANCH  13  17ATOM     17  C   UNL     1      36.578  46.085  15.550 -0.35 -0.02    +0.025 A  ATOM     18  C   UNL     1      36.632  47.482  15.415 -0.36 -0.01    +0.012 A  ATOM     19  C   UNL     1      36.620  45.306  14.384 -0.31 -0.06    +0.131 A  ATOM     20  C   UNL     1      36.727  48.075  14.152 -0.49 -0.00    +0.001 A  ATOM     21  C   UNL     1      36.713  45.890  13.123 -0.50 -0.02    +0.040 A  ATOM     22  C   UNL     1      36.769  47.279  13.006 -0.63 -0.00    +0.003 A  ATOM     23  F   UNL     1      36.544  43.967  14.465 -0.11 +0.07    -0.206 F  ENDBRANCH  13  17BRANCH  14  24ATOM     24  N   UNL     1      36.233  43.655  20.644 -0.19 +0.00    -0.354 N  ATOM     25  C   UNL     1      36.230  42.176  20.632 -0.45 -0.00    +0.133 C  ATOM     26  C   UNL     1      37.034  44.274  21.725 -0.32 +0.01    +0.133 C  ATOM     27  C   UNL     1      36.172  41.645  22.083 -0.52 +0.00    +0.105 C  ATOM     28  C   UNL     1      37.986  43.256  22.400 -0.34 +0.01    +0.105 C  ATOM     29  N   UNL     1      37.349  42.022  22.908 -0.26 -0.02    -0.303 NA ATOM     30  C   UNL     1      36.975  42.141  24.316 -0.41 +0.00    +0.105 C  ENDBRANCH  14  24BRANCH  15  31ATOM     31  O   UNL     1      34.119  45.734  16.783 -0.05 +0.48    -0.496 OA ATOM     32  C   UNL     1      33.353  44.775  16.065 -0.19 -0.17    +0.278 C  ENDBRANCH  15  31ENDBRANCH   1  11TORSDOF 6TERENDMDL