REMARK SMILES COc1ccc(Nc2nc(N3CCN(C)CC3)cc(OC)c2-c2ccccc2F)cc1
REMARK SMILES IDX 7 1 6 3 3 4 4 5 31 6 5 7 30 8 2 9 1 10 8 11 9 12 22 13 10 14
REMARK SMILES IDX 19 15 18 16 23 17 24 18 28 19 25 20 27 21 26 22 29 23 11 24
REMARK SMILES IDX 12 25 17 26 13 27 16 28 14 29 15 30 20 31 21 32
REMARK H PARENT 7 2
ROOT
ATOM      1  N   UNL     1      -1.550  -0.222   1.214  1.00  0.00    -0.340 N 
ATOM      2  H   UNL     1      -1.920  -0.911   1.856  1.00  0.00     0.168 HD
ENDROOT
BRANCH   1   3
ATOM      3  C   UNL     1      -2.495   0.720   0.762  1.00  0.00     0.040 A 
ATOM      4  C   UNL     1      -4.433   2.620  -0.045  1.00  0.00     0.119 A 
ATOM      5  C   UNL     1      -4.641   1.826   1.084  1.00  0.00     0.048 A 
ATOM      6  C   UNL     1      -3.245   2.479  -0.759  1.00  0.00     0.048 A 
ATOM      7  C   UNL     1      -3.679   0.893   1.490  1.00  0.00     0.030 A 
ATOM      8  C   UNL     1      -2.283   1.542  -0.351  1.00  0.00     0.030 A 
BRANCH   4   9
ATOM      9  O   UNL     1      -5.453   3.486  -0.335  1.00  0.00    -0.497 OA
ATOM     10  C   UNL     1      -5.280   4.322  -1.471  1.00  0.00     0.278 C 
ENDBRANCH   4   9
ENDBRANCH   1   3
BRANCH   1  11
ATOM     11  C   UNL     1      -0.405  -0.682   0.530  1.00  0.00     0.144 A 
ATOM     12  N   UNL     1       0.598   0.203   0.317  1.00  0.00    -0.213 NA
ATOM     13  C   UNL     1      -0.358  -2.003   0.050  1.00  0.00     0.070 A 
ATOM     14  C   UNL     1       1.717  -0.184  -0.324  1.00  0.00     0.134 A 
ATOM     15  C   UNL     1       0.788  -2.388  -0.664  1.00  0.00     0.134 A 
ATOM     16  C   UNL     1       1.821  -1.471  -0.848  1.00  0.00     0.094 A 
BRANCH  13  17
ATOM     17  C   UNL     1      -1.478  -2.937   0.252  1.00  0.00     0.025 A 
ATOM     18  C   UNL     1      -2.465  -3.097  -0.735  1.00  0.00     0.012 A 
ATOM     19  C   UNL     1      -1.602  -3.677   1.437  1.00  0.00     0.131 A 
ATOM     20  C   UNL     1      -3.537  -3.973  -0.537  1.00  0.00     0.001 A 
ATOM     21  C   UNL     1      -2.668  -4.550   1.641  1.00  0.00     0.040 A 
ATOM     22  C   UNL     1      -3.638  -4.700   0.650  1.00  0.00     0.003 A 
ATOM     23  F   UNL     1      -0.695  -3.534   2.418  1.00  0.00    -0.206 F 
ENDBRANCH  13  17
BRANCH  14  24
ATOM     24  N   UNL     1       2.759   0.733  -0.496  1.00  0.00    -0.354 N 
ATOM     25  C   UNL     1       2.458   2.107  -0.040  1.00  0.00     0.133 C 
ATOM     26  C   UNL     1       4.129   0.256  -0.198  1.00  0.00     0.133 C 
ATOM     27  C   UNL     1       3.692   3.011  -0.266  1.00  0.00     0.105 C 
ATOM     28  C   UNL     1       4.846   1.157   0.837  1.00  0.00     0.105 C 
ATOM     29  N   UNL     1       4.889   2.599   0.512  1.00  0.00    -0.303 NA
ATOM     30  C   UNL     1       6.115   2.962  -0.196  1.00  0.00     0.105 C 
ENDBRANCH  14  24
BRANCH  15  31
ATOM     31  O   UNL     1       0.802  -3.678  -1.142  1.00  0.00    -0.496 OA
ATOM     32  C   UNL     1       1.914  -4.079  -1.932  1.00  0.00     0.278 C 
ENDBRANCH  15  31
ENDBRANCH   1  11
TORSDOF 6
