REMARK SMILES O=C(Nc1ccc(O)cc1)c1cc2ncccc2[nH]1
REMARK SMILES IDX 4 1 5 2 6 3 7 4 9 5 10 6 3 7 2 8 1 9 11 11 12 12 19 13 13 14
REMARK SMILES IDX 18 15 14 16 17 17 15 18 16 19 8 21
REMARK H PARENT 3 10 19 20 8 22
ROOT
ATOM      1  C   UNL     1      -2.449   0.085   0.008  1.00  0.00     0.041 A 
ATOM      2  C   UNL     1      -3.221  -0.235   1.134  1.00  0.00     0.030 A 
ATOM      3  C   UNL     1      -4.615  -0.155   1.089  1.00  0.00     0.048 A 
ATOM      4  C   UNL     1      -5.242   0.246  -0.081  1.00  0.00     0.115 A 
ATOM      5  C   UNL     1      -4.496   0.569  -1.208  1.00  0.00     0.048 A 
ATOM      6  C   UNL     1      -3.099   0.487  -1.161  1.00  0.00     0.030 A 
ENDROOT
BRANCH   1   7
ATOM      7  N   UNL     1      -1.049  -0.024   0.141  1.00  0.00    -0.321 N 
ATOM      8  C   UNL     1      -0.083   0.233  -0.812  1.00  0.00     0.272 C 
ATOM      9  O   UNL     1      -0.295   0.607  -1.960  1.00  0.00    -0.267 OA
ATOM     10  H   UNL     1      -0.720  -0.326   1.046  1.00  0.00     0.170 HD
BRANCH   8  11
ATOM     11  C   UNL     1       1.280   0.024  -0.357  1.00  0.00     0.107 A 
ATOM     12  C   UNL     1       1.823  -0.386   0.852  1.00  0.00     0.062 A 
ATOM     13  N   UNL     1       2.349   0.243  -1.207  1.00  0.00    -0.349 N 
ATOM     14  C   UNL     1       3.231  -0.410   0.717  1.00  0.00     0.089 A 
ATOM     15  C   UNL     1       3.541  -0.014  -0.578  1.00  0.00     0.065 A 
ATOM     16  N   UNL     1       4.167  -0.746   1.635  1.00  0.00    -0.255 NA
ATOM     17  C   UNL     1       4.860   0.064  -1.020  1.00  0.00     0.030 A 
ATOM     18  C   UNL     1       5.441  -0.666   1.193  1.00  0.00     0.112 A 
ATOM     19  C   UNL     1       5.832  -0.280  -0.083  1.00  0.00     0.022 A 
ATOM     20  H   UNL     1       2.242   0.552  -2.165  1.00  0.00     0.167 HD
ENDBRANCH   8  11
ENDBRANCH   1   7
BRANCH   4  21
ATOM     21  O   UNL     1      -6.603   0.312  -0.085  1.00  0.00    -0.508 OA
ATOM     22  H   UNL     1      -6.896   0.605  -0.964  1.00  0.00     0.293 HD
ENDBRANCH   4  21
TORSDOF 3
