MODEL        7USER    Run = 7USERUSER    Estimated Free Energy of Binding    =  -8.95 kcal/mol  [=(1)+(2)+(3)-(4)]USERUSER    (1) Final Intermolecular Energy     =  -9.85 kcal/molUSER        vdW + Hbond + desolv Energy     =  -9.72 kcal/molUSER        Electrostatic Energy            =  -0.12 kcal/molUSER        Moving Ligand-Fixed Receptor    =  -9.85 kcal/molUSER        Moving Ligand-Moving Receptor   =  +0.00 kcal/molUSER    (2) Final Total Internal Energy     =  -0.46 kcal/molUSER    (3) Torsional Free Energy           =  +0.89 kcal/molUSER    (4) Unbound System's Energy         =  -0.46 kcal/molUSERUSERREMARK SMILES Fc1ccc(Nc2nccc(-c3cc4ncccc4[nH]3)n2)cc1FREMARK SMILES IDX 7 1 8 2 9 3 10 4 11 5 21 6 6 7 5 9 2 10 3 11 23 12 4 13REMARK SMILES IDX 22 14 1 15 24 16 12 17 13 18 20 19 14 20 19 21 15 22 18 23REMARK SMILES IDX 16 24 17 25REMARK H PARENT 6 8 20 26USER                              x       y       z     vdW  Elec       q    TypeUSER                           _______ _______ _______ _____ _____    ______ ____ROOTATOM      1  C   UNL     1      37.344  47.784  13.850 -0.36 -0.11    +0.227 A  ATOM      2  N   UNL     1      37.662  47.528  12.573 -0.95 +0.03    -0.221 NA ATOM      3  C   UNL     1      36.809  46.774  11.858 -0.57 -0.04    +0.117 A  ATOM      4  C   UNL     1      35.645  46.263  12.366 -0.49 -0.03    +0.051 A  ATOM      5  C   UNL     1      35.396  46.574  13.681 -0.41 -0.07    +0.092 A  ATOM      6  N   UNL     1      36.225  47.326  14.436 -0.28 +0.17    -0.211 NA ENDROOTBRANCH   1   7ATOM      7  N   UNL     1      38.165  48.554  14.670 -0.28 +0.19    -0.324 N  ATOM      8  H   UNL     1      37.982  49.530  14.490 -0.41 -0.15    +0.170 HD BRANCH   7   9ATOM      9  C   UNL     1      39.134  48.253  15.634 -0.48 -0.02    +0.044 A  ATOM     10  C   UNL     1      41.164  47.761  17.520 -0.39 -0.02    +0.158 A  ATOM     11  C   UNL     1      41.311  48.802  16.614 -0.39 -0.00    +0.044 A  ATOM     12  C   UNL     1      40.025  46.971  17.493 -0.36 -0.03    +0.160 A  ATOM     13  C   UNL     1      40.300  49.043  15.678 -0.59 -0.01    +0.029 A  ATOM     14  C   UNL     1      39.016  47.212  16.561 -0.39 -0.02    +0.068 A  ATOM     15  F   UNL     1      42.132  47.528  18.418 -0.22 +0.00    -0.204 F  ATOM     16  F   UNL     1      39.884  45.967  18.369 -0.12 +0.02    -0.204 F  ENDBRANCH   7   9ENDBRANCH   1   7BRANCH   5  17ATOM     17  C   UNL     1      34.202  46.113  14.385 -0.13 -0.07    +0.067 A  ATOM     18  C   UNL     1      34.023  45.503  15.616 -0.26 -0.05    +0.058 A  ATOM     19  N   UNL     1      32.944  46.248  13.832 -0.11 +0.32    -0.352 N  ATOM     20  C   UNL     1      32.638  45.273  15.798 -0.27 -0.07    +0.089 A  ATOM     21  C   UNL     1      31.980  45.746  14.669 -0.40 -0.05    +0.065 A  ATOM     22  N   UNL     1      32.000  44.703  16.847 -0.41 +0.08    -0.255 NA ATOM     23  C   UNL     1      30.594  45.662  14.546 -0.48 -0.02    +0.030 A  ATOM     24  C   UNL     1      30.659  44.629  16.713 -0.14 -0.02    +0.112 A  ATOM     25  C   UNL     1      29.928  45.078  15.619 -0.35 -0.01    +0.022 A  ATOM     26  H   UNL     1      32.781  46.665  12.926 -0.47 -0.16    +0.167 HD ENDBRANCH   5  17TORSDOF 3TERENDMDL