REMARK SMILES Fc1ccc(Nc2nccc(-c3cc4ncccc4[nH]3)n2)cc1F
REMARK SMILES IDX 7 1 8 2 9 3 10 4 11 5 21 6 6 7 5 9 2 10 3 11 23 12 4 13
REMARK SMILES IDX 22 14 1 15 24 16 12 17 13 18 20 19 14 20 19 21 15 22 18 23
REMARK SMILES IDX 16 24 17 25
REMARK H PARENT 6 8 20 26
ROOT
ATOM      1  C   UNL     1      -1.375   0.006  -0.363  1.00  0.00     0.227 A 
ATOM      2  N   UNL     1      -1.937   0.182  -1.567  1.00  0.00    -0.221 NA
ATOM      3  C   UNL     1      -1.118   0.400  -2.611  1.00  0.00     0.117 A 
ATOM      4  C   UNL     1       0.246   0.449  -2.503  1.00  0.00     0.051 A 
ATOM      5  C   UNL     1       0.738   0.258  -1.234  1.00  0.00     0.092 A 
ATOM      6  N   UNL     1      -0.048   0.037  -0.158  1.00  0.00    -0.211 NA
ENDROOT
BRANCH   1   7
ATOM      7  N   UNL     1      -2.141  -0.225   0.777  1.00  0.00    -0.324 N 
ATOM      8  H   UNL     1      -1.524  -0.329   1.569  1.00  0.00     0.170 HD
BRANCH   7   9
ATOM      9  C   UNL     1      -3.515  -0.334   1.019  1.00  0.00     0.044 A 
ATOM     10  C   UNL     1      -6.247  -0.576   1.651  1.00  0.00     0.158 A 
ATOM     11  C   UNL     1      -5.300  -0.700   2.657  1.00  0.00     0.044 A 
ATOM     12  C   UNL     1      -5.847  -0.335   0.345  1.00  0.00     0.160 A 
ATOM     13  C   UNL     1      -3.943  -0.579   2.339  1.00  0.00     0.029 A 
ATOM     14  C   UNL     1      -4.495  -0.214   0.028  1.00  0.00     0.068 A 
ATOM     15  F   UNL     1      -7.548  -0.691   1.953  1.00  0.00    -0.204 F 
ATOM     16  F   UNL     1      -6.763  -0.215  -0.626  1.00  0.00    -0.204 F 
ENDBRANCH   7   9
ENDBRANCH   1   7
BRANCH   5  17
ATOM     17  C   UNL     1       2.167   0.278  -0.935  1.00  0.00     0.067 A 
ATOM     18  C   UNL     1       3.284   0.468  -1.733  1.00  0.00     0.058 A 
ATOM     19  N   UNL     1       2.636   0.083   0.349  1.00  0.00    -0.352 N 
ATOM     20  C   UNL     1       4.433   0.386  -0.911  1.00  0.00     0.089 A 
ATOM     21  C   UNL     1       4.006   0.144   0.389  1.00  0.00     0.065 A 
ATOM     22  N   UNL     1       5.737   0.508  -1.255  1.00  0.00    -0.255 NA
ATOM     23  C   UNL     1       4.912   0.011   1.440  1.00  0.00     0.030 A 
ATOM     24  C   UNL     1       6.602   0.377  -0.227  1.00  0.00     0.112 A 
ATOM     25  C   UNL     1       6.256   0.135   1.097  1.00  0.00     0.022 A 
ATOM     26  H   UNL     1       2.029  -0.081   1.140  1.00  0.00     0.167 HD
ENDBRANCH   5  17
TORSDOF 3
