REMARK SMILES Cc1nn(C)c(C)c1N1CCN(C(=O)c2cc(C(C)(C)C)[nH]c2N2CCOC2)CC1
REMARK SMILES IDX 9 1 10 2 11 3 12 4 13 5 14 6 29 7 30 8 8 9 2 10 3 11 4 12
REMARK SMILES IDX 6 13 1 14 5 15 7 16 15 17 16 18 23 19 17 20 22 21 24 23
REMARK SMILES IDX 25 24 28 25 26 26 27 27 18 28 19 29 20 30 21 31
REMARK H PARENT 22 22
ROOT
ATOM      1  N   UNL     1       3.148  -0.237  -0.028  1.00  0.00    -0.365 N 
ATOM      2  C   UNL     1       2.770  -1.658  -0.057  1.00  0.00     0.138 C 
ATOM      3  C   UNL     1       1.666  -1.926  -1.097  1.00  0.00     0.141 C 
ATOM      4  N   UNL     1       0.472  -1.105  -0.876  1.00  0.00    -0.335 N 
ATOM      5  C   UNL     1      -0.779  -1.652  -1.163  1.00  0.00     0.257 C 
ATOM      6  O   UNL     1      -0.905  -2.776  -1.645  1.00  0.00    -0.269 OA
ATOM      7  C   UNL     1       0.688   0.172  -0.185  1.00  0.00     0.141 C 
ATOM      8  C   UNL     1       2.107   0.733  -0.405  1.00  0.00     0.138 C 
ENDROOT
BRANCH   1   9
ATOM      9  C   UNL     1       4.359   0.172   0.445  1.00  0.00     0.081 A 
ATOM     10  C   UNL     1       5.156  -0.401   1.481  1.00  0.00     0.083 A 
ATOM     11  N   UNL     1       6.295   0.280   1.661  1.00  0.00    -0.176 NA
ATOM     12  N   UNL     1       6.224   1.279   0.765  1.00  0.00    -0.271 N 
ATOM     13  C   UNL     1       5.094   1.250  -0.015  1.00  0.00     0.059 A 
ATOM     14  C   UNL     1       4.869  -1.562   2.360  1.00  0.00     0.071 C 
ATOM     15  C   UNL     1       7.306   2.235   0.707  1.00  0.00     0.174 C 
ATOM     16  C   UNL     1       4.858   2.207  -1.125  1.00  0.00     0.068 C 
ENDBRANCH   1   9
BRANCH   5  17
ATOM     17  C   UNL     1      -1.946  -0.840  -0.847  1.00  0.00     0.082 A 
ATOM     18  C   UNL     1      -2.397   0.302  -1.577  1.00  0.00     0.039 A 
ATOM     19  C   UNL     1      -2.856  -1.047   0.183  1.00  0.00     0.121 A 
ATOM     20  C   UNL     1      -3.529   0.805  -0.961  1.00  0.00     0.023 A 
ATOM     21  N   UNL     1      -3.768  -0.018   0.116  1.00  0.00    -0.344 N 
ATOM     22  H   UNL     1      -4.518   0.101   0.777  1.00  0.00     0.168 HD
BRANCH  19  23
ATOM     23  N   UNL     1      -2.962  -1.979   1.168  1.00  0.00    -0.332 N 
ATOM     24  C   UNL     1      -4.128  -2.183   2.012  1.00  0.00     0.149 C 
ATOM     25  C   UNL     1      -2.108  -3.150   1.267  1.00  0.00     0.281 C 
ATOM     26  C   UNL     1      -3.997  -3.639   2.433  1.00  0.00     0.184 C 
ATOM     27  O   UNL     1      -2.592  -3.912   2.387  1.00  0.00    -0.359 OA
ENDBRANCH  19  23
BRANCH  20  28
ATOM     28  C   UNL     1      -4.383   2.013  -1.306  1.00  0.00     0.002 C 
ATOM     29  C   UNL     1      -5.702   2.043  -0.510  1.00  0.00     0.017 C 
ATOM     30  C   UNL     1      -4.732   1.994  -2.807  1.00  0.00     0.017 C 
ATOM     31  C   UNL     1      -3.594   3.296  -0.989  1.00  0.00     0.017 C 
ENDBRANCH  20  28
ENDBRANCH   5  17
TORSDOF 4
