MODEL        8USER    Run = 8USERUSER    Estimated Free Energy of Binding    =  -7.68 kcal/mol  [=(1)+(2)+(3)-(4)]USERUSER    (1) Final Intermolecular Energy     =  -9.77 kcal/molUSER        vdW + Hbond + desolv Energy     =  -9.57 kcal/molUSER        Electrostatic Energy            =  -0.20 kcal/molUSER        Moving Ligand-Fixed Receptor    =  -9.77 kcal/molUSER        Moving Ligand-Moving Receptor   =  +0.00 kcal/molUSER    (2) Final Total Internal Energy     =  -0.99 kcal/molUSER    (3) Torsional Free Energy           =  +2.09 kcal/molUSER    (4) Unbound System's Energy         =  -0.99 kcal/molUSERUSERREMARK SMILES COc1ccc(CC=C(Nc2ccc(Cl)cc2)N(C)C)cc1REMARK SMILES IDX 8 1 7 2 6 3 3 4 4 5 22 6 5 7 21 8 2 9 1 10 9 11 10 12 11 14REMARK SMILES IDX 12 15 17 16 13 17 16 18 14 19 15 20 18 21 19 22 20 23REMARK H PARENT 10 13USER                              x       y       z     vdW  Elec       q    TypeUSER                           _______ _______ _______ _____ _____    ______ ____ROOTATOM      1  C   UNL     1      37.304  45.413  14.263 -0.46 -0.01    +0.022 C  ENDROOTBRANCH   1   2ATOM      2  C   UNL     1      38.041  45.328  15.569 -0.35 -0.02    +0.066 C  BRANCH   2   3ATOM      3  C   UNL     1      39.035  46.455  15.747 -0.40 +0.01    -0.044 A  ATOM      4  C   UNL     1      40.859  48.575  16.097 -0.49 -0.02    +0.118 A  ATOM      5  C   UNL     1      40.147  48.440  14.903 -0.53 -0.01    +0.046 A  ATOM      6  C   UNL     1      40.655  47.648  17.120 -0.50 -0.01    +0.046 A  ATOM      7  C   UNL     1      39.240  47.392  14.728 -0.48 -0.00    +0.008 A  ATOM      8  C   UNL     1      39.746  46.598  16.946 -0.47 -0.00    +0.008 A  BRANCH   4   9ATOM      9  O   UNL     1      41.713  49.643  16.136 -0.83 -0.05    -0.497 OA ATOM     10  C   UNL     1      41.816  50.426  14.954 -0.47 -0.05    +0.278 C  ENDBRANCH   4   9ENDBRANCH   2   3ENDBRANCH   1   2BRANCH   1  11ATOM     11  C   UNL     1      36.193  46.133  14.005 -0.44 -0.06    +0.101 C  BRANCH  11  12ATOM     12  N   UNL     1      35.050  45.966  14.764 -0.16 +0.29    -0.342 N  ATOM     13  H   UNL     1      34.485  46.808  14.751 -0.02 -0.25    +0.168 HD BRANCH  12  14ATOM     14  C   UNL     1      34.921  45.281  15.993 -0.30 -0.03    +0.040 A  ATOM     15  C   UNL     1      34.891  45.916  17.240 -0.36 -0.02    +0.027 A  ATOM     16  C   UNL     1      34.882  43.877  15.965 -0.32 -0.01    +0.027 A  ATOM     17  C   UNL     1      34.799  45.178  18.425 -0.39 -0.01    +0.022 A  ATOM     18  C   UNL     1      34.791  43.132  17.145 -0.36 -0.01    +0.022 A  ATOM     19  C   UNL     1      34.749  43.788  18.371 -0.30 -0.01    +0.041 A  ATOM     20  Cl  UNL     1      34.635  42.877  19.826 -0.60 +0.00    -0.084 Cl ENDBRANCH  12  14ENDBRANCH  11  12BRANCH  11  21ATOM     21  N   UNL     1      36.156  47.006  12.917 -0.31 +0.20    -0.365 N  ATOM     22  C   UNL     1      36.536  46.506  11.592 -0.58 -0.06    +0.144 C  ATOM     23  C   UNL     1      36.543  48.404  13.136 -0.47 -0.07    +0.144 C  ENDBRANCH  11  21ENDBRANCH   1  11TORSDOF 7TERENDMDL