REMARK SMILES Nc1ccc2[nH]c3c(NCCc4ccccc4)cccc3c2c1C=O
REMARK SMILES IDX 9 1 8 3 2 4 3 5 23 6 4 7 22 8 5 9 21 10 6 11 20 12 7 13
REMARK SMILES IDX 19 14 18 15 1 17 24 20 25 21 10 22 11 23 12 24 13 25 17 26
REMARK SMILES IDX 14 27 16 28 15 29
REMARK H PARENT 9 2 6 16 1 18 1 19
ROOT
ATOM      1  N   UNL     1      -1.108  -0.691   1.270  1.00  0.00    -0.383 N 
ATOM      2  H   UNL     1      -0.836   0.072   1.876  1.00  0.00     0.160 HD
ENDROOT
BRANCH   1   3
ATOM      3  C   UNL     1      -0.141  -1.066   0.343  1.00  0.00     0.059 A 
ATOM      4  C   UNL     1       5.634   0.829   0.004  1.00  0.00     0.043 A 
ATOM      5  C   UNL     1       5.240   1.530   1.144  1.00  0.00     0.028 A 
ATOM      6  C   UNL     1       4.674   0.048  -0.687  1.00  0.00     0.047 A 
ATOM      7  C   UNL     1       3.947   1.423   1.662  1.00  0.00     0.029 A 
ATOM      8  C   UNL     1       3.358  -0.108  -0.171  1.00  0.00     0.020 A 
ATOM      9  C   UNL     1       3.040   0.600   0.989  1.00  0.00     0.047 A 
ATOM     10  C   UNL     1       2.181  -0.871  -0.522  1.00  0.00     0.010 A 
ATOM     11  N   UNL     1       1.728   0.332   1.288  1.00  0.00    -0.353 N 
ATOM     12  C   UNL     1       1.882  -1.823  -1.519  1.00  0.00     0.011 A 
ATOM     13  C   UNL     1       1.170  -0.545   0.388  1.00  0.00     0.070 A 
ATOM     14  C   UNL     1       0.610  -2.393  -1.575  1.00  0.00     0.003 A 
ATOM     15  C   UNL     1      -0.372  -2.020  -0.661  1.00  0.00     0.028 A 
ATOM     16  H   UNL     1       1.241   0.707   2.086  1.00  0.00     0.167 HD
BRANCH   4  17
ATOM     17  N   UNL     1       6.903   1.112  -0.544  1.00  0.00    -0.398 N 
ATOM     18  H   UNL     1       7.193   0.388  -1.213  1.00  0.00     0.156 HD
ATOM     19  H   UNL     1       7.622   1.295   0.148  1.00  0.00     0.156 HD
ENDBRANCH   4  17
BRANCH   6  20
ATOM     20  C   UNL     1       5.040  -0.606  -1.960  1.00  0.00     0.262 C 
ATOM     21  O   UNL     1       6.195  -0.911  -2.240  1.00  0.00    -0.298 OA
ENDBRANCH   6  20
ENDBRANCH   1   3
BRANCH   1  22
ATOM     22  C   UNL     1      -2.523  -0.641   0.895  1.00  0.00     0.117 C 
BRANCH  22  23
ATOM     23  C   UNL     1      -2.815   0.512  -0.073  1.00  0.00     0.056 C 
BRANCH  23  24
ATOM     24  C   UNL     1      -4.284   0.606  -0.403  1.00  0.00    -0.046 A 
ATOM     25  C   UNL     1      -5.141   1.395   0.376  1.00  0.00     0.004 A 
ATOM     26  C   UNL     1      -4.815  -0.120  -1.478  1.00  0.00     0.004 A 
ATOM     27  C   UNL     1      -6.503   1.461   0.080  1.00  0.00     0.000 A 
ATOM     28  C   UNL     1      -6.177  -0.052  -1.772  1.00  0.00     0.000 A 
ATOM     29  C   UNL     1      -7.021   0.739  -0.994  1.00  0.00     0.000 A 
ENDBRANCH  23  24
ENDBRANCH  22  23
ENDBRANCH   1  22
TORSDOF 6
