MODEL        1USER    Run = 1USERUSER    Estimated Free Energy of Binding    =  -8.89 kcal/mol  [=(1)+(2)+(3)-(4)]USERUSER    (1) Final Intermolecular Energy     = -10.68 kcal/molUSER        vdW + Hbond + desolv Energy     = -10.40 kcal/molUSER        Electrostatic Energy            =  -0.28 kcal/molUSER        Moving Ligand-Fixed Receptor    = -10.68 kcal/molUSER        Moving Ligand-Moving Receptor   =  +0.00 kcal/molUSER    (2) Final Total Internal Energy     =  -1.63 kcal/molUSER    (3) Torsional Free Energy           =  +1.79 kcal/molUSER    (4) Unbound System's Energy         =  -1.63 kcal/molUSERUSERREMARK SMILES Nc1ccc2[nH]c3c(NCCc4ccccc4)cccc3c2c1C=OREMARK SMILES IDX 9 1 8 3 2 4 3 5 23 6 4 7 22 8 5 9 21 10 6 11 20 12 7 13REMARK SMILES IDX 19 14 18 15 1 17 24 20 25 21 10 22 11 23 12 24 13 25 17 26REMARK SMILES IDX 14 27 16 28 15 29REMARK H PARENT 9 2 6 16 1 18 1 19USER                              x       y       z     vdW  Elec       q    TypeUSER                           _______ _______ _______ _____ _____    ______ ____ROOTATOM      1  N   UNL     1      24.176  38.377  18.501 -0.20 +0.27    -0.383 N  ATOM      2  H   UNL     1      24.097  37.370  18.449 -0.43 -0.26    +0.160 HD ENDROOTBRANCH   1   3ATOM      3  C   UNL     1      25.477  38.860  18.403 -0.30 -0.01    +0.059 A  ATOM      4  C   UNL     1      30.376  37.040  21.524 -0.40 +0.00    +0.043 A  ATOM      5  C   UNL     1      29.439  36.151  22.051 -0.36 -0.00    +0.028 A  ATOM      6  C   UNL     1      29.946  38.023  20.598 -0.33 +0.00    +0.047 A  ATOM      7  C   UNL     1      28.105  36.157  21.633 -0.33 -0.01    +0.029 A  ATOM      8  C   UNL     1      28.603  38.038  20.128 -0.30 +0.00    +0.020 A  ATOM      9  C   UNL     1      27.725  37.102  20.677 -0.29 -0.01    +0.047 A  ATOM     10  C   UNL     1      27.846  38.789  19.151 -0.26 +0.00    +0.010 A  ATOM     11  N   UNL     1      26.493  37.315  20.112 -0.11 +0.24    -0.353 N  ATOM     12  C   UNL     1      28.163  39.801  18.221 -0.24 +0.00    +0.011 A  ATOM     13  C   UNL     1      26.523  38.336  19.193 -0.19 -0.01    +0.070 A  ATOM     14  C   UNL     1      27.167  40.319  17.393 -0.25 +0.00    +0.003 A  ATOM     15  C   UNL     1      25.858  39.853  17.486 -0.32 +0.00    +0.028 A  ATOM     16  H   UNL     1      25.672  36.769  20.322 -0.41 -0.31    +0.167 HD BRANCH   4  17ATOM     17  N   UNL     1      31.660  37.075  22.109 -0.16 -0.01    -0.398 N  ATOM     18  H   UNL     1      31.704  37.755  22.878 -0.32 -0.05    +0.156 HD ATOM     19  H   UNL     1      32.415  37.208  21.445 +0.07 +0.04    +0.156 HD ENDBRANCH   4  17BRANCH   6  20ATOM     20  C   UNL     1      30.897  39.046  20.120 -0.28 +0.04    +0.262 C  ATOM     21  O   UNL     1      32.026  39.170  20.584 -1.19 -0.12    -0.298 OA ENDBRANCH   6  20ENDBRANCH   1   3BRANCH   1  22ATOM     22  C   UNL     1      23.227  38.973  19.444 -0.36 -0.07    +0.117 C  BRANCH  22  23ATOM     23  C   UNL     1      23.795  39.027  20.867 -0.36 -0.04    +0.056 C  BRANCH  23  24ATOM     24  C   UNL     1      23.996  40.447  21.335 -0.40 +0.01    -0.046 A  ATOM     25  C   UNL     1      24.696  41.367  20.542 -0.45 -0.00    +0.004 A  ATOM     26  C   UNL     1      23.510  40.855  22.585 -0.47 -0.00    +0.004 A  ATOM     27  C   UNL     1      24.898  42.673  20.989 -0.52 -0.00    +0.000 A  ATOM     28  C   UNL     1      23.714  42.161  23.029 -0.65 -0.00    +0.000 A  ATOM     29  C   UNL     1      24.407  43.071  22.231 -0.59 -0.00    +0.000 A  ENDBRANCH  23  24ENDBRANCH  22  23ENDBRANCH   1  22TORSDOF 6TERENDMDL