REMARK SMILES COc1ccc(O)c(C(=O)c2ccc(C(=O)N[C@@H]3CCCNC3)cc2N)c1F
REMARK SMILES IDX 11 1 12 2 13 3 14 4 24 5 25 6 9 7 10 8 8 9 3 10 4 11 27 12
REMARK SMILES IDX 5 13 6 14 28 15 2 16 1 17 7 18 26 20 15 23 17 24 16 25 18 27
REMARK SMILES IDX 19 28 23 29 20 30 22 31 21 32
REMARK H PARENT 7 19 26 21 26 22 17 26 22 33
ROOT
ATOM      1  C   UNL     1      -1.780   1.830   0.155  1.00  0.00     0.046 A 
ATOM      2  C   UNL     1      -1.083   1.179  -0.875  1.00  0.00     0.015 A 
ATOM      3  C   UNL     1       0.279   0.908  -0.735  1.00  0.00     0.015 A 
ATOM      4  C   UNL     1       0.944   1.282   0.438  1.00  0.00     0.041 A 
ATOM      5  C   UNL     1       0.254   1.971   1.445  1.00  0.00     0.040 A 
ATOM      6  C   UNL     1      -1.099   2.300   1.296  1.00  0.00     0.043 A 
ENDROOT
BRANCH   1   7
ATOM      7  C   UNL     1      -3.230   2.099  -0.002  1.00  0.00     0.201 C 
ATOM      8  O   UNL     1      -3.655   3.232   0.241  1.00  0.00    -0.288 OA
BRANCH   7   9
ATOM      9  C   UNL     1      -4.192   1.079  -0.481  1.00  0.00     0.104 A 
ATOM     10  C   UNL     1      -4.898  -1.241  -0.765  1.00  0.00     0.155 A 
ATOM     11  C   UNL     1      -6.051  -0.809  -1.424  1.00  0.00     0.053 A 
ATOM     12  C   UNL     1      -3.980  -0.289  -0.295  1.00  0.00     0.179 A 
ATOM     13  C   UNL     1      -6.288   0.557  -1.594  1.00  0.00     0.051 A 
ATOM     14  C   UNL     1      -5.371   1.491  -1.116  1.00  0.00     0.130 A 
ATOM     15  F   UNL     1      -2.891  -0.723   0.361  1.00  0.00    -0.202 F 
BRANCH  10  16
ATOM     16  O   UNL     1      -4.562  -2.548  -0.531  1.00  0.00    -0.494 OA
ATOM     17  C   UNL     1      -5.511  -3.541  -0.903  1.00  0.00     0.278 C 
ENDBRANCH  10  16
BRANCH  14  18
ATOM     18  O   UNL     1      -5.697   2.808  -1.308  1.00  0.00    -0.507 OA
ATOM     19  H   UNL     1      -5.078   3.353  -0.770  1.00  0.00     0.293 HD
ENDBRANCH  14  18
ENDBRANCH   7   9
ENDBRANCH   1   7
BRANCH   6  20
ATOM     20  N   UNL     1      -1.777   2.885   2.384  1.00  0.00    -0.398 N 
ATOM     21  H   UNL     1      -2.619   3.382   2.079  1.00  0.00     0.156 HD
ATOM     22  H   UNL     1      -1.188   3.476   2.962  1.00  0.00     0.156 HD
ENDBRANCH   6  20
BRANCH   4  23
ATOM     23  C   UNL     1       2.388   0.989   0.644  1.00  0.00     0.251 C 
ATOM     24  N   UNL     1       2.860  -0.169   0.057  1.00  0.00    -0.348 N 
ATOM     25  O   UNL     1       3.074   1.741   1.325  1.00  0.00    -0.269 OA
ATOM     26  H   UNL     1       2.174  -0.856  -0.227  1.00  0.00     0.164 HD
BRANCH  24  27
ATOM     27  C   UNL     1       4.224  -0.636   0.297  1.00  0.00     0.096 C 
ATOM     28  C   UNL     1       5.261   0.305  -0.343  1.00  0.00     0.027 C 
ATOM     29  C   UNL     1       4.426  -2.075  -0.223  1.00  0.00     0.105 C 
ATOM     30  C   UNL     1       6.543  -0.419  -0.760  1.00  0.00     0.017 C 
ATOM     31  N   UNL     1       5.751  -2.638   0.055  1.00  0.00    -0.315 NA
ATOM     32  C   UNL     1       6.814  -1.634   0.120  1.00  0.00     0.081 C 
ATOM     33  H   UNL     1       5.973  -3.336  -0.655  1.00  0.00     0.122 HD
ENDBRANCH  24  27
ENDBRANCH   4  23
TORSDOF 7
