MODEL        1USER    Run = 1USERUSER    Estimated Free Energy of Binding    = -10.60 kcal/mol  [=(1)+(2)+(3)-(4)]USERUSER    (1) Final Intermolecular Energy     = -13.28 kcal/molUSER        vdW + Hbond + desolv Energy     = -13.19 kcal/molUSER        Electrostatic Energy            =  -0.10 kcal/molUSER        Moving Ligand-Fixed Receptor    = -13.28 kcal/molUSER        Moving Ligand-Moving Receptor   =  +0.00 kcal/molUSER    (2) Final Total Internal Energy     =  -2.31 kcal/molUSER    (3) Torsional Free Energy           =  +2.68 kcal/molUSER    (4) Unbound System's Energy         =  -2.31 kcal/molUSERUSERREMARK SMILES COc1cc(F)c(=O)[nH]c1C(=O)c1ccc(C(=O)N[C@@H]2CCN(C3CC3)C[C@H]2NC(=O)c2cc(N)nc(F)c2)cc1REMARK SMILES IDX 17 1 18 2 19 3 16 5 13 6 14 7 41 8 15 9 40 10 11 11 12 12REMARK SMILES IDX 10 13 3 14 4 15 5 16 9 17 7 18 6 19 8 21 2 22 1 23 20 24REMARK SMILES IDX 21 25 28 26 22 27 27 28 23 29 29 30 30 31 31 33 32 34 33 35REMARK SMILES IDX 39 36 34 37 37 38 36 39 38 40 35 41 24 44 25 45 26 46REMARK H PARENT 19 4 9 20 29 32 35 42 35 43USER                              x       y       z     vdW  Elec       q    TypeUSER                           _______ _______ _______ _____ _____    ______ ____ROOTATOM      1  C   UNL     1      37.685  43.615  21.088 -0.26 +0.00    +0.251 C  ATOM      2  O   UNL     1      36.867  43.162  20.298 -0.26 +0.01    -0.269 OA ATOM      3  N   UNL     1      38.832  44.278  20.707 -0.12 -0.00    -0.347 N  ATOM      4  H   UNL     1      39.440  44.675  21.411 +0.09 +0.01    +0.164 HD ENDROOTBRANCH   1   5ATOM      5  C   UNL     1      37.463  43.478  22.551 -0.36 +0.00    +0.039 A  ATOM      6  C   UNL     1      37.013  43.298  25.322 -0.34 -0.00    +0.024 A  ATOM      7  C   UNL     1      37.266  44.542  24.728 -0.32 +0.00    +0.013 A  ATOM      8  C   UNL     1      36.966  42.149  24.514 -0.41 -0.00    +0.013 A  ATOM      9  C   UNL     1      37.483  44.630  23.346 -0.28 +0.00    +0.014 A  ATOM     10  C   UNL     1      37.189  42.237  23.136 -0.44 +0.00    +0.014 A  BRANCH   6  11ATOM     11  C   UNL     1      36.799  43.125  26.786 -0.29 -0.03    +0.213 C  ATOM     12  O   UNL     1      37.187  42.114  27.367 -0.26 +0.06    -0.287 OA BRANCH  11  13ATOM     13  C   UNL     1      36.189  44.238  27.558 -0.36 -0.03    +0.132 A  ATOM     14  C   UNL     1      36.809  45.429  27.660 -0.29 -0.03    +0.149 A  ATOM     15  C   UNL     1      36.187  46.494  28.421 -0.29 -0.02    +0.094 A  ATOM     16  C   UNL     1      34.983  46.306  28.976 -0.22 -0.05    +0.191 A  ATOM     17  N   UNL     1      34.943  44.044  28.115 -0.37 +0.08    -0.314 N  ATOM     18  C   UNL     1      34.264  45.008  28.832 -0.34 -0.06    +0.284 A  ATOM     19  F   UNL     1      34.360  47.279  29.673 -0.15 +0.03    -0.201 F  ATOM     20  H   UNL     1      34.472  43.150  28.004 +0.10 -0.04    +0.170 HD ATOM     21  O   UNL     1      33.157  44.800  29.307 -0.79 -0.00    -0.266 OA BRANCH  14  22ATOM     22  O   UNL     1      38.068  45.693  27.175 -0.08 +0.05    -0.494 OA ATOM     23  C   UNL     1      38.260  47.095  26.970 -0.17 -0.02    +0.278 C  ENDBRANCH  14  22ENDBRANCH  11  13ENDBRANCH   6  11ENDBRANCH   1   5BRANCH   3  24ATOM     24  C   UNL     1      39.244  44.378  19.302 -0.34 -0.00    +0.107 C  ATOM     25  C   UNL     1      40.742  44.693  19.187 -0.45 +0.00    +0.042 C  ATOM     26  C   UNL     1      38.359  45.398  18.548 -0.36 -0.02    +0.118 C  ATOM     27  C   UNL     1      40.992  46.140  18.772 -0.48 -0.00    +0.087 C  ATOM     28  C   UNL     1      39.066  45.846  17.254 -0.40 -0.02    +0.111 C  ATOM     29  N   UNL     1      40.394  46.444  17.465 -0.26 +0.03    -0.298 NA BRANCH  26  30ATOM     30  N   UNL     1      37.028  44.841  18.284 -0.13 +0.08    -0.346 N  ATOM     31  C   UNL     1      36.118  45.503  17.491 -0.23 -0.11    +0.251 C  ATOM     32  H   UNL     1      36.804  43.942  18.692 +0.11 -0.03    +0.164 HD ATOM     33  O   UNL     1      36.320  46.622  17.034 -0.28 +0.20    -0.269 OA BRANCH  31  34ATOM     34  C   UNL     1      34.836  44.809  17.207 -0.28 -0.02    +0.047 A  ATOM     35  C   UNL     1      34.780  43.428  17.403 -0.30 -0.02    +0.060 A  ATOM     36  C   UNL     1      33.694  45.485  16.799 -0.27 -0.06    +0.074 A  ATOM     37  C   UNL     1      33.584  42.769  17.173 -0.28 -0.05    +0.127 A  ATOM     38  C   UNL     1      32.556  44.736  16.589 -0.17 -0.10    +0.215 A  ATOM     39  N   UNL     1      32.478  43.400  16.759 -0.18 +0.08    -0.203 NA ATOM     40  F   UNL     1      31.441  45.374  16.203 -0.08 +0.07    -0.185 F  BRANCH  37  41ATOM     41  N   UNL     1      33.497  41.389  17.318 -0.12 +0.19    -0.384 N  ATOM     42  H   UNL     1      32.827  40.974  16.681 -0.38 -0.13    +0.158 HD ATOM     43  H   UNL     1      34.430  41.003  17.194 -0.50 -0.11    +0.158 HD ENDBRANCH  37  41ENDBRANCH  31  34ENDBRANCH  26  30BRANCH  29  44ATOM     44  C   UNL     1      40.426  47.884  17.160 -0.47 -0.01    +0.056 C  ATOM     45  C   UNL     1      39.530  48.420  16.072 -0.55 -0.01    +0.021 C  ATOM     46  C   UNL     1      41.013  48.348  15.856 -0.60 -0.00    +0.021 C  ENDBRANCH  29  44ENDBRANCH   3  24TORSDOF 9TERENDMDL