MODEL        8USER    Run = 8USERUSER    Estimated Free Energy of Binding    = -12.65 kcal/mol  [=(1)+(2)+(3)-(4)]USERUSER    (1) Final Intermolecular Energy     = -14.73 kcal/molUSER        vdW + Hbond + desolv Energy     = -14.49 kcal/molUSER        Electrostatic Energy            =  -0.25 kcal/molUSER        Moving Ligand-Fixed Receptor    = -14.73 kcal/molUSER        Moving Ligand-Moving Receptor   =  +0.00 kcal/molUSER    (2) Final Total Internal Energy     =  -2.11 kcal/molUSER    (3) Torsional Free Energy           =  +2.09 kcal/molUSER    (4) Unbound System's Energy         =  -2.11 kcal/molUSERUSERREMARK SMILES CN1CCN(c2ccc(-c3nc4ccc(F)cc4nc3-c3ccc(CN4CCC(n5c(O)nc6ccccc65)CC4)cc3)cc2)CC1REMARK SMILES IDX 21 1 22 2 23 3 24 4 42 5 43 6 20 7 10 8 11 9 12 10 19 11REMARK SMILES IDX 13 12 18 13 14 14 17 15 15 16 16 17 9 18 6 19 7 20 45 21REMARK SMILES IDX 8 22 44 23 5 24 2 25 3 26 47 27 4 28 46 29 1 30 25 31 26 32REMARK SMILES IDX 27 33 41 34 28 35 40 36 29 37 30 38 31 39 39 40 33 41 38 42REMARK SMILES IDX 34 43 37 44 35 45 36 46 32 47REMARK H PARENT 32 48USER                              x       y       z     vdW  Elec       q    TypeUSER                           _______ _______ _______ _____ _____    ______ ____ROOTATOM      1  C   UNL     1      35.742  42.868  20.085 -0.45 -0.00    +0.002 A  ATOM      2  C   UNL     1      36.342  44.102  20.388 -0.39 -0.00    +0.011 A  ATOM      3  C   UNL     1      37.379  44.196  21.322 -0.39 +0.00    +0.006 A  ATOM      4  C   UNL     1      37.836  43.054  21.989 -0.34 -0.00    -0.034 A  ATOM      5  C   UNL     1      37.231  41.822  21.712 -0.48 +0.00    +0.006 A  ATOM      6  C   UNL     1      36.196  41.732  20.776 -0.49 -0.00    +0.011 A  ENDROOTBRANCH   1   7ATOM      7  C   UNL     1      34.661  42.790  19.088 -0.34 -0.01    +0.097 A  ATOM      8  C   UNL     1      34.675  43.412  17.828 -0.26 -0.03    +0.097 A  ATOM      9  N   UNL     1      33.655  43.224  16.942 -0.17 +0.10    -0.244 NA ATOM     10  C   UNL     1      32.627  42.453  17.329 -0.27 -0.03    +0.090 A  ATOM     11  N   UNL     1      33.605  42.021  19.481 -0.41 -0.01    -0.244 NA ATOM     12  C   UNL     1      31.563  42.245  16.457 -0.17 -0.02    +0.033 A  ATOM     13  C   UNL     1      32.597  41.852  18.608 -0.32 -0.01    +0.092 A  ATOM     14  C   UNL     1      30.473  41.458  16.826 -0.31 -0.01    +0.041 A  ATOM     15  C   UNL     1      31.511  41.070  18.969 -0.20 -0.00    +0.069 A  ATOM     16  C   UNL     1      30.458  40.878  18.083 -0.18 -0.01    +0.125 A  ATOM     17  F   UNL     1      29.417  40.121  18.450 -0.03 -0.01    -0.207 F  BRANCH   8  18ATOM     18  C   UNL     1      35.725  44.327  17.345 -0.31 -0.00    +0.003 A  ATOM     19  C   UNL     1      37.751  46.142  16.409 -0.35 -0.02    +0.037 A  ATOM     20  C   UNL     1      36.526  46.596  16.915 -0.25 -0.02    +0.026 A  ATOM     21  C   UNL     1      37.938  44.753  16.402 -0.26 -0.01    +0.026 A  ATOM     22  C   UNL     1      35.535  45.714  17.375 -0.35 -0.01    +0.012 A  ATOM     23  C   UNL     1      36.956  43.864  16.864 -0.29 -0.00    +0.012 A  BRANCH  19  24ATOM     24  N   UNL     1      38.726  47.010  15.951 -0.16 +0.14    -0.369 N  ATOM     25  N   UNL     1      40.886  48.837  14.944 -0.36 +0.06    -0.303 NA ATOM     26  C   UNL     1      39.574  48.647  14.288 -0.37 -0.04    +0.105 C  ATOM     27  C   UNL     1      40.987  48.039  16.183 -0.49 -0.01    +0.105 C  ATOM     28  C   UNL     1      38.946  47.250  14.515 -0.44 -0.04    +0.132 C  ATOM     29  C   UNL     1      39.647  47.694  16.875 -0.39 -0.04    +0.132 C  ATOM     30  C   UNL     1      41.136  50.254  15.188 -0.59 -0.03    +0.105 C  ENDBRANCH  19  24ENDBRANCH   8  18ENDBRANCH   1   7BRANCH   4  31ATOM     31  C   UNL     1      38.963  43.141  22.996 -0.26 +0.01    +0.120 C  BRANCH  31  32ATOM     32  N   UNL     1      40.297  43.013  22.388 -0.13 -0.01    -0.299 NA ATOM     33  C   UNL     1      40.510  43.992  21.314 -0.29 +0.00    +0.087 C  ATOM     34  C   UNL     1      41.399  43.051  23.360 -0.25 -0.00    +0.087 C  ATOM     35  C   UNL     1      40.710  45.423  21.817 -0.30 +0.00    +0.041 C  ATOM     36  C   UNL     1      41.649  44.435  23.962 -0.14 +0.00    +0.041 C  ATOM     37  C   UNL     1      41.837  45.479  22.854 -0.18 +0.01    +0.095 C  BRANCH  37  38ATOM     38  N   UNL     1      42.048  46.823  23.375 -0.08 -0.04    -0.291 N  ATOM     39  C   UNL     1      42.915  47.739  22.841 -0.19 +0.05    +0.295 A  ATOM     40  C   UNL     1      41.439  47.432  24.452 -0.19 +0.01    +0.072 A  ATOM     41  N   UNL     1      42.917  48.879  23.471 -0.91 -0.06    -0.195 NA ATOM     42  C   UNL     1      40.476  47.024  25.387 -0.16 +0.00    +0.029 A  ATOM     43  C   UNL     1      42.003  48.711  24.482 -0.33 +0.02    +0.092 A  ATOM     44  C   UNL     1      40.092  47.949  26.364 -0.23 +0.00    +0.002 A  ATOM     45  C   UNL     1      41.602  49.624  25.470 -0.17 +0.01    +0.031 A  ATOM     46  C   UNL     1      40.643  49.229  26.409 -0.27 +0.00    +0.002 A  BRANCH  39  47ATOM     47  O   UNL     1      43.681  47.524  21.791 -0.17 -0.13    -0.480 OA ATOM     48  H   UNL     1      43.744  48.422  21.417 -0.44 -0.05    +0.296 HD ENDBRANCH  39  47ENDBRANCH  37  38ENDBRANCH  31  32ENDBRANCH   4  31TORSDOF 7TERENDMDL