MODEL        3USER    Run = 3USERUSER    Estimated Free Energy of Binding    = -11.00 kcal/mol  [=(1)+(2)+(3)-(4)]USERUSER    (1) Final Intermolecular Energy     = -13.69 kcal/molUSER        vdW + Hbond + desolv Energy     = -13.53 kcal/molUSER        Electrostatic Energy            =  -0.15 kcal/molUSER        Moving Ligand-Fixed Receptor    = -13.69 kcal/molUSER        Moving Ligand-Moving Receptor   =  +0.00 kcal/molUSER    (2) Final Total Internal Energy     =  -2.40 kcal/molUSER    (3) Torsional Free Energy           =  +2.68 kcal/molUSER    (4) Unbound System's Energy         =  -2.40 kcal/molUSERUSERREMARK SMILES COc1cc(F)c(=O)[nH]c1C(=O)c1ccc(C(=O)N[C@@H]2CCN(C(C)C)C[C@H]2NC(=O)c2cc(N)nc(F)c2)cc1REMARK SMILES IDX 17 1 18 2 19 3 16 5 13 6 14 7 41 8 15 9 40 10 11 11 12 12REMARK SMILES IDX 10 13 3 14 4 15 5 16 9 17 7 18 6 19 8 21 2 22 1 23 20 24REMARK SMILES IDX 21 25 28 26 22 27 27 28 23 29 29 30 30 31 31 33 32 34 33 35REMARK SMILES IDX 39 36 34 37 37 38 36 39 38 40 35 41 24 44 25 45 26 46REMARK H PARENT 19 4 9 20 29 32 35 42 35 43USER                              x       y       z     vdW  Elec       q    TypeUSER                           _______ _______ _______ _____ _____    ______ ____ROOTATOM      1  C   UNL     1      39.686  44.124  20.803 -0.12 +0.01    +0.251 C  ATOM      2  O   UNL     1      40.747  43.613  21.138 -0.19 -0.01    -0.269 OA ATOM      3  N   UNL     1      38.518  43.991  21.522 -0.12 -0.01    -0.347 N  ATOM      4  H   UNL     1      37.730  44.591  21.317 +0.09 +0.01    +0.164 HD ENDROOTBRANCH   1   5ATOM      5  C   UNL     1      39.620  44.972  19.580 -0.37 -0.00    +0.039 A  ATOM      6  C   UNL     1      39.392  46.594  17.292 -0.44 -0.01    +0.024 A  ATOM      7  C   UNL     1      38.245  46.202  17.993 -0.25 -0.00    +0.013 A  ATOM      8  C   UNL     1      40.651  46.168  17.741 -0.48 -0.00    +0.013 A  ATOM      9  C   UNL     1      38.362  45.402  19.136 -0.30 -0.00    +0.014 A  ATOM     10  C   UNL     1      40.767  45.370  18.883 -0.45 +0.00    +0.014 A  BRANCH   6  11ATOM     11  C   UNL     1      39.335  47.439  16.065 -0.39 -0.07    +0.213 C  ATOM     12  O   UNL     1      40.066  48.418  15.948 -0.37 +0.09    -0.287 OA BRANCH  11  13ATOM     13  C   UNL     1      38.334  47.100  15.017 -0.35 -0.05    +0.132 A  ATOM     14  C   UNL     1      37.950  45.821  14.836 -0.28 -0.05    +0.149 A  ATOM     15  C   UNL     1      36.951  45.510  13.836 -0.37 -0.04    +0.094 A  ATOM     16  C   UNL     1      36.457  46.478  13.055 -0.42 -0.09    +0.191 A  ATOM     17  N   UNL     1      37.830  48.104  14.213 -0.29 +0.15    -0.314 N  ATOM     18  C   UNL     1      36.911  47.890  13.209 -0.36 -0.12    +0.284 A  ATOM     19  F   UNL     1      35.528  46.230  12.114 -0.21 +0.12    -0.201 F  ATOM     20  H   UNL     1      38.156  49.057  14.321 -0.19 -0.11    +0.170 HD ATOM     21  O   UNL     1      36.499  48.802  12.504 -0.64 +0.08    -0.266 OA BRANCH  14  22ATOM     22  O   UNL     1      38.342  44.781  15.644 +0.05 +0.12    -0.494 OA ATOM     23  C   UNL     1      37.229  43.970  16.027 -0.18 -0.08    +0.278 C  ENDBRANCH  14  22ENDBRANCH  11  13ENDBRANCH   6  11ENDBRANCH   1   5BRANCH   3  24ATOM     24  C   UNL     1      38.454  43.219  22.767 -0.30 +0.01    +0.107 C  ATOM     25  C   UNL     1      37.221  42.306  22.799 -0.49 +0.00    +0.042 C  ATOM     26  C   UNL     1      38.463  44.153  23.990 -0.24 +0.01    +0.118 C  ATOM     27  C   UNL     1      36.643  42.108  24.205 -0.42 +0.00    +0.087 C  ATOM     28  C   UNL     1      38.424  43.326  25.299 -0.22 +0.00    +0.111 C  ATOM     29  N   UNL     1      37.713  42.029  25.205 -0.15 +0.00    -0.299 NA BRANCH  26  30ATOM     30  N   UNL     1      39.618  45.059  23.953 -0.03 -0.02    -0.346 N  ATOM     31  C   UNL     1      39.582  46.214  23.201 -0.21 +0.02    +0.251 C  ATOM     32  H   UNL     1      40.241  45.013  24.749 +0.06 +0.01    +0.164 HD ATOM     33  O   UNL     1      38.661  46.489  22.441 -0.22 -0.04    -0.269 OA BRANCH  31  34ATOM     34  C   UNL     1      40.717  47.156  23.363 -0.20 +0.00    +0.047 A  ATOM     35  C   UNL     1      41.835  46.990  22.544 -0.22 +0.01    +0.060 A  ATOM     36  C   UNL     1      40.711  48.168  24.316 -0.28 +0.01    +0.074 A  ATOM     37  C   UNL     1      42.907  47.852  22.698 -0.28 +0.02    +0.127 A  ATOM     38  C   UNL     1      41.826  48.979  24.383 -0.27 +0.05    +0.215 A  ATOM     39  N   UNL     1      42.913  48.848  23.595 -0.88 -0.06    -0.203 NA ATOM     40  F   UNL     1      41.840  49.960  25.296 -0.11 -0.04    -0.185 F  BRANCH  37  41ATOM     41  N   UNL     1      44.025  47.744  21.878 -0.09 -0.11    -0.384 N  ATOM     42  H   UNL     1      43.704  47.735  20.913 -0.41 +0.03    +0.158 HD ATOM     43  H   UNL     1      44.698  48.482  22.046 -0.49 +0.03    +0.158 HD ENDBRANCH  37  41ENDBRANCH  31  34ENDBRANCH  26  30BRANCH  29  44ATOM     44  C   UNL     1      37.254  41.551  26.534 -0.43 -0.01    +0.050 C  ATOM     45  C   UNL     1      38.261  41.873  27.650 -0.44 -0.00    +0.024 C  ATOM     46  C   UNL     1      35.909  42.183  26.936 -0.58 -0.01    +0.024 C  ENDBRANCH  29  44ENDBRANCH   3  24TORSDOF 9TERENDMDL