MODEL        2USER    Run = 2USERUSER    Estimated Free Energy of Binding    = -11.10 kcal/mol  [=(1)+(2)+(3)-(4)]USERUSER    (1) Final Intermolecular Energy     = -13.79 kcal/molUSER        vdW + Hbond + desolv Energy     = -13.74 kcal/molUSER        Electrostatic Energy            =  -0.05 kcal/molUSER        Moving Ligand-Fixed Receptor    = -13.79 kcal/molUSER        Moving Ligand-Moving Receptor   =  +0.00 kcal/molUSER    (2) Final Total Internal Energy     =  -2.40 kcal/molUSER    (3) Torsional Free Energy           =  +2.68 kcal/molUSER    (4) Unbound System's Energy         =  -2.40 kcal/molUSERUSERREMARK SMILES COc1ccc(=O)[nH]c1C(=O)c1ccc(C(=O)N[C@@H]2CCN(C3CC3)C[C@H]2NC(=O)c2cc(F)nc(N3CCN(C)CC3)c2)cc1REMARK SMILES IDX 16 1 17 2 18 3 15 5 12 6 13 7 46 8 14 9 45 10 10 11 11 12REMARK SMILES IDX 9 13 3 14 4 15 5 16 8 17 6 18 7 20 2 21 1 22 19 23 20 24REMARK SMILES IDX 27 25 21 26 26 27 22 28 28 29 29 30 30 32 31 33 32 34 44 35REMARK SMILES IDX 33 36 36 37 35 38 34 39 37 40 38 41 43 42 39 43 42 44 40 45REMARK SMILES IDX 41 46 23 47 24 48 25 49REMARK H PARENT 18 4 8 19 28 31USER                              x       y       z     vdW  Elec       q    TypeUSER                           _______ _______ _______ _____ _____    ______ ____ROOTATOM      1  C   UNL     1      32.523  44.992  15.458 -0.24 -0.17    +0.251 C  ATOM      2  O   UNL     1      32.915  45.810  14.632 -0.31 +0.25    -0.269 OA ATOM      3  N   UNL     1      33.340  44.383  16.391 -0.09 +0.18    -0.347 N  ATOM      4  H   UNL     1      32.884  44.041  17.227 +0.13 -0.06    +0.164 HD ENDROOTBRANCH   1   5ATOM      5  C   UNL     1      31.082  44.630  15.512 -0.35 -0.02    +0.039 A  ATOM      6  C   UNL     1      28.370  43.934  15.757 -0.24 -0.01    +0.024 A  ATOM      7  C   UNL     1      29.366  43.091  16.271 -0.26 -0.01    +0.013 A  ATOM      8  C   UNL     1      28.747  45.122  15.109 -0.05 -0.01    +0.013 A  ATOM      9  C   UNL     1      30.714  43.445  16.158 -0.31 -0.01    +0.014 A  ATOM     10  C   UNL     1      30.096  45.471  14.986 -0.42 -0.01    +0.014 A  BRANCH   6  11ATOM     11  C   UNL     1      26.911  43.632  15.874 -0.18 -0.08    +0.213 C  ATOM     12  O   UNL     1      26.080  44.532  15.809 -0.24 +0.03    -0.287 OA BRANCH  11  13ATOM     13  C   UNL     1      26.493  42.228  16.129 -0.18 -0.04    +0.132 A  ATOM     14  C   UNL     1      26.209  41.820  17.379 -0.16 -0.02    +0.146 A  ATOM     15  C   UNL     1      25.743  40.467  17.596 -0.26 -0.00    +0.054 A  ATOM     16  C   UNL     1      25.648  39.601  16.576 -0.33 +0.01    +0.075 A  ATOM     17  N   UNL     1      26.415  41.342  15.073 -0.17 +0.13    -0.316 N  ATOM     18  C   UNL     1      26.021  40.036  15.204 -0.19 +0.01    +0.248 A  ATOM     19  H   UNL     1      26.674  41.640  14.139 -0.02 -0.21    +0.170 HD ATOM     20  O   UNL     1      25.953  39.266  14.254 -0.86 -0.04    -0.270 OA BRANCH  14  21ATOM     21  O   UNL     1      26.191  42.645  18.479 -0.05 +0.07    -0.494 OA ATOM     22  C   UNL     1      24.977  42.490  19.217 -0.27 -0.06    +0.278 C  ENDBRANCH  14  21ENDBRANCH  11  13ENDBRANCH   6  11ENDBRANCH   1   5BRANCH   3  23ATOM     23  C   UNL     1      34.767  44.723  16.476 -0.30 -0.06    +0.107 C  ATOM     24  C   UNL     1      35.624  43.479  16.764 -0.41 -0.02    +0.042 C  ATOM     25  C   UNL     1      35.049  45.803  17.553 -0.37 -0.08    +0.118 C  ATOM     26  C   UNL     1      35.464  42.990  18.203 -0.35 -0.02    +0.087 C  ATOM     27  C   UNL     1      34.875  45.217  18.971 -0.34 -0.04    +0.111 C  ATOM     28  N   UNL     1      35.750  44.053  19.183 -0.17 +0.05    -0.298 NA BRANCH  25  29ATOM     29  N   UNL     1      36.405  46.347  17.410 -0.11 +0.20    -0.346 N  ATOM     30  C   UNL     1      36.848  46.910  16.237 -0.23 -0.19    +0.251 C  ATOM     31  H   UNL     1      37.031  46.171  18.186 +0.09 -0.05    +0.164 HD ATOM     32  O   UNL     1      36.114  47.145  15.285 -0.26 +0.27    -0.269 OA BRANCH  30  33ATOM     33  C   UNL     1      38.293  47.243  16.163 -0.38 -0.02    +0.048 A  ATOM     34  C   UNL     1      38.811  48.037  15.152 -0.46 -0.03    +0.074 A  ATOM     35  C   UNL     1      39.138  46.765  17.168 -0.39 -0.02    +0.061 A  ATOM     36  C   UNL     1      40.163  48.286  15.189 -0.38 -0.06    +0.215 A  ATOM     37  C   UNL     1      40.495  47.078  17.142 -0.41 -0.02    +0.132 A  ATOM     38  N   UNL     1      41.000  47.823  16.137 -0.39 +0.02    -0.202 NA ATOM     39  F   UNL     1      40.693  49.046  14.217 -0.20 +0.05    -0.185 F  BRANCH  37  40ATOM     40  N   UNL     1      41.358  46.578  18.135 -0.26 +0.02    -0.354 N  ATOM     41  C   UNL     1      40.713  45.661  19.101 -0.42 +0.00    +0.133 C  ATOM     42  C   UNL     1      42.164  47.635  18.788 -0.43 +0.00    +0.133 C  ATOM     43  C   UNL     1      41.744  45.113  20.121 -0.30 +0.02    +0.105 C  ATOM     44  C   UNL     1      43.164  47.024  19.796 -0.41 +0.03    +0.105 C  ATOM     45  N   UNL     1      42.568  46.127  20.812 -0.17 -0.09    -0.303 NA ATOM     46  C   UNL     1      41.789  46.871  21.799 -0.16 +0.01    +0.105 C  ENDBRANCH  37  40ENDBRANCH  30  33ENDBRANCH  25  29BRANCH  28  47ATOM     47  C   UNL     1      35.806  43.512  20.558 -0.44 -0.00    +0.056 C  ATOM     48  C   UNL     1      37.119  43.324  21.271 -0.46 +0.00    +0.021 C  ATOM     49  C   UNL     1      36.285  42.131  20.913 -0.55 +0.00    +0.021 C  ENDBRANCH  28  47ENDBRANCH   3  23TORSDOF 9TERENDMDL