MODEL        10USER    Run = 10USERUSER    Estimated Free Energy of Binding    = -10.62 kcal/mol  [=(1)+(2)+(3)-(4)]USERUSER    (1) Final Intermolecular Energy     = -13.31 kcal/molUSER        vdW + Hbond + desolv Energy     = -12.89 kcal/molUSER        Electrostatic Energy            =  -0.42 kcal/molUSER        Moving Ligand-Fixed Receptor    = -13.31 kcal/molUSER        Moving Ligand-Moving Receptor   =  +0.00 kcal/molUSER    (2) Final Total Internal Energy     =  -2.19 kcal/molUSER    (3) Torsional Free Energy           =  +2.68 kcal/molUSER    (4) Unbound System's Energy         =  -2.19 kcal/molUSERUSERREMARK SMILES COc1cc(F)c(=O)[nH]c1C(=O)c1ccc(C(=O)N[C@@H]2CCN(C3CC3)C[C@H]2NC(=O)c2cc(F)nc(N3CCOCC3)c2)cc1REMARK SMILES IDX 13 1 14 2 15 3 16 4 45 5 46 6 11 7 12 8 10 9 3 10 4 11 5 12REMARK SMILES IDX 9 13 7 14 6 15 8 17 2 18 1 19 17 20 19 21 18 22 20 24 21 25REMARK SMILES IDX 28 26 22 27 27 28 23 29 29 30 30 31 31 33 32 34 33 35 44 36REMARK SMILES IDX 34 37 37 38 36 39 35 40 38 41 39 42 43 43 40 44 42 45 41 46REMARK SMILES IDX 24 47 25 48 26 49REMARK H PARENT 9 16 19 23 29 32USER                              x       y       z     vdW  Elec       q    TypeUSER                           _______ _______ _______ _____ _____    ______ ____ROOTATOM      1  C   UNL     1      35.374  43.277  19.130 -0.37 -0.00    +0.024 A  ATOM      2  C   UNL     1      36.398  44.157  19.510 -0.38 -0.00    +0.013 A  ATOM      3  C   UNL     1      37.130  43.918  20.680 -0.39 -0.00    +0.014 A  ATOM      4  C   UNL     1      36.826  42.819  21.494 -0.42 +0.00    +0.039 A  ATOM      5  C   UNL     1      35.794  41.947  21.122 -0.47 +0.00    +0.014 A  ATOM      6  C   UNL     1      35.070  42.179  19.949 -0.39 -0.00    +0.013 A  ENDROOTBRANCH   1   7ATOM      7  C   UNL     1      34.578  43.452  17.880 -0.24 -0.06    +0.213 C  ATOM      8  O   UNL     1      34.897  44.307  17.059 -0.14 +0.12    -0.287 OA BRANCH   7   9ATOM      9  C   UNL     1      33.354  42.619  17.690 -0.27 -0.04    +0.132 A  ATOM     10  C   UNL     1      32.159  43.200  17.470 -0.21 -0.04    +0.149 A  ATOM     11  C   UNL     1      30.990  42.373  17.243 -0.23 -0.03    +0.094 A  ATOM     12  C   UNL     1      31.088  41.042  17.302 -0.20 -0.05    +0.191 A  ATOM     13  N   UNL     1      33.458  41.243  17.760 -0.22 +0.11    -0.314 N  ATOM     14  C   UNL     1      32.393  40.384  17.593 -0.14 -0.09    +0.284 A  ATOM     15  F   UNL     1      30.026  40.239  17.099 -0.09 +0.01    -0.201 F  ATOM     16  H   UNL     1      34.346  40.807  17.976 -0.36 -0.07    +0.170 HD ATOM     17  O   UNL     1      32.521  39.168  17.673 -0.40 +0.05    -0.266 OA BRANCH  10  18ATOM     18  O   UNL     1      31.978  44.550  17.290 -0.21 +0.12    -0.494 OA ATOM     19  C   UNL     1      32.007  44.904  15.906 -0.22 -0.15    +0.278 C  ENDBRANCH  10  18ENDBRANCH   7   9ENDBRANCH   1   7BRANCH   4  20ATOM     20  C   UNL     1      37.652  42.585  22.710 -0.30 +0.02    +0.251 C  ATOM     21  N   UNL     1      37.217  43.190  23.869 -0.16 -0.03    -0.347 N  ATOM     22  O   UNL     1      38.655  41.887  22.647 -0.14 -0.04    -0.269 OA ATOM     23  H   UNL     1      36.384  43.768  23.848 +0.09 +0.04    +0.164 HD BRANCH  21  24ATOM     24  C   UNL     1      37.814  42.889  25.175 -0.29 -0.00    +0.107 C  ATOM     25  C   UNL     1      37.296  41.546  25.713 -0.19 -0.01    +0.042 C  ATOM     26  C   UNL     1      37.561  44.058  26.165 -0.26 -0.01    +0.118 C  ATOM     27  C   UNL     1      36.043  41.746  26.559 -0.52 -0.02    +0.087 C  ATOM     28  C   UNL     1      37.404  43.524  27.606 -0.34 -0.02    +0.111 C  ATOM     29  N   UNL     1      36.303  42.555  27.761 -0.19 +0.10    -0.298 NA BRANCH  26  30ATOM     30  N   UNL     1      38.618  45.071  26.064 -0.05 +0.00    -0.346 N  ATOM     31  C   UNL     1      38.604  46.019  25.065 -0.17 +0.02    +0.251 C  ATOM     32  H   UNL     1      39.337  45.068  26.775 +0.06 -0.00    +0.164 HD ATOM     33  O   UNL     1      37.767  46.020  24.168 -0.52 -0.06    -0.269 OA BRANCH  31  34ATOM     34  C   UNL     1      39.651  47.076  25.095 -0.21 +0.00    +0.048 A  ATOM     35  C   UNL     1      39.663  48.120  26.011 -0.22 +0.01    +0.074 A  ATOM     36  C   UNL     1      40.651  47.018  24.116 -0.20 +0.01    +0.061 A  ATOM     37  C   UNL     1      40.676  49.045  25.893 -0.17 +0.03    +0.215 A  ATOM     38  C   UNL     1      41.625  48.012  24.042 -0.25 +0.02    +0.132 A  ATOM     39  N   UNL     1      41.638  49.010  24.950 -0.29 -0.04    -0.202 NA ATOM     40  F   UNL     1      40.705  50.064  26.766 -0.08 -0.04    -0.185 F  BRANCH  38  41ATOM     41  N   UNL     1      42.617  47.981  23.073 -0.17 -0.06    -0.352 N  ATOM     42  C   UNL     1      42.548  46.882  22.091 -0.27 +0.03    +0.146 C  ATOM     43  C   UNL     1      43.977  48.457  23.385 -0.27 +0.04    +0.146 C  ATOM     44  C   UNL     1      43.661  47.058  21.046 -0.28 +0.08    +0.181 C  ATOM     45  C   UNL     1      45.033  47.413  22.982 -0.21 +0.08    +0.181 C  ATOM     46  O   UNL     1      44.991  47.057  21.595 -0.73 -0.41    -0.378 OA ENDBRANCH  38  41ENDBRANCH  31  34ENDBRANCH  26  30BRANCH  29  47ATOM     47  C   UNL     1      35.070  43.179  28.282 -0.37 -0.02    +0.056 C  ATOM     48  C   UNL     1      34.210  43.985  27.345 -0.23 -0.00    +0.021 C  ATOM     49  C   UNL     1      35.000  44.676  28.415 -0.59 -0.01    +0.021 C  ENDBRANCH  29  47ENDBRANCH  21  24ENDBRANCH   4  20TORSDOF 9TERENDMDL