REMARK SMILES COc1cc(F)c(=O)[nH]c1C(=O)c1ccc(C(=O)N[C@@H]2CCN(C(C)C)C[C@H]2NC(=O)c2cc(N)nc(F)c2)cc1
REMARK SMILES IDX 17 1 18 2 19 3 16 5 13 6 14 7 41 8 15 9 40 10 11 11 12 12
REMARK SMILES IDX 10 13 3 14 4 15 5 16 9 17 7 18 6 19 8 21 2 22 1 23 20 24
REMARK SMILES IDX 21 25 28 26 22 27 27 28 23 29 29 30 30 31 31 33 32 34 33 35
REMARK SMILES IDX 39 36 34 37 37 38 36 39 38 40 35 41 24 44 25 45 26 46
REMARK H PARENT 19 4 9 20 29 32 35 42 35 43
ROOT
ATOM      1  C   UNL     1       0.468  -1.512  -0.956  1.00  0.00     0.251 C 
ATOM      2  O   UNL     1       0.414  -2.735  -0.928  1.00  0.00    -0.269 OA
ATOM      3  N   UNL     1      -0.646  -0.704  -1.028  1.00  0.00    -0.347 N 
ATOM      4  H   UNL     1      -0.561   0.287  -0.845  1.00  0.00     0.164 HD
ENDROOT
BRANCH   1   5
ATOM      5  C   UNL     1       1.785  -0.821  -0.872  1.00  0.00     0.039 A 
ATOM      6  C   UNL     1       4.317   0.392  -0.683  1.00  0.00     0.024 A 
ATOM      7  C   UNL     1       4.114  -0.895  -0.171  1.00  0.00     0.013 A 
ATOM      8  C   UNL     1       3.247   1.068  -1.288  1.00  0.00     0.013 A 
ATOM      9  C   UNL     1       2.855  -1.499  -0.273  1.00  0.00     0.014 A 
ATOM     10  C   UNL     1       1.990   0.463  -1.391  1.00  0.00     0.014 A 
BRANCH   6  11
ATOM     11  C   UNL     1       5.630   1.093  -0.600  1.00  0.00     0.213 C 
ATOM     12  O   UNL     1       5.702   2.305  -0.779  1.00  0.00    -0.287 OA
BRANCH  11  13
ATOM     13  C   UNL     1       6.853   0.280  -0.354  1.00  0.00     0.132 A 
ATOM     14  C   UNL     1       7.600   0.498   0.746  1.00  0.00     0.149 A 
ATOM     15  C   UNL     1       8.768  -0.322   0.990  1.00  0.00     0.094 A 
ATOM     16  C   UNL     1       9.137  -1.248   0.098  1.00  0.00     0.191 A 
ATOM     17  N   UNL     1       7.229  -0.673  -1.280  1.00  0.00    -0.314 N 
ATOM     18  C   UNL     1       8.349  -1.465  -1.150  1.00  0.00     0.284 A 
ATOM     19  F   UNL     1      10.216  -2.030   0.287  1.00  0.00    -0.201 F 
ATOM     20  H   UNL     1       6.691  -0.801  -2.129  1.00  0.00     0.170 HD
ATOM     21  O   UNL     1       8.662  -2.288  -2.000  1.00  0.00    -0.266 OA
BRANCH  14  22
ATOM     22  O   UNL     1       7.251   1.368   1.751  1.00  0.00    -0.494 OA
ATOM     23  C   UNL     1       7.982   2.592   1.658  1.00  0.00     0.278 C 
ENDBRANCH  14  22
ENDBRANCH  11  13
ENDBRANCH   6  11
ENDBRANCH   1   5
BRANCH   3  24
ATOM     24  C   UNL     1      -2.005  -1.254  -1.073  1.00  0.00     0.107 C 
ATOM     25  C   UNL     1      -2.296  -1.919  -2.425  1.00  0.00     0.042 C 
ATOM     26  C   UNL     1      -3.046  -0.161  -0.777  1.00  0.00     0.118 C 
ATOM     27  C   UNL     1      -3.760  -1.796  -2.864  1.00  0.00     0.087 C 
ATOM     28  C   UNL     1      -4.475  -0.759  -0.799  1.00  0.00     0.111 C 
ATOM     29  N   UNL     1      -4.663  -1.909  -1.714  1.00  0.00    -0.299 NA
BRANCH  26  30
ATOM     30  N   UNL     1      -2.757   0.511   0.497  1.00  0.00    -0.346 N 
ATOM     31  C   UNL     1      -3.264   1.765   0.761  1.00  0.00     0.251 C 
ATOM     32  H   UNL     1      -2.523  -0.095   1.273  1.00  0.00     0.164 HD
ATOM     33  O   UNL     1      -3.866   2.433  -0.072  1.00  0.00    -0.269 OA
BRANCH  31  34
ATOM     34  C   UNL     1      -3.073   2.291   2.136  1.00  0.00     0.047 A 
ATOM     35  C   UNL     1      -3.946   3.280   2.592  1.00  0.00     0.060 A 
ATOM     36  C   UNL     1      -2.043   1.854   2.961  1.00  0.00     0.074 A 
ATOM     37  C   UNL     1      -3.766   3.790   3.866  1.00  0.00     0.127 A 
ATOM     38  C   UNL     1      -1.956   2.421   4.216  1.00  0.00     0.215 A 
ATOM     39  N   UNL     1      -2.794   3.367   4.686  1.00  0.00    -0.203 NA
ATOM     40  F   UNL     1      -0.969   2.013   5.026  1.00  0.00    -0.185 F 
BRANCH  37  41
ATOM     41  N   UNL     1      -4.636   4.750   4.372  1.00  0.00    -0.384 N 
ATOM     42  H   UNL     1      -4.303   5.018   5.295  1.00  0.00     0.158 HD
ATOM     43  H   UNL     1      -4.727   5.550   3.756  1.00  0.00     0.158 HD
ENDBRANCH  37  41
ENDBRANCH  31  34
ENDBRANCH  26  30
BRANCH  29  44
ATOM     44  C   UNL     1      -6.088  -2.090  -2.090  1.00  0.00     0.050 C 
ATOM     45  C   UNL     1      -6.313  -3.353  -2.938  1.00  0.00     0.024 C 
ATOM     46  C   UNL     1      -6.997  -2.203  -0.852  1.00  0.00     0.024 C 
ENDBRANCH  29  44
ENDBRANCH   3  24
TORSDOF 9
