REMARK SMILES COc1cc(F)c(=O)[nH]c1C(=O)c1ccc(C(=O)N[C@@H]2CCN(C3CC3)C[C@H]2NC(=O)c2cc(F)nc(N3CCOCC3)c2)cc1
REMARK SMILES IDX 13 1 14 2 15 3 16 4 45 5 46 6 11 7 12 8 10 9 3 10 4 11 5 12
REMARK SMILES IDX 9 13 7 14 6 15 8 17 2 18 1 19 17 20 19 21 18 22 20 24 21 25
REMARK SMILES IDX 28 26 22 27 27 28 23 29 29 30 30 31 31 33 32 34 33 35 44 36
REMARK SMILES IDX 34 37 37 38 36 39 35 40 38 41 39 42 43 43 40 44 42 45 41 46
REMARK SMILES IDX 24 47 25 48 26 49
REMARK H PARENT 9 16 19 23 29 32
ROOT
ATOM      1  C   UNL     1       5.327   0.194  -0.458  1.00  0.00     0.024 A 
ATOM      2  C   UNL     1       4.884   1.273   0.321  1.00  0.00     0.013 A 
ATOM      3  C   UNL     1       3.766   1.126   1.152  1.00  0.00     0.014 A 
ATOM      4  C   UNL     1       3.065  -0.086   1.190  1.00  0.00     0.039 A 
ATOM      5  C   UNL     1       3.499  -1.161   0.402  1.00  0.00     0.014 A 
ATOM      6  C   UNL     1       4.621  -1.018  -0.420  1.00  0.00     0.013 A 
ENDROOT
BRANCH   1   7
ATOM      7  C   UNL     1       6.529   0.270  -1.338  1.00  0.00     0.213 C 
ATOM      8  O   UNL     1       6.717  -0.580  -2.203  1.00  0.00    -0.287 OA
BRANCH   7   9
ATOM      9  C   UNL     1       7.526   1.354  -1.094  1.00  0.00     0.132 A 
ATOM     10  C   UNL     1       7.857   2.212  -2.078  1.00  0.00     0.149 A 
ATOM     11  C   UNL     1       8.794   3.286  -1.809  1.00  0.00     0.094 A 
ATOM     12  C   UNL     1       9.365   3.392  -0.606  1.00  0.00     0.191 A 
ATOM     13  N   UNL     1       8.121   1.455   0.149  1.00  0.00    -0.314 N 
ATOM     14  C   UNL     1       9.047   2.421   0.480  1.00  0.00     0.284 A 
ATOM     15  F   UNL     1      10.241   4.373  -0.316  1.00  0.00    -0.201 F 
ATOM     16  H   UNL     1       7.911   0.779   0.873  1.00  0.00     0.170 HD
ATOM     17  O   UNL     1       9.562   2.473   1.590  1.00  0.00    -0.266 OA
BRANCH  10  18
ATOM     18  O   UNL     1       7.250   2.246  -3.310  1.00  0.00    -0.494 OA
ATOM     19  C   UNL     1       8.042   1.592  -4.304  1.00  0.00     0.278 C 
ENDBRANCH  10  18
ENDBRANCH   7   9
ENDBRANCH   1   7
BRANCH   4  20
ATOM     20  C   UNL     1       1.904  -0.208   2.113  1.00  0.00     0.251 C 
ATOM     21  N   UNL     1       0.867  -1.009   1.686  1.00  0.00    -0.347 N 
ATOM     22  O   UNL     1       1.905   0.383   3.184  1.00  0.00    -0.269 OA
ATOM     23  H   UNL     1       0.925  -1.459   0.780  1.00  0.00     0.164 HD
BRANCH  21  24
ATOM     24  C   UNL     1      -0.245  -1.378   2.570  1.00  0.00     0.107 C 
ATOM     25  C   UNL     1       0.141  -2.568   3.461  1.00  0.00     0.042 C 
ATOM     26  C   UNL     1      -1.525  -1.655   1.736  1.00  0.00     0.118 C 
ATOM     27  C   UNL     1      -0.221  -3.889   2.790  1.00  0.00     0.087 C 
ATOM     28  C   UNL     1      -2.382  -2.752   2.407  1.00  0.00     0.111 C 
ATOM     29  N   UNL     1      -1.671  -4.032   2.582  1.00  0.00    -0.298 NA
BRANCH  26  30
ATOM     30  N   UNL     1      -2.286  -0.420   1.514  1.00  0.00    -0.346 N 
ATOM     31  C   UNL     1      -3.191  -0.316   0.481  1.00  0.00     0.251 C 
ATOM     32  H   UNL     1      -2.147   0.338   2.168  1.00  0.00     0.164 HD
ATOM     33  O   UNL     1      -3.349  -1.206  -0.349  1.00  0.00    -0.269 OA
BRANCH  31  34
ATOM     34  C   UNL     1      -4.000   0.929   0.388  1.00  0.00     0.048 A 
ATOM     35  C   UNL     1      -4.137   1.836   1.431  1.00  0.00     0.074 A 
ATOM     36  C   UNL     1      -4.683   1.164  -0.812  1.00  0.00     0.061 A 
ATOM     37  C   UNL     1      -4.949   2.926   1.211  1.00  0.00     0.215 A 
ATOM     38  C   UNL     1      -5.513   2.276  -0.946  1.00  0.00     0.132 A 
ATOM     39  N   UNL     1      -5.621   3.160   0.067  1.00  0.00    -0.202 NA
ATOM     40  F   UNL     1      -5.098   3.813   2.207  1.00  0.00    -0.185 F 
BRANCH  38  41
ATOM     41  N   UNL     1      -6.208   2.521  -2.121  1.00  0.00    -0.352 N 
ATOM     42  C   UNL     1      -7.024   3.750  -2.163  1.00  0.00     0.146 C 
ATOM     43  C   UNL     1      -6.724   1.400  -2.927  1.00  0.00     0.146 C 
ATOM     44  C   UNL     1      -7.643   3.906  -3.561  1.00  0.00     0.181 C 
ATOM     45  C   UNL     1      -8.215   1.596  -3.256  1.00  0.00     0.181 C 
ATOM     46  O   UNL     1      -8.495   2.815  -3.954  1.00  0.00    -0.378 OA
ENDBRANCH  38  41
ENDBRANCH  31  34
ENDBRANCH  26  30
BRANCH  29  47
ATOM     47  C   UNL     1      -1.981  -5.002   1.512  1.00  0.00     0.056 C 
ATOM     48  C   UNL     1      -3.156  -5.928   1.688  1.00  0.00     0.021 C 
ATOM     49  C   UNL     1      -1.760  -6.469   1.760  1.00  0.00     0.021 C 
ENDBRANCH  29  47
ENDBRANCH  21  24
ENDBRANCH   4  20
TORSDOF 9
