MODEL        9USER    Run = 9USERUSER    Estimated Free Energy of Binding    =  -5.13 kcal/mol  [=(1)+(2)+(3)-(4)]USERUSER    (1) Final Intermolecular Energy     =  -9.31 kcal/molUSER        vdW + Hbond + desolv Energy     =  -9.28 kcal/molUSER        Electrostatic Energy            =  -0.24 kcal/molUSER        Moving Ligand-Fixed Receptor    =  -9.52 kcal/molUSER        Moving Ligand-Moving Receptor   =  +0.22 kcal/molUSER    (2) Final Total Internal Energy     =  -1.99 kcal/molUSER    (3) Torsional Free Energy           =  +4.18 kcal/molUSER    (4) Unbound System's Energy         =  -1.99 kcal/molUSERUSERREMARK SMILES NCCCCCC[C@H]1COc2ccc(O)c(N)c2-c2cc(O)ccc21REMARK SMILES IDX 6 1 5 2 4 3 3 4 2 5 1 6 7 9 8 10 25 12 24 13 19 14 23 15REMARK SMILES IDX 20 16 21 17 18 18 16 19 11 20 14 21 12 22 13 23 17 24 10 27REMARK SMILES IDX 9 28 15 30 22 32REMARK H PARENT 1 7 1 8 17 25 17 26 15 31 22 33REMARK Flexibility Score:  164.900USER                              x       y       z     vdW  Elec       q    TypeUSER                           _______ _______ _______ _____ _____    ______ ____ROOTATOM      1  C   UNL     1      35.990  44.084  15.918 -0.44 -0.00    +0.001 C  ENDROOTBRANCH   1   2ATOM      2  C   UNL     1      36.576  44.231  14.511 -0.33 -0.00    +0.000 C  BRANCH   2   3ATOM      3  C   UNL     1      36.852  45.698  14.178 -0.48 -0.00    +0.001 C  BRANCH   3   4ATOM      4  C   UNL     1      35.885  46.281  13.140 -0.61 -0.01    +0.015 C  BRANCH   4   5ATOM      5  C   UNL     1      36.205  47.696  12.653 -0.67 -0.04    +0.077 C  BRANCH   5   6ATOM      6  N   UNL     1      37.228  47.726  11.616 -0.77 +0.05    -0.330 NA ATOM      7  H   UNL     1      36.786  47.680  10.698 -0.16 -0.08    +0.118 HD ATOM      8  H   UNL     1      37.816  46.897  11.686 +0.06 -0.02    +0.118 HD ENDBRANCH   5   6ENDBRANCH   4   5ENDBRANCH   3   4ENDBRANCH   2   3ENDBRANCH   1   2BRANCH   1   9ATOM      9  C   UNL     1      35.219  45.344  16.334 -0.38 -0.01    +0.012 C  BRANCH   9  10ATOM     10  C   UNL     1      35.233  45.566  17.856 -0.40 -0.03    +0.057 CG0ATOM     11  G   UNL     1      33.978  46.244  18.428 +0.00 +0.00    +0.000 G0 BRANCH  10  12ATOM     12  C   UNL     1      35.459  44.323  18.693 -0.33 +0.01    -0.033 A  ATOM     13  C   UNL     1      36.684  44.212  19.388 -0.37 -0.00    +0.008 A  ATOM     14  C   UNL     1      34.434  43.378  18.900 -0.37 +0.00    -0.005 A  ATOM     15  C   UNL     1      36.886  43.210  20.330 -0.36 -0.00    +0.046 A  ATOM     16  C   UNL     1      34.648  42.417  19.917 -0.34 +0.00    +0.055 A  ATOM     17  C   UNL     1      35.856  42.331  20.605 -0.40 +0.00    +0.116 A  BRANCH  14  18ATOM     18  C   UNL     1      33.164  43.346  18.110 -0.30 -0.01    +0.051 A  ATOM     19  C   UNL     1      32.665  42.097  17.615 -0.30 -0.03    +0.086 A  ATOM     20  C   UNL     1      32.410  44.493  17.775 -0.20 -0.03    +0.129 A  ATOM     21  C   UNL     1      31.393  42.014  17.009 -0.20 -0.05    +0.139 A  ATOM     22  C   UNL     1      31.155  44.373  17.138 -0.20 -0.01    +0.051 A  ATOM     23  C   UNL     1      30.631  43.142  16.775 -0.25 -0.02    +0.052 A  BRANCH  19  24ATOM     24  N   UNL     1      33.349  40.864  17.821 -0.14 +0.14    -0.395 N  ATOM     25  H   UNL     1      34.326  40.924  17.547 -0.47 -0.09    +0.156 HD ATOM     26  H   UNL     1      32.850  40.116  17.336 -0.06 -0.07    +0.156 HD ENDBRANCH  19  24BRANCH  20  27ATOM     27  O   UNL     1      32.725  45.812  17.923 +0.13 +0.24    -0.492 OA BRANCH  27  28ATOM     28  C   UNL     1      33.976  46.243  18.429 -0.41 -0.16    +0.238 CG0ATOM     29  G   UNL     1      35.233  45.567  17.858 +0.00 +0.00    +0.000 G0 ENDBRANCH  27  28ENDBRANCH  20  27BRANCH  21  30ATOM     30  O   UNL     1      30.948  40.778  16.609 -0.07 +0.18    -0.506 OA ATOM     31  H   UNL     1      31.051  40.714  15.645 -0.41 -0.19    +0.293 HD ENDBRANCH  21  30ENDBRANCH  14  18BRANCH  17  32ATOM     32  O   UNL     1      36.063  41.379  21.558 -0.25 -0.01    -0.508 OA ATOM     33  H   UNL     1      36.886  40.908  21.345 +0.21 -0.00    +0.293 HD ENDBRANCH  17  32ENDBRANCH  10  12ENDBRANCH   9  10ENDBRANCH   1   9TORSDOF 10TERENDMDL