MODEL        10USER    Run = 10USERUSER    Estimated Free Energy of Binding    =  -9.04 kcal/mol  [=(1)+(2)+(3)-(4)]USERUSER    (1) Final Intermolecular Energy     = -11.43 kcal/molUSER        vdW + Hbond + desolv Energy     = -11.17 kcal/molUSER        Electrostatic Energy            =  -0.26 kcal/molUSER        Moving Ligand-Fixed Receptor    = -11.43 kcal/molUSER        Moving Ligand-Moving Receptor   =  +0.00 kcal/molUSER    (2) Final Total Internal Energy     =  -1.40 kcal/molUSER    (3) Torsional Free Energy           =  +2.39 kcal/molUSER    (4) Unbound System's Energy         =  -1.40 kcal/molUSERUSERREMARK SMILES CCOc1ccccc1-c1cc(NC(=O)[C@H]2CC[C@@H](N)C2)ccc1OCCREMARK SMILES IDX 10 1 11 2 12 3 22 4 23 5 24 6 9 7 4 8 5 9 6 10 8 11 7 12REMARK SMILES IDX 3 13 2 14 1 15 25 16 26 17 27 18 13 19 14 20 15 22 16 23REMARK SMILES IDX 17 24 21 25 18 26 19 27 20 28REMARK H PARENT 13 21 20 29 20 30USER                              x       y       z     vdW  Elec       q    TypeUSER                           _______ _______ _______ _____ _____    ______ ____ROOTATOM      1  C   UNL     1      39.319  47.254  16.458 -0.45 -0.01    +0.030 A  ATOM      2  C   UNL     1      38.004  46.844  16.756 -0.32 -0.02    +0.038 A  ATOM      3  C   UNL     1      36.945  47.058  15.868 -0.36 -0.03    +0.042 A  ATOM      4  C   UNL     1      37.211  47.680  14.651 -0.47 -0.02    +0.030 A  ATOM      5  C   UNL     1      38.511  48.089  14.329 -0.49 -0.02    +0.049 A  ATOM      6  C   UNL     1      39.567  47.888  15.223 -0.43 -0.04    +0.127 A  ENDROOTBRANCH   1   7ATOM      7  C   UNL     1      40.385  47.026  17.454 -0.49 -0.00    +0.028 A  ATOM      8  C   UNL     1      40.420  45.871  18.260 -0.39 -0.01    +0.127 A  ATOM      9  C   UNL     1      41.455  45.650  19.171 -0.41 +0.00    +0.047 A  ATOM     10  C   UNL     1      42.461  46.602  19.322 -0.46 +0.00    +0.004 A  ATOM     11  C   UNL     1      41.412  47.969  17.624 -0.49 -0.00    +0.013 A  ATOM     12  C   UNL     1      42.438  47.763  18.551 -0.50 +0.00    +0.001 A  BRANCH   8  13ATOM     13  O   UNL     1      39.465  44.892  18.129 -0.11 +0.05    -0.493 OA BRANCH  13  14ATOM     14  C   UNL     1      38.725  44.760  19.349 -0.29 -0.01    +0.226 C  ATOM     15  C   UNL     1      37.299  44.383  18.994 -0.38 -0.01    +0.049 C  ENDBRANCH  13  14ENDBRANCH   8  13ENDBRANCH   1   7BRANCH   6  16ATOM     16  O   UNL     1      40.860  48.284  14.995 -0.20 +0.07    -0.493 OA BRANCH  16  17ATOM     17  C   UNL     1      41.131  49.683  14.933 -0.53 -0.06    +0.226 C  ATOM     18  C   UNL     1      42.175  49.906  13.854 -0.72 -0.01    +0.049 C  ENDBRANCH  16  17ENDBRANCH   6  16BRANCH   3  19ATOM     19  N   UNL     1      35.668  46.623  16.273 -0.15 +0.35    -0.326 N  ATOM     20  C   UNL     1      35.204  45.319  16.360 -0.23 -0.15    +0.227 C  ATOM     21  H   UNL     1      35.006  47.357  16.497 -0.11 -0.37    +0.169 HD ATOM     22  O   UNL     1      35.837  44.303  16.092 -0.21 +0.12    -0.274 OA BRANCH  20  23ATOM     23  C   UNL     1      33.763  45.266  16.869 -0.33 -0.06    +0.080 C  ATOM     24  C   UNL     1      33.045  43.954  16.509 -0.37 -0.01    +0.015 C  ATOM     25  C   UNL     1      33.745  45.349  18.408 -0.48 -0.01    +0.032 C  ATOM     26  C   UNL     1      33.075  43.128  17.790 -0.37 -0.01    +0.019 C  ATOM     27  C   UNL     1      32.859  44.187  18.864 -0.42 -0.01    +0.051 C  BRANCH  27  28ATOM     28  N   UNL     1      33.181  43.729  20.204 -0.70 -0.02    -0.328 NA ATOM     29  H   UNL     1      32.449  43.106  20.546 +0.05 +0.04    +0.119 HD ATOM     30  H   UNL     1      33.187  44.521  20.846 -0.36 -0.02    +0.119 HD ENDBRANCH  27  28ENDBRANCH  20  23ENDBRANCH   3  19TORSDOF 8TERENDMDL