MODEL        8USER    Run = 8USERUSER    Estimated Free Energy of Binding    =  -8.67 kcal/mol  [=(1)+(2)+(3)-(4)]USERUSER    (1) Final Intermolecular Energy     = -10.46 kcal/molUSER        vdW + Hbond + desolv Energy     = -10.23 kcal/molUSER        Electrostatic Energy            =  -0.23 kcal/molUSER        Moving Ligand-Fixed Receptor    = -10.46 kcal/molUSER        Moving Ligand-Moving Receptor   =  +0.00 kcal/molUSER    (2) Final Total Internal Energy     =  -0.81 kcal/molUSER    (3) Torsional Free Energy           =  +1.79 kcal/molUSER    (4) Unbound System's Energy         =  -0.81 kcal/molUSERUSERREMARK SMILES COc1ccccc1-c1cc(NC(=O)[C@@H]2CCC[C@H](N)C2)ccc1OCREMARK SMILES IDX 9 1 10 2 11 3 22 4 23 5 24 6 8 7 3 8 4 9 5 10 7 11 6 12 2 13REMARK SMILES IDX 1 14 25 15 26 16 12 17 13 18 14 20 15 21 16 22 21 23 17 24REMARK SMILES IDX 19 25 18 26 20 27REMARK H PARENT 12 19 20 28 20 29USER                              x       y       z     vdW  Elec       q    TypeUSER                           _______ _______ _______ _____ _____    ______ ____ROOTATOM      1  C   UNL     1      38.314  46.428  16.730 -0.38 -0.01    +0.030 A  ATOM      2  C   UNL     1      36.934  46.462  16.441 -0.35 -0.02    +0.038 A  ATOM      3  C   UNL     1      36.039  45.546  17.005 -0.32 -0.02    +0.042 A  ATOM      4  C   UNL     1      36.532  44.582  17.877 -0.31 -0.01    +0.030 A  ATOM      5  C   UNL     1      37.898  44.528  18.180 -0.32 -0.01    +0.049 A  ATOM      6  C   UNL     1      38.796  45.438  17.612 -0.32 -0.02    +0.126 A  ENDROOTBRANCH   1   7ATOM      7  C   UNL     1      39.205  47.434  16.108 -0.46 -0.01    +0.028 A  ATOM      8  C   UNL     1      39.077  47.819  14.753 -0.41 -0.04    +0.126 A  ATOM      9  C   UNL     1      39.932  48.794  14.223 -0.33 -0.02    +0.047 A  ATOM     10  C   UNL     1      40.919  49.381  15.016 -0.64 -0.00    +0.004 A  ATOM     11  C   UNL     1      40.208  48.042  16.887 -0.43 -0.00    +0.013 A  ATOM     12  C   UNL     1      41.060  49.004  16.347 -0.56 -0.00    +0.001 A  BRANCH   8  13ATOM     13  O   UNL     1      38.078  47.209  14.034 -0.15 +0.18    -0.496 OA ATOM     14  C   UNL     1      37.043  48.042  13.531 -0.42 -0.13    +0.278 C  ENDBRANCH   8  13ENDBRANCH   1   7BRANCH   6  15ATOM     15  O   UNL     1      40.147  45.443  17.859 -0.12 +0.04    -0.496 OA ATOM     16  C   UNL     1      40.567  45.437  19.216 -0.31 +0.00    +0.278 C  ENDBRANCH   6  15BRANCH   3  17ATOM     17  N   UNL     1      34.681  45.668  16.642 -0.12 +0.28    -0.326 N  ATOM     18  C   UNL     1      33.773  44.650  16.401 -0.22 -0.13    +0.227 C  ATOM     19  H   UNL     1      34.344  46.617  16.534 -0.20 -0.31    +0.169 HD ATOM     20  O   UNL     1      34.003  43.446  16.454 -0.23 +0.12    -0.274 OA BRANCH  18  21ATOM     21  C   UNL     1      32.385  45.190  16.039 -0.35 -0.05    +0.080 C  ATOM     22  C   UNL     1      31.302  44.128  16.311 -0.37 -0.00    +0.013 C  ATOM     23  C   UNL     1      32.334  45.663  14.582 -0.40 -0.03    +0.032 C  ATOM     24  C   UNL     1      30.103  44.214  15.362 -0.37 -0.00    +0.002 C  ATOM     25  C   UNL     1      30.984  46.320  14.251 -0.60 -0.03    +0.051 C  ATOM     26  C   UNL     1      29.804  45.659  14.980 -0.43 -0.01    +0.019 C  BRANCH  25  27ATOM     27  N   UNL     1      30.769  46.299  12.803 -0.51 +0.20    -0.328 NA ATOM     28  H   UNL     1      31.669  46.242  12.325 -0.36 -0.05    +0.119 HD ATOM     29  H   UNL     1      30.264  45.454  12.540 -0.26 -0.14    +0.119 HD ENDBRANCH  25  27ENDBRANCH  18  21ENDBRANCH   3  17TORSDOF 6TERENDMDL