MODEL        5USER    Run = 5USERUSER    Estimated Free Energy of Binding    =  -7.45 kcal/mol  [=(1)+(2)+(3)-(4)]USERUSER    (1) Final Intermolecular Energy     = -10.73 kcal/molUSER        vdW + Hbond + desolv Energy     = -10.61 kcal/molUSER        Electrostatic Energy            =  -0.32 kcal/molUSER        Moving Ligand-Fixed Receptor    = -10.93 kcal/molUSER        Moving Ligand-Moving Receptor   =  +0.20 kcal/molUSER    (2) Final Total Internal Energy     =  -1.72 kcal/molUSER    (3) Torsional Free Energy           =  +3.28 kcal/molUSER    (4) Unbound System's Energy         =  -1.72 kcal/molUSERUSERREMARK SMILES NCCC[C@H]1COc2ccc(O)c(N)c2-c2cc(O)c(F)cc21REMARK SMILES IDX 4 1 3 2 2 3 1 4 5 7 23 9 22 10 16 11 20 12 17 13 18 14 21 15REMARK SMILES IDX 15 16 13 17 8 18 11 19 9 20 10 21 14 22 7 25 6 26 12 28REMARK SMILES IDX 19 30REMARK H PARENT 1 5 1 6 14 23 14 24 12 29 19 31REMARK Flexibility Score:   90.900USER                              x       y       z     vdW  Elec       q    TypeUSER                           _______ _______ _______ _____ _____    ______ ____ROOTATOM      1  C   UNL     1      36.183  45.134  18.130 -0.38 -0.00    +0.013 C  ENDROOTBRANCH   1   2ATOM      2  C   UNL     1      35.177  45.863  17.236 -0.42 -0.01    +0.016 C  BRANCH   2   3ATOM      3  C   UNL     1      33.849  46.168  17.939 -0.46 -0.06    +0.077 C  BRANCH   3   4ATOM      4  N   UNL     1      33.855  47.460  18.614 -0.84 +0.29    -0.330 NA ATOM      5  H   UNL     1      33.950  48.202  17.922 -0.48 -0.25    +0.118 HD ATOM      6  H   UNL     1      32.961  47.620  19.075 -0.45 -0.08    +0.118 HD ENDBRANCH   3   4ENDBRANCH   2   3ENDBRANCH   1   2BRANCH   1   7ATOM      7  C   UNL     1      37.569  44.794  17.548 -0.37 -0.01    +0.058 CG0ATOM      8  G   UNL     1      37.655  43.862  16.336 +0.00 +0.00    +0.000 G0 BRANCH   7   9ATOM      9  C   UNL     1      38.516  45.957  17.342 -0.38 +0.01    -0.030 A  ATOM     10  C   UNL     1      39.395  46.255  18.411 -0.37 -0.01    +0.048 A  ATOM     11  C   UNL     1      38.657  46.617  16.101 -0.41 +0.00    -0.005 A  ATOM     12  C   UNL     1      40.464  47.118  18.237 -0.25 -0.02    +0.165 A  ATOM     13  C   UNL     1      39.819  47.420  15.945 -0.47 -0.01    +0.058 A  ATOM     14  C   UNL     1      40.697  47.681  16.996 -0.41 -0.02    +0.151 A  ATOM     15  F   UNL     1      41.288  47.359  19.267 -0.05 -0.00    -0.203 F  BRANCH  11  16ATOM     16  C   UNL     1      37.674  46.534  14.968 -0.37 -0.02    +0.051 A  ATOM     17  C   UNL     1      37.355  47.716  14.217 -0.46 -0.05    +0.086 A  ATOM     18  C   UNL     1      36.973  45.370  14.580 -0.30 -0.05    +0.129 A  ATOM     19  C   UNL     1      36.576  47.654  13.040 -0.52 -0.06    +0.139 A  ATOM     20  C   UNL     1      36.171  45.351  13.416 -0.34 -0.02    +0.051 A  ATOM     21  C   UNL     1      35.994  46.476  12.624 -0.58 -0.03    +0.052 A  BRANCH  17  22ATOM     22  N   UNL     1      37.878  49.003  14.552 -0.12 +0.28    -0.395 N  ATOM     23  H   UNL     1      37.414  49.737  14.024 -0.41 -0.12    +0.156 HD ATOM     24  H   UNL     1      38.889  49.000  14.397 -0.16 -0.09    +0.156 HD ENDBRANCH  17  22BRANCH  18  25ATOM     25  O   UNL     1      36.841  44.179  15.234 -0.11 +0.17    -0.492 OA BRANCH  25  26ATOM     26  C   UNL     1      37.658  43.861  16.335 +0.00 -0.06    +0.238 CG0ATOM     27  G   UNL     1      37.569  44.794  17.547 +0.00 +0.00    +0.000 G0 ENDBRANCH  25  26ENDBRANCH  18  25BRANCH  19  28ATOM     28  O   UNL     1      36.366  48.818  12.343 -0.34 +0.17    -0.506 OA ATOM     29  H   UNL     1      35.843  48.610  11.551 -0.22 -0.19    +0.293 HD ENDBRANCH  19  28ENDBRANCH  11  16BRANCH  14  30ATOM     30  O   UNL     1      41.779  48.494  16.818 -0.61 -0.04    -0.505 OA ATOM     31  H   UNL     1      42.575  48.025  17.120 -0.32 -0.00    +0.293 HD ENDBRANCH  14  30ENDBRANCH   7   9ENDBRANCH   1   7TORSDOF 7TERENDMDL