MODEL        2USER    Run = 2USERUSER    Estimated Free Energy of Binding    =  -8.48 kcal/mol  [=(1)+(2)+(3)-(4)]USERUSER    (1) Final Intermolecular Energy     = -10.27 kcal/molUSER        vdW + Hbond + desolv Energy     = -10.29 kcal/molUSER        Electrostatic Energy            =  +0.02 kcal/molUSER        Moving Ligand-Fixed Receptor    = -10.27 kcal/molUSER        Moving Ligand-Moving Receptor   =  +0.00 kcal/molUSER    (2) Final Total Internal Energy     =  -1.33 kcal/molUSER    (3) Torsional Free Energy           =  +1.79 kcal/molUSER    (4) Unbound System's Energy         =  -1.33 kcal/molUSERUSERREMARK SMILES COc1ccccc1-c1cc(NC(=O)[C@@H]2CC[C@@H](N)C2)ccc1OREMARK SMILES IDX 9 1 10 2 11 3 21 4 22 5 23 6 8 7 3 8 4 9 5 10 7 11 6 12 2 13REMARK SMILES IDX 1 14 24 15 12 17 13 18 14 20 15 21 16 22 20 23 17 24 18 25REMARK SMILES IDX 19 26REMARK H PARENT 24 16 12 19 19 27 19 28USER                              x       y       z     vdW  Elec       q    TypeUSER                           _______ _______ _______ _____ _____    ______ ____ROOTATOM      1  C   UNL     1      38.170  47.152  15.702 -0.41 -0.01    +0.029 A  ATOM      2  C   UNL     1      37.054  46.525  16.292 -0.35 -0.02    +0.038 A  ATOM      3  C   UNL     1      35.826  46.409  15.624 -0.33 -0.04    +0.042 A  ATOM      4  C   UNL     1      35.711  46.926  14.336 -0.33 -0.03    +0.030 A  ATOM      5  C   UNL     1      36.799  47.553  13.726 -0.51 -0.03    +0.049 A  ATOM      6  C   UNL     1      38.013  47.665  14.405 -0.41 -0.06    +0.123 A  ENDROOTBRANCH   1   7ATOM      7  C   UNL     1      39.441  47.244  16.450 -0.46 -0.01    +0.028 A  ATOM      8  C   UNL     1      40.253  48.394  16.426 -0.41 -0.03    +0.126 A  ATOM      9  C   UNL     1      41.420  48.482  17.194 -0.40 -0.00    +0.047 A  ATOM     10  C   UNL     1      41.819  47.401  17.976 -0.45 -0.00    +0.004 A  ATOM     11  C   UNL     1      39.869  46.168  17.249 -0.45 -0.00    +0.013 A  ATOM     12  C   UNL     1      41.048  46.242  17.999 -0.50 -0.00    +0.001 A  BRANCH   8  13ATOM     13  O   UNL     1      39.895  49.499  15.691 -0.21 +0.24    -0.496 OA ATOM     14  C   UNL     1      41.062  50.246  15.344 -0.46 -0.09    +0.278 C  ENDBRANCH   8  13ENDBRANCH   1   7BRANCH   6  15ATOM     15  O   UNL     1      39.063  48.300  13.796 -0.20 +0.14    -0.507 OA ATOM     16  H   UNL     1      39.142  49.198  14.156 -0.13 -0.17    +0.293 HD ENDBRANCH   6  15BRANCH   3  17ATOM     17  N   UNL     1      34.779  45.770  16.318 -0.12 +0.30    -0.326 N  ATOM     18  C   UNL     1      34.284  46.075  17.576 -0.29 -0.20    +0.227 C  ATOM     19  H   UNL     1      34.346  44.991  15.835 +0.12 -0.12    +0.169 HD ATOM     20  O   UNL     1      34.676  46.976  18.309 -0.78 +0.23    -0.274 OA BRANCH  18  21ATOM     21  C   UNL     1      33.151  45.127  17.990 -0.37 -0.03    +0.080 C  ATOM     22  C   UNL     1      33.343  44.532  19.395 -0.46 -0.00    +0.015 C  ATOM     23  C   UNL     1      33.094  43.911  17.063 -0.35 -0.01    +0.032 C  ATOM     24  C   UNL     1      33.769  43.074  19.199 -0.45 -0.00    +0.019 C  ATOM     25  C   UNL     1      34.081  42.945  17.710 -0.38 -0.02    +0.051 C  BRANCH  25  26ATOM     26  N   UNL     1      33.938  41.588  17.209 -0.18 +0.17    -0.328 NA ATOM     27  H   UNL     1      33.516  41.613  16.280 -0.50 -0.10    +0.119 HD ATOM     28  H   UNL     1      34.854  41.158  17.087 -0.51 -0.09    +0.119 HD ENDBRANCH  25  26ENDBRANCH  18  21ENDBRANCH   3  17TORSDOF 6TERENDMDL