REMARK SMILES COc1ccccc1-c1cc(NC(=O)[C@@H]2CC[C@@H](N)C2)ccc1O
REMARK SMILES IDX 9 1 10 2 11 3 21 4 22 5 23 6 8 7 3 8 4 9 5 10 7 11 6 12 2 13
REMARK SMILES IDX 1 14 24 15 12 17 13 18 14 20 15 21 16 22 20 23 17 24 18 25
REMARK SMILES IDX 19 26
REMARK H PARENT 24 16 12 19 19 27 19 28
ROOT
ATOM      1  C   UNL     1      -2.469   0.256  -0.842  1.00  0.00     0.029 A 
ATOM      2  C   UNL     1      -1.130   0.619  -0.592  1.00  0.00     0.038 A 
ATOM      3  C   UNL     1      -0.052  -0.144  -1.064  1.00  0.00     0.042 A 
ATOM      4  C   UNL     1      -0.316  -1.293  -1.806  1.00  0.00     0.030 A 
ATOM      5  C   UNL     1      -1.633  -1.678  -2.068  1.00  0.00     0.049 A 
ATOM      6  C   UNL     1      -2.695  -0.911  -1.588  1.00  0.00     0.123 A 
ENDROOT
BRANCH   1   7
ATOM      7  C   UNL     1      -3.567   1.099  -0.323  1.00  0.00     0.028 A 
ATOM      8  C   UNL     1      -3.722   1.382   1.047  1.00  0.00     0.126 A 
ATOM      9  C   UNL     1      -4.731   2.235   1.508  1.00  0.00     0.047 A 
ATOM     10  C   UNL     1      -5.633   2.794   0.607  1.00  0.00     0.004 A 
ATOM     11  C   UNL     1      -4.493   1.677  -1.211  1.00  0.00     0.013 A 
ATOM     12  C   UNL     1      -5.518   2.511  -0.752  1.00  0.00     0.001 A 
BRANCH   8  13
ATOM     13  O   UNL     1      -2.846   0.878   1.979  1.00  0.00    -0.496 OA
ATOM     14  C   UNL     1      -3.334  -0.370   2.474  1.00  0.00     0.278 C 
ENDBRANCH   8  13
ENDBRANCH   1   7
BRANCH   6  15
ATOM     15  O   UNL     1      -3.979  -1.315  -1.841  1.00  0.00    -0.507 OA
ATOM     16  H   UNL     1      -3.956  -2.155  -2.328  1.00  0.00     0.293 HD
ENDBRANCH   6  15
BRANCH   3  17
ATOM     17  N   UNL     1       1.243   0.313  -0.745  1.00  0.00    -0.326 N 
ATOM     18  C   UNL     1       2.455  -0.258  -1.099  1.00  0.00     0.227 C 
ATOM     19  H   UNL     1       1.283   1.156  -0.185  1.00  0.00     0.169 HD
ATOM     20  O   UNL     1       2.609  -1.273  -1.769  1.00  0.00    -0.274 OA
BRANCH  18  21
ATOM     21  C   UNL     1       3.644   0.531  -0.537  1.00  0.00     0.080 C 
ATOM     22  C   UNL     1       5.000   0.057  -1.086  1.00  0.00     0.015 C 
ATOM     23  C   UNL     1       3.756   0.340   0.978  1.00  0.00     0.032 C 
ATOM     24  C   UNL     1       5.678  -0.730   0.039  1.00  0.00     0.019 C 
ATOM     25  C   UNL     1       4.596  -0.928   1.098  1.00  0.00     0.051 C 
BRANCH  25  26
ATOM     26  N   UNL     1       5.130  -1.114   2.437  1.00  0.00    -0.328 NA
ATOM     27  H   UNL     1       5.727  -1.942   2.451  1.00  0.00     0.119 HD
ATOM     28  H   UNL     1       5.733  -0.332   2.688  1.00  0.00     0.119 HD
ENDBRANCH  25  26
ENDBRANCH  18  21
ENDBRANCH   3  17
TORSDOF 6
