REMARK SMILES NCCC[C@H]1COc2ccc(O)c(N)c2-c2cc(O)c(F)cc21
REMARK SMILES IDX 4 1 3 2 2 3 1 4 5 7 23 9 22 10 16 11 20 12 17 13 18 14 21 15
REMARK SMILES IDX 15 16 13 17 8 18 11 19 9 20 10 21 14 22 7 25 6 26 12 28
REMARK SMILES IDX 19 30
REMARK H PARENT 1 5 1 6 14 23 14 24 12 29 19 31
REMARK Flexibility Score:   90.900
ROOT
ATOM      1  C   UNL     1      -2.211  -0.239  -1.118  1.00  0.00     0.013 C 
ENDROOT
BRANCH   1   2
ATOM      2  C   UNL     1      -1.570   1.143  -0.978  1.00  0.00     0.016 C 
BRANCH   2   3
ATOM      3  C   UNL     1      -2.551   2.296  -1.222  1.00  0.00     0.077 C 
BRANCH   3   4
ATOM      4  N   UNL     1      -3.577   2.388  -0.190  1.00  0.00    -0.330 NA
ATOM      5  H   UNL     1      -4.173   3.193  -0.378  1.00  0.00     0.118 HD
ATOM      6  H   UNL     1      -4.187   1.573  -0.228  1.00  0.00     0.118 HD
ENDBRANCH   3   4
ENDBRANCH   2   3
ENDBRANCH   1   2
BRANCH   1   7
ATOM      7  C   UNL     1      -1.340  -1.482  -0.850  1.00  0.00     0.058 CG0
ATOM      8  G   UNL     1      -0.299  -1.896  -1.894  1.00  0.00     0.000 G0
BRANCH   7   9
ATOM      9  C   UNL     1      -0.722  -1.586   0.528  1.00  0.00    -0.030 A 
ATOM     10  C   UNL     1      -1.464  -2.295   1.503  1.00  0.00     0.048 A 
ATOM     11  C   UNL     1       0.595  -1.159   0.809  1.00  0.00    -0.005 A 
ATOM     12  C   UNL     1      -0.888  -2.670   2.706  1.00  0.00     0.165 A 
ATOM     13  C   UNL     1       1.169  -1.646   2.014  1.00  0.00     0.058 A 
ATOM     14  C   UNL     1       0.439  -2.372   2.954  1.00  0.00     0.151 A 
ATOM     15  F   UNL     1      -1.616  -3.360   3.595  1.00  0.00    -0.203 F 
BRANCH  11  16
ATOM     16  C   UNL     1       1.402  -0.236  -0.059  1.00  0.00     0.051 A 
ATOM     17  C   UNL     1       2.208   0.786   0.548  1.00  0.00     0.086 A 
ATOM     18  C   UNL     1       1.414  -0.249  -1.472  1.00  0.00     0.129 A 
ATOM     19  C   UNL     1       3.114   1.559  -0.212  1.00  0.00     0.139 A 
ATOM     20  C   UNL     1       2.308   0.565  -2.205  1.00  0.00     0.051 A 
ATOM     21  C   UNL     1       3.182   1.445  -1.584  1.00  0.00     0.052 A 
BRANCH  17  22
ATOM     22  N   UNL     1       2.217   1.020   1.957  1.00  0.00    -0.395 N 
ATOM     23  H   UNL     1       1.274   1.016   2.337  1.00  0.00     0.156 HD
ATOM     24  H   UNL     1       2.700   1.902   2.143  1.00  0.00     0.156 HD
ENDBRANCH  17  22
BRANCH  18  25
ATOM     25  O   UNL     1       0.580  -0.892  -2.341  1.00  0.00    -0.492 OA
BRANCH  25  26
ATOM     26  C   UNL     1      -0.299  -1.896  -1.894  1.00  0.00     0.238 CG0
ATOM     27  G   UNL     1      -1.340  -1.482  -0.850  1.00  0.00     0.000 G0
ENDBRANCH  25  26
ENDBRANCH  18  25
BRANCH  19  28
ATOM     28  O   UNL     1       3.895   2.474   0.450  1.00  0.00    -0.506 OA
ATOM     29  H   UNL     1       4.511   2.869  -0.189  1.00  0.00     0.293 HD
ENDBRANCH  19  28
ENDBRANCH  11  16
BRANCH  14  30
ATOM     30  O   UNL     1       1.015  -2.785   4.120  1.00  0.00    -0.505 OA
ATOM     31  H   UNL     1       1.924  -2.445   4.157  1.00  0.00     0.293 HD
ENDBRANCH  14  30
ENDBRANCH   7   9
ENDBRANCH   1   7
TORSDOF 7
