REMARK SMILES NCCCCCC[C@H]1COc2ccc(O)c(N)c2-c2cc(O)ccc21
REMARK SMILES IDX 6 1 5 2 4 3 3 4 2 5 1 6 7 9 8 10 25 12 24 13 19 14 23 15
REMARK SMILES IDX 20 16 21 17 18 18 16 19 11 20 14 21 12 22 13 23 17 24 10 27
REMARK SMILES IDX 9 28 15 30 22 32
REMARK H PARENT 1 7 1 8 17 25 17 26 15 31 22 33
REMARK Flexibility Score:  164.900
ROOT
ATOM      1  C   UNL     1       1.769  -0.203   0.119  1.00  0.00     0.001 C 
ENDROOT
BRANCH   1   2
ATOM      2  C   UNL     1       2.257  -1.213  -0.923  1.00  0.00     0.000 C 
BRANCH   2   3
ATOM      3  C   UNL     1       3.119  -2.300  -0.279  1.00  0.00     0.001 C 
BRANCH   3   4
ATOM      4  C   UNL     1       3.536  -3.406  -1.255  1.00  0.00     0.015 C 
BRANCH   4   5
ATOM      5  C   UNL     1       4.367  -2.954  -2.458  1.00  0.00     0.077 C 
BRANCH   5   6
ATOM      6  N   UNL     1       5.629  -2.331  -2.079  1.00  0.00    -0.330 NA
ATOM      7  H   UNL     1       6.139  -2.949  -1.448  1.00  0.00     0.118 HD
ATOM      8  H   UNL     1       5.449  -1.478  -1.552  1.00  0.00     0.118 HD
ENDBRANCH   5   6
ENDBRANCH   4   5
ENDBRANCH   3   4
ENDBRANCH   2   3
ENDBRANCH   1   2
BRANCH   1   9
ATOM      9  C   UNL     1       0.902   0.886  -0.527  1.00  0.00     0.012 C 
BRANCH   9  10
ATOM     10  C   UNL     1       0.452   1.955   0.484  1.00  0.00     0.057 CG0
ATOM     11  G   UNL     1      -0.195   3.205  -0.133  1.00  0.00     0.000 G0
BRANCH  10  12
ATOM     12  C   UNL     1      -0.501   1.474   1.559  1.00  0.00    -0.033 A 
ATOM     13  C   UNL     1      -0.017   1.406   2.885  1.00  0.00     0.008 A 
ATOM     14  C   UNL     1      -1.865   1.245   1.286  1.00  0.00    -0.005 A 
ATOM     15  C   UNL     1      -0.877   1.172   3.951  1.00  0.00     0.046 A 
ATOM     16  C   UNL     1      -2.720   1.082   2.401  1.00  0.00     0.055 A 
ATOM     17  C   UNL     1      -2.229   1.033   3.704  1.00  0.00     0.116 A 
BRANCH  14  18
ATOM     18  C   UNL     1      -2.431   1.167  -0.096  1.00  0.00     0.051 A 
ATOM     19  C   UNL     1      -3.355   0.123  -0.429  1.00  0.00     0.086 A 
ATOM     20  C   UNL     1      -2.091   2.052  -1.144  1.00  0.00     0.129 A 
ATOM     21  C   UNL     1      -4.027   0.118  -1.670  1.00  0.00     0.139 A 
ATOM     22  C   UNL     1      -2.762   1.996  -2.385  1.00  0.00     0.051 A 
ATOM     23  C   UNL     1      -3.744   1.052  -2.647  1.00  0.00     0.052 A 
BRANCH  19  24
ATOM     24  N   UNL     1      -3.746  -0.879   0.506  1.00  0.00    -0.395 N 
ATOM     25  H   UNL     1      -2.958  -1.212   1.054  1.00  0.00     0.156 HD
ATOM     26  H   UNL     1      -4.228  -1.632   0.012  1.00  0.00     0.156 HD
ENDBRANCH  19  24
BRANCH  20  27
ATOM     27  O   UNL     1      -1.111   3.000  -1.195  1.00  0.00    -0.492 OA
BRANCH  27  28
ATOM     28  C   UNL     1      -0.195   3.205  -0.133  1.00  0.00     0.238 CG0
ATOM     29  G   UNL     1       0.452   1.955   0.484  1.00  0.00     0.000 G0
ENDBRANCH  27  28
ENDBRANCH  20  27
BRANCH  21  30
ATOM     30  O   UNL     1      -4.944  -0.877  -1.904  1.00  0.00    -0.506 OA
ATOM     31  H   UNL     1      -5.384  -0.694  -2.750  1.00  0.00     0.293 HD
ENDBRANCH  21  30
ENDBRANCH  14  18
BRANCH  17  32
ATOM     32  O   UNL     1      -3.059   0.841   4.768  1.00  0.00    -0.508 OA
ATOM     33  H   UNL     1      -3.966   0.742   4.433  1.00  0.00     0.293 HD
ENDBRANCH  17  32
ENDBRANCH  10  12
ENDBRANCH   9  10
ENDBRANCH   1   9
TORSDOF 10
