REMARK SMILES CCOc1ccccc1-c1cc(NC(=O)[C@H]2CC[C@@H](N)C2)ccc1OCC
REMARK SMILES IDX 10 1 11 2 12 3 22 4 23 5 24 6 9 7 4 8 5 9 6 10 8 11 7 12
REMARK SMILES IDX 3 13 2 14 1 15 25 16 26 17 27 18 13 19 14 20 15 22 16 23
REMARK SMILES IDX 17 24 21 25 18 26 19 27 20 28
REMARK H PARENT 13 21 20 29 20 30
ROOT
ATOM      1  C   UNL     1      -1.616  -0.775  -0.124  1.00  0.00     0.030 A 
ATOM      2  C   UNL     1      -0.326  -0.367  -0.520  1.00  0.00     0.038 A 
ATOM      3  C   UNL     1       0.618   0.093   0.404  1.00  0.00     0.042 A 
ATOM      4  C   UNL     1       0.269   0.131   1.751  1.00  0.00     0.030 A 
ATOM      5  C   UNL     1      -1.004  -0.277   2.169  1.00  0.00     0.049 A 
ATOM      6  C   UNL     1      -1.952  -0.724   1.244  1.00  0.00     0.127 A 
ENDROOT
BRANCH   1   7
ATOM      7  C   UNL     1      -2.575  -1.221  -1.155  1.00  0.00     0.028 A 
ATOM      8  C   UNL     1      -3.084  -0.343  -2.132  1.00  0.00     0.127 A 
ATOM      9  C   UNL     1      -3.961  -0.787  -3.124  1.00  0.00     0.047 A 
ATOM     10  C   UNL     1      -4.377  -2.117  -3.137  1.00  0.00     0.004 A 
ATOM     11  C   UNL     1      -3.008  -2.557  -1.191  1.00  0.00     0.013 A 
ATOM     12  C   UNL     1      -3.904  -3.001  -2.169  1.00  0.00     0.001 A 
BRANCH   8  13
ATOM     13  O   UNL     1      -2.684   0.970  -2.176  1.00  0.00    -0.493 OA
BRANCH  13  14
ATOM     14  C   UNL     1      -3.539   1.774  -1.354  1.00  0.00     0.226 C 
ATOM     15  C   UNL     1      -2.796   3.052  -1.013  1.00  0.00     0.049 C 
ENDBRANCH  13  14
ENDBRANCH   8  13
ENDBRANCH   1   7
BRANCH   6  16
ATOM     16  O   UNL     1      -3.227  -1.113   1.569  1.00  0.00    -0.493 OA
BRANCH  16  17
ATOM     17  C   UNL     1      -3.614  -1.061   2.940  1.00  0.00     0.226 C 
ATOM     18  C   UNL     1      -5.057  -1.522   3.033  1.00  0.00     0.049 C 
ENDBRANCH  16  17
ENDBRANCH   6  16
BRANCH   3  19
ATOM     19  N   UNL     1       1.871   0.492  -0.101  1.00  0.00    -0.326 N 
ATOM     20  C   UNL     1       2.939   1.025   0.605  1.00  0.00     0.227 C 
ATOM     21  H   UNL     1       1.988   0.403  -1.103  1.00  0.00     0.169 HD
ATOM     22  O   UNL     1       2.974   1.247   1.811  1.00  0.00    -0.274 OA
BRANCH  20  23
ATOM     23  C   UNL     1       4.135   1.303  -0.306  1.00  0.00     0.080 C 
ATOM     24  C   UNL     1       5.244   2.113   0.386  1.00  0.00     0.015 C 
ATOM     25  C   UNL     1       4.788  -0.025  -0.737  1.00  0.00     0.032 C 
ATOM     26  C   UNL     1       6.308   1.085   0.753  1.00  0.00     0.019 C 
ATOM     27  C   UNL     1       6.281   0.147  -0.448  1.00  0.00     0.051 C 
BRANCH  27  28
ATOM     28  N   UNL     1       6.956  -1.117  -0.213  1.00  0.00    -0.328 NA
ATOM     29  H   UNL     1       6.500  -1.620   0.549  1.00  0.00     0.119 HD
ATOM     30  H   UNL     1       7.908  -0.944   0.106  1.00  0.00     0.119 HD
ENDBRANCH  27  28
ENDBRANCH  20  23
ENDBRANCH   3  19
TORSDOF 8
