MODEL        4USER    Run = 4USERUSER    Estimated Free Energy of Binding    =  -8.05 kcal/mol  [=(1)+(2)+(3)-(4)]USERUSER    (1) Final Intermolecular Energy     = -10.73 kcal/molUSER        vdW + Hbond + desolv Energy     = -10.42 kcal/molUSER        Electrostatic Energy            =  -0.40 kcal/molUSER        Moving Ligand-Fixed Receptor    = -10.82 kcal/molUSER        Moving Ligand-Moving Receptor   =  +0.09 kcal/molUSER    (2) Final Total Internal Energy     =  -1.07 kcal/molUSER    (3) Torsional Free Energy           =  +2.68 kcal/molUSER    (4) Unbound System's Energy         =  -1.07 kcal/molUSERUSERREMARK SMILES C[C@H]1CC(C(=O)Nc2cc(-c3ccncc3)[nH]n2)=CC=Cc2ccccc21REMARK SMILES IDX 3 1 2 2 1 3 27 4 26 5 22 6 25 7 23 8 24 9 21 10 20 11 4 13REMARK SMILES IDX 5 14 7 15 6 16 8 18 9 19 18 20 10 21 17 22 11 24 12 25 16 26REMARK SMILES IDX 13 27 15 28 14 29 19 30REMARK H PARENT 7 17 17 23REMARK Flexibility Score:  119.900USER                              x       y       z     vdW  Elec       q    TypeUSER                           _______ _______ _______ _____ _____    ______ ____ROOTATOM      1  C   UNL     1      25.005  42.773  15.398 -0.36 -0.01    +0.049 C  ENDROOTBRANCH   1   2ATOM      2  C   UNL     1      26.004  41.715  15.925 -0.34 -0.00    +0.021 C  ATOM      3  C   UNL     1      26.333  40.761  14.753 -0.42 -0.00    +0.013 C  BRANCH   2   4ATOM      4  C   UNL     1      25.677  40.996  17.250 -0.25 +0.00    -0.038 A  ATOM      5  C   UNL     1      25.565  39.581  17.225 -0.36 +0.00    +0.004 A  ATOM      6  C   UNL     1      25.560  41.617  18.519 -0.27 +0.00    -0.022 A  ATOM      7  C   UNL     1      25.313  38.819  18.368 -0.36 -0.00    +0.000 A  ATOM      8  C   UNL     1      25.308  40.825  19.665 -0.31 -0.00    +0.008 A  ATOM      9  C   UNL     1      25.178  39.443  19.593 -0.30 -0.00    +0.001 A  BRANCH   6  10ATOM     10  C   UNL     1      25.684  43.050  18.849 -0.47 -0.00    +0.008 C  BRANCH  10  11ATOM     11  C   UNL     1      25.227  44.079  18.120 -0.43 -0.00    +0.001 CG0ATOM     12  G   UNL     1      25.837  44.565  16.904 +0.00 +0.00    +0.000 G0 ENDBRANCH  10  11ENDBRANCH   6  10ENDBRANCH   2   4ENDBRANCH   1   2BRANCH   1  13ATOM     13  C   UNL     1      25.383  44.208  15.685 -0.39 -0.00    +0.018 C  BRANCH  13  14ATOM     14  C   UNL     1      25.284  45.312  14.672 -0.22 +0.00    +0.252 C  ATOM     15  N   UNL     1      26.092  45.166  13.576 -0.14 +0.15    -0.305 N  ATOM     16  O   UNL     1      24.522  46.258  14.859 -0.88 -0.09    -0.269 OA ATOM     17  H   UNL     1      26.743  44.406  13.479 -0.40 -0.27    +0.171 HD BRANCH  15  18ATOM     18  C   UNL     1      26.146  46.027  12.505 -0.25 -0.05    +0.155 A  ATOM     19  C   UNL     1      25.924  47.418  12.443 -0.28 -0.02    +0.077 A  ATOM     20  N   UNL     1      26.442  45.529  11.304 -0.66 -0.00    -0.157 NA ATOM     21  C   UNL     1      26.108  47.778  11.121 -0.35 -0.04    +0.067 A  ATOM     22  N   UNL     1      26.402  46.596  10.491 -0.19 +0.14    -0.276 N  ATOM     23  H   UNL     1      26.574  46.449   9.503 -0.46 -0.18    +0.190 HD BRANCH  21  24ATOM     24  C   UNL     1      26.003  49.069  10.445 -0.37 -0.00    +0.003 A  ATOM     25  C   UNL     1      26.473  49.253   9.141 -0.38 -0.03    +0.030 A  ATOM     26  C   UNL     1      25.432  50.163  11.100 -0.29 -0.01    +0.030 A  ATOM     27  C   UNL     1      26.344  50.504   8.557 -0.30 -0.10    +0.111 A  ATOM     28  C   UNL     1      25.345  51.374  10.430 -0.33 -0.05    +0.111 A  ATOM     29  N   UNL     1      25.785  51.567   9.170 -0.20 +0.17    -0.265 NA ENDBRANCH  21  24ENDBRANCH  15  18ENDBRANCH  13  14BRANCH  13  30ATOM     30  C   UNL     1      25.837  44.565  16.903 -0.45 +0.00    +0.009 CG0ATOM     31  G   UNL     1      25.227  44.080  18.120 +0.00 +0.00    +0.000 G0 ENDBRANCH  13  30ENDBRANCH   1  13TORSDOF 3TERENDMDL