MODEL        8USER    Run = 8USERUSER    Estimated Free Energy of Binding    =  -9.93 kcal/mol  [=(1)+(2)+(3)-(4)]USERUSER    (1) Final Intermolecular Energy     = -11.72 kcal/molUSER        vdW + Hbond + desolv Energy     = -11.44 kcal/molUSER        Electrostatic Energy            =  -0.28 kcal/molUSER        Moving Ligand-Fixed Receptor    = -11.72 kcal/molUSER        Moving Ligand-Moving Receptor   =  +0.00 kcal/molUSER    (2) Final Total Internal Energy     =  -2.08 kcal/molUSER    (3) Torsional Free Energy           =  +1.79 kcal/molUSER    (4) Unbound System's Energy         =  -2.08 kcal/molUSERUSERREMARK SMILES C[C@@H]1CN(CC2=C(c3ccccc3)c3ccccc3C2=O)CCN1CCOREMARK SMILES IDX 1 1 2 2 3 3 4 4 22 5 23 6 24 7 25 8 26 9 27 10 5 12 6 13REMARK SMILES IDX 7 14 20 15 14 16 19 17 15 18 18 19 16 20 17 21 21 22 8 23REMARK SMILES IDX 9 24 13 25 10 26 12 27 11 28REMARK H PARENT 27 11USER                              x       y       z     vdW  Elec       q    TypeUSER                           _______ _______ _______ _____ _____    ______ ____ROOTATOM      1  C   UNL     1      34.505  45.875  14.610 -0.37 -0.02    +0.026 C  ATOM      2  C   UNL     1      34.076  45.617  16.061 -0.22 -0.07    +0.067 C  ATOM      3  C   UNL     1      35.292  45.652  17.050 -0.34 -0.07    +0.103 C  ATOM      4  N   UNL     1      36.091  44.421  17.221 -0.11 +0.11    -0.296 NA ATOM      5  C   UNL     1      35.187  43.266  17.340 -0.35 -0.03    +0.100 C  ATOM      6  C   UNL     1      34.089  43.186  16.261 -0.35 -0.05    +0.100 C  ATOM      7  N   UNL     1      33.251  44.398  16.252 -0.13 +0.16    -0.296 NA ENDROOTBRANCH   7   8ATOM      8  C   UNL     1      32.117  44.247  15.328 -0.33 -0.06    +0.113 C  BRANCH   8   9ATOM      9  C   UNL     1      30.848  44.990  15.764 -0.31 -0.07    +0.171 C  BRANCH   9  10ATOM     10  O   UNL     1      31.162  46.356  16.030 -0.53 +0.15    -0.395 OA ATOM     11  H   UNL     1      32.131  46.417  16.074 -0.33 -0.26    +0.210 HD ENDBRANCH   9  10ENDBRANCH   8   9ENDBRANCH   7   8BRANCH   4  12ATOM     12  C   UNL     1      37.123  44.218  16.197 -0.32 -0.04    +0.125 C  BRANCH  12  13ATOM     13  C   UNL     1      38.136  45.316  16.167 -0.37 -0.01    +0.023 C  ATOM     14  C   UNL     1      38.366  46.280  15.245 -0.46 +0.00    -0.002 C  ATOM     15  C   UNL     1      39.017  45.571  17.334 -0.32 -0.04    +0.191 C  ATOM     16  C   UNL     1      39.428  47.157  15.747 -0.48 +0.00    -0.006 A  ATOM     17  C   UNL     1      39.824  46.735  17.006 -0.46 -0.01    +0.030 A  ATOM     18  C   UNL     1      40.041  48.258  15.170 -0.56 -0.00    +0.009 A  ATOM     19  C   UNL     1      40.807  47.364  17.747 -0.51 -0.00    +0.013 A  ATOM     20  C   UNL     1      41.044  48.918  15.891 -0.62 -0.00    +0.001 A  ATOM     21  C   UNL     1      41.424  48.475  17.172 -0.44 -0.00    +0.001 A  ATOM     22  O   UNL     1      39.056  44.952  18.377 -0.26 +0.03    -0.289 OA BRANCH  14  23ATOM     23  C   UNL     1      37.619  46.404  13.988 -0.44 +0.01    -0.017 A  ATOM     24  C   UNL     1      37.385  45.270  13.199 -0.43 -0.00    +0.009 A  ATOM     25  C   UNL     1      37.124  47.642  13.565 -0.57 -0.00    +0.009 A  ATOM     26  C   UNL     1      36.671  45.376  12.003 -0.58 -0.00    +0.001 A  ATOM     27  C   UNL     1      36.411  47.748  12.369 -0.68 -0.00    +0.001 A  ATOM     28  C   UNL     1      36.185  46.615  11.589 -0.59 -0.00    +0.000 A  ENDBRANCH  14  23ENDBRANCH  12  13ENDBRANCH   4  12TORSDOF 6TERENDMDL