MODEL        4USER    Run = 4USERUSER    Estimated Free Energy of Binding    = -10.20 kcal/mol  [=(1)+(2)+(3)-(4)]USERUSER    (1) Final Intermolecular Energy     = -11.69 kcal/molUSER        vdW + Hbond + desolv Energy     = -11.62 kcal/molUSER        Electrostatic Energy            =  -0.08 kcal/molUSER        Moving Ligand-Fixed Receptor    = -11.69 kcal/molUSER        Moving Ligand-Moving Receptor   =  +0.00 kcal/molUSER    (2) Final Total Internal Energy     =  -0.99 kcal/molUSER    (3) Torsional Free Energy           =  +1.49 kcal/molUSER    (4) Unbound System's Energy         =  -0.99 kcal/molUSERUSERREMARK SMILES CNC(=O)c1ccc(Nc2nc3c(s2)CCC[C@H]3C(=O)N2CCOCC2)cc1SCREMARK SMILES IDX 9 1 8 3 5 4 6 5 28 6 7 7 27 8 3 9 2 10 1 11 4 13 29 14 30 15REMARK SMILES IDX 10 16 11 17 14 18 12 19 13 20 18 21 15 22 17 23 16 24 19 25REMARK SMILES IDX 21 26 22 27 26 28 23 29 25 30 24 31 20 32REMARK H PARENT 9 2 2 12USER                              x       y       z     vdW  Elec       q    TypeUSER                           _______ _______ _______ _____ _____    ______ ____ROOTATOM      1  N   UNL     1      37.803  44.831  15.776 -0.12 +0.10    -0.332 N  ATOM      2  H   UNL     1      38.231  43.975  15.446 +0.13 -0.04    +0.169 HD ENDROOTBRANCH   1   3ATOM      3  C   UNL     1      38.627  45.967  15.672 -0.35 -0.01    +0.041 A  ATOM      4  C   UNL     1      40.380  48.177  15.571 -0.52 -0.01    +0.053 A  ATOM      5  C   UNL     1      39.472  47.947  14.533 -0.49 -0.00    +0.017 A  ATOM      6  C   UNL     1      40.446  47.301  16.660 -0.50 -0.00    +0.022 A  ATOM      7  C   UNL     1      38.615  46.844  14.582 -0.43 -0.01    +0.027 A  ATOM      8  C   UNL     1      39.564  46.207  16.696 -0.41 -0.01    +0.042 A  BRANCH   4   9ATOM      9  C   UNL     1      41.242  49.370  15.462 -0.48 -0.03    +0.252 C  ATOM     10  N   UNL     1      41.783  49.566  14.209 -0.36 +0.05    -0.355 N  ATOM     11  C   UNL     1      42.542  50.752  13.909 -0.58 -0.04    +0.143 C  ATOM     12  H   UNL     1      41.409  49.027  13.437 +0.14 -0.02    +0.163 HD ATOM     13  O   UNL     1      41.451  50.078  16.440 -1.02 +0.02    -0.269 OA ENDBRANCH   4   9BRANCH   6  14ATOM     14  S   UNL     1      41.540  47.526  18.057 -0.62 +0.01    -0.129 SA ATOM     15  C   UNL     1      41.048  46.079  19.032 -0.47 +0.00    +0.091 C  ENDBRANCH   6  14ENDBRANCH   1   3BRANCH   1  16ATOM     16  C   UNL     1      36.621  44.691  16.422 -0.22 -0.07    +0.187 A  ATOM     17  N   UNL     1      36.419  44.648  17.723 -0.18 +0.07    -0.224 NA ATOM     18  S   UNL     1      35.168  44.595  15.474 -0.39 +0.05    -0.102 S  ATOM     19  C   UNL     1      35.077  44.470  17.997 -0.28 -0.02    +0.069 A  ATOM     20  C   UNL     1      34.252  44.441  16.895 -0.29 -0.02    +0.031 A  ATOM     21  C   UNL     1      34.576  44.369  19.405 -0.37 -0.03    +0.129 C  ATOM     22  C   UNL     1      32.766  44.336  16.928 -0.34 -0.02    +0.049 C  ATOM     23  C   UNL     1      33.051  44.632  19.462 -0.42 -0.00    +0.020 C  ATOM     24  C   UNL     1      32.282  43.922  18.329 -0.38 -0.00    +0.007 C  BRANCH  21  25ATOM     25  C   UNL     1      34.881  42.988  20.006 -0.31 -0.00    +0.231 C  ATOM     26  N   UNL     1      35.951  42.885  20.890 -0.22 -0.01    -0.337 N  ATOM     27  C   UNL     1      36.954  43.924  21.145 -0.36 +0.00    +0.148 C  ATOM     28  C   UNL     1      36.168  41.624  21.602 -0.50 +0.00    +0.148 C  ATOM     29  C   UNL     1      38.213  43.350  21.804 -0.25 +0.01    +0.181 C  ATOM     30  C   UNL     1      36.731  41.884  23.002 -0.42 +0.01    +0.181 C  ATOM     31  O   UNL     1      37.941  42.656  23.025 -0.17 -0.03    -0.378 OA ATOM     32  O   UNL     1      34.152  42.016  19.785 -0.44 -0.02    -0.274 OA ENDBRANCH  21  25ENDBRANCH   1  16TORSDOF 5TERENDMDL