REMARK SMILES C[C@@H](O)NC[C@H]1C(=O)N[C@H](c2c(F)cccc2F)N1C(=O)CN1CCC(c2ccc(O)c3c2CCC3)CC1
REMARK SMILES IDX 6 1 7 2 8 3 9 4 10 5 19 6 5 8 4 9 2 11 1 12 3 13 20 15 21 16
REMARK SMILES IDX 22 17 23 18 24 19 38 20 25 21 37 22 26 23 27 24 28 25 33 26
REMARK SMILES IDX 29 27 32 28 34 29 30 30 36 31 35 32 31 33 11 35 12 36 17 37
REMARK SMILES IDX 14 38 16 39 15 40 13 41 18 42
REMARK H PARENT 9 7 4 10 3 14 31 34
ROOT
ATOM      1  C   UNL     1      -4.399   0.747   0.280  1.00  0.00     0.190 C 
ATOM      2  C   UNL     1      -5.550   0.543  -0.702  1.00  0.00     0.246 C 
ATOM      3  O   UNL     1      -6.665   1.037  -0.658  1.00  0.00    -0.273 OA
ATOM      4  N   UNL     1      -5.134  -0.287  -1.717  1.00  0.00    -0.330 N 
ATOM      5  C   UNL     1      -3.841  -0.824  -1.480  1.00  0.00     0.219 C 
ATOM      6  N   UNL     1      -3.367  -0.125  -0.306  1.00  0.00    -0.303 N 
ATOM      7  H   UNL     1      -5.768  -0.574  -2.448  1.00  0.00     0.166 HD
ENDROOT
BRANCH   1   8
ATOM      8  C   UNL     1      -4.010   2.239   0.310  1.00  0.00     0.118 C 
BRANCH   8   9
ATOM      9  N   UNL     1      -4.753   2.960   1.358  1.00  0.00    -0.290 NA
ATOM     10  H   UNL     1      -4.320   2.739   2.256  1.00  0.00     0.125 HD
BRANCH   9  11
ATOM     11  C   UNL     1      -4.766   4.400   1.190  1.00  0.00     0.179 C 
ATOM     12  C   UNL     1      -3.399   5.062   1.091  1.00  0.00     0.056 C 
BRANCH  11  13
ATOM     13  O   UNL     1      -5.529   4.704   0.043  1.00  0.00    -0.379 OA
ATOM     14  H   UNL     1      -6.191   3.989   0.024  1.00  0.00     0.212 HD
ENDBRANCH  11  13
ENDBRANCH   9  11
ENDBRANCH   8   9
ENDBRANCH   1   8
BRANCH   6  15
ATOM     15  C   UNL     1      -2.144  -0.276   0.323  1.00  0.00     0.239 C 
ATOM     16  O   UNL     1      -1.950   0.249   1.422  1.00  0.00    -0.273 OA
BRANCH  15  17
ATOM     17  C   UNL     1      -1.079  -1.147  -0.385  1.00  0.00     0.185 C 
BRANCH  17  18
ATOM     18  N   UNL     1       0.310  -0.701  -0.135  1.00  0.00    -0.294 NA
ATOM     19  C   UNL     1       0.700  -0.865   1.281  1.00  0.00     0.085 C 
ATOM     20  C   UNL     1       1.244  -1.382  -1.036  1.00  0.00     0.085 C 
ATOM     21  C   UNL     1       2.188  -1.179   1.495  1.00  0.00     0.024 C 
ATOM     22  C   UNL     1       2.646  -0.767  -0.944  1.00  0.00     0.024 C 
ATOM     23  C   UNL     1       3.047  -0.394   0.496  1.00  0.00     0.022 C 
BRANCH  23  24
ATOM     24  C   UNL     1       4.548  -0.517   0.691  1.00  0.00    -0.041 A 
ATOM     25  C   UNL     1       5.146  -1.701   1.159  1.00  0.00     0.008 A 
ATOM     26  C   UNL     1       5.408   0.537   0.364  1.00  0.00    -0.038 A 
ATOM     27  C   UNL     1       6.539  -1.816   1.292  1.00  0.00     0.047 A 
ATOM     28  C   UNL     1       6.804   0.419   0.492  1.00  0.00    -0.003 A 
ATOM     29  C   UNL     1       5.055   1.880  -0.210  1.00  0.00     0.036 C 
ATOM     30  C   UNL     1       7.369  -0.756   0.950  1.00  0.00     0.119 A 
ATOM     31  C   UNL     1       7.487   1.666   0.020  1.00  0.00     0.040 C 
ATOM     32  C   UNL     1       6.338   2.676   0.053  1.00  0.00     0.010 C 
BRANCH  30  33
ATOM     33  O   UNL     1       8.711  -0.934   1.077  1.00  0.00    -0.508 OA
ATOM     34  H   UNL     1       9.157  -0.124   0.784  1.00  0.00     0.293 HD
ENDBRANCH  30  33
ENDBRANCH  23  24
ENDBRANCH  17  18
ENDBRANCH  15  17
ENDBRANCH   6  15
BRANCH   5  35
ATOM     35  C   UNL     1      -3.911  -2.320  -1.344  1.00  0.00     0.066 A 
ATOM     36  C   UNL     1      -4.507  -2.956  -0.251  1.00  0.00     0.133 A 
ATOM     37  C   UNL     1      -3.391  -3.136  -2.352  1.00  0.00     0.133 A 
ATOM     38  C   UNL     1      -4.568  -4.347  -0.157  1.00  0.00     0.040 A 
ATOM     39  C   UNL     1      -3.443  -4.527  -2.276  1.00  0.00     0.040 A 
ATOM     40  C   UNL     1      -4.033  -5.137  -1.172  1.00  0.00     0.006 A 
ATOM     41  F   UNL     1      -5.037  -2.234   0.744  1.00  0.00    -0.206 F 
ATOM     42  F   UNL     1      -2.812  -2.578  -3.424  1.00  0.00    -0.206 F 
ENDBRANCH   5  35
TORSDOF 10
