MODEL        1USER    Run = 1USERUSER    Estimated Free Energy of Binding    = -10.15 kcal/mol  [=(1)+(2)+(3)-(4)]USERUSER    (1) Final Intermolecular Energy     = -13.13 kcal/molUSER        vdW + Hbond + desolv Energy     = -13.05 kcal/molUSER        Electrostatic Energy            =  -0.08 kcal/molUSER        Moving Ligand-Fixed Receptor    = -13.13 kcal/molUSER        Moving Ligand-Moving Receptor   =  +0.00 kcal/molUSER    (2) Final Total Internal Energy     =  -2.74 kcal/molUSER    (3) Torsional Free Energy           =  +2.98 kcal/molUSER    (4) Unbound System's Energy         =  -2.74 kcal/molUSERUSERREMARK SMILES C[C@@H](O)NC[C@H]1C(=O)N[C@H](c2c(F)cccc2F)N1C(=O)CN1CCC(c2ccc(O)c3c2CCC3)CC1REMARK SMILES IDX 6 1 7 2 8 3 9 4 10 5 19 6 5 8 4 9 2 11 1 12 3 13 20 15 21 16REMARK SMILES IDX 22 17 23 18 24 19 38 20 25 21 37 22 26 23 27 24 28 25 33 26REMARK SMILES IDX 29 27 32 28 34 29 30 30 36 31 35 32 31 33 11 35 12 36 17 37REMARK SMILES IDX 14 38 16 39 15 40 13 41 18 42REMARK H PARENT 9 7 4 10 3 14 31 34USER                              x       y       z     vdW  Elec       q    TypeUSER                           _______ _______ _______ _____ _____    ______ ____ROOTATOM      1  C   UNL     1      40.636  45.420  23.691 -0.12 +0.01    +0.190 C  ATOM      2  C   UNL     1      39.323  46.033  24.171 -0.17 +0.02    +0.246 C  ATOM      3  O   UNL     1      39.089  46.543  25.255 -0.13 -0.02    -0.273 OA ATOM      4  N   UNL     1      38.397  45.965  23.156 -0.17 -0.04    -0.330 N  ATOM      5  C   UNL     1      38.871  45.223  22.042 -0.26 +0.01    +0.219 C  ATOM      6  N   UNL     1      40.262  44.967  22.341 -0.09 -0.02    -0.303 N  ATOM      7  H   UNL     1      37.450  46.287  23.292 +0.14 +0.06    +0.166 HD ENDROOTBRANCH   1   8ATOM      8  C   UNL     1      41.739  46.498  23.704 -0.16 +0.01    +0.118 C  BRANCH   8   9ATOM      9  N   UNL     1      41.160  47.850  23.628 -0.16 -0.04    -0.290 NA ATOM     10  H   UNL     1      40.507  47.954  24.406 +0.05 +0.01    +0.125 HD BRANCH   9  11ATOM     11  C   UNL     1      42.139  48.918  23.697 -0.34 +0.05    +0.179 C  ATOM     12  C   UNL     1      42.686  49.218  25.085 -0.36 +0.01    +0.056 C  BRANCH  11  13ATOM     13  O   UNL     1      43.200  48.601  22.822 -0.70 -0.09    -0.379 OA ATOM     14  H   UNL     1      43.100  49.259  22.110 -0.38 +0.03    +0.212 HD ENDBRANCH  11  13ENDBRANCH   9  11ENDBRANCH   8   9ENDBRANCH   1   8BRANCH   6  15ATOM     15  C   UNL     1      41.178  44.289  21.556 -0.22 +0.02    +0.239 C  ATOM     16  O   UNL     1      41.432  43.106  21.793 -0.28 -0.01    -0.273 OA BRANCH  15  17ATOM     17  C   UNL     1      41.815  45.059  20.375 -0.24 +0.03    +0.185 C  BRANCH  17  18ATOM     18  N   UNL     1      40.822  45.686  19.474 -0.23 -0.01    -0.294 NA ATOM     19  C   UNL     1      41.311  46.962  18.910 -0.43 -0.00    +0.085 C  ATOM     20  C   UNL     1      40.411  44.752  18.423 -0.41 -0.00    +0.085 C  ATOM     21  C   UNL     1      40.792  47.269  17.498 -0.57 -0.00    +0.024 C  ATOM     22  C   UNL     1      39.224  45.306  17.626 -0.42 -0.00    +0.024 C  ATOM     23  C   UNL     1      39.332  46.819  17.357 -0.48 -0.01    +0.022 C  BRANCH  23  24ATOM     24  C   UNL     1      38.661  47.188  16.046 -0.41 +0.02    -0.041 A  ATOM     25  C   UNL     1      39.300  47.982  15.077 -0.53 -0.00    +0.008 A  ATOM     26  C   UNL     1      37.386  46.707  15.726 -0.37 +0.02    -0.038 A  ATOM     27  C   UNL     1      38.685  48.278  13.850 -0.39 -0.02    +0.047 A  ATOM     28  C   UNL     1      36.773  46.999  14.494 -0.44 +0.00    -0.003 A  ATOM     29  C   UNL     1      36.507  45.797  16.536 -0.39 -0.02    +0.036 C  ATOM     30  C   UNL     1      37.423  47.779  13.556 -0.46 -0.05    +0.119 A  ATOM     31  C   UNL     1      35.445  46.315  14.387 -0.45 -0.03    +0.040 C  ATOM     32  C   UNL     1      35.149  45.991  15.853 -0.37 -0.01    +0.010 C  BRANCH  30  33ATOM     33  O   UNL     1      36.888  48.079  12.342 -0.85 +0.12    -0.508 OA ATOM     34  H   UNL     1      35.924  47.990  12.401 +0.20 -0.16    +0.293 HD ENDBRANCH  30  33ENDBRANCH  23  24ENDBRANCH  17  18ENDBRANCH  15  17ENDBRANCH   6  15BRANCH   5  35ATOM     35  C   UNL     1      38.029  43.995  21.833 -0.32 +0.00    +0.066 A  ATOM     36  C   UNL     1      37.972  42.947  22.757 -0.28 +0.01    +0.133 A  ATOM     37  C   UNL     1      37.235  43.880  20.689 -0.31 -0.00    +0.133 A  ATOM     38  C   UNL     1      37.173  41.824  22.543 -0.48 +0.00    +0.040 A  ATOM     39  C   UNL     1      36.430  42.766  20.457 -0.42 -0.00    +0.040 A  ATOM     40  C   UNL     1      36.399  41.731  21.388 -0.55 +0.00    +0.006 A  ATOM     41  F   UNL     1      38.697  42.999  23.882 -0.04 -0.01    -0.206 F  ATOM     42  F   UNL     1      37.249  44.858  19.772 -0.07 +0.01    -0.206 F  ENDBRANCH   5  35TORSDOF 10TERENDMDL