REMARK SMILES CO[C@@H]1CCCN(c2cc(Nc3cc(C)[nH]n3)nc(C)c2CCN2C=NOC2)C1
REMARK SMILES IDX 8 1 9 2 10 3 18 4 19 5 20 6 21 7 7 8 3 9 4 10 29 11 5 12
REMARK SMILES IDX 6 13 2 14 1 15 22 16 23 17 24 18 25 19 28 20 26 21 27 22
REMARK SMILES IDX 11 23 12 25 13 26 17 27 14 28 16 29 15 30
REMARK H PARENT 11 24 16 31
ROOT
ATOM      1  C   UNL     1       0.015   0.332  -0.491  1.00  0.00     0.046 A 
ATOM      2  C   UNL     1       1.380   0.629  -0.432  1.00  0.00     0.073 A 
ATOM      3  C   UNL     1       2.327  -0.352  -0.710  1.00  0.00     0.133 A 
ATOM      4  N   UNL     1       1.952  -1.597  -1.052  1.00  0.00    -0.236 NA
ATOM      5  C   UNL     1       0.634  -1.902  -1.124  1.00  0.00     0.045 A 
ATOM      6  C   UNL     1       0.337  -3.323  -1.506  1.00  0.00     0.067 C 
ATOM      7  C   UNL     1      -0.376  -0.966  -0.870  1.00  0.00    -0.001 A 
ENDROOT
BRANCH   1   8
ATOM      8  N   UNL     1      -0.972   1.293  -0.199  1.00  0.00    -0.369 N 
ATOM      9  C   UNL     1      -1.854   3.099   1.308  1.00  0.00     0.137 C 
ATOM     10  C   UNL     1      -3.030   2.970   0.334  1.00  0.00     0.036 C 
ATOM     11  C   UNL     1      -0.869   1.912   1.141  1.00  0.00     0.148 C 
ATOM     12  C   UNL     1      -2.567   2.880  -1.124  1.00  0.00     0.024 C 
ATOM     13  C   UNL     1      -1.181   2.252  -1.286  1.00  0.00     0.117 C 
BRANCH   9  14
ATOM     14  O   UNL     1      -2.312   3.115   2.667  1.00  0.00    -0.380 OA
ATOM     15  C   UNL     1      -2.842   4.369   3.075  1.00  0.00     0.195 C 
ENDBRANCH   9  14
ENDBRANCH   1   8
BRANCH   7  16
ATOM     16  C   UNL     1      -1.842  -1.332  -0.949  1.00  0.00     0.061 C 
BRANCH  16  17
ATOM     17  C   UNL     1      -2.429  -1.647   0.430  1.00  0.00     0.126 C 
BRANCH  17  18
ATOM     18  N   UNL     1      -3.843  -1.949   0.329  1.00  0.00    -0.325 N 
ATOM     19  C   UNL     1      -4.348  -3.129  -0.101  1.00  0.00     0.241 C 
ATOM     20  C   UNL     1      -4.737  -1.518   1.375  1.00  0.00     0.387 C 
ATOM     21  N   UNL     1      -5.500  -3.473   0.379  1.00  0.00    -0.075 NA
ATOM     22  O   UNL     1      -5.859  -2.422   1.291  1.00  0.00    -0.372 OA
ENDBRANCH  17  18
ENDBRANCH  16  17
ENDBRANCH   7  16
BRANCH   3  23
ATOM     23  N   UNL     1       3.692   0.009  -0.630  1.00  0.00    -0.323 N 
ATOM     24  H   UNL     1       3.847   0.855  -1.160  1.00  0.00     0.170 HD
BRANCH  23  25
ATOM     25  C   UNL     1       4.750  -0.815  -0.454  1.00  0.00     0.153 A 
ATOM     26  C   UNL     1       6.046  -0.471  -0.916  1.00  0.00     0.071 A 
ATOM     27  N   UNL     1       4.779  -1.977   0.203  1.00  0.00    -0.158 NA
ATOM     28  C   UNL     1       6.865  -1.515  -0.545  1.00  0.00     0.034 A 
ATOM     29  N   UNL     1       6.047  -2.392   0.108  1.00  0.00    -0.281 N 
ATOM     30  C   UNL     1       8.310  -1.757  -0.737  1.00  0.00     0.066 C 
ATOM     31  H   UNL     1       6.286  -3.285   0.525  1.00  0.00     0.190 HD
ENDBRANCH  23  25
ENDBRANCH   3  23
TORSDOF 7
