REMARK SMILES CO[C@@H]1CCCN(c2cc(Nc3cc(C)[nH]n3)nc(C)c2CCNC(=O)C2CC2)C1
REMARK SMILES IDX 8 1 9 2 10 3 18 4 19 5 20 6 21 7 7 8 3 9 4 10 30 11 5 12
REMARK SMILES IDX 6 13 2 14 1 15 22 16 23 17 24 18 25 19 26 21 27 22 28 23
REMARK SMILES IDX 29 24 11 25 12 27 13 28 17 29 14 30 16 31 15 32
REMARK H PARENT 24 20 11 26 16 33
ROOT
ATOM      1  C   UNL     1      -0.655   0.513  -0.054  1.00  0.00     0.046 A 
ATOM      2  C   UNL     1      -2.036   0.363  -0.226  1.00  0.00     0.073 A 
ATOM      3  C   UNL     1      -2.667  -0.839   0.082  1.00  0.00     0.133 A 
ATOM      4  N   UNL     1      -1.968  -1.871   0.587  1.00  0.00    -0.236 NA
ATOM      5  C   UNL     1      -0.631  -1.742   0.775  1.00  0.00     0.045 A 
ATOM      6  C   UNL     1       0.043  -2.961   1.337  1.00  0.00     0.067 C 
ATOM      7  C   UNL     1       0.073  -0.567   0.478  1.00  0.00    -0.001 A 
ENDROOT
BRANCH   1   8
ATOM      8  N   UNL     1      -0.006   1.712  -0.372  1.00  0.00    -0.369 N 
ATOM      9  C   UNL     1      -0.090   3.783  -1.802  1.00  0.00     0.137 C 
ATOM     10  C   UNL     1      -1.103   4.384  -0.823  1.00  0.00     0.036 C 
ATOM     11  C   UNL     1      -0.184   2.241  -1.738  1.00  0.00     0.148 C 
ATOM     12  C   UNL     1      -1.023   3.765   0.580  1.00  0.00     0.024 C 
ATOM     13  C   UNL     1       0.051   2.689   0.726  1.00  0.00     0.117 C 
BRANCH   9  14
ATOM     14  O   UNL     1       1.193   4.333  -1.471  1.00  0.00    -0.380 OA
ATOM     15  C   UNL     1       2.254   3.882  -2.303  1.00  0.00     0.195 C 
ENDBRANCH   9  14
ENDBRANCH   1   8
BRANCH   7  16
ATOM     16  C   UNL     1       1.573  -0.472   0.662  1.00  0.00     0.061 C 
BRANCH  16  17
ATOM     17  C   UNL     1       2.328  -0.783  -0.633  1.00  0.00     0.120 C 
BRANCH  17  18
ATOM     18  N   UNL     1       3.757  -0.910  -0.411  1.00  0.00    -0.356 N 
ATOM     19  C   UNL     1       4.586   0.186  -0.368  1.00  0.00     0.223 C 
ATOM     20  H   UNL     1       4.124  -1.811  -0.152  1.00  0.00     0.163 HD
ATOM     21  O   UNL     1       4.222   1.335  -0.588  1.00  0.00    -0.275 OA
BRANCH  19  22
ATOM     22  C   UNL     1       6.013  -0.068  -0.017  1.00  0.00     0.078 C 
ATOM     23  C   UNL     1       6.740  -1.341  -0.383  1.00  0.00     0.014 C 
ATOM     24  C   UNL     1       6.412  -1.056   1.054  1.00  0.00     0.014 C 
ENDBRANCH  19  22
ENDBRANCH  17  18
ENDBRANCH  16  17
ENDBRANCH   7  16
BRANCH   3  25
ATOM     25  N   UNL     1      -4.063  -0.913  -0.095  1.00  0.00    -0.323 N 
ATOM     26  H   UNL     1      -4.368  -0.385  -0.902  1.00  0.00     0.170 HD
BRANCH  25  27
ATOM     27  C   UNL     1      -4.936  -1.877   0.263  1.00  0.00     0.153 A 
ATOM     28  C   UNL     1      -4.749  -2.866   1.255  1.00  0.00     0.071 A 
ATOM     29  N   UNL     1      -6.149  -1.974  -0.291  1.00  0.00    -0.158 NA
ATOM     30  C   UNL     1      -5.915  -3.600   1.273  1.00  0.00     0.034 A 
ATOM     31  N   UNL     1      -6.715  -3.018   0.333  1.00  0.00    -0.281 N 
ATOM     32  C   UNL     1      -6.345  -4.766   2.073  1.00  0.00     0.066 C 
ATOM     33  H   UNL     1      -7.657  -3.280   0.066  1.00  0.00     0.190 HD
ENDBRANCH  25  27
ENDBRANCH   3  25
TORSDOF 8
