MODEL        7USER    Run = 7USERUSER    Estimated Free Energy of Binding    = -11.89 kcal/mol  [=(1)+(2)+(3)-(4)]USERUSER    (1) Final Intermolecular Energy     = -14.88 kcal/molUSER        vdW + Hbond + desolv Energy     = -14.51 kcal/molUSER        Electrostatic Energy            =  -0.37 kcal/molUSER        Moving Ligand-Fixed Receptor    = -14.88 kcal/molUSER        Moving Ligand-Moving Receptor   =  +0.00 kcal/molUSER    (2) Final Total Internal Energy     =  -2.15 kcal/molUSER    (3) Torsional Free Energy           =  +2.98 kcal/molUSER    (4) Unbound System's Energy         =  -2.15 kcal/molUSERUSERREMARK SMILES Oc1ccc2nc(-c3ccc(CN4CCC(n5c(O)nc6ccccc65)CC4)cc3)c(-c3cnn(CCN4CCOCC4)c3)nc2c1REMARK SMILES IDX 8 1 9 2 10 3 11 4 29 5 30 6 7 7 2 8 3 9 47 10 4 11 46 12REMARK SMILES IDX 5 13 45 14 6 15 31 16 1 17 32 19 33 20 44 21 34 22 35 23REMARK SMILES IDX 36 24 37 25 38 26 39 27 43 28 40 29 42 30 41 31 12 32 13 33REMARK SMILES IDX 14 34 28 35 15 36 27 37 16 38 17 39 18 40 26 41 20 42 25 43REMARK SMILES IDX 21 44 24 45 22 46 23 47 19 48REMARK H PARENT 1 18 19 49USER                              x       y       z     vdW  Elec       q    TypeUSER                           _______ _______ _______ _____ _____    ______ ____ROOTATOM      1  C   UNL     1      36.249  44.810  17.925 -0.33 -0.00    +0.002 A  ATOM      2  C   UNL     1      36.215  43.740  18.834 -0.34 -0.00    +0.011 A  ATOM      3  C   UNL     1      37.266  43.519  19.732 -0.29 -0.00    +0.006 A  ATOM      4  C   UNL     1      38.390  44.353  19.738 -0.33 +0.00    -0.034 A  ATOM      5  C   UNL     1      38.444  45.409  18.822 -0.37 -0.00    +0.006 A  ATOM      6  C   UNL     1      37.390  45.631  17.929 -0.33 -0.00    +0.011 A  ENDROOTBRANCH   1   7ATOM      7  C   UNL     1      35.161  45.057  16.961 -0.25 -0.05    +0.097 A  ATOM      8  C   UNL     1      30.623  45.394  15.047 -0.36 -0.07    +0.117 A  ATOM      9  C   UNL     1      30.461  44.848  16.310 -0.26 -0.01    +0.048 A  ATOM     10  C   UNL     1      31.889  45.724  14.576 -0.41 -0.06    +0.076 A  ATOM     11  C   UNL     1      31.591  44.632  17.101 -0.15 -0.01    +0.034 A  ATOM     12  C   UNL     1      33.015  45.514  15.359 -0.23 -0.09    +0.093 A  ATOM     13  C   UNL     1      32.865  44.954  16.647 -0.26 -0.05    +0.090 A  ATOM     14  N   UNL     1      34.228  45.837  14.876 -0.21 +0.24    -0.244 NA ATOM     15  N   UNL     1      33.926  44.725  17.439 -0.15 +0.12    -0.244 NA ATOM     16  C   UNL     1      35.305  45.595  15.676 -0.27 -0.07    +0.100 A  BRANCH   8  17ATOM     17  O   UNL     1      29.559  45.626  14.227 -0.08 +0.46    -0.508 OA ATOM     18  H   UNL     1      29.518  44.923  13.558 -0.30 -0.66    +0.293 HD ENDBRANCH   8  17BRANCH  16  19ATOM     19  C   UNL     1      36.578  45.894  15.050 -0.35 -0.02    +0.040 A  ATOM     20  C   UNL     1      37.267  45.272  13.986 -0.31 -0.05    +0.145 A  ATOM     21  C   UNL     1      37.378  46.970  15.383 -0.33 -0.07    +0.119 A  ATOM     22  N   UNL     1      38.414  45.889  13.683 -0.21 +0.05    -0.181 NA ATOM     23  N   UNL     1      38.456  46.920  14.549 -0.24 +0.09    -0.271 N  BRANCH  23  24ATOM     24  C   UNL     1      39.588  47.830  14.536 -0.42 -0.04    +0.159 C  BRANCH  24  25ATOM     25  C   UNL     1      39.729  48.568  15.871 -0.52 -0.04    +0.108 C  BRANCH  25  26ATOM     26  N   UNL     1      40.198  47.696  16.969 -0.29 +0.06    -0.297 NA ATOM     27  C   UNL     1      40.542  46.339  16.480 -0.40 -0.01    +0.113 C  ATOM     28  C   UNL     1      41.403  48.280  17.604 -0.35 -0.01    +0.113 C  ATOM     29  C   UNL     1      41.126  45.464  17.601 -0.33 -0.00    +0.175 C  ATOM     30  C   UNL     1      41.958  47.364  18.705 -0.46 +0.00    +0.175 C  ATOM     31  O   UNL     1      42.288  46.071  18.183 -0.14 -0.01    -0.379 OA ENDBRANCH  25  26ENDBRANCH  24  25ENDBRANCH  23  24ENDBRANCH  16  19ENDBRANCH   1   7BRANCH   4  32ATOM     32  C   UNL     1      39.539  44.097  20.690 -0.18 +0.00    +0.120 C  BRANCH  32  33ATOM     33  N   UNL     1      39.417  44.820  21.968 -0.13 -0.01    -0.299 NA ATOM     34  C   UNL     1      38.047  45.270  22.220 -0.26 +0.01    +0.087 C  ATOM     35  C   UNL     1      40.032  44.085  23.085 -0.22 +0.00    +0.087 C  ATOM     36  C   UNL     1      37.168  44.247  22.937 -0.31 +0.01    +0.041 C  ATOM     37  C   UNL     1      39.264  44.213  24.401 -0.20 +0.00    +0.041 C  ATOM     38  C   UNL     1      37.839  43.684  24.201 -0.30 +0.01    +0.095 C  BRANCH  38  39ATOM     39  N   UNL     1      37.019  43.803  25.399 -0.17 -0.00    -0.291 N  ATOM     40  C   UNL     1      36.646  44.986  25.977 -0.09 -0.03    +0.295 A  ATOM     41  C   UNL     1      36.452  42.795  26.150 -0.36 -0.01    +0.072 A  ATOM     42  N   UNL     1      35.877  44.834  27.017 +0.03 +0.06    -0.195 NA ATOM     43  C   UNL     1      36.474  41.396  26.075 -0.18 -0.01    +0.029 A  ATOM     44  C   UNL     1      35.741  43.473  27.143 -0.42 -0.02    +0.092 A  ATOM     45  C   UNL     1      35.748  40.687  27.039 -0.46 -0.00    +0.002 A  ATOM     46  C   UNL     1      35.017  42.743  28.098 -0.46 -0.01    +0.031 A  ATOM     47  C   UNL     1      35.029  41.346  28.034 -0.48 -0.00    +0.002 A  BRANCH  40  48ATOM     48  O   UNL     1      37.017  46.178  25.554 -0.67 -0.02    -0.480 OA ATOM     49  H   UNL     1      36.180  46.674  25.628 -0.37 -0.04    +0.296 HD ENDBRANCH  40  48ENDBRANCH  38  39ENDBRANCH  32  33ENDBRANCH   4  32TORSDOF 10TERENDMDL