REMARK SMILES Oc1ccc2nc(-c3ccc(CN4CCC(n5c(O)nc6ccccc65)CC4)cc3)c(-c3cnn(CCN4CCOCC4)c3)nc2c1
REMARK SMILES IDX 8 1 9 2 10 3 11 4 29 5 30 6 7 7 2 8 3 9 47 10 4 11 46 12
REMARK SMILES IDX 5 13 45 14 6 15 31 16 1 17 32 19 33 20 44 21 34 22 35 23
REMARK SMILES IDX 36 24 37 25 38 26 39 27 43 28 40 29 42 30 41 31 12 32 13 33
REMARK SMILES IDX 14 34 28 35 15 36 27 37 16 38 17 39 18 40 26 41 20 42 25 43
REMARK SMILES IDX 21 44 24 45 22 46 23 47 19 48
REMARK H PARENT 1 18 19 49
ROOT
ATOM      1  C   UNL     1       0.485  -3.352  -0.114  1.00  0.00     0.002 A 
ATOM      2  C   UNL     1       0.165  -2.538  -1.212  1.00  0.00     0.011 A 
ATOM      3  C   UNL     1      -1.153  -2.130  -1.451  1.00  0.00     0.006 A 
ATOM      4  C   UNL     1      -2.193  -2.537  -0.607  1.00  0.00    -0.034 A 
ATOM      5  C   UNL     1      -1.888  -3.366   0.478  1.00  0.00     0.006 A 
ATOM      6  C   UNL     1      -0.570  -3.768   0.717  1.00  0.00     0.011 A 
ENDROOT
BRANCH   1   7
ATOM      7  C   UNL     1       1.863  -3.806   0.153  1.00  0.00     0.097 A 
ATOM      8  C   UNL     1       5.705  -6.799   0.957  1.00  0.00     0.117 A 
ATOM      9  C   UNL     1       4.591  -7.622   0.898  1.00  0.00     0.048 A 
ATOM     10  C   UNL     1       5.578  -5.424   0.797  1.00  0.00     0.076 A 
ATOM     11  C   UNL     1       3.339  -7.045   0.677  1.00  0.00     0.034 A 
ATOM     12  C   UNL     1       4.336  -4.846   0.575  1.00  0.00     0.093 A 
ATOM     13  C   UNL     1       3.192  -5.672   0.516  1.00  0.00     0.090 A 
ATOM     14  N   UNL     1       4.242  -3.513   0.429  1.00  0.00    -0.244 NA
ATOM     15  N   UNL     1       1.967  -5.158   0.310  1.00  0.00    -0.244 NA
ATOM     16  C   UNL     1       2.999  -2.991   0.231  1.00  0.00     0.100 A 
BRANCH   8  17
ATOM     17  O   UNL     1       6.953  -7.303   1.173  1.00  0.00    -0.508 OA
ATOM     18  H   UNL     1       6.888  -8.264   1.295  1.00  0.00     0.293 HD
ENDBRANCH   8  17
BRANCH  16  19
ATOM     19  C   UNL     1       2.975  -1.542   0.166  1.00  0.00     0.040 A 
ATOM     20  C   UNL     1       2.107  -0.594   0.750  1.00  0.00     0.145 A 
ATOM     21  C   UNL     1       3.915  -0.775  -0.493  1.00  0.00     0.119 A 
ATOM     22  N   UNL     1       2.457   0.666   0.471  1.00  0.00    -0.181 NA
ATOM     23  N   UNL     1       3.561   0.526  -0.288  1.00  0.00    -0.271 N 
BRANCH  23  24
ATOM     24  C   UNL     1       4.235   1.703  -0.808  1.00  0.00     0.159 C 
BRANCH  24  25
ATOM     25  C   UNL     1       5.374   2.149   0.114  1.00  0.00     0.108 C 
BRANCH  25  26
ATOM     26  N   UNL     1       6.100   3.334  -0.392  1.00  0.00    -0.297 NA
ATOM     27  C   UNL     1       5.290   4.569  -0.258  1.00  0.00     0.113 C 
ATOM     28  C   UNL     1       7.360   3.521   0.365  1.00  0.00     0.113 C 
ATOM     29  C   UNL     1       6.081   5.814  -0.689  1.00  0.00     0.175 C 
ATOM     30  C   UNL     1       8.106   4.785  -0.090  1.00  0.00     0.175 C 
ATOM     31  O   UNL     1       7.290   5.952   0.071  1.00  0.00    -0.379 OA
ENDBRANCH  25  26
ENDBRANCH  24  25
ENDBRANCH  23  24
ENDBRANCH  16  19
ENDBRANCH   1   7
BRANCH   4  32
ATOM     32  C   UNL     1      -3.622  -2.119  -0.881  1.00  0.00     0.120 C 
BRANCH  32  33
ATOM     33  N   UNL     1      -3.817  -0.658  -0.890  1.00  0.00    -0.299 NA
ATOM     34  C   UNL     1      -5.125  -0.278  -1.427  1.00  0.00     0.087 C 
ATOM     35  C   UNL     1      -3.489  -0.044   0.407  1.00  0.00     0.087 C 
ATOM     36  C   UNL     1      -6.243  -0.226  -0.388  1.00  0.00     0.041 C 
ATOM     37  C   UNL     1      -4.410   1.115   0.788  1.00  0.00     0.041 C 
ATOM     38  C   UNL     1      -5.855   0.605   0.847  1.00  0.00     0.095 C 
BRANCH  38  39
ATOM     39  N   UNL     1      -6.812   1.655   1.167  1.00  0.00    -0.291 N 
ATOM     40  C   UNL     1      -7.561   1.708   2.311  1.00  0.00     0.295 A 
ATOM     41  C   UNL     1      -7.130   2.776   0.429  1.00  0.00     0.072 A 
ATOM     42  N   UNL     1      -8.315   2.768   2.388  1.00  0.00    -0.195 NA
ATOM     43  C   UNL     1      -6.715   3.272  -0.814  1.00  0.00     0.029 A 
ATOM     44  C   UNL     1      -8.061   3.450   1.223  1.00  0.00     0.092 A 
ATOM     45  C   UNL     1      -7.268   4.484  -1.242  1.00  0.00     0.002 A 
ATOM     46  C   UNL     1      -8.601   4.666   0.777  1.00  0.00     0.031 A 
ATOM     47  C   UNL     1      -8.195   5.173  -0.462  1.00  0.00     0.002 A 
BRANCH  40  48
ATOM     48  O   UNL     1      -7.551   0.792   3.259  1.00  0.00    -0.480 OA
ATOM     49  H   UNL     1      -8.193   1.166   3.891  1.00  0.00     0.296 HD
ENDBRANCH  40  48
ENDBRANCH  38  39
ENDBRANCH  32  33
ENDBRANCH   4  32
TORSDOF 10
