REMARK SMILES CO[C@H]1CCCN(c2cc(Nc3cc(C)[nH]n3)nc(C)c2CCNC(=O)c2cc(C)on2)C1
REMARK SMILES IDX 22 1 21 2 8 3 9 4 10 5 19 6 18 7 20 8 7 9 3 10 4 11 33 12
REMARK SMILES IDX 5 13 6 14 2 15 1 16 11 17 12 19 13 20 17 21 14 22 16 23
REMARK SMILES IDX 15 24 23 26 24 27 25 28 26 30 27 31 28 32 32 33 29 34 31 35
REMARK SMILES IDX 30 36
REMARK H PARENT 11 18 16 25 24 29
ROOT
ATOM      1  C   UNL     1       1.329   0.855  -0.813  1.00  0.00     0.061 C 
ENDROOT
BRANCH   1   2
ATOM      2  C   UNL     1      -0.138   0.565  -0.584  1.00  0.00    -0.001 A 
ATOM      3  C   UNL     1      -0.573  -0.729  -0.233  1.00  0.00     0.046 A 
ATOM      4  C   UNL     1      -1.932  -0.910   0.038  1.00  0.00     0.073 A 
ATOM      5  C   UNL     1      -2.830   0.151  -0.049  1.00  0.00     0.133 A 
ATOM      6  C   UNL     1      -1.092   1.592  -0.625  1.00  0.00     0.045 A 
ATOM      7  N   UNL     1      -2.406   1.387  -0.365  1.00  0.00    -0.236 NA
ATOM      8  C   UNL     1      -0.730   3.012  -0.958  1.00  0.00     0.067 C 
BRANCH   3   9
ATOM      9  N   UNL     1       0.340  -1.790  -0.176  1.00  0.00    -0.369 N 
ATOM     10  C   UNL     1      -0.227  -4.055   0.877  1.00  0.00     0.137 C 
ATOM     11  C   UNL     1       0.156  -4.683  -0.466  1.00  0.00     0.036 C 
ATOM     12  C   UNL     1       0.377  -2.638   1.034  1.00  0.00     0.148 C 
ATOM     13  C   UNL     1      -0.159  -3.737  -1.621  1.00  0.00     0.024 C 
ATOM     14  C   UNL     1       0.615  -2.434  -1.465  1.00  0.00     0.117 C 
BRANCH  10  15
ATOM     15  O   UNL     1      -1.652  -3.994   1.020  1.00  0.00    -0.380 OA
ATOM     16  C   UNL     1      -2.237  -5.211   1.466  1.00  0.00     0.195 C 
ENDBRANCH  10  15
ENDBRANCH   3   9
BRANCH   5  17
ATOM     17  N   UNL     1      -4.182  -0.103   0.262  1.00  0.00    -0.323 N 
ATOM     18  H   UNL     1      -4.463  -1.029  -0.031  1.00  0.00     0.170 HD
BRANCH  17  19
ATOM     19  C   UNL     1      -5.215   0.751   0.407  1.00  0.00     0.153 A 
ATOM     20  C   UNL     1      -5.137   2.136   0.680  1.00  0.00     0.071 A 
ATOM     21  N   UNL     1      -6.487   0.345   0.341  1.00  0.00    -0.158 NA
ATOM     22  C   UNL     1      -6.440   2.574   0.760  1.00  0.00     0.034 A 
ATOM     23  N   UNL     1      -7.202   1.462   0.543  1.00  0.00    -0.281 N 
ATOM     24  C   UNL     1      -7.025   3.907   1.011  1.00  0.00     0.066 C 
ATOM     25  H   UNL     1      -8.213   1.392   0.525  1.00  0.00     0.190 HD
ENDBRANCH  17  19
ENDBRANCH   5  17
ENDBRANCH   1   2
BRANCH   1  26
ATOM     26  C   UNL     1       2.063   1.090   0.509  1.00  0.00     0.121 C 
BRANCH  26  27
ATOM     27  N   UNL     1       3.476   1.364   0.314  1.00  0.00    -0.350 N 
ATOM     28  C   UNL     1       3.914   2.608  -0.116  1.00  0.00     0.273 C 
ATOM     29  H   UNL     1       4.109   0.580   0.309  1.00  0.00     0.163 HD
ATOM     30  O   UNL     1       3.130   3.534  -0.311  1.00  0.00    -0.267 OA
BRANCH  28  31
ATOM     31  C   UNL     1       5.364   2.718  -0.333  1.00  0.00     0.171 A 
ATOM     32  C   UNL     1       6.403   1.824   0.054  1.00  0.00     0.082 A 
ATOM     33  N   UNL     1       5.886   3.779  -0.972  1.00  0.00    -0.074 NA
ATOM     34  C   UNL     1       7.559   2.414  -0.394  1.00  0.00     0.134 A 
ATOM     35  O   UNL     1       7.251   3.583  -1.010  1.00  0.00    -0.361 OA
ATOM     36  C   UNL     1       8.988   2.060  -0.340  1.00  0.00     0.091 C 
ENDBRANCH  28  31
ENDBRANCH  26  27
ENDBRANCH   1  26
TORSDOF 8
