MODEL        6USER    Run = 6USERUSER    Estimated Free Energy of Binding    = -10.46 kcal/mol  [=(1)+(2)+(3)-(4)]USERUSER    (1) Final Intermolecular Energy     = -13.44 kcal/molUSER        vdW + Hbond + desolv Energy     = -13.34 kcal/molUSER        Electrostatic Energy            =  -0.10 kcal/molUSER        Moving Ligand-Fixed Receptor    = -13.44 kcal/molUSER        Moving Ligand-Moving Receptor   =  +0.00 kcal/molUSER    (2) Final Total Internal Energy     =  -2.96 kcal/molUSER    (3) Torsional Free Energy           =  +2.98 kcal/molUSER    (4) Unbound System's Energy         =  -2.96 kcal/molUSERUSERREMARK SMILES CO[C@@H](C)NC[C@@H]1C(=O)N[C@@H](c2c(F)cccc2F)N1C(=O)CN1CCC(c2ccc(O)c3c2CCC3)CC1REMARK SMILES IDX 7 1 8 2 9 3 10 4 11 5 20 6 6 8 5 9 3 11 4 12 2 13 1 14 21 15REMARK SMILES IDX 22 16 23 17 24 18 25 19 39 20 26 21 38 22 27 23 28 24 29 25REMARK SMILES IDX 34 26 30 27 33 28 35 29 31 30 37 31 36 32 32 33 12 35 13 36REMARK SMILES IDX 18 37 15 38 17 39 16 40 14 41 19 42REMARK H PARENT 10 7 5 10 32 34USER                              x       y       z     vdW  Elec       q    TypeUSER                           _______ _______ _______ _____ _____    ______ ____ROOTATOM      1  C   UNL     1      31.377  42.102  16.864 -0.23 -0.07    +0.190 C  ATOM      2  C   UNL     1      30.216  41.250  16.352 -0.26 -0.08    +0.246 C  ATOM      3  O   UNL     1      29.762  41.197  15.221 -0.28 +0.12    -0.273 OA ATOM      4  N   UNL     1      29.690  40.529  17.399 -0.13 +0.01    -0.330 N  ATOM      5  C   UNL     1      30.463  40.649  18.583 -0.01 -0.01    +0.219 C  ATOM      6  N   UNL     1      31.424  41.688  18.281 -0.13 +0.04    -0.303 N  ATOM      7  H   UNL     1      28.945  39.865  17.247 +0.08 +0.03    +0.166 HD ENDROOTBRANCH   1   8ATOM      8  C   UNL     1      31.061  43.602  16.671 -0.28 -0.04    +0.118 C  BRANCH   8   9ATOM      9  N   UNL     1      30.591  43.892  15.312 -0.16 +0.18    -0.290 NA ATOM     10  H   UNL     1      30.714  43.065  14.725 +0.05 -0.09    +0.125 HD BRANCH   9  11ATOM     11  C   UNL     1      31.338  44.957  14.664 -0.35 -0.12    +0.182 C  ATOM     12  C   UNL     1      32.482  45.433  15.559 -0.38 -0.04    +0.056 C  BRANCH  11  13ATOM     13  O   UNL     1      30.424  46.029  14.459 -0.35 +0.21    -0.367 OA ATOM     14  C   UNL     1      30.177  46.303  13.086 -0.50 -0.14    +0.197 C  ENDBRANCH  11  13ENDBRANCH   9  11ENDBRANCH   8   9ENDBRANCH   1   8BRANCH   6  15ATOM     15  C   UNL     1      32.379  42.208  19.137 -0.26 -0.00    +0.239 C  ATOM     16  O   UNL     1      32.052  42.991  20.032 -0.62 -0.03    -0.273 OA BRANCH  15  17ATOM     17  C   UNL     1      33.837  41.748  18.923 -0.25 -0.01    +0.185 C  BRANCH  17  18ATOM     18  N   UNL     1      34.709  42.713  18.230 -0.16 +0.07    -0.294 NA ATOM     19  C   UNL     1      34.650  44.065  18.794 -0.36 -0.02    +0.085 C  ATOM     20  C   UNL     1      34.586  42.685  16.775 -0.42 -0.04    +0.085 C  ATOM     21  C   UNL     1      35.020  45.168  17.792 -0.40 -0.01    +0.024 C  ATOM     22  C   UNL     1      35.792  43.391  16.145 -0.47 -0.01    +0.024 C  ATOM     23  C   UNL     1      36.149  44.715  16.856 -0.36 -0.01    +0.022 C  BRANCH  23  24ATOM     24  C   UNL     1      36.544  45.811  15.884 -0.33 +0.02    -0.041 A  ATOM     25  C   UNL     1      35.673  46.210  14.853 -0.39 -0.01    +0.008 A  ATOM     26  C   UNL     1      37.774  46.468  15.966 -0.36 +0.02    -0.038 A  ATOM     27  C   UNL     1      36.033  47.207  13.934 -0.41 -0.03    +0.047 A  ATOM     28  C   UNL     1      38.134  47.469  15.044 -0.47 +0.00    -0.003 A  ATOM     29  C   UNL     1      38.899  46.225  16.931 -0.45 -0.01    +0.036 C  ATOM     30  C   UNL     1      37.271  47.830  14.025 -0.45 -0.06    +0.119 A  ATOM     31  C   UNL     1      39.519  47.969  15.320 -0.57 -0.01    +0.040 C  ATOM     32  C   UNL     1      39.737  47.496  16.759 -0.54 -0.00    +0.010 C  BRANCH  30  33ATOM     33  O   UNL     1      37.578  48.773  13.092 -0.29 +0.09    -0.508 OA ATOM     34  H   UNL     1      37.672  49.627  13.541 -0.30 -0.16    +0.293 HD ENDBRANCH  30  33ENDBRANCH  23  24ENDBRANCH  17  18ENDBRANCH  15  17ENDBRANCH   6  15BRANCH   5  35ATOM     35  C   UNL     1      31.051  39.319  18.964 -0.36 +0.01    +0.066 A  ATOM     36  C   UNL     1      32.168  38.769  18.326 -0.35 +0.01    +0.133 A  ATOM     37  C   UNL     1      30.456  38.562  19.974 -0.31 +0.02    +0.133 A  ATOM     38  C   UNL     1      32.685  37.527  18.694 -0.35 +0.00    +0.040 A  ATOM     39  C   UNL     1      30.956  37.317  20.355 -0.45 +0.01    +0.040 A  ATOM     40  C   UNL     1      32.078  36.798  19.716 -0.55 +0.00    +0.006 A  ATOM     41  F   UNL     1      32.770  39.430  17.330 -0.16 +0.08    -0.206 F  ATOM     42  F   UNL     1      29.374  39.037  20.608 -0.02 -0.01    -0.206 F  ENDBRANCH   5  35TORSDOF 10TERENDMDL