MODEL        2USER    Run = 2USERUSER    Estimated Free Energy of Binding    = -11.79 kcal/mol  [=(1)+(2)+(3)-(4)]USERUSER    (1) Final Intermolecular Energy     = -14.18 kcal/molUSER        vdW + Hbond + desolv Energy     = -13.87 kcal/molUSER        Electrostatic Energy            =  -0.31 kcal/molUSER        Moving Ligand-Fixed Receptor    = -14.18 kcal/molUSER        Moving Ligand-Moving Receptor   =  +0.00 kcal/molUSER    (2) Final Total Internal Energy     =  -2.44 kcal/molUSER    (3) Torsional Free Energy           =  +2.39 kcal/molUSER    (4) Unbound System's Energy         =  -2.44 kcal/molUSERUSERREMARK SMILES CO[C@H]1CCCN(c2cc(Nc3cc(C)[nH]n3)nc(C)c2CCNC(=O)c2cc(C)on2)C1REMARK SMILES IDX 22 1 21 2 8 3 9 4 10 5 19 6 18 7 20 8 7 9 3 10 4 11 33 12REMARK SMILES IDX 5 13 6 14 2 15 1 16 11 17 12 19 13 20 17 21 14 22 16 23REMARK SMILES IDX 15 24 23 26 24 27 25 28 26 30 27 31 28 32 32 33 29 34 31 35REMARK SMILES IDX 30 36REMARK H PARENT 11 18 16 25 24 29USER                              x       y       z     vdW  Elec       q    TypeUSER                           _______ _______ _______ _____ _____    ______ ____ROOTATOM      1  C   UNL     1      35.197  44.323  16.919 -0.33 -0.03    +0.061 C  ENDROOTBRANCH   1   2ATOM      2  C   UNL     1      36.592  44.903  16.837 -0.34 +0.00    -0.001 A  ATOM      3  C   UNL     1      37.024  45.585  15.681 -0.33 -0.02    +0.046 A  ATOM      4  C   UNL     1      38.297  46.160  15.701 -0.34 -0.02    +0.073 A  ATOM      5  C   UNL     1      39.118  46.052  16.821 -0.32 -0.03    +0.133 A  ATOM      6  C   UNL     1      37.459  44.857  17.938 -0.33 -0.01    +0.045 A  ATOM      7  N   UNL     1      38.693  45.418  17.927 -0.25 +0.04    -0.236 NA ATOM      8  C   UNL     1      37.085  44.182  19.227 -0.37 -0.01    +0.067 C  BRANCH   3   9ATOM      9  N   UNL     1      36.195  45.661  14.554 -0.13 +0.20    -0.369 N  ATOM     10  C   UNL     1      36.305  47.594  12.878 -0.60 -0.07    +0.137 C  ATOM     11  C   UNL     1      36.544  46.536  11.797 -0.71 -0.01    +0.036 C  ATOM     12  C   UNL     1      35.663  46.978  14.145 -0.33 -0.12    +0.148 C  ATOM     13  C   UNL     1      37.302  45.339  12.363 -0.39 -0.01    +0.024 C  ATOM     14  C   UNL     1      36.509  44.696  13.495 -0.21 -0.04    +0.117 C  BRANCH  10  15ATOM     15  O   UNL     1      37.532  48.250  13.225 -0.73 +0.10    -0.380 OA ATOM     16  C   UNL     1      37.502  48.888  14.496 -0.39 -0.14    +0.195 C  ENDBRANCH  10  15ENDBRANCH   3   9BRANCH   5  17ATOM     17  N   UNL     1      40.380  46.680  16.775 -0.24 +0.04    -0.323 N  ATOM     18  H   UNL     1      40.939  46.449  17.586 +0.08 -0.01    +0.170 HD BRANCH  17  19ATOM     19  C   UNL     1      40.762  47.821  16.167 -0.39 -0.02    +0.153 A  ATOM     20  C   UNL     1      40.904  48.033  14.776 -0.39 -0.01    +0.071 A  ATOM     21  N   UNL     1      41.099  48.915  16.857 -0.75 +0.01    -0.158 NA ATOM     22  C   UNL     1      41.331  49.335  14.640 -0.62 -0.01    +0.034 A  ATOM     23  N   UNL     1      41.424  49.813  15.915 -0.42 +0.02    -0.281 N  ATOM     24  C   UNL     1      41.649  50.155  13.453 -0.52 -0.02    +0.066 C  ATOM     25  H   UNL     1      41.707  50.739  16.215 -0.35 -0.04    +0.190 HD ENDBRANCH  17  19ENDBRANCH   5  17ENDBRANCH   1   2BRANCH   1  26ATOM     26  C   UNL     1      34.166  45.400  17.263 -0.33 -0.08    +0.121 C  BRANCH  26  27ATOM     27  N   UNL     1      33.376  45.796  16.110 +0.06 +0.41    -0.350 N  ATOM     28  C   UNL     1      32.048  45.417  15.984 -0.21 -0.17    +0.273 C  ATOM     29  H   UNL     1      33.865  46.183  15.318 -0.14 -0.24    +0.163 HD ATOM     30  O   UNL     1      31.479  44.766  16.858 -0.65 +0.06    -0.267 OA BRANCH  28  31ATOM     31  C   UNL     1      31.396  45.834  14.734 -0.38 -0.11    +0.171 A  ATOM     32  C   UNL     1      30.009  45.886  14.416 -0.39 -0.05    +0.082 A  ATOM     33  N   UNL     1      32.125  46.235  13.678 -0.49 +0.06    -0.074 NA ATOM     34  C   UNL     1      29.962  46.341  13.121 -0.44 -0.10    +0.134 A  ATOM     35  O   UNL     1      31.228  46.552  12.679 -0.74 +0.19    -0.361 OA ATOM     36  C   UNL     1      28.879  46.624  12.164 -0.49 -0.07    +0.091 C  ENDBRANCH  28  31ENDBRANCH  26  27ENDBRANCH   1  26TORSDOF 8TERENDMDL