REMARK SMILES CO[C@@H](C)NC[C@@H]1C(=O)N[C@@H](c2c(F)cccc2F)N1C(=O)CN1CCC(c2ccc(O)c3c2CCC3)CC1
REMARK SMILES IDX 7 1 8 2 9 3 10 4 11 5 20 6 6 8 5 9 3 11 4 12 2 13 1 14 21 15
REMARK SMILES IDX 22 16 23 17 24 18 25 19 39 20 26 21 38 22 27 23 28 24 29 25
REMARK SMILES IDX 34 26 30 27 33 28 35 29 31 30 37 31 36 32 32 33 12 35 13 36
REMARK SMILES IDX 18 37 15 38 17 39 16 40 14 41 19 42
REMARK H PARENT 10 7 5 10 32 34
ROOT
ATOM      1  C   UNL     1      -4.132   0.071   0.279  1.00  0.00     0.190 C 
ATOM      2  C   UNL     1      -5.388   0.608  -0.406  1.00  0.00     0.246 C 
ATOM      3  O   UNL     1      -6.537   0.217  -0.287  1.00  0.00    -0.273 OA
ATOM      4  N   UNL     1      -5.035   1.632  -1.255  1.00  0.00    -0.330 N 
ATOM      5  C   UNL     1      -3.670   1.998  -1.126  1.00  0.00     0.219 C 
ATOM      6  N   UNL     1      -3.104   0.978  -0.270  1.00  0.00    -0.303 N 
ATOM      7  H   UNL     1      -5.739   2.150  -1.761  1.00  0.00     0.166 HD
ENDROOT
BRANCH   1   8
ATOM      8  C   UNL     1      -3.912  -1.411  -0.099  1.00  0.00     0.118 C 
BRANCH   8   9
ATOM      9  N   UNL     1      -4.498  -2.321   0.892  1.00  0.00    -0.290 NA
ATOM     10  H   UNL     1      -4.072  -2.152   1.804  1.00  0.00     0.125 HD
BRANCH   9  11
ATOM     11  C   UNL     1      -4.258  -3.723   0.591  1.00  0.00     0.182 C 
ATOM     12  C   UNL     1      -5.290  -4.243  -0.408  1.00  0.00     0.056 C 
BRANCH  11  13
ATOM     13  O   UNL     1      -4.392  -4.431   1.819  1.00  0.00    -0.367 OA
ATOM     14  C   UNL     1      -3.628  -5.629   1.864  1.00  0.00     0.197 C 
ENDBRANCH  11  13
ENDBRANCH   9  11
ENDBRANCH   8   9
ENDBRANCH   1   8
BRANCH   6  15
ATOM     15  C   UNL     1      -1.781   0.863   0.119  1.00  0.00     0.239 C 
ATOM     16  O   UNL     1      -1.457   0.057   0.994  1.00  0.00    -0.273 OA
BRANCH  15  17
ATOM     17  C   UNL     1      -0.757   1.767  -0.602  1.00  0.00     0.185 C 
BRANCH  17  18
ATOM     18  N   UNL     1       0.648   1.334  -0.502  1.00  0.00    -0.294 NA
ATOM     19  C   UNL     1       0.906   0.034  -1.129  1.00  0.00     0.085 C 
ATOM     20  C   UNL     1       1.212   1.454   0.840  1.00  0.00     0.085 C 
ATOM     21  C   UNL     1       2.119  -0.703  -0.544  1.00  0.00     0.024 C 
ATOM     22  C   UNL     1       2.742   1.389   0.760  1.00  0.00     0.024 C 
ATOM     23  C   UNL     1       3.245   0.275  -0.184  1.00  0.00     0.022 C 
BRANCH  23  24
ATOM     24  C   UNL     1       4.461  -0.448   0.364  1.00  0.00    -0.041 A 
ATOM     25  C   UNL     1       4.391  -1.163   1.575  1.00  0.00     0.008 A 
ATOM     26  C   UNL     1       5.691  -0.441  -0.298  1.00  0.00    -0.038 A 
ATOM     27  C   UNL     1       5.512  -1.819   2.105  1.00  0.00     0.047 A 
ATOM     28  C   UNL     1       6.815  -1.100   0.234  1.00  0.00    -0.003 A 
ATOM     29  C   UNL     1       6.059   0.262  -1.573  1.00  0.00     0.036 C 
ATOM     30  C   UNL     1       6.729  -1.778   1.437  1.00  0.00     0.119 A 
ATOM     31  C   UNL     1       8.014  -0.891  -0.640  1.00  0.00     0.040 C 
ATOM     32  C   UNL     1       7.365  -0.444  -1.952  1.00  0.00     0.010 C 
BRANCH  30  33
ATOM     33  O   UNL     1       7.789  -2.412   2.009  1.00  0.00    -0.508 OA
ATOM     34  H   UNL     1       8.571  -2.259   1.456  1.00  0.00     0.293 HD
ENDBRANCH  30  33
ENDBRANCH  23  24
ENDBRANCH  17  18
ENDBRANCH  15  17
ENDBRANCH   6  15
BRANCH   5  35
ATOM     35  C   UNL     1      -3.551   3.406  -0.613  1.00  0.00     0.066 A 
ATOM     36  C   UNL     1      -3.831   3.762   0.710  1.00  0.00     0.133 A 
ATOM     37  C   UNL     1      -3.177   4.431  -1.484  1.00  0.00     0.133 A 
ATOM     38  C   UNL     1      -3.722   5.080   1.154  1.00  0.00     0.040 A 
ATOM     39  C   UNL     1      -3.064   5.755  -1.060  1.00  0.00     0.040 A 
ATOM     40  C   UNL     1      -3.334   6.082   0.266  1.00  0.00     0.006 A 
ATOM     41  F   UNL     1      -4.222   2.833   1.591  1.00  0.00    -0.206 F 
ATOM     42  F   UNL     1      -2.911   4.146  -2.767  1.00  0.00    -0.206 F 
ENDBRANCH   5  35
TORSDOF 10
