REMARK SMILES Oc1ccc2nc(-c3ccc(CN4CCC(n5c(O)nc6ccccc65)CC4)cc3)c(-c3coc(N4CCOCC4)n3)nc2c1
REMARK SMILES IDX 12 1 11 2 8 3 9 4 30 5 10 6 29 7 7 8 2 9 3 10 45 11 4 12
REMARK SMILES IDX 44 13 5 14 43 15 6 16 31 17 1 18 32 20 33 21 42 22 34 23
REMARK SMILES IDX 35 24 36 25 37 26 41 27 38 28 40 29 39 30 13 31 14 32 28 33
REMARK SMILES IDX 15 34 27 35 16 36 17 37 18 38 26 39 20 40 25 41 21 42 24 43
REMARK SMILES IDX 22 44 23 45 19 46
REMARK H PARENT 1 19 19 47
ROOT
ATOM      1  C   UNL     1       2.459  -1.925   1.575  1.00  0.00     0.120 C 
ENDROOT
BRANCH   1   2
ATOM      2  C   UNL     1       0.991  -2.203   1.323  1.00  0.00    -0.034 A 
ATOM      3  C   UNL     1      -1.760  -2.739   0.876  1.00  0.00     0.002 A 
ATOM      4  C   UNL     1      -1.353  -1.633   1.642  1.00  0.00     0.011 A 
ATOM      5  C   UNL     1      -0.762  -3.586   0.365  1.00  0.00     0.011 A 
ATOM      6  C   UNL     1       0.003  -1.368   1.860  1.00  0.00     0.006 A 
ATOM      7  C   UNL     1       0.594  -3.322   0.581  1.00  0.00     0.006 A 
BRANCH   3   8
ATOM      8  C   UNL     1      -3.183  -3.026   0.621  1.00  0.00     0.099 A 
ATOM      9  C   UNL     1      -7.537  -5.340   0.458  1.00  0.00     0.117 A 
ATOM     10  C   UNL     1      -6.637  -6.262   0.969  1.00  0.00     0.048 A 
ATOM     11  C   UNL     1      -7.118  -4.062   0.106  1.00  0.00     0.076 A 
ATOM     12  C   UNL     1      -5.301  -5.886   1.124  1.00  0.00     0.034 A 
ATOM     13  C   UNL     1      -5.793  -3.680   0.259  1.00  0.00     0.093 A 
ATOM     14  C   UNL     1      -4.863  -4.612   0.779  1.00  0.00     0.090 A 
ATOM     15  N   UNL     1      -5.414  -2.439  -0.092  1.00  0.00    -0.242 NA
ATOM     16  N   UNL     1      -3.567  -4.293   0.948  1.00  0.00    -0.244 NA
ATOM     17  C   UNL     1      -4.105  -2.116   0.091  1.00  0.00     0.119 A 
BRANCH   9  18
ATOM     18  O   UNL     1      -8.852  -5.652   0.284  1.00  0.00    -0.508 OA
ATOM     19  H   UNL     1      -9.005  -6.567   0.573  1.00  0.00     0.293 HD
ENDBRANCH   9  18
BRANCH  17  20
ATOM     20  C   UNL     1      -3.746  -0.784  -0.344  1.00  0.00     0.132 A 
ATOM     21  C   UNL     1      -2.850  -0.478  -1.337  1.00  0.00     0.230 A 
ATOM     22  N   UNL     1      -4.268   0.375   0.182  1.00  0.00    -0.192 NA
ATOM     23  O   UNL     1      -2.796   0.878  -1.445  1.00  0.00    -0.431 OA
ATOM     24  C   UNL     1      -3.680   1.333  -0.501  1.00  0.00     0.297 A 
BRANCH  24  25
ATOM     25  N   UNL     1      -3.825   2.667  -0.376  1.00  0.00    -0.321 N 
ATOM     26  C   UNL     1      -4.932   3.188   0.431  1.00  0.00     0.150 C 
ATOM     27  C   UNL     1      -3.266   3.572  -1.379  1.00  0.00     0.150 C 
ATOM     28  C   UNL     1      -5.658   4.307  -0.333  1.00  0.00     0.181 C 
ATOM     29  C   UNL     1      -3.441   5.027  -0.916  1.00  0.00     0.181 C 
ATOM     30  O   UNL     1      -4.809   5.406  -0.700  1.00  0.00    -0.378 OA
ENDBRANCH  24  25
ENDBRANCH  17  20
ENDBRANCH   3   8
ENDBRANCH   1   2
BRANCH   1  31
ATOM     31  N   UNL     1       2.872  -0.556   1.203  1.00  0.00    -0.299 NA
ATOM     32  C   UNL     1       4.221  -0.291   1.721  1.00  0.00     0.087 C 
ATOM     33  C   UNL     1       2.848  -0.377  -0.256  1.00  0.00     0.087 C 
ATOM     34  C   UNL     1       4.589   1.172   1.508  1.00  0.00     0.041 C 
ATOM     35  C   UNL     1       3.225   1.050  -0.659  1.00  0.00     0.041 C 
ATOM     36  C   UNL     1       4.462   1.622   0.049  1.00  0.00     0.095 C 
BRANCH  36  37
ATOM     37  N   UNL     1       5.719   1.512  -0.687  1.00  0.00    -0.291 N 
ATOM     38  C   UNL     1       6.284   0.402  -1.249  1.00  0.00     0.295 A 
ATOM     39  C   UNL     1       6.600   2.557  -0.919  1.00  0.00     0.072 A 
ATOM     40  N   UNL     1       7.421   0.637  -1.844  1.00  0.00    -0.195 NA
ATOM     41  C   UNL     1       6.600   3.916  -0.574  1.00  0.00     0.029 A 
ATOM     42  C   UNL     1       7.640   1.976  -1.647  1.00  0.00     0.092 A 
ATOM     43  C   UNL     1       7.691   4.687  -0.994  1.00  0.00     0.002 A 
ATOM     44  C   UNL     1       8.723   2.766  -2.061  1.00  0.00     0.031 A 
ATOM     45  C   UNL     1       8.736   4.125  -1.727  1.00  0.00     0.002 A 
BRANCH  38  46
ATOM     46  O   UNL     1       5.780  -0.811  -1.224  1.00  0.00    -0.480 OA
ATOM     47  H   UNL     1       6.454  -1.303  -1.729  1.00  0.00     0.296 HD
ENDBRANCH  38  46
ENDBRANCH  36  37
ENDBRANCH   1  31
TORSDOF 8
