MODEL        5USER    Run = 5USERUSER    Estimated Free Energy of Binding    =  -9.77 kcal/mol  [=(1)+(2)+(3)-(4)]USERUSER    (1) Final Intermolecular Energy     = -11.86 kcal/molUSER        vdW + Hbond + desolv Energy     = -11.68 kcal/molUSER        Electrostatic Energy            =  -0.18 kcal/molUSER        Moving Ligand-Fixed Receptor    = -11.86 kcal/molUSER        Moving Ligand-Moving Receptor   =  +0.00 kcal/molUSER    (2) Final Total Internal Energy     =  -1.51 kcal/molUSER    (3) Torsional Free Energy           =  +2.09 kcal/molUSER    (4) Unbound System's Energy         =  -1.51 kcal/molUSERUSERREMARK SMILES CO[C@@H]1CCCN(c2cc(Nc3cc(C)[nH]n3)nc(C)c2CCN2C=NOC2)C1REMARK SMILES IDX 8 1 9 2 10 3 18 4 19 5 20 6 21 7 7 8 3 9 4 10 29 11 5 12REMARK SMILES IDX 6 13 2 14 1 15 22 16 23 17 24 18 25 19 28 20 26 21 27 22REMARK SMILES IDX 11 23 12 25 13 26 17 27 14 28 16 29 15 30REMARK H PARENT 11 24 16 31USER                              x       y       z     vdW  Elec       q    TypeUSER                           _______ _______ _______ _____ _____    ______ ____ROOTATOM      1  C   UNL     1      39.562  47.316  16.092 -0.46 -0.01    +0.046 A  ATOM      2  C   UNL     1      40.078  48.497  15.550 -0.51 -0.02    +0.073 A  ATOM      3  C   UNL     1      41.176  49.121  16.136 -0.43 -0.01    +0.133 A  ATOM      4  N   UNL     1      41.768  48.597  17.223 -0.74 -0.02    -0.236 NA ATOM      5  C   UNL     1      41.289  47.449  17.758 -0.47 -0.00    +0.045 A  ATOM      6  C   UNL     1      42.025  46.966  18.974 -0.55 +0.00    +0.067 C  ATOM      7  C   UNL     1      40.197  46.758  17.218 -0.50 +0.00    -0.001 A  ENDROOTBRANCH   1   8ATOM      8  N   UNL     1      38.443  46.666  15.538 -0.13 +0.13    -0.369 N  ATOM      9  C   UNL     1      35.964  46.257  15.529 -0.33 -0.11    +0.137 C  ATOM     10  C   UNL     1      36.408  45.213  14.498 -0.43 -0.02    +0.036 C  ATOM     11  C   UNL     1      37.185  46.819  16.303 -0.32 -0.09    +0.148 C  ATOM     12  C   UNL     1      37.436  45.776  13.510 -0.51 -0.01    +0.024 C  ATOM     13  C   UNL     1      38.298  46.895  14.099 -0.44 -0.04    +0.117 C  BRANCH   9  14ATOM     14  O   UNL     1      35.054  45.685  16.478 -0.13 +0.31    -0.380 OA ATOM     15  C   UNL     1      34.828  46.506  17.616 -0.30 -0.19    +0.195 C  ENDBRANCH   9  14ENDBRANCH   1   8BRANCH   7  16ATOM     16  C   UNL     1      39.675  45.481  17.838 -0.44 -0.01    +0.061 C  BRANCH  16  17ATOM     17  C   UNL     1      38.956  45.740  19.165 -0.32 -0.01    +0.126 C  BRANCH  17  18ATOM     18  N   UNL     1      38.104  44.621  19.515 -0.17 +0.02    -0.325 N  ATOM     19  C   UNL     1      37.639  44.369  20.760 -0.27 +0.00    +0.241 C  ATOM     20  C   UNL     1      37.030  44.244  18.630 -0.13 -0.07    +0.387 C  ATOM     21  N   UNL     1      36.503  43.754  20.839 -0.38 -0.00    -0.075 NA ATOM     22  O   UNL     1      36.082  43.561  19.478 -0.17 +0.04    -0.372 OA ENDBRANCH  17  18ENDBRANCH  16  17ENDBRANCH   7  16BRANCH   3  23ATOM     23  N   UNL     1      41.649  50.314  15.542 -0.39 +0.05    -0.323 N  ATOM     24  H   UNL     1      41.115  51.097  15.893 -0.35 -0.08    +0.170 HD BRANCH  23  25ATOM     25  C   UNL     1      42.231  50.453  14.330 -0.51 -0.03    +0.153 A  ATOM     26  C   UNL     1      43.164  51.489  14.066 -0.17 -0.02    +0.071 A  ATOM     27  N   UNL     1      42.102  49.656  13.266 -0.49 +0.03    -0.158 NA ATOM     28  C   UNL     1      43.564  51.309  12.760 -0.40 -0.02    +0.034 A  ATOM     29  N   UNL     1      42.883  50.206  12.330 -0.44 +0.11    -0.281 N  ATOM     30  C   UNL     1      44.507  52.055  11.901 -0.43 -0.03    +0.066 C  ATOM     31  H   UNL     1      42.912  49.765  11.417 -0.38 -0.10    +0.190 HD ENDBRANCH  23  25ENDBRANCH   3  23TORSDOF 7TERENDMDL