MODEL        5USER    Run = 5USERUSER    Estimated Free Energy of Binding    = -13.42 kcal/mol  [=(1)+(2)+(3)-(4)]USERUSER    (1) Final Intermolecular Energy     = -15.80 kcal/molUSER        vdW + Hbond + desolv Energy     = -15.12 kcal/molUSER        Electrostatic Energy            =  -0.68 kcal/molUSER        Moving Ligand-Fixed Receptor    = -15.80 kcal/molUSER        Moving Ligand-Moving Receptor   =  +0.00 kcal/molUSER    (2) Final Total Internal Energy     =  -1.92 kcal/molUSER    (3) Torsional Free Energy           =  +2.39 kcal/molUSER    (4) Unbound System's Energy         =  -1.92 kcal/molUSERUSERREMARK SMILES Oc1ccc2nc(-c3ccc(CN4CCC(n5c(O)nc6ccccc65)CC4)cc3)c(-c3coc(N4CCOCC4)n3)nc2c1REMARK SMILES IDX 12 1 11 2 8 3 9 4 30 5 10 6 29 7 7 8 2 9 3 10 45 11 4 12REMARK SMILES IDX 44 13 5 14 43 15 6 16 31 17 1 18 32 20 33 21 42 22 34 23REMARK SMILES IDX 35 24 36 25 37 26 41 27 38 28 40 29 39 30 13 31 14 32 28 33REMARK SMILES IDX 15 34 27 35 16 36 17 37 18 38 26 39 20 40 25 41 21 42 24 43REMARK SMILES IDX 22 44 23 45 19 46REMARK H PARENT 1 19 19 47USER                              x       y       z     vdW  Elec       q    TypeUSER                           _______ _______ _______ _____ _____    ______ ____ROOTATOM      1  C   UNL     1      37.969  43.764  20.822 -0.30 +0.00    +0.120 C  ENDROOTBRANCH   1   2ATOM      2  C   UNL     1      37.038  44.152  19.691 -0.35 +0.00    -0.034 A  ATOM      3  C   UNL     1      35.282  44.851  17.574 -0.32 -0.00    +0.002 A  ATOM      4  C   UNL     1      34.875  44.953  18.915 -0.39 -0.00    +0.011 A  ATOM      5  C   UNL     1      36.574  44.363  17.315 -0.32 -0.00    +0.011 A  ATOM      6  C   UNL     1      35.742  44.611  19.959 -0.23 -0.00    +0.006 A  ATOM      7  C   UNL     1      37.442  44.021  18.357 -0.24 -0.00    +0.006 A  BRANCH   3   8ATOM      8  C   UNL     1      34.390  45.222  16.461 -0.25 -0.07    +0.099 A  ATOM      9  C   UNL     1      30.321  46.010  13.784 -0.44 -0.08    +0.117 A  ATOM     10  C   UNL     1      29.891  45.422  14.963 -0.36 -0.03    +0.048 A  ATOM     11  C   UNL     1      31.673  46.249  13.565 -0.39 -0.05    +0.076 A  ATOM     12  C   UNL     1      30.838  45.073  15.928 -0.33 -0.01    +0.034 A  ATOM     13  C   UNL     1      32.620  45.907  14.519 -0.21 -0.09    +0.093 A  ATOM     14  C   UNL     1      32.195  45.305  15.728 -0.30 -0.06    +0.090 A  ATOM     15  N   UNL     1      33.921  46.147  14.280 -0.19 +0.25    -0.242 NA ATOM     16  N   UNL     1      33.071  44.954  16.686 -0.19 +0.14    -0.244 NA ATOM     17  C   UNL     1      34.804  45.801  15.256 -0.24 -0.11    +0.119 A  BRANCH   9  18ATOM     18  O   UNL     1      29.442  46.371  12.808 -0.27 +0.43    -0.508 OA ATOM     19  H   UNL     1      28.869  45.614  12.597 -0.32 -0.57    +0.293 HD ENDBRANCH   9  18BRANCH  17  20ATOM     20  C   UNL     1      36.192  46.042  14.927 -0.29 -0.08    +0.132 A  ATOM     21  C   UNL     1      36.873  45.494  13.869 -0.26 -0.09    +0.230 A  ATOM     22  N   UNL     1      37.029  46.872  15.636 -0.26 +0.13    -0.192 NA ATOM     23  O   UNL     1      38.147  45.971  13.903 -0.16 +0.13    -0.431 OA ATOM     24  C   UNL     1      38.174  46.802  14.993 -0.21 -0.12    +0.297 A  BRANCH  24  25ATOM     25  N   UNL     1      39.339  47.416  15.279 -0.23 +0.10    -0.321 N  ATOM     26  C   UNL     1      40.275  46.769  16.202 -0.43 -0.02    +0.150 C  ATOM     27  C   UNL     1      39.474  48.864  15.121 -0.45 -0.07    +0.150 C  ATOM     28  C   UNL     1      40.774  47.785  17.243 -0.44 -0.03    +0.181 C  ATOM     29  C   UNL     1      40.934  49.276  15.365 -0.57 -0.04    +0.181 C  ATOM     30  O   UNL     1      41.423  48.932  16.671 -0.91 -0.00    -0.378 OA ENDBRANCH  24  25ENDBRANCH  17  20ENDBRANCH   3   8ENDBRANCH   1   2BRANCH   1  31ATOM     31  N   UNL     1      39.377  44.145  20.583 -0.11 -0.00    -0.299 NA ATOM     32  C   UNL     1      39.451  45.577  20.263 -0.34 +0.00    +0.087 C  ATOM     33  C   UNL     1      40.209  43.847  21.757 -0.26 +0.00    +0.087 C  ATOM     34  C   UNL     1      40.865  45.949  19.835 -0.43 +0.00    +0.041 C  ATOM     35  C   UNL     1      41.680  44.189  21.511 -0.34 +0.00    +0.041 C  ATOM     36  C   UNL     1      41.931  45.558  20.863 -0.32 +0.02    +0.095 C  BRANCH  36  37ATOM     37  N   UNL     1      42.250  46.645  21.786 -0.15 -0.05    -0.291 N  ATOM     38  C   UNL     1      43.392  47.391  21.864 -0.18 +0.07    +0.295 A  ATOM     39  C   UNL     1      41.421  47.097  22.801 -0.17 +0.01    +0.072 A  ATOM     40  N   UNL     1      43.365  48.295  22.804 -0.53 -0.04    -0.195 NA ATOM     41  C   UNL     1      40.146  46.720  23.247 -0.24 +0.00    +0.029 A  ATOM     42  C   UNL     1      42.144  48.127  23.405 -0.30 +0.02    +0.092 A  ATOM     43  C   UNL     1      39.609  47.424  24.332 -0.32 +0.00    +0.002 A  ATOM     44  C   UNL     1      41.588  48.822  24.490 -0.36 +0.01    +0.031 A  ATOM     45  C   UNL     1      40.315  48.460  24.945 -0.31 +0.00    +0.002 A  BRANCH  38  46ATOM     46  O   UNL     1      44.449  47.257  21.095 -0.53 -0.37    -0.480 OA ATOM     47  H   UNL     1      44.425  48.096  20.598 -0.37 +0.02    +0.296 HD ENDBRANCH  38  46ENDBRANCH  36  37ENDBRANCH   1  31TORSDOF 8TERENDMDL