MODEL        10USER    Run = 10USERUSER    Estimated Free Energy of Binding    = -10.67 kcal/mol  [=(1)+(2)+(3)-(4)]USERUSER    (1) Final Intermolecular Energy     = -13.06 kcal/molUSER        vdW + Hbond + desolv Energy     = -12.89 kcal/molUSER        Electrostatic Energy            =  -0.17 kcal/molUSER        Moving Ligand-Fixed Receptor    = -13.06 kcal/molUSER        Moving Ligand-Moving Receptor   =  +0.00 kcal/molUSER    (2) Final Total Internal Energy     =  -1.57 kcal/molUSER    (3) Torsional Free Energy           =  +2.39 kcal/molUSER    (4) Unbound System's Energy         =  -1.57 kcal/molUSERUSERREMARK SMILES CO[C@@H]1CCCN(c2cc(Nc3cc(C)[nH]n3)nc(C)c2CCNC(=O)C2CC2)C1REMARK SMILES IDX 8 1 9 2 10 3 18 4 19 5 20 6 21 7 7 8 3 9 4 10 30 11 5 12REMARK SMILES IDX 6 13 2 14 1 15 22 16 23 17 24 18 25 19 26 21 27 22 28 23REMARK SMILES IDX 29 24 11 25 12 27 13 28 17 29 14 30 16 31 15 32REMARK H PARENT 24 20 11 26 16 33USER                              x       y       z     vdW  Elec       q    TypeUSER                           _______ _______ _______ _____ _____    ______ ____ROOTATOM      1  C   UNL     1      39.619  47.111  16.200 -0.45 -0.01    +0.046 A  ATOM      2  C   UNL     1      40.003  48.320  15.608 -0.50 -0.02    +0.073 A  ATOM      3  C   UNL     1      41.044  49.076  16.139 -0.48 -0.02    +0.133 A  ATOM      4  N   UNL     1      41.728  48.642  17.213 -0.75 -0.02    -0.236 NA ATOM      5  C   UNL     1      41.381  47.466  17.794 -0.47 -0.00    +0.045 A  ATOM      6  C   UNL     1      42.211  47.088  18.988 -0.55 +0.00    +0.067 C  ATOM      7  C   UNL     1      40.339  46.658  17.320 -0.50 +0.00    -0.001 A  ENDROOTBRANCH   1   8ATOM      8  N   UNL     1      38.565  46.347  15.682 -0.13 +0.12    -0.369 N  ATOM      9  C   UNL     1      36.081  46.272  15.278 -0.34 -0.10    +0.137 C  ATOM     10  C   UNL     1      36.284  47.154  14.042 -0.52 -0.02    +0.036 C  ATOM     11  C   UNL     1      37.229  46.539  16.279 -0.34 -0.08    +0.148 C  ATOM     12  C   UNL     1      37.706  47.068  13.469 -0.57 -0.01    +0.024 C  ATOM     13  C   UNL     1      38.628  46.118  14.231 -0.38 -0.03    +0.117 C  BRANCH   9  14ATOM     14  O   UNL     1      35.973  44.918  14.816 -0.16 +0.18    -0.380 OA ATOM     15  C   UNL     1      36.266  43.939  15.804 -0.32 -0.07    +0.195 C  ENDBRANCH   9  14ENDBRANCH   1   8BRANCH   7  16ATOM     16  C   UNL     1      39.952  45.370  18.018 -0.45 -0.00    +0.061 C  BRANCH  16  17ATOM     17  C   UNL     1      39.143  45.632  19.291 -0.36 -0.01    +0.120 C  BRANCH  17  18ATOM     18  N   UNL     1      37.986  44.760  19.387 -0.15 +0.03    -0.356 N  ATOM     19  C   UNL     1      37.461  44.380  20.600 -0.28 -0.00    +0.223 C  ATOM     20  H   UNL     1      37.480  44.540  18.545 +0.10 -0.03    +0.163 HD ATOM     21  O   UNL     1      37.955  44.664  21.685 -0.26 -0.01    -0.275 OA BRANCH  19  22ATOM     22  C   UNL     1      36.204  43.579  20.563 -0.44 -0.00    +0.078 C  ATOM     23  C   UNL     1      36.185  42.069  20.588 -0.54 -0.00    +0.014 C  ATOM     24  C   UNL     1      35.785  42.799  19.339 -0.46 -0.00    +0.014 C  ENDBRANCH  19  22ENDBRANCH  17  18ENDBRANCH  16  17ENDBRANCH   7  16BRANCH   3  25ATOM     25  N   UNL     1      41.392  50.271  15.480 -0.42 +0.07    -0.323 N  ATOM     26  H   UNL     1      41.457  51.049  16.123 -0.42 -0.07    +0.170 HD BRANCH  25  27ATOM     27  C   UNL     1      42.093  50.467  14.344 -0.50 -0.03    +0.153 A  ATOM     28  C   UNL     1      43.038  51.487  14.095 -0.14 -0.02    +0.071 A  ATOM     29  N   UNL     1      41.984  49.645  13.295 -0.46 +0.03    -0.158 NA ATOM     30  C   UNL     1      43.500  51.263  12.817 -0.40 -0.02    +0.034 A  ATOM     31  N   UNL     1      42.839  50.147  12.392 -0.44 +0.11    -0.281 N  ATOM     32  C   UNL     1      44.484  51.974  11.974 -0.44 -0.03    +0.066 C  ATOM     33  H   UNL     1      42.921  49.674  11.499 -0.38 -0.10    +0.190 HD ENDBRANCH  25  27ENDBRANCH   3  25TORSDOF 8TERENDMDL