MODEL        5USER    Run = 5USERUSER    Estimated Free Energy of Binding    = -12.84 kcal/mol  [=(1)+(2)+(3)-(4)]USERUSER    (1) Final Intermolecular Energy     = -15.23 kcal/molUSER        vdW + Hbond + desolv Energy     = -15.10 kcal/molUSER        Electrostatic Energy            =  -0.13 kcal/molUSER        Moving Ligand-Fixed Receptor    = -15.23 kcal/molUSER        Moving Ligand-Moving Receptor   =  +0.00 kcal/molUSER    (2) Final Total Internal Energy     =  -1.89 kcal/molUSER    (3) Torsional Free Energy           =  +2.39 kcal/molUSER    (4) Unbound System's Energy         =  -1.89 kcal/molUSERUSERREMARK SMILES CN1CCN(Cc2ccc(-c3nc4cc(F)ccc4nc3-c3ccc(CN4CCC(n5c(O)nc6ccccc65)CC4)cc3)cc2)CC1REMARK SMILES IDX 22 1 23 2 24 3 25 4 43 5 44 6 21 7 11 8 12 9 13 10 20 11REMARK SMILES IDX 14 12 19 13 15 14 18 15 17 16 16 17 10 18 7 19 8 20 46 21REMARK SMILES IDX 9 22 45 23 6 24 5 25 2 26 3 27 48 28 4 29 47 30 1 31 26 32REMARK SMILES IDX 27 33 28 34 42 35 29 36 41 37 30 38 31 39 32 40 40 41 34 42REMARK SMILES IDX 39 43 35 44 38 45 36 46 37 47 33 48REMARK H PARENT 33 49USER                              x       y       z     vdW  Elec       q    TypeUSER                           _______ _______ _______ _____ _____    ______ ____ROOTATOM      1  C   UNL     1      38.623  45.845  23.823 -0.30 +0.00    +0.002 A  ATOM      2  C   UNL     1      38.008  44.807  23.102 -0.32 +0.00    +0.011 A  ATOM      3  C   UNL     1      38.551  44.334  21.900 -0.33 +0.00    +0.006 A  ATOM      4  C   UNL     1      39.748  44.857  21.399 -0.30 -0.00    -0.034 A  ATOM      5  C   UNL     1      40.400  45.851  22.141 -0.27 +0.00    +0.006 A  ATOM      6  C   UNL     1      39.844  46.336  23.330 -0.27 +0.00    +0.011 A  ENDROOTBRANCH   1   7ATOM      7  C   UNL     1      38.034  46.419  25.053 -0.25 +0.01    +0.097 A  ATOM      8  C   UNL     1      37.975  45.783  26.307 -0.24 -0.00    +0.097 A  ATOM      9  N   UNL     1      37.432  46.413  27.388 -0.20 +0.04    -0.244 NA ATOM     10  C   UNL     1      36.920  47.640  27.207 -0.30 -0.01    +0.092 A  ATOM     11  N   UNL     1      37.510  47.667  24.877 -0.55 -0.04    -0.244 NA ATOM     12  C   UNL     1      36.337  48.299  28.280 -0.28 -0.01    +0.069 A  ATOM     13  C   UNL     1      36.954  48.270  25.942 -0.38 -0.00    +0.090 A  ATOM     14  C   UNL     1      35.781  49.560  28.113 -0.22 -0.00    +0.125 A  ATOM     15  C   UNL     1      36.396  49.533  25.799 -0.45 -0.00    +0.033 A  ATOM     16  C   UNL     1      35.804  50.186  26.879 -0.27 +0.00    +0.041 A  ATOM     17  F   UNL     1      35.213  50.178  29.158 -0.04 -0.01    -0.207 F  BRANCH   8  18ATOM     18  C   UNL     1      38.424  44.408  26.602 -0.22 -0.00    +0.002 A  ATOM     19  C   UNL     1      39.243  41.748  27.184 -0.31 +0.00    -0.034 A  ATOM     20  C   UNL     1      40.016  42.571  26.359 -0.20 -0.00    +0.006 A  ATOM     21  C   UNL     1      38.047  42.258  27.704 -0.39 -0.00    +0.006 A  ATOM     22  C   UNL     1      39.609  43.877  26.067 -0.15 -0.00    +0.011 A  ATOM     23  C   UNL     1      37.644  43.566  27.413 -0.33 -0.00    +0.011 A  BRANCH  19  24ATOM     24  C   UNL     1      39.656  40.315  27.459 -0.15 -0.01    +0.120 C  BRANCH  24  25ATOM     25  N   UNL     1      40.218  40.124  28.809 -0.66 -0.03    -0.297 NA ATOM     26  N   UNL     1      42.857  40.133  27.726 -0.04 +0.08    -0.304 NA ATOM     27  C   UNL     1      42.386  41.398  28.325 -0.11 -0.01    +0.099 C  ATOM     28  C   UNL     1      42.536  38.999  28.602 -0.16 -0.03    +0.099 C  ATOM     29  C   UNL     1      41.087  41.261  29.165 -0.15 -0.00    +0.100 C  ATOM     30  C   UNL     1      41.013  38.875  28.895 -0.26 -0.01    +0.100 C  ATOM     31  C   UNL     1      44.279  40.191  27.401 -0.08 -0.02    +0.105 C  ENDBRANCH  24  25ENDBRANCH  19  24ENDBRANCH   8  18ENDBRANCH   1   7BRANCH   4  32ATOM     32  C   UNL     1      40.320  44.407  20.071 -0.33 +0.00    +0.120 C  BRANCH  32  33ATOM     33  N   UNL     1      39.859  45.106  18.870 -0.22 +0.01    -0.299 NA ATOM     34  C   UNL     1      40.548  46.369  18.600 -0.47 -0.00    +0.087 C  ATOM     35  C   UNL     1      38.416  45.185  18.696 -0.39 -0.01    +0.087 C  ATOM     36  C   UNL     1      39.892  47.174  17.470 -0.48 -0.01    +0.041 C  ATOM     37  C   UNL     1      38.091  45.414  17.213 -0.40 -0.01    +0.041 C  ATOM     38  C   UNL     1      39.175  46.237  16.496 -0.42 -0.02    +0.095 C  BRANCH  38  39ATOM     39  N   UNL     1      38.686  46.904  15.298 -0.21 +0.10    -0.291 N  ATOM     40  C   UNL     1      38.917  48.218  14.989 -0.29 -0.13    +0.295 A  ATOM     41  C   UNL     1      37.914  46.387  14.278 -0.38 -0.03    +0.072 A  ATOM     42  N   UNL     1      38.373  48.591  13.864 -0.45 +0.08    -0.195 NA ATOM     43  C   UNL     1      37.362  45.124  14.018 -0.39 -0.01    +0.029 A  ATOM     44  C   UNL     1      37.744  47.463  13.402 -0.46 -0.03    +0.092 A  ATOM     45  C   UNL     1      36.618  44.974  12.840 -0.43 -0.00    +0.002 A  ATOM     46  C   UNL     1      36.997  47.292  12.226 -0.62 -0.01    +0.031 A  ATOM     47  C   UNL     1      36.436  46.039  11.956 -0.64 -0.00    +0.002 A  BRANCH  40  48ATOM     48  O   UNL     1      39.612  49.054  15.730 -0.20 +0.23    -0.480 OA ATOM     49  H   UNL     1      39.310  49.910  15.374 -0.18 -0.23    +0.296 HD ENDBRANCH  40  48ENDBRANCH  38  39ENDBRANCH  32  33ENDBRANCH   4  32TORSDOF 8TERENDMDL