REMARK SMILES CN1CCN(Cc2ccc(-c3nc4cc(F)ccc4nc3-c3ccc(CN4CCC(n5c(O)nc6ccccc65)CC4)cc3)cc2)CC1
REMARK SMILES IDX 22 1 23 2 24 3 25 4 43 5 44 6 21 7 11 8 12 9 13 10 20 11
REMARK SMILES IDX 14 12 19 13 15 14 18 15 17 16 16 17 10 18 7 19 8 20 46 21
REMARK SMILES IDX 9 22 45 23 6 24 5 25 2 26 3 27 48 28 4 29 47 30 1 31 26 32
REMARK SMILES IDX 27 33 28 34 42 35 29 36 41 37 30 38 31 39 32 40 40 41 34 42
REMARK SMILES IDX 39 43 35 44 38 45 36 46 37 47 33 48
REMARK H PARENT 33 49
ROOT
ATOM      1  C   UNL     1      -0.246  -2.725  -0.099  1.00  0.00     0.002 A 
ATOM      2  C   UNL     1      -0.322  -1.349  -0.373  1.00  0.00     0.011 A 
ATOM      3  C   UNL     1       0.397  -0.415   0.385  1.00  0.00     0.006 A 
ATOM      4  C   UNL     1       1.246  -0.830   1.417  1.00  0.00    -0.034 A 
ATOM      5  C   UNL     1       1.373  -2.204   1.660  1.00  0.00     0.006 A 
ATOM      6  C   UNL     1       0.637  -3.132   0.915  1.00  0.00     0.011 A 
ENDROOT
BRANCH   1   7
ATOM      7  C   UNL     1      -1.052  -3.728  -0.829  1.00  0.00     0.097 A 
ATOM      8  C   UNL     1      -2.427  -3.625  -1.113  1.00  0.00     0.097 A 
ATOM      9  N   UNL     1      -3.072  -4.598  -1.819  1.00  0.00    -0.244 NA
ATOM     10  C   UNL     1      -2.364  -5.673  -2.197  1.00  0.00     0.092 A 
ATOM     11  N   UNL     1      -0.339  -4.826  -1.217  1.00  0.00    -0.244 NA
ATOM     12  C   UNL     1      -2.995  -6.693  -2.894  1.00  0.00     0.069 A 
ATOM     13  C   UNL     1      -0.989  -5.791  -1.889  1.00  0.00     0.090 A 
ATOM     14  C   UNL     1      -2.290  -7.825  -3.277  1.00  0.00     0.125 A 
ATOM     15  C   UNL     1      -0.302  -6.930  -2.286  1.00  0.00     0.033 A 
ATOM     16  C   UNL     1      -0.944  -7.955  -2.979  1.00  0.00     0.041 A 
ATOM     17  F   UNL     1      -2.918  -8.805  -3.941  1.00  0.00    -0.207 F 
BRANCH   8  18
ATOM     18  C   UNL     1      -3.322  -2.537  -0.673  1.00  0.00     0.002 A 
ATOM     19  C   UNL     1      -5.072  -0.447   0.135  1.00  0.00    -0.034 A 
ATOM     20  C   UNL     1      -4.231  -1.074   1.060  1.00  0.00     0.006 A 
ATOM     21  C   UNL     1      -5.045  -0.883  -1.196  1.00  0.00     0.006 A 
ATOM     22  C   UNL     1      -3.375  -2.107   0.663  1.00  0.00     0.011 A 
ATOM     23  C   UNL     1      -4.186  -1.914  -1.590  1.00  0.00     0.011 A 
BRANCH  19  24
ATOM     24  C   UNL     1      -6.038   0.637   0.573  1.00  0.00     0.120 C 
BRANCH  24  25
ATOM     25  N   UNL     1      -5.377   1.748   1.283  1.00  0.00    -0.297 NA
ATOM     26  N   UNL     1      -6.884   3.634  -0.237  1.00  0.00    -0.304 NA
ATOM     27  C   UNL     1      -7.381   3.334   1.121  1.00  0.00     0.099 C 
ATOM     28  C   UNL     1      -5.432   3.854  -0.216  1.00  0.00     0.099 C 
ATOM     29  C   UNL     1      -6.375   2.554   2.011  1.00  0.00     0.100 C 
ATOM     30  C   UNL     1      -4.645   2.634   0.345  1.00  0.00     0.100 C 
ATOM     31  C   UNL     1      -7.601   4.756  -0.834  1.00  0.00     0.105 C 
ENDBRANCH  24  25
ENDBRANCH  19  24
ENDBRANCH   8  18
ENDBRANCH   1   7
BRANCH   4  32
ATOM     32  C   UNL     1       1.983   0.164   2.291  1.00  0.00     0.120 C 
BRANCH  32  33
ATOM     33  N   UNL     1       3.228   0.726   1.765  1.00  0.00    -0.299 NA
ATOM     34  C   UNL     1       3.048   1.865   0.864  1.00  0.00     0.087 C 
ATOM     35  C   UNL     1       4.209  -0.238   1.290  1.00  0.00     0.087 C 
ATOM     36  C   UNL     1       4.349   2.282   0.165  1.00  0.00     0.041 C 
ATOM     37  C   UNL     1       5.605   0.402   1.304  1.00  0.00     0.041 C 
ATOM     38  C   UNL     1       5.558   1.915   1.029  1.00  0.00     0.095 C 
BRANCH  38  39
ATOM     39  N   UNL     1       6.817   2.443   0.524  1.00  0.00    -0.291 N 
ATOM     40  C   UNL     1       7.623   3.317   1.203  1.00  0.00     0.295 A 
ATOM     41  C   UNL     1       7.428   2.200  -0.689  1.00  0.00     0.072 A 
ATOM     42  N   UNL     1       8.698   3.652   0.544  1.00  0.00    -0.195 NA
ATOM     43  C   UNL     1       7.106   1.408  -1.801  1.00  0.00     0.029 A 
ATOM     44  C   UNL     1       8.598   2.965  -0.639  1.00  0.00     0.092 A 
ATOM     45  C   UNL     1       8.002   1.413  -2.879  1.00  0.00     0.002 A 
ATOM     46  C   UNL     1       9.483   2.954  -1.728  1.00  0.00     0.031 A 
ATOM     47  C   UNL     1       9.173   2.173  -2.846  1.00  0.00     0.002 A 
BRANCH  40  48
ATOM     48  O   UNL     1       7.372   3.796   2.402  1.00  0.00    -0.480 OA
ATOM     49  H   UNL     1       8.133   4.393   2.525  1.00  0.00     0.296 HD
ENDBRANCH  40  48
ENDBRANCH  38  39
ENDBRANCH  32  33
ENDBRANCH   4  32
TORSDOF 8
