REMARK SMILES CNC(=O)OCCc1c(N2CCC[C@H](OC)C2)cc(Nc2cc(C)[nH]n2)nc1C
REMARK SMILES IDX 7 1 6 2 5 3 3 4 2 5 1 6 4 8 8 9 9 10 28 11 18 12 27 13 19 14
REMARK SMILES IDX 29 15 10 16 11 17 17 18 12 19 14 20 13 21 15 22 16 23 20 24
REMARK SMILES IDX 21 26 22 27 26 28 23 29 25 30 24 31
REMARK H PARENT 2 7 20 25 25 32
ROOT
ATOM      1  C   UNL     1      -1.416  -1.448   1.172  1.00  0.00     0.081 C 
ENDROOT
BRANCH   1   2
ATOM      2  C   UNL     1      -2.244  -2.026   0.027  1.00  0.00     0.240 C 
BRANCH   2   3
ATOM      3  O   UNL     1      -3.466  -2.545   0.576  1.00  0.00    -0.449 OA
BRANCH   3   4
ATOM      4  C   UNL     1      -4.315  -3.057  -0.346  1.00  0.00     0.406 C 
ATOM      5  N   UNL     1      -5.432  -3.509   0.287  1.00  0.00    -0.325 N 
ATOM      6  C   UNL     1      -6.581  -3.986  -0.431  1.00  0.00     0.146 C 
ATOM      7  H   UNL     1      -5.497  -3.287   1.270  1.00  0.00     0.166 HD
ATOM      8  O   UNL     1      -4.116  -3.099  -1.550  1.00  0.00    -0.225 OA
ENDBRANCH   3   4
ENDBRANCH   2   3
ENDBRANCH   1   2
BRANCH   1   9
ATOM      9  C   UNL     1      -0.071  -0.940   0.707  1.00  0.00     0.000 A 
ATOM     10  C   UNL     1       0.042   0.314   0.081  1.00  0.00     0.046 A 
ATOM     11  C   UNL     1       1.092  -1.710   0.831  1.00  0.00     0.045 A 
ATOM     12  C   UNL     1       1.301   0.730  -0.366  1.00  0.00     0.073 A 
ATOM     13  N   UNL     1       2.304  -1.290   0.392  1.00  0.00    -0.236 NA
ATOM     14  C   UNL     1       2.415  -0.085  -0.194  1.00  0.00     0.133 A 
ATOM     15  C   UNL     1       1.090  -3.071   1.466  1.00  0.00     0.067 C 
BRANCH  10  16
ATOM     16  N   UNL     1      -1.104   1.127  -0.065  1.00  0.00    -0.369 N 
ATOM     17  C   UNL     1      -1.347   1.609  -1.430  1.00  0.00     0.117 C 
ATOM     18  C   UNL     1      -1.154   2.196   0.967  1.00  0.00     0.148 C 
ATOM     19  C   UNL     1      -2.801   2.078  -1.531  1.00  0.00     0.024 C 
ATOM     20  C   UNL     1      -2.191   3.296   0.617  1.00  0.00     0.137 C 
ATOM     21  C   UNL     1      -3.321   2.716  -0.236  1.00  0.00     0.036 C 
BRANCH  20  22
ATOM     22  O   UNL     1      -1.596   4.367  -0.141  1.00  0.00    -0.380 OA
ATOM     23  C   UNL     1      -0.933   5.326   0.673  1.00  0.00     0.195 C 
ENDBRANCH  20  22
ENDBRANCH  10  16
BRANCH  14  24
ATOM     24  N   UNL     1       3.660   0.395  -0.662  1.00  0.00    -0.323 N 
ATOM     25  H   UNL     1       3.553   0.731  -1.608  1.00  0.00     0.170 HD
BRANCH  24  26
ATOM     26  C   UNL     1       4.893  -0.016  -0.286  1.00  0.00     0.153 A 
ATOM     27  C   UNL     1       6.010   0.095  -1.153  1.00  0.00     0.071 A 
ATOM     28  N   UNL     1       5.268  -0.495   0.902  1.00  0.00    -0.158 NA
ATOM     29  C   UNL     1       7.086  -0.392  -0.444  1.00  0.00     0.034 A 
ATOM     30  N   UNL     1       6.575  -0.746   0.773  1.00  0.00    -0.281 N 
ATOM     31  C   UNL     1       8.513  -0.560  -0.786  1.00  0.00     0.066 C 
ATOM     32  H   UNL     1       7.061  -1.151   1.565  1.00  0.00     0.190 HD
ENDBRANCH  24  26
ENDBRANCH  14  24
ENDBRANCH   1   9
TORSDOF 8
