MODEL        2USER    Run = 2USERUSER    Estimated Free Energy of Binding    = -10.71 kcal/mol  [=(1)+(2)+(3)-(4)]USERUSER    (1) Final Intermolecular Energy     = -13.39 kcal/molUSER        vdW + Hbond + desolv Energy     = -13.22 kcal/molUSER        Electrostatic Energy            =  -0.17 kcal/molUSER        Moving Ligand-Fixed Receptor    = -13.39 kcal/molUSER        Moving Ligand-Moving Receptor   =  +0.00 kcal/molUSER    (2) Final Total Internal Energy     =  -3.17 kcal/molUSER    (3) Torsional Free Energy           =  +2.68 kcal/molUSER    (4) Unbound System's Energy         =  -3.17 kcal/molUSERUSERREMARK SMILES C[C@@H](O)NC[C@H]1C(=O)N[C@@H](c2c(F)cccc2Cl)N1C(=O)CN1CCC(c2ccc(F)c3c2CCC3)CC1REMARK SMILES IDX 6 1 7 2 8 3 9 4 10 5 19 6 5 8 4 9 2 11 1 12 3 13 20 15 21 16REMARK SMILES IDX 22 17 23 18 24 19 38 20 25 21 37 22 26 23 27 24 28 25 33 26REMARK SMILES IDX 29 27 32 28 34 29 30 30 36 31 35 32 31 33 11 34 12 35 17 36REMARK SMILES IDX 14 37 16 38 15 39 13 40 18 41REMARK H PARENT 9 7 4 10 3 14USER                              x       y       z     vdW  Elec       q    TypeUSER                           _______ _______ _______ _____ _____    ______ ____ROOTATOM      1  C   UNL     1      24.077  38.720  20.476 -0.21 -0.16    +0.190 C  ATOM      2  C   UNL     1      23.302  38.699  19.163 -0.25 -0.18    +0.246 C  ATOM      3  O   UNL     1      22.138  38.375  19.000 -0.91 +0.14    -0.273 OA ATOM      4  N   UNL     1      24.115  39.147  18.152 -0.11 +0.11    -0.330 N  ATOM      5  C   UNL     1      25.467  39.292  18.568 -0.25 -0.03    +0.218 C  ATOM      6  N   UNL     1      25.440  38.995  19.982 -0.12 +0.15    -0.304 N  ATOM      7  H   UNL     1      23.814  39.101  17.187 -0.15 -0.05    +0.166 HD ENDROOTBRANCH   1   8ATOM      8  C   UNL     1      23.535  39.838  21.392 -0.06 -0.04    +0.118 C  BRANCH   8   9ATOM      9  N   UNL     1      24.570  40.532  22.172 -0.68 +0.06    -0.290 NA ATOM     10  H   UNL     1      24.936  39.898  22.884 -0.43 -0.03    +0.125 HD BRANCH   9  11ATOM     11  C   UNL     1      24.107  41.731  22.839 -0.47 -0.03    +0.179 C  ATOM     12  C   UNL     1      24.168  42.976  21.963 -0.65 -0.02    +0.056 C  BRANCH  11  13ATOM     13  O   UNL     1      22.759  41.490  23.164 -0.87 +0.09    -0.379 OA ATOM     14  H   UNL     1      22.627  42.020  23.971 -0.35 -0.19    +0.212 HD ENDBRANCH  11  13ENDBRANCH   9  11ENDBRANCH   8   9ENDBRANCH   1   8BRANCH   6  15ATOM     15  C   UNL     1      26.623  38.649  20.613 -0.20 -0.08    +0.239 C  ATOM     16  O   UNL     1      26.746  38.789  21.831 -0.24 +0.08    -0.273 OA BRANCH  15  17ATOM     17  C   UNL     1      27.757  38.123  19.712 -0.23 -0.00    +0.185 C  BRANCH  17  18ATOM     18  N   UNL     1      28.686  39.147  19.213 -0.12 -0.03    -0.294 NA ATOM     19  C   UNL     1      29.990  39.162  19.878 -0.27 +0.01    +0.085 C  ATOM     20  C   UNL     1      28.721  39.261  17.759 -0.23 +0.03    +0.085 C  ATOM     21  C   UNL     1      31.197  39.124  18.935 -0.47 +0.00    +0.024 C  ATOM     22  C   UNL     1      29.650  40.403  17.355 -0.37 -0.00    +0.024 C  ATOM     23  C   UNL     1      31.106  40.115  17.756 -0.42 -0.00    +0.022 C  BRANCH  23  24ATOM     24  C   UNL     1      31.876  41.418  17.919 -0.33 +0.01    -0.041 A  ATOM     25  C   UNL     1      32.705  41.665  19.031 -0.38 -0.00    +0.007 A  ATOM     26  C   UNL     1      31.747  42.453  16.986 -0.28 +0.01    -0.038 A  ATOM     27  C   UNL     1      33.369  42.892  19.196 -0.37 -0.00    +0.040 A  ATOM     28  C   UNL     1      32.408  43.680  17.159 -0.30 +0.00    -0.009 A  ATOM     29  C   UNL     1      30.900  42.507  15.747 -0.38 -0.02    +0.036 C  ATOM     30  C   UNL     1      33.210  43.902  18.258 -0.25 -0.03    +0.126 A  ATOM     31  C   UNL     1      32.065  44.648  16.074 -0.37 -0.02    +0.039 C  ATOM     32  C   UNL     1      31.508  43.705  15.002 -0.42 -0.01    +0.010 C  ATOM     33  F   UNL     1      33.822  45.080  18.429 -0.09 +0.09    -0.207 F  ENDBRANCH  23  24ENDBRANCH  17  18ENDBRANCH  15  17ENDBRANCH   6  15BRANCH   5  34ATOM     34  C   UNL     1      26.017  40.638  18.157 -0.23 -0.00    +0.049 A  ATOM     35  C   UNL     1      26.377  41.618  19.093 -0.19 -0.02    +0.131 A  ATOM     36  C   UNL     1      26.155  40.977  16.798 -0.26 -0.00    +0.051 A  ATOM     37  C   UNL     1      26.877  42.863  18.709 -0.25 -0.01    +0.040 A  ATOM     38  C   UNL     1      26.657  42.226  16.405 -0.23 -0.00    +0.021 A  ATOM     39  C   UNL     1      27.022  43.169  17.361 -0.25 -0.00    +0.005 A  ATOM     40  F   UNL     1      26.241  41.396  20.407 -0.08 +0.03    -0.206 F  ATOM     41  Cl  UNL     1      25.691  39.892  15.531 -0.51 -0.01    -0.084 Cl ENDBRANCH   5  34TORSDOF 9TERENDMDL