REMARK SMILES C[C@@H](O)NC[C@H]1C(=O)N[C@@H](c2c(F)cccc2Cl)N1C(=O)CN1CCC(c2ccc(F)c3c2CCC3)CC1
REMARK SMILES IDX 6 1 7 2 8 3 9 4 10 5 19 6 5 8 4 9 2 11 1 12 3 13 20 15 21 16
REMARK SMILES IDX 22 17 23 18 24 19 38 20 25 21 37 22 26 23 27 24 28 25 33 26
REMARK SMILES IDX 29 27 32 28 34 29 30 30 36 31 35 32 31 33 11 34 12 35 17 36
REMARK SMILES IDX 14 37 16 38 15 39 13 40 18 41
REMARK H PARENT 9 7 4 10 3 14
ROOT
ATOM      1  C   UNL     1      -4.053  -0.374  -0.983  1.00  0.00     0.190 C 
ATOM      2  C   UNL     1      -5.280   0.407  -1.441  1.00  0.00     0.246 C 
ATOM      3  O   UNL     1      -6.327  -0.050  -1.869  1.00  0.00    -0.273 OA
ATOM      4  N   UNL     1      -5.052   1.749  -1.265  1.00  0.00    -0.330 N 
ATOM      5  C   UNL     1      -3.701   2.028  -0.921  1.00  0.00     0.218 C 
ATOM      6  N   UNL     1      -3.090   0.725  -0.785  1.00  0.00    -0.304 N 
ATOM      7  H   UNL     1      -5.708   2.435  -1.614  1.00  0.00     0.166 HD
ENDROOT
BRANCH   1   8
ATOM      8  C   UNL     1      -4.368  -1.137   0.322  1.00  0.00     0.118 C 
BRANCH   8   9
ATOM      9  N   UNL     1      -4.930  -2.479   0.114  1.00  0.00    -0.290 NA
ATOM     10  H   UNL     1      -5.399  -2.783   0.968  1.00  0.00     0.125 HD
BRANCH   9  11
ATOM     11  C   UNL     1      -3.951  -3.485  -0.239  1.00  0.00     0.179 C 
ATOM     12  C   UNL     1      -3.177  -4.027   0.956  1.00  0.00     0.056 C 
BRANCH  11  13
ATOM     13  O   UNL     1      -4.682  -4.547  -0.804  1.00  0.00    -0.379 OA
ATOM     14  H   UNL     1      -5.460  -4.103  -1.187  1.00  0.00     0.212 HD
ENDBRANCH  11  13
ENDBRANCH   9  11
ENDBRANCH   8   9
ENDBRANCH   1   8
BRANCH   6  15
ATOM     15  C   UNL     1      -1.710   0.626  -0.856  1.00  0.00     0.239 C 
ATOM     16  O   UNL     1      -1.012   1.642  -0.879  1.00  0.00    -0.273 OA
BRANCH  15  17
ATOM     17  C   UNL     1      -1.123  -0.796  -0.936  1.00  0.00     0.185 C 
BRANCH  17  18
ATOM     18  N   UNL     1       0.328  -0.887  -0.720  1.00  0.00    -0.294 NA
ATOM     19  C   UNL     1       1.141  -0.308  -1.791  1.00  0.00     0.085 C 
ATOM     20  C   UNL     1       0.750  -0.557   0.637  1.00  0.00     0.085 C 
ATOM     21  C   UNL     1       2.205   0.692  -1.327  1.00  0.00     0.024 C 
ATOM     22  C   UNL     1       2.256  -0.763   0.772  1.00  0.00     0.024 C 
ATOM     23  C   UNL     1       3.042   0.208  -0.125  1.00  0.00     0.022 C 
BRANCH  23  24
ATOM     24  C   UNL     1       4.411  -0.369  -0.455  1.00  0.00    -0.041 A 
ATOM     25  C   UNL     1       4.645  -1.126  -1.620  1.00  0.00     0.007 A 
ATOM     26  C   UNL     1       5.490  -0.213   0.423  1.00  0.00    -0.038 A 
ATOM     27  C   UNL     1       5.900  -1.698  -1.887  1.00  0.00     0.040 A 
ATOM     28  C   UNL     1       6.741  -0.791   0.154  1.00  0.00    -0.009 A 
ATOM     29  C   UNL     1       5.531   0.481   1.754  1.00  0.00     0.036 C 
ATOM     30  C   UNL     1       6.946  -1.533  -0.990  1.00  0.00     0.126 A 
ATOM     31  C   UNL     1       7.711  -0.545   1.263  1.00  0.00     0.039 C 
ATOM     32  C   UNL     1       7.042   0.629   1.985  1.00  0.00     0.010 C 
ATOM     33  F   UNL     1       8.134  -2.100  -1.232  1.00  0.00    -0.207 F 
ENDBRANCH  23  24
ENDBRANCH  17  18
ENDBRANCH  15  17
ENDBRANCH   6  15
BRANCH   5  34
ATOM     34  C   UNL     1      -3.627   2.951   0.272  1.00  0.00     0.049 A 
ATOM     35  C   UNL     1      -3.434   2.476   1.577  1.00  0.00     0.131 A 
ATOM     36  C   UNL     1      -3.789   4.341   0.121  1.00  0.00     0.051 A 
ATOM     37  C   UNL     1      -3.375   3.332   2.678  1.00  0.00     0.040 A 
ATOM     38  C   UNL     1      -3.731   5.207   1.222  1.00  0.00     0.021 A 
ATOM     39  C   UNL     1      -3.520   4.703   2.502  1.00  0.00     0.005 A 
ATOM     40  F   UNL     1      -3.310   1.164   1.819  1.00  0.00    -0.206 F 
ATOM     41  Cl  UNL     1      -4.098   5.065  -1.422  1.00  0.00    -0.084 Cl
ENDBRANCH   5  34
TORSDOF 9
