MODEL        2USER    Run = 2USERUSER    Estimated Free Energy of Binding    = -10.16 kcal/mol  [=(1)+(2)+(3)-(4)]USERUSER    (1) Final Intermolecular Energy     = -12.55 kcal/molUSER        vdW + Hbond + desolv Energy     = -12.31 kcal/molUSER        Electrostatic Energy            =  -0.24 kcal/molUSER        Moving Ligand-Fixed Receptor    = -12.55 kcal/molUSER        Moving Ligand-Moving Receptor   =  +0.00 kcal/molUSER    (2) Final Total Internal Energy     =  -0.96 kcal/molUSER    (3) Torsional Free Energy           =  +2.39 kcal/molUSER    (4) Unbound System's Energy         =  -0.96 kcal/molUSERUSERREMARK SMILES CNC(=O)OCCc1c(N2CCC[C@H](OC)C2)cc(Nc2cc(C)[nH]n2)nc1CREMARK SMILES IDX 7 1 6 2 5 3 3 4 2 5 1 6 4 8 8 9 9 10 28 11 18 12 27 13 19 14REMARK SMILES IDX 29 15 10 16 11 17 17 18 12 19 14 20 13 21 15 22 16 23 20 24REMARK SMILES IDX 21 26 22 27 26 28 23 29 25 30 24 31REMARK H PARENT 2 7 20 25 25 32USER                              x       y       z     vdW  Elec       q    TypeUSER                           _______ _______ _______ _____ _____    ______ ____ROOTATOM      1  C   UNL     1      39.264  45.993  17.718 -0.44 -0.01    +0.081 C  ENDROOTBRANCH   1   2ATOM      2  C   UNL     1      40.223  44.842  18.011 -0.19 -0.01    +0.240 C  BRANCH   2   3ATOM      3  O   UNL     1      39.586  43.955  18.943 -0.08 +0.01    -0.449 OA BRANCH   3   4ATOM      4  C   UNL     1      38.857  44.582  19.897 -0.15 -0.01    +0.406 C  ATOM      5  N   UNL     1      39.694  44.999  20.886 -0.15 -0.01    -0.325 N  ATOM      6  C   UNL     1      39.243  45.818  21.977 -0.27 +0.01    +0.146 C  ATOM      7  H   UNL     1      40.680  44.892  20.699 +0.10 +0.01    +0.166 HD ATOM      8  O   UNL     1      37.649  44.753  19.870 -0.29 +0.01    -0.225 OA ENDBRANCH   3   4ENDBRANCH   2   3ENDBRANCH   1   2BRANCH   1   9ATOM      9  C   UNL     1      39.966  47.183  17.105 -0.49 -0.00    +0.000 A  ATOM     10  C   UNL     1      39.504  47.744  15.902 -0.48 -0.01    +0.046 A  ATOM     11  C   UNL     1      41.120  47.733  17.676 -0.48 -0.00    +0.045 A  ATOM     12  C   UNL     1      40.205  48.822  15.351 -0.53 -0.02    +0.073 A  ATOM     13  N   UNL     1      41.787  48.779  17.128 -0.76 -0.03    -0.236 NA ATOM     14  C   UNL     1      41.337  49.324  15.984 -0.40 -0.01    +0.133 A  ATOM     15  C   UNL     1      41.716  47.206  18.950 -0.45 +0.00    +0.067 C  BRANCH  10  16ATOM     16  N   UNL     1      38.342  47.223  15.290 -0.15 +0.16    -0.369 N  ATOM     17  C   UNL     1      38.571  46.063  14.420 -0.38 -0.03    +0.117 C  ATOM     18  C   UNL     1      37.526  48.294  14.659 -0.48 -0.10    +0.148 C  ATOM     19  C   UNL     1      37.235  45.351  14.193 -0.46 -0.01    +0.024 C  ATOM     20  C   UNL     1      36.456  47.720  13.694 -0.49 -0.08    +0.137 C  ATOM     21  C   UNL     1      36.042  46.313  14.129 -0.49 -0.02    +0.036 C  BRANCH  20  22ATOM     22  O   UNL     1      36.954  47.617  12.346 -0.95 +0.11    -0.380 OA ATOM     23  C   UNL     1      36.290  46.619  11.580 -0.49 -0.09    +0.195 C  ENDBRANCH  20  22ENDBRANCH  10  16BRANCH  14  24ATOM     24  N   UNL     1      41.998  50.419  15.381 -0.35 +0.03    -0.323 N  ATOM     25  H   UNL     1      41.697  51.275  15.824 -0.39 -0.07    +0.170 HD BRANCH  24  26ATOM     26  C   UNL     1      42.450  50.506  14.109 -0.50 -0.03    +0.153 A  ATOM     27  C   UNL     1      43.345  51.531  13.706 -0.14 -0.02    +0.071 A  ATOM     28  N   UNL     1      42.215  49.666  13.098 -0.48 +0.03    -0.158 NA ATOM     29  C   UNL     1      43.605  51.300  12.373 -0.47 -0.02    +0.034 A  ATOM     30  N   UNL     1      42.886  50.180  12.062 -0.33 +0.13    -0.281 N  ATOM     31  C   UNL     1      44.438  52.010  11.382 -0.35 -0.04    +0.066 C  ATOM     32  H   UNL     1      42.818  49.705  11.170 -0.33 -0.10    +0.190 HD ENDBRANCH  24  26ENDBRANCH  14  24ENDBRANCH   1   9TORSDOF 8TERENDMDL