REMARK SMILES C[C@H](O)Cn1cnc2c(NCc3ccccc3)nc(Nc3ccc(O)c(F)c3)nc21
REMARK SMILES IDX 5 1 6 2 7 3 8 4 9 5 18 6 19 7 29 8 30 9 4 10 2 11 1 12 3 13
REMARK SMILES IDX 20 15 21 17 22 18 28 19 23 20 26 21 24 22 27 23 25 24 10 26
REMARK SMILES IDX 11 28 12 29 13 30 17 31 14 32 16 33 15 34
REMARK H PARENT 3 14 20 16 25 25 10 27
ROOT
ATOM      1  N   UNL     1      -0.117   2.121  -1.621  1.00  0.00    -0.312 N 
ATOM      2  C   UNL     1      -1.447   2.155  -1.936  1.00  0.00     0.202 A 
ATOM      3  N   UNL     1      -2.077   1.081  -1.508  1.00  0.00    -0.231 NA
ATOM      4  C   UNL     1      -1.101   0.307  -0.906  1.00  0.00     0.150 A 
ATOM      5  C   UNL     1      -1.116  -0.944  -0.265  1.00  0.00     0.160 A 
ATOM      6  N   UNL     1       0.059  -1.402   0.245  1.00  0.00    -0.193 NA
ATOM      7  C   UNL     1       1.197  -0.681   0.123  1.00  0.00     0.231 A 
ATOM      8  N   UNL     1       1.291   0.516  -0.476  1.00  0.00    -0.193 NA
ATOM      9  C   UNL     1       0.123   0.947  -0.964  1.00  0.00     0.167 A 
ENDROOT
BRANCH   1  10
ATOM     10  C   UNL     1       0.865   3.126  -1.949  1.00  0.00     0.156 C 
BRANCH  10  11
ATOM     11  C   UNL     1       1.398   3.910  -0.743  1.00  0.00     0.131 C 
ATOM     12  C   UNL     1       0.317   4.702  -0.016  1.00  0.00     0.040 C 
BRANCH  11  13
ATOM     13  O   UNL     1       2.410   4.818  -1.189  1.00  0.00    -0.392 OA
ATOM     14  H   UNL     1       1.983   5.585  -1.609  1.00  0.00     0.211 HD
ENDBRANCH  11  13
ENDBRANCH  10  11
ENDBRANCH   1  10
BRANCH   7  15
ATOM     15  N   UNL     1       2.313  -1.292   0.692  1.00  0.00    -0.324 N 
ATOM     16  H   UNL     1       2.029  -2.190   1.060  1.00  0.00     0.170 HD
BRANCH  15  17
ATOM     17  C   UNL     1       3.664  -0.948   0.812  1.00  0.00     0.044 A 
ATOM     18  C   UNL     1       4.211   0.254   0.338  1.00  0.00     0.030 A 
ATOM     19  C   UNL     1       4.528  -1.852   1.452  1.00  0.00     0.069 A 
ATOM     20  C   UNL     1       5.573   0.549   0.490  1.00  0.00     0.051 A 
ATOM     21  C   UNL     1       5.880  -1.555   1.602  1.00  0.00     0.166 A 
ATOM     22  C   UNL     1       6.402  -0.361   1.124  1.00  0.00     0.151 A 
ATOM     23  F   UNL     1       6.690  -2.431   2.215  1.00  0.00    -0.203 F 
BRANCH  22  24
ATOM     24  O   UNL     1       7.725  -0.061   1.265  1.00  0.00    -0.505 OA
ATOM     25  H   UNL     1       8.137  -0.815   1.729  1.00  0.00     0.293 HD
ENDBRANCH  22  24
ENDBRANCH  15  17
ENDBRANCH   7  15
BRANCH   5  26
ATOM     26  N   UNL     1      -2.220  -1.779  -0.101  1.00  0.00    -0.364 N 
ATOM     27  H   UNL     1      -2.025  -2.442   0.642  1.00  0.00     0.162 HD
BRANCH  26  28
ATOM     28  C   UNL     1      -3.526  -1.148  -0.037  1.00  0.00     0.150 C 
BRANCH  28  29
ATOM     29  C   UNL     1      -4.539  -2.166   0.437  1.00  0.00    -0.029 A 
ATOM     30  C   UNL     1      -5.029  -2.133   1.751  1.00  0.00     0.005 A 
ATOM     31  C   UNL     1      -4.980  -3.180  -0.426  1.00  0.00     0.005 A 
ATOM     32  C   UNL     1      -5.953  -3.085   2.185  1.00  0.00     0.000 A 
ATOM     33  C   UNL     1      -5.903  -4.131   0.010  1.00  0.00     0.000 A 
ATOM     34  C   UNL     1      -6.391  -4.082   1.315  1.00  0.00     0.000 A 
ENDBRANCH  28  29
ENDBRANCH  26  28
ENDBRANCH   5  26
TORSDOF 9
