REMARK SMILES Cc1cc(-c2cc(C3=C(NCCO)[C@@H]4C=NC=CC4=N3)ccc2C)ccc1O
REMARK SMILES IDX 8 1 9 2 14 3 15 4 16 5 17 6 18 7 19 8 20 9 7 10 5 11 6 12
REMARK SMILES IDX 23 13 22 14 21 15 24 16 4 17 2 18 3 19 27 20 26 21 25 22
REMARK SMILES IDX 1 23 28 24 10 26 11 28 12 29 13 30
REMARK H PARENT 28 25 10 27 13 31
ROOT
ATOM      1  C   UNL     1      -2.028  -1.554  -0.086  1.00  0.00     0.091 C 
ATOM      2  C   UNL     1      -2.703  -0.433   0.255  1.00  0.00     0.052 C 
ATOM      3  C   UNL     1      -4.071  -0.846   0.715  1.00  0.00     0.128 C 
ATOM      4  C   UNL     1      -4.555  -0.516   2.101  1.00  0.00     0.100 C 
ATOM      5  N   UNL     1      -5.262  -1.342   2.819  1.00  0.00    -0.268 NA
ATOM      6  C   UNL     1      -5.486  -2.606   2.311  1.00  0.00     0.112 C 
ATOM      7  C   UNL     1      -4.844  -3.184   1.285  1.00  0.00     0.045 C 
ATOM      8  C   UNL     1      -3.838  -2.327   0.659  1.00  0.00     0.057 C 
ATOM      9  N   UNL     1      -2.732  -2.722   0.116  1.00  0.00    -0.250 NA
ENDROOT
BRANCH   1  10
ATOM     10  C   UNL     1      -0.666  -1.609  -0.639  1.00  0.00     0.003 A 
ATOM     11  C   UNL     1       1.710  -0.995  -0.545  1.00  0.00    -0.015 A 
ATOM     12  C   UNL     1       0.403  -0.945  -0.022  1.00  0.00     0.019 A 
ATOM     13  C   UNL     1       1.947  -1.760  -1.708  1.00  0.00    -0.043 A 
ATOM     14  C   UNL     1       0.878  -2.435  -2.319  1.00  0.00     0.005 A 
ATOM     15  C   UNL     1      -0.410  -2.365  -1.786  1.00  0.00     0.011 A 
ATOM     16  C   UNL     1       3.320  -1.870  -2.317  1.00  0.00     0.045 C 
BRANCH  11  17
ATOM     17  C   UNL     1       2.777  -0.255   0.143  1.00  0.00    -0.018 A 
ATOM     18  C   UNL     1       4.292   1.674   0.263  1.00  0.00    -0.009 A 
ATOM     19  C   UNL     1       3.276   0.949  -0.385  1.00  0.00     0.016 A 
ATOM     20  C   UNL     1       4.803   1.168   1.462  1.00  0.00     0.118 A 
ATOM     21  C   UNL     1       4.318  -0.020   2.004  1.00  0.00     0.047 A 
ATOM     22  C   UNL     1       3.311  -0.728   1.349  1.00  0.00     0.012 A 
ATOM     23  C   UNL     1       4.789   2.951  -0.349  1.00  0.00     0.048 C 
BRANCH  20  24
ATOM     24  O   UNL     1       5.790   1.791   2.171  1.00  0.00    -0.508 OA
ATOM     25  H   UNL     1       6.067   2.593   1.702  1.00  0.00     0.293 HD
ENDBRANCH  20  24
ENDBRANCH  11  17
ENDBRANCH   1  10
BRANCH   2  26
ATOM     26  N   UNL     1      -2.326   0.888   0.108  1.00  0.00    -0.383 N 
ATOM     27  H   UNL     1      -1.374   1.027  -0.225  1.00  0.00     0.160 HD
BRANCH  26  28
ATOM     28  C   UNL     1      -3.070   2.081   0.469  1.00  0.00     0.141 C 
BRANCH  28  29
ATOM     29  C   UNL     1      -2.590   3.295  -0.333  1.00  0.00     0.177 C 
BRANCH  29  30
ATOM     30  O   UNL     1      -3.328   4.452   0.044  1.00  0.00    -0.395 OA
ATOM     31  H   UNL     1      -2.999   5.189  -0.499  1.00  0.00     0.210 HD
ENDBRANCH  29  30
ENDBRANCH  28  29
ENDBRANCH  26  28
ENDBRANCH   2  26
TORSDOF 7
