REMARK SMILES OCCNC1=C(c2cc(Cl)cc(-c3ccc(O)cc3)c2)N=C2C=CN=C[C@H]21
REMARK SMILES IDX 5 1 6 2 21 3 22 4 23 5 24 6 25 7 26 8 27 9 4 10 3 12 2 13
REMARK SMILES IDX 1 14 7 16 8 17 20 18 9 19 12 20 11 21 10 22 13 23 14 24
REMARK SMILES IDX 19 25 15 26 18 27 16 28 17 29
REMARK H PARENT 4 11 1 15 17 30
ROOT
ATOM      1  C   UNL     1      -2.305  -0.135  -0.265  1.00  0.00     0.052 C 
ATOM      2  C   UNL     1      -1.139  -0.815  -0.172  1.00  0.00     0.091 C 
ATOM      3  N   UNL     1      -1.069  -1.932  -0.977  1.00  0.00    -0.250 NA
ATOM      4  C   UNL     1      -2.236  -1.987  -1.533  1.00  0.00     0.057 C 
ATOM      5  C   UNL     1      -2.766  -3.108  -2.309  1.00  0.00     0.045 C 
ATOM      6  C   UNL     1      -4.093  -3.264  -2.197  1.00  0.00     0.112 C 
ATOM      7  N   UNL     1      -4.951  -2.512  -1.421  1.00  0.00    -0.268 NA
ATOM      8  C   UNL     1      -4.506  -1.384  -0.945  1.00  0.00     0.100 C 
ATOM      9  C   UNL     1      -3.154  -0.825  -1.294  1.00  0.00     0.128 C 
ENDROOT
BRANCH   1  10
ATOM     10  N   UNL     1      -2.665   1.060   0.323  1.00  0.00    -0.383 N 
ATOM     11  H   UNL     1      -2.040   1.389   1.063  1.00  0.00     0.160 HD
BRANCH  10  12
ATOM     12  C   UNL     1      -3.972   1.696   0.364  1.00  0.00     0.141 C 
BRANCH  12  13
ATOM     13  C   UNL     1      -3.824   3.151   0.826  1.00  0.00     0.177 C 
BRANCH  13  14
ATOM     14  O   UNL     1      -3.258   3.188   2.137  1.00  0.00    -0.395 OA
ATOM     15  H   UNL     1      -3.144   4.126   2.370  1.00  0.00     0.210 HD
ENDBRANCH  13  14
ENDBRANCH  12  13
ENDBRANCH  10  12
ENDBRANCH   1  10
BRANCH   2  16
ATOM     16  C   UNL     1       0.011  -0.456   0.671  1.00  0.00     0.004 A 
ATOM     17  C   UNL     1      -0.136  -0.200   2.038  1.00  0.00     0.031 A 
ATOM     18  C   UNL     1       1.297  -0.410   0.106  1.00  0.00     0.019 A 
ATOM     19  C   UNL     1       0.978   0.122   2.809  1.00  0.00     0.042 A 
ATOM     20  C   UNL     1       2.432  -0.089   0.873  1.00  0.00    -0.016 A 
ATOM     21  C   UNL     1       2.249   0.181   2.237  1.00  0.00     0.029 A 
ATOM     22  Cl  UNL     1       0.786   0.444   4.490  1.00  0.00    -0.084 Cl
BRANCH  20  23
ATOM     23  C   UNL     1       3.771  -0.044   0.262  1.00  0.00    -0.018 A 
ATOM     24  C   UNL     1       4.255  -1.120  -0.503  1.00  0.00     0.012 A 
ATOM     25  C   UNL     1       4.607   1.076   0.424  1.00  0.00     0.012 A 
ATOM     26  C   UNL     1       5.525  -1.079  -1.082  1.00  0.00     0.047 A 
ATOM     27  C   UNL     1       5.879   1.121  -0.155  1.00  0.00     0.047 A 
ATOM     28  C   UNL     1       6.327   0.040  -0.904  1.00  0.00     0.115 A 
BRANCH  28  29
ATOM     29  O   UNL     1       7.559   0.039  -1.486  1.00  0.00    -0.508 OA
ATOM     30  H   UNL     1       8.002   0.877  -1.274  1.00  0.00     0.293 HD
ENDBRANCH  28  29
ENDBRANCH  20  23
ENDBRANCH   2  16
TORSDOF 7
