MODEL        9USER    Run = 9USERUSER    Estimated Free Energy of Binding    = -11.00 kcal/mol  [=(1)+(2)+(3)-(4)]USERUSER    (1) Final Intermolecular Energy     = -13.08 kcal/molUSER        vdW + Hbond + desolv Energy     = -12.73 kcal/molUSER        Electrostatic Energy            =  -0.35 kcal/molUSER        Moving Ligand-Fixed Receptor    = -13.08 kcal/molUSER        Moving Ligand-Moving Receptor   =  +0.00 kcal/molUSER    (2) Final Total Internal Energy     =  -1.93 kcal/molUSER    (3) Torsional Free Energy           =  +2.09 kcal/molUSER    (4) Unbound System's Energy         =  -1.93 kcal/molUSERUSERREMARK SMILES OCCNC1=C(c2cc(Cl)cc(-c3ccc(O)cc3)c2)N=C2C=CN=C[C@H]21REMARK SMILES IDX 5 1 6 2 21 3 22 4 23 5 24 6 25 7 26 8 27 9 4 10 3 12 2 13REMARK SMILES IDX 1 14 7 16 8 17 20 18 9 19 12 20 11 21 10 22 13 23 14 24REMARK SMILES IDX 19 25 15 26 18 27 16 28 17 29REMARK H PARENT 4 11 1 15 17 30USER                              x       y       z     vdW  Elec       q    TypeUSER                           _______ _______ _______ _____ _____    ______ ____ROOTATOM      1  C   UNL     1      38.660  47.058  15.107 -0.48 -0.02    +0.052 C  ATOM      2  C   UNL     1      38.139  46.011  15.788 -0.37 -0.03    +0.091 C  ATOM      3  N   UNL     1      37.273  45.232  15.052 -0.20 +0.10    -0.250 NA ATOM      4  C   UNL     1      37.200  45.840  13.912 -0.46 -0.02    +0.057 C  ATOM      5  C   UNL     1      36.243  45.553  12.844 -0.51 -0.02    +0.045 C  ATOM      6  C   UNL     1      35.889  46.632  12.131 -0.61 -0.06    +0.112 C  ATOM      7  N   UNL     1      36.307  47.931  12.334 -0.75 +0.12    -0.268 NA ATOM      8  C   UNL     1      37.333  48.122  13.113 -0.39 -0.03    +0.100 C  ATOM      9  C   UNL     1      38.136  46.994  13.701 -0.43 -0.04    +0.128 C  ENDROOTBRANCH   1  10ATOM     10  N   UNL     1      39.616  47.969  15.508 -0.21 +0.12    -0.383 N  ATOM     11  H   UNL     1      39.579  48.236  16.495 +0.11 -0.06    +0.160 HD BRANCH  10  12ATOM     12  C   UNL     1      40.374  48.908  14.697 -0.52 -0.04    +0.141 C  BRANCH  12  13ATOM     13  C   UNL     1      41.390  49.646  15.577 -0.55 -0.02    +0.177 C  BRANCH  13  14ATOM     14  O   UNL     1      41.637  48.896  16.767 -0.85 -0.04    -0.395 OA ATOM     15  H   UNL     1      42.167  48.122  16.509 -0.37 +0.01    +0.210 HD ENDBRANCH  13  14ENDBRANCH  12  13ENDBRANCH  10  12ENDBRANCH   1  10BRANCH   2  16ATOM     16  C   UNL     1      38.431  45.651  17.183 -0.39 -0.00    +0.004 A  ATOM     17  C   UNL     1      37.546  44.875  17.939 -0.34 -0.01    +0.031 A  ATOM     18  C   UNL     1      39.646  46.055  17.764 -0.44 -0.00    +0.019 A  ATOM     19  C   UNL     1      37.863  44.540  19.253 -0.33 -0.00    +0.042 A  ATOM     20  C   UNL     1      39.980  45.722  19.089 -0.43 +0.00    -0.016 A  ATOM     21  C   UNL     1      39.063  44.959  19.827 -0.36 -0.00    +0.029 A  ATOM     22  Cl  UNL     1      36.763  43.591  20.178 -0.56 +0.00    -0.084 Cl BRANCH  20  23ATOM     23  C   UNL     1      41.257  46.156  19.680 -0.41 -0.00    -0.018 A  ATOM     24  C   UNL     1      41.612  45.787  20.990 -0.33 +0.00    +0.012 A  ATOM     25  C   UNL     1      42.161  46.953  18.954 -0.53 +0.00    +0.012 A  ATOM     26  C   UNL     1      42.822  46.199  21.552 -0.29 +0.01    +0.047 A  ATOM     27  C   UNL     1      43.373  47.367  19.513 -0.39 +0.01    +0.047 A  ATOM     28  C   UNL     1      43.693  46.986  20.810 -0.28 +0.06    +0.115 A  BRANCH  28  29ATOM     29  O   UNL     1      44.863  47.366  21.396 -0.65 -0.45    -0.508 OA ATOM     30  H   UNL     1      44.814  48.315  21.596 -0.40 +0.06    +0.293 HD ENDBRANCH  28  29ENDBRANCH  20  23ENDBRANCH   2  16TORSDOF 7TERENDMDL