REMARK SMILES Cc1cccc(-c2n[nH]c3cc(NCC[C@@H](N)C(=O)NCC(F)(F)F)ccc23)c1C
REMARK SMILES IDX 15 1 14 2 13 3 12 5 7 6 8 7 28 8 9 9 27 10 10 11 26 12 11 13
REMARK SMILES IDX 6 15 2 16 3 17 29 18 4 19 5 20 1 21 30 22 16 23 17 24 18 27
REMARK SMILES IDX 20 28 19 29 21 31 22 32 23 33 24 34 25 35
REMARK H PARENT 13 4 9 14 17 25 17 26 20 30
ROOT
ATOM      1  C   UNL     1       4.114  -0.854  -0.012  1.00  0.00     0.050 C 
ENDROOT
BRANCH   1   2
ATOM      2  C   UNL     1       2.645  -1.170  -0.315  1.00  0.00     0.115 C 
BRANCH   2   3
ATOM      3  N   UNL     1       1.778  -0.543   0.672  1.00  0.00    -0.385 N 
ATOM      4  H   UNL     1       2.114   0.404   0.896  1.00  0.00     0.160 HD
BRANCH   3   5
ATOM      5  C   UNL     1       0.390  -0.553   0.471  1.00  0.00     0.036 A 
ATOM      6  C   UNL     1      -3.787  -0.864  -0.035  1.00  0.00     0.100 A 
ATOM      7  N   UNL     1      -3.850  -1.965  -0.803  1.00  0.00    -0.174 NA
ATOM      8  C   UNL     1      -2.434  -0.541   0.294  1.00  0.00     0.028 A 
ATOM      9  N   UNL     1      -2.570  -2.341  -0.941  1.00  0.00    -0.277 N 
ATOM     10  C   UNL     1      -1.780   0.453   1.040  1.00  0.00     0.015 A 
ATOM     11  C   UNL     1      -1.668  -1.522  -0.321  1.00  0.00     0.068 A 
ATOM     12  C   UNL     1      -0.379   0.420   1.128  1.00  0.00     0.026 A 
ATOM     13  C   UNL     1      -0.269  -1.568  -0.239  1.00  0.00     0.054 A 
ATOM     14  H   UNL     1      -2.373  -3.175  -1.481  1.00  0.00     0.190 HD
BRANCH   6  15
ATOM     15  C   UNL     1      -4.996  -0.156   0.385  1.00  0.00     0.006 A 
ATOM     16  C   UNL     1      -7.056   1.074  -0.062  1.00  0.00    -0.048 A 
ATOM     17  C   UNL     1      -7.296   1.134   1.320  1.00  0.00     0.004 A 
ATOM     18  C   UNL     1      -5.880   0.447  -0.543  1.00  0.00    -0.039 A 
ATOM     19  C   UNL     1      -6.410   0.559   2.226  1.00  0.00     0.001 A 
ATOM     20  C   UNL     1      -5.270  -0.088   1.761  1.00  0.00     0.011 A 
ATOM     21  C   UNL     1      -8.060   1.701  -0.992  1.00  0.00     0.044 C 
ATOM     22  C   UNL     1      -5.598   0.375  -2.025  1.00  0.00     0.045 C 
ENDBRANCH   6  15
ENDBRANCH   3   5
ENDBRANCH   2   3
ENDBRANCH   1   2
BRANCH   1  23
ATOM     23  C   UNL     1       4.485   0.620  -0.238  1.00  0.00     0.142 C 
BRANCH  23  24
ATOM     24  N   UNL     1       3.811   1.510   0.735  1.00  0.00    -0.320 NA
ATOM     25  H   UNL     1       4.139   2.465   0.563  1.00  0.00     0.119 HD
ATOM     26  H   UNL     1       4.210   1.299   1.659  1.00  0.00     0.119 HD
ENDBRANCH  23  24
BRANCH  23  27
ATOM     27  C   UNL     1       6.016   0.803  -0.120  1.00  0.00     0.237 C 
ATOM     28  N   UNL     1       6.739   0.340  -1.198  1.00  0.00    -0.346 N 
ATOM     29  O   UNL     1       6.548   1.336   0.851  1.00  0.00    -0.273 OA
ATOM     30  H   UNL     1       6.275  -0.226  -1.899  1.00  0.00     0.163 HD
BRANCH  28  31
ATOM     31  C   UNL     1       8.204   0.313  -1.151  1.00  0.00     0.231 C 
BRANCH  31  32
ATOM     32  C   UNL     1       8.803  -0.914  -0.459  1.00  0.00     0.405 C 
ATOM     33  F   UNL     1       8.448  -1.007   0.838  1.00  0.00    -0.169 F 
ATOM     34  F   UNL     1       8.391  -2.047  -1.080  1.00  0.00    -0.169 F 
ATOM     35  F   UNL     1      10.153  -0.888  -0.521  1.00  0.00    -0.169 F 
ENDBRANCH  31  32
ENDBRANCH  28  31
ENDBRANCH  23  27
ENDBRANCH   1  23
TORSDOF 9
