MODEL        6USER    Run = 6USERUSER    Estimated Free Energy of Binding    =  -8.27 kcal/mol  [=(1)+(2)+(3)-(4)]USERUSER    (1) Final Intermolecular Energy     = -10.95 kcal/molUSER        vdW + Hbond + desolv Energy     = -10.87 kcal/molUSER        Electrostatic Energy            =  -0.09 kcal/molUSER        Moving Ligand-Fixed Receptor    = -10.95 kcal/molUSER        Moving Ligand-Moving Receptor   =  +0.00 kcal/molUSER    (2) Final Total Internal Energy     =  -2.92 kcal/molUSER    (3) Torsional Free Energy           =  +2.68 kcal/molUSER    (4) Unbound System's Energy         =  -2.92 kcal/molUSERUSERREMARK SMILES Cc1cccc(-c2n[nH]c3cc(NCC[C@@H](N)C(=O)NCC(F)(F)F)ccc23)c1CREMARK SMILES IDX 15 1 14 2 13 3 12 5 7 6 8 7 28 8 9 9 27 10 10 11 26 12 11 13REMARK SMILES IDX 6 15 2 16 3 17 29 18 4 19 5 20 1 21 30 22 16 23 17 24 18 27REMARK SMILES IDX 20 28 19 29 21 31 22 32 23 33 24 34 25 35REMARK H PARENT 13 4 9 14 17 25 17 26 20 30USER                              x       y       z     vdW  Elec       q    TypeUSER                           _______ _______ _______ _____ _____    ______ ____ROOTATOM      1  C   UNL     1      43.963  45.569  22.732 -0.20 +0.02    +0.050 C  ENDROOTBRANCH   1   2ATOM      2  C   UNL     1      42.895  45.160  21.711 -0.21 +0.03    +0.115 C  BRANCH   2   3ATOM      3  N   UNL     1      41.929  46.233  21.530 -0.10 -0.06    -0.385 N  ATOM      4  H   UNL     1      42.330  47.133  21.829 +0.07 +0.03    +0.160 HD BRANCH   3   5ATOM      5  C   UNL     1      41.266  46.359  20.301 -0.24 +0.00    +0.036 A  ATOM      6  C   UNL     1      39.517  46.635  16.471 -0.39 -0.02    +0.100 A  ATOM      7  N   UNL     1      40.442  47.380  15.843 -0.36 +0.03    -0.174 NA ATOM      8  C   UNL     1      39.890  46.385  17.828 -0.45 -0.00    +0.028 A  ATOM      9  N   UNL     1      41.388  47.580  16.773 -0.14 +0.03    -0.277 N  ATOM     10  C   UNL     1      39.344  45.692  18.920 -0.41 -0.00    +0.015 A  ATOM     11  C   UNL     1      41.113  47.023  17.990 -0.48 -0.01    +0.068 A  ATOM     12  C   UNL     1      40.050  45.679  20.134 -0.34 +0.00    +0.026 A  ATOM     13  C   UNL     1      41.829  47.016  19.196 -0.43 +0.00    +0.054 A  ATOM     14  H   UNL     1      42.207  48.116  16.513 -0.39 +0.01    +0.190 HD BRANCH   6  15ATOM     15  C   UNL     1      38.318  46.163  15.779 -0.39 -0.00    +0.006 A  ATOM     16  C   UNL     1      36.557  46.371  14.102 -0.41 +0.03    -0.048 A  ATOM     17  C   UNL     1      36.052  45.126  14.507 -0.36 -0.00    +0.004 A  ATOM     18  C   UNL     1      37.688  46.917  14.759 -0.41 +0.02    -0.039 A  ATOM     19  C   UNL     1      36.664  44.402  15.526 -0.37 -0.00    +0.001 A  ATOM     20  C   UNL     1      37.794  44.915  16.154 -0.30 -0.00    +0.011 A  ATOM     21  C   UNL     1      35.860  47.098  12.983 -0.64 -0.03    +0.044 C  ATOM     22  C   UNL     1      38.245  48.258  14.344 -0.57 -0.02    +0.045 C  ENDBRANCH   6  15ENDBRANCH   3   5ENDBRANCH   2   3ENDBRANCH   1   2BRANCH   1  23ATOM     23  C   UNL     1      44.537  46.974  22.491 -0.25 +0.07    +0.142 C  BRANCH  23  24ATOM     24  N   UNL     1      44.459  47.360  21.063 -0.50 -0.23    -0.320 NA ATOM     25  H   UNL     1      45.203  48.041  20.883 -0.38 +0.07    +0.119 HD ATOM     26  H   UNL     1      43.607  47.925  20.953 -0.47 +0.00    +0.119 HD ENDBRANCH  23  24BRANCH  23  27ATOM     27  C   UNL     1      43.769  48.012  23.342 -0.24 +0.06    +0.237 C  ATOM     28  N   UNL     1      43.968  47.907  24.701 -0.07 -0.06    -0.346 N  ATOM     29  O   UNL     1      43.049  48.875  22.845 -0.89 -0.08    -0.273 OA ATOM     30  H   UNL     1      44.442  47.091  25.071 +0.04 +0.02    +0.163 HD BRANCH  28  31ATOM     31  C   UNL     1      43.185  48.727  25.630 -0.20 +0.02    +0.231 C  BRANCH  31  32ATOM     32  C   UNL     1      41.670  48.524  25.548 -0.15 +0.05    +0.405 C  ATOM     33  F   UNL     1      41.100  49.244  24.562 -0.14 -0.04    -0.169 F  ATOM     34  F   UNL     1      41.387  47.218  25.320 -0.02 -0.01    -0.169 F  ATOM     35  F   UNL     1      41.077  48.868  26.713 -0.09 -0.02    -0.169 F  ENDBRANCH  31  32ENDBRANCH  28  31ENDBRANCH  23  27ENDBRANCH   1  23TORSDOF 9TERENDMDL