REMARK SMILES CN[C@H]1CN(Cc2ccc(C(=O)Nc3cc(F)ccc3CN3CCC(c4nnn[nH]4)CC3)cc2)C[C@@H]1O
REMARK SMILES IDX 11 1 12 2 13 3 10 5 7 6 8 7 34 8 9 9 33 10 6 11 5 12 3 13
REMARK SMILES IDX 4 14 36 15 35 16 2 17 1 18 37 20 14 22 15 23 20 24 16 25
REMARK SMILES IDX 19 26 18 27 17 28 21 29 22 30 23 31 32 32 24 33 31 34 25 35
REMARK SMILES IDX 26 36 27 37 30 38 28 39 29 40
REMARK H PARENT 13 4 2 19 37 21 30 41
ROOT
ATOM      1  C   UNL     1      -0.559   1.316   3.079  1.00  0.00     0.255 C 
ATOM      2  O   UNL     1      -0.281   1.617   4.234  1.00  0.00    -0.269 OA
ATOM      3  N   UNL     1      -1.629   1.778   2.338  1.00  0.00    -0.322 N 
ATOM      4  H   UNL     1      -1.681   1.499   1.359  1.00  0.00     0.170 HD
ENDROOT
BRANCH   1   5
ATOM      5  C   UNL     1       0.365   0.409   2.344  1.00  0.00     0.040 A 
ATOM      6  C   UNL     1       2.178  -1.225   0.951  1.00  0.00    -0.034 A 
ATOM      7  C   UNL     1       0.798  -1.345   0.732  1.00  0.00     0.006 A 
ATOM      8  C   UNL     1       2.640  -0.297   1.897  1.00  0.00     0.006 A 
ATOM      9  C   UNL     1      -0.105  -0.538   1.428  1.00  0.00     0.014 A 
ATOM     10  C   UNL     1       1.738   0.512   2.592  1.00  0.00     0.014 A 
BRANCH   6  11
ATOM     11  C   UNL     1       3.154  -2.087   0.177  1.00  0.00     0.120 C 
BRANCH  11  12
ATOM     12  N   UNL     1       3.142  -1.809  -1.272  1.00  0.00    -0.295 NA
ATOM     13  C   UNL     1       5.187  -0.568  -1.543  1.00  0.00     0.097 C 
ATOM     14  C   UNL     1       3.655  -0.469  -1.613  1.00  0.00     0.106 C 
ATOM     15  C   UNL     1       5.449  -2.006  -2.036  1.00  0.00     0.146 C 
ATOM     16  C   UNL     1       4.085  -2.714  -1.968  1.00  0.00     0.118 C 
BRANCH  13  17
ATOM     17  N   UNL     1       5.845   0.495  -2.322  1.00  0.00    -0.313 NA
ATOM     18  C   UNL     1       7.289   0.516  -2.136  1.00  0.00     0.101 C 
ATOM     19  H   UNL     1       5.464   1.397  -2.031  1.00  0.00     0.122 HD
ENDBRANCH  13  17
BRANCH  15  20
ATOM     20  O   UNL     1       6.395  -2.663  -1.189  1.00  0.00    -0.390 OA
ATOM     21  H   UNL     1       7.241  -2.196  -1.296  1.00  0.00     0.211 HD
ENDBRANCH  15  20
ENDBRANCH  11  12
ENDBRANCH   6  11
ENDBRANCH   1   5
BRANCH   3  22
ATOM     22  C   UNL     1      -2.672   2.635   2.754  1.00  0.00     0.048 A 
ATOM     23  C   UNL     1      -2.866   2.982   4.094  1.00  0.00     0.065 A 
ATOM     24  C   UNL     1      -3.562   3.135   1.770  1.00  0.00    -0.010 A 
ATOM     25  C   UNL     1      -3.924   3.809   4.455  1.00  0.00     0.125 A 
ATOM     26  C   UNL     1      -4.621   3.978   2.166  1.00  0.00     0.010 A 
ATOM     27  C   UNL     1      -4.802   4.310   3.506  1.00  0.00     0.040 A 
ATOM     28  F   UNL     1      -4.103   4.129   5.743  1.00  0.00    -0.207 F 
BRANCH  24  29
ATOM     29  C   UNL     1      -3.376   2.879   0.281  1.00  0.00     0.122 C 
BRANCH  29  30
ATOM     30  N   UNL     1      -3.142   1.460  -0.072  1.00  0.00    -0.299 NA
ATOM     31  C   UNL     1      -2.718   1.361  -1.478  1.00  0.00     0.085 C 
ATOM     32  C   UNL     1      -4.356   0.657   0.159  1.00  0.00     0.085 C 
ATOM     33  C   UNL     1      -2.406  -0.086  -1.860  1.00  0.00     0.027 C 
ATOM     34  C   UNL     1      -4.106  -0.817  -0.155  1.00  0.00     0.027 C 
ATOM     35  C   UNL     1      -3.600  -1.006  -1.589  1.00  0.00     0.062 C 
BRANCH  35  36
ATOM     36  C   UNL     1      -3.236  -2.429  -1.838  1.00  0.00     0.151 A 
ATOM     37  N   UNL     1      -2.380  -3.180  -1.177  1.00  0.00    -0.114 NA
ATOM     38  N   UNL     1      -3.764  -3.188  -2.843  1.00  0.00    -0.243 N 
ATOM     39  N   UNL     1      -2.394  -4.408  -1.791  1.00  0.00    -0.024 NA
ATOM     40  N   UNL     1      -3.240  -4.419  -2.812  1.00  0.00    -0.048 NA
ATOM     41  H   UNL     1      -4.445  -2.952  -3.554  1.00  0.00     0.193 HD
ENDBRANCH  35  36
ENDBRANCH  29  30
ENDBRANCH  24  29
ENDBRANCH   3  22
TORSDOF 9
