REMARK SMILES COc1ccc(C2=C(NCCO)[C@@H]3C=NC=CC3=N2)cc1-c1ccc(O)cc1
REMARK SMILES IDX 7 1 8 2 13 3 14 4 15 5 16 6 17 7 18 8 19 9 6 10 3 11 4 12
REMARK SMILES IDX 21 13 5 14 20 15 2 16 1 17 22 18 23 19 28 20 24 21 27 22
REMARK SMILES IDX 25 23 26 24 9 26 10 28 11 29 12 30
REMARK H PARENT 26 25 9 27 12 31
ROOT
ATOM      1  C   UNL     1      -1.607  -1.353   0.675  1.00  0.00     0.091 C 
ATOM      2  C   UNL     1      -2.415  -0.470   0.045  1.00  0.00     0.052 C 
ATOM      3  C   UNL     1      -3.824  -0.754   0.475  1.00  0.00     0.128 C 
ATOM      4  C   UNL     1      -4.635   0.312   1.157  1.00  0.00     0.100 C 
ATOM      5  N   UNL     1      -5.444   0.057   2.146  1.00  0.00    -0.268 NA
ATOM      6  C   UNL     1      -5.467  -1.232   2.639  1.00  0.00     0.112 C 
ATOM      7  C   UNL     1      -4.567  -2.199   2.407  1.00  0.00     0.045 C 
ATOM      8  C   UNL     1      -3.493  -1.797   1.500  1.00  0.00     0.057 C 
ATOM      9  N   UNL     1      -2.267  -2.207   1.536  1.00  0.00    -0.250 NA
ENDROOT
BRANCH   1  10
ATOM     10  C   UNL     1      -0.147  -1.466   0.509  1.00  0.00     0.003 A 
ATOM     11  C   UNL     1       2.650  -1.727   0.183  1.00  0.00     0.126 A 
ATOM     12  C   UNL     1       1.823  -2.856   0.196  1.00  0.00     0.048 A 
ATOM     13  C   UNL     1       2.083  -0.443   0.347  1.00  0.00     0.024 A 
ATOM     14  C   UNL     1       0.440  -2.725   0.361  1.00  0.00     0.014 A 
ATOM     15  C   UNL     1       0.686  -0.339   0.521  1.00  0.00     0.023 A 
BRANCH  11  16
ATOM     16  O   UNL     1       4.013  -1.775   0.033  1.00  0.00    -0.496 OA
ATOM     17  C   UNL     1       4.625  -3.052  -0.082  1.00  0.00     0.278 C 
ENDBRANCH  11  16
BRANCH  13  18
ATOM     18  C   UNL     1       2.894   0.791   0.339  1.00  0.00    -0.014 A 
ATOM     19  C   UNL     1       3.635   1.165  -0.796  1.00  0.00     0.012 A 
ATOM     20  C   UNL     1       2.926   1.640   1.459  1.00  0.00     0.012 A 
ATOM     21  C   UNL     1       4.383   2.345  -0.811  1.00  0.00     0.047 A 
ATOM     22  C   UNL     1       3.674   2.822   1.448  1.00  0.00     0.047 A 
ATOM     23  C   UNL     1       4.396   3.163   0.310  1.00  0.00     0.115 A 
BRANCH  23  24
ATOM     24  O   UNL     1       5.136   4.307   0.256  1.00  0.00    -0.508 OA
ATOM     25  H   UNL     1       5.093   4.742   1.123  1.00  0.00     0.293 HD
ENDBRANCH  23  24
ENDBRANCH  13  18
ENDBRANCH   1  10
BRANCH   2  26
ATOM     26  N   UNL     1      -2.105   0.490  -0.908  1.00  0.00    -0.383 N 
ATOM     27  H   UNL     1      -1.145   0.381  -1.242  1.00  0.00     0.160 HD
BRANCH  26  28
ATOM     28  C   UNL     1      -3.002   0.927  -1.975  1.00  0.00     0.141 C 
BRANCH  28  29
ATOM     29  C   UNL     1      -2.508   2.243  -2.584  1.00  0.00     0.177 C 
BRANCH  29  30
ATOM     30  O   UNL     1      -3.324   2.607  -3.692  1.00  0.00    -0.395 OA
ATOM     31  H   UNL     1      -2.929   3.410  -4.075  1.00  0.00     0.210 HD
ENDBRANCH  29  30
ENDBRANCH  28  29
ENDBRANCH  26  28
ENDBRANCH   2  26
TORSDOF 8
