MODEL        1USER    Run = 1USERUSER    Estimated Free Energy of Binding    = -10.85 kcal/mol  [=(1)+(2)+(3)-(4)]USERUSER    (1) Final Intermolecular Energy     = -12.94 kcal/molUSER        vdW + Hbond + desolv Energy     = -12.59 kcal/molUSER        Electrostatic Energy            =  -0.34 kcal/molUSER        Moving Ligand-Fixed Receptor    = -12.94 kcal/molUSER        Moving Ligand-Moving Receptor   =  +0.00 kcal/molUSER    (2) Final Total Internal Energy     =  -1.44 kcal/molUSER    (3) Torsional Free Energy           =  +2.09 kcal/molUSER    (4) Unbound System's Energy         =  -1.44 kcal/molUSERUSERREMARK SMILES Cc1cc(-c2cc(C3=C(NCCO)[C@@H]4C=NC=CC4=N3)ccc2C)ccc1OREMARK SMILES IDX 8 1 9 2 14 3 15 4 16 5 17 6 18 7 19 8 20 9 7 10 5 11 6 12REMARK SMILES IDX 23 13 22 14 21 15 24 16 4 17 2 18 3 19 27 20 26 21 25 22REMARK SMILES IDX 1 23 28 24 10 26 11 28 12 29 13 30REMARK H PARENT 28 25 10 27 13 31USER                              x       y       z     vdW  Elec       q    TypeUSER                           _______ _______ _______ _____ _____    ______ ____ROOTATOM      1  C   UNL     1      38.322  45.895  15.770 -0.37 -0.03    +0.091 C  ATOM      2  C   UNL     1      38.790  47.004  15.154 -0.48 -0.02    +0.052 C  ATOM      3  C   UNL     1      38.353  46.947  13.719 -0.40 -0.03    +0.128 C  ATOM      4  C   UNL     1      37.497  48.033  13.126 -0.32 -0.03    +0.100 C  ATOM      5  N   UNL     1      36.528  47.792  12.288 -0.88 +0.11    -0.268 NA ATOM      6  C   UNL     1      36.225  46.473  12.018 -0.65 -0.05    +0.112 C  ATOM      7  C   UNL     1      36.628  45.399  12.713 -0.57 -0.02    +0.045 C  ATOM      8  C   UNL     1      37.503  45.717  13.840 -0.46 -0.02    +0.057 C  ATOM      9  N   UNL     1      37.567  45.074  14.961 -0.20 +0.08    -0.250 NA ENDROOTBRANCH   1  10ATOM     10  C   UNL     1      38.561  45.519  17.172 -0.39 -0.00    +0.003 A  ATOM     11  C   UNL     1      39.965  45.541  19.187 -0.42 +0.00    -0.015 A  ATOM     12  C   UNL     1      39.731  45.896  17.844 -0.44 -0.00    +0.019 A  ATOM     13  C   UNL     1      38.975  44.808  19.877 -0.35 +0.00    -0.043 A  ATOM     14  C   UNL     1      37.797  44.440  19.208 -0.36 -0.00    +0.005 A  ATOM     15  C   UNL     1      37.591  44.798  17.875 -0.35 -0.00    +0.011 A  ATOM     16  C   UNL     1      39.150  44.404  21.317 -0.35 +0.00    +0.045 C  BRANCH  11  17ATOM     17  C   UNL     1      41.226  45.952  19.819 -0.40 -0.00    -0.018 A  ATOM     18  C   UNL     1      42.906  45.682  21.590 -0.25 -0.00    -0.009 A  ATOM     19  C   UNL     1      41.698  45.306  20.975 -0.32 +0.00    +0.016 A  ATOM     20  C   UNL     1      43.641  46.725  21.019 -0.24 +0.06    +0.118 A  ATOM     21  C   UNL     1      43.194  47.374  19.870 -0.38 +0.01    +0.047 A  ATOM     22  C   UNL     1      41.993  46.991  19.273 -0.48 +0.00    +0.012 A  ATOM     23  C   UNL     1      43.358  44.960  22.825 -0.19 +0.01    +0.048 C  BRANCH  20  24ATOM     24  O   UNL     1      44.825  47.169  21.535 -0.65 -0.47    -0.508 OA ATOM     25  H   UNL     1      44.805  48.136  21.603 -0.39 +0.09    +0.293 HD ENDBRANCH  20  24ENDBRANCH  11  17ENDBRANCH   1  10BRANCH   2  26ATOM     26  N   UNL     1      39.632  47.983  15.646 -0.21 +0.12    -0.383 N  ATOM     27  H   UNL     1      39.776  47.957  16.654 +0.11 -0.05    +0.160 HD BRANCH  26  28ATOM     28  C   UNL     1      40.238  49.091  14.930 -0.49 -0.05    +0.141 C  BRANCH  28  29ATOM     29  C   UNL     1      41.377  49.716  15.742 -0.53 -0.02    +0.177 C  BRANCH  29  30ATOM     30  O   UNL     1      41.689  48.892  16.859 -0.84 -0.05    -0.395 OA ATOM     31  H   UNL     1      42.145  48.105  16.514 -0.36 +0.00    +0.210 HD ENDBRANCH  29  30ENDBRANCH  28  29ENDBRANCH  26  28ENDBRANCH   2  26TORSDOF 7TERENDMDL