MODEL        2USER    Run = 2USERUSER    Estimated Free Energy of Binding    = -11.13 kcal/mol  [=(1)+(2)+(3)-(4)]USERUSER    (1) Final Intermolecular Energy     = -13.81 kcal/molUSER        vdW + Hbond + desolv Energy     = -13.80 kcal/molUSER        Electrostatic Energy            =  -0.01 kcal/molUSER        Moving Ligand-Fixed Receptor    = -13.81 kcal/molUSER        Moving Ligand-Moving Receptor   =  +0.00 kcal/molUSER    (2) Final Total Internal Energy     =  -3.72 kcal/molUSER    (3) Torsional Free Energy           =  +2.68 kcal/molUSER    (4) Unbound System's Energy         =  -3.72 kcal/molUSERUSERREMARK SMILES CN[C@H]1CN(Cc2ccc(C(=O)Nc3cc(F)ccc3CN3CCC(c4nnn[nH]4)CC3)cc2)C[C@@H]1OREMARK SMILES IDX 11 1 12 2 13 3 10 5 7 6 8 7 34 8 9 9 33 10 6 11 5 12 3 13REMARK SMILES IDX 4 14 36 15 35 16 2 17 1 18 37 20 14 22 15 23 20 24 16 25REMARK SMILES IDX 19 26 18 27 17 28 21 29 22 30 23 31 32 32 24 33 31 34 25 35REMARK SMILES IDX 26 36 27 37 30 38 28 39 29 40REMARK H PARENT 13 4 2 19 37 21 30 41USER                              x       y       z     vdW  Elec       q    TypeUSER                           _______ _______ _______ _____ _____    ______ ____ROOTATOM      1  C   UNL     1      38.953  45.025  17.800 -0.25 -0.04    +0.255 C  ATOM      2  O   UNL     1      39.340  43.909  18.125 -0.16 +0.02    -0.269 OA ATOM      3  N   UNL     1      39.610  46.222  18.007 -0.23 +0.05    -0.322 N  ATOM      4  H   UNL     1      39.198  47.063  17.605 +0.09 -0.05    +0.170 HD ENDROOTBRANCH   1   5ATOM      5  C   UNL     1      37.675  45.137  17.044 -0.33 -0.01    +0.040 A  ATOM      6  C   UNL     1      35.226  45.410  15.693 -0.31 +0.02    -0.034 A  ATOM      7  C   UNL     1      35.916  44.189  15.676 -0.37 -0.00    +0.006 A  ATOM      8  C   UNL     1      35.790  46.502  16.370 -0.35 -0.01    +0.006 A  ATOM      9  C   UNL     1      37.136  44.053  16.342 -0.33 -0.00    +0.014 A  ATOM     10  C   UNL     1      37.009  46.367  17.038 -0.30 -0.01    +0.014 A  BRANCH   6  11ATOM     11  C   UNL     1      33.892  45.545  14.987 -0.23 -0.11    +0.120 C  BRANCH  11  12ATOM     12  N   UNL     1      32.743  45.415  15.903 -0.19 +0.24    -0.295 NA ATOM     13  C   UNL     1      31.970  43.192  15.396 -0.32 -0.05    +0.097 C  ATOM     14  C   UNL     1      31.607  44.683  15.313 -0.38 -0.06    +0.106 C  ATOM     15  C   UNL     1      32.761  43.117  16.718 -0.28 -0.06    +0.146 C  ATOM     16  C   UNL     1      33.114  44.574  17.064 -0.29 -0.05    +0.118 C  BRANCH  13  17ATOM     17  N   UNL     1      30.778  42.329  15.324 -0.15 +0.19    -0.313 NA ATOM     18  C   UNL     1      29.962  42.397  16.528 -0.28 -0.03    +0.101 C  ATOM     19  H   UNL     1      31.082  41.363  15.188 -0.50 -0.09    +0.122 HD ENDBRANCH  13  17BRANCH  15  20ATOM     20  O   UNL     1      33.950  42.342  16.549 -0.21 +0.20    -0.390 OA ATOM     21  H   UNL     1      33.822  41.800  15.752 -0.44 -0.16    +0.211 HD ENDBRANCH  15  20ENDBRANCH  11  12ENDBRANCH   6  11ENDBRANCH   1   5BRANCH   3  22ATOM     22  C   UNL     1      40.826  46.442  18.692 -0.45 -0.00    +0.048 A  ATOM     23  C   UNL     1      41.246  45.630  19.749 -0.37 +0.01    +0.065 A  ATOM     24  C   UNL     1      41.627  47.544  18.299 -0.50 +0.00    -0.010 A  ATOM     25  C   UNL     1      42.440  45.904  20.408 -0.14 +0.03    +0.125 A  ATOM     26  C   UNL     1      42.836  47.792  18.981 -0.45 +0.00    +0.010 A  ATOM     27  C   UNL     1      43.238  46.975  20.035 -0.37 +0.01    +0.040 A  ATOM     28  F   UNL     1      42.829  45.123  21.423 -0.05 -0.07    -0.207 F  BRANCH  24  29ATOM     29  C   UNL     1      41.290  48.427  17.106 -0.42 -0.01    +0.122 C  BRANCH  29  30ATOM     30  N   UNL     1      40.188  47.917  16.259 -0.29 +0.07    -0.299 NA ATOM     31  C   UNL     1      40.735  47.059  15.195 -0.37 -0.01    +0.085 C  ATOM     32  C   UNL     1      39.417  49.031  15.678 -0.49 -0.04    +0.085 C  ATOM     33  C   UNL     1      39.618  46.464  14.337 -0.35 -0.00    +0.027 C  ATOM     34  C   UNL     1      38.247  48.512  14.844 -0.59 -0.02    +0.027 C  ATOM     35  C   UNL     1      38.724  47.557  13.745 -0.39 -0.02    +0.062 C  BRANCH  35  36ATOM     36  C   UNL     1      37.565  46.957  13.025 -0.41 -0.04    +0.151 A  ATOM     37  N   UNL     1      36.719  47.547  12.208 -1.01 +0.04    -0.114 NA ATOM     38  N   UNL     1      37.199  45.646  13.126 -0.30 +0.08    -0.243 N  ATOM     39  N   UNL     1      35.832  46.577  11.809 -0.67 +0.01    -0.024 NA ATOM     40  N   UNL     1      36.122  45.410  12.368 -0.48 +0.02    -0.048 NA ATOM     41  H   UNL     1      37.607  44.891  13.663 +0.14 -0.06    +0.193 HD ENDBRANCH  35  36ENDBRANCH  29  30ENDBRANCH  24  29ENDBRANCH   3  22TORSDOF 9TERENDMDL