MODEL        10USER    Run = 10USERUSER    Estimated Free Energy of Binding    =  -8.66 kcal/mol  [=(1)+(2)+(3)-(4)]USERUSER    (1) Final Intermolecular Energy     = -11.34 kcal/molUSER        vdW + Hbond + desolv Energy     = -11.04 kcal/molUSER        Electrostatic Energy            =  -0.30 kcal/molUSER        Moving Ligand-Fixed Receptor    = -11.34 kcal/molUSER        Moving Ligand-Moving Receptor   =  +0.00 kcal/molUSER    (2) Final Total Internal Energy     =  -2.28 kcal/molUSER    (3) Torsional Free Energy           =  +2.68 kcal/molUSER    (4) Unbound System's Energy         =  -2.28 kcal/molUSERUSERREMARK SMILES C[C@H](O)Cn1cnc2c(NCc3ccccc3)nc(Nc3ccc(O)c(F)c3)nc21REMARK SMILES IDX 5 1 6 2 7 3 8 4 9 5 18 6 19 7 29 8 30 9 4 10 2 11 1 12 3 13REMARK SMILES IDX 20 15 21 17 22 18 28 19 23 20 26 21 24 22 27 23 25 24 10 26REMARK SMILES IDX 11 28 12 29 13 30 17 31 14 32 16 33 15 34REMARK H PARENT 3 14 20 16 25 25 10 27USER                              x       y       z     vdW  Elec       q    TypeUSER                           _______ _______ _______ _____ _____    ______ ____ROOTATOM      1  N   UNL     1      34.905  42.600  19.535 -0.21 +0.02    -0.312 N  ATOM      2  C   UNL     1      35.793  42.090  20.440 -0.32 -0.00    +0.202 A  ATOM      3  N   UNL     1      36.905  42.795  20.483 -0.24 +0.00    -0.231 NA ATOM      4  C   UNL     1      36.733  43.795  19.543 -0.27 -0.02    +0.150 A  ATOM      5  C   UNL     1      37.540  44.859  19.102 -0.21 -0.02    +0.160 A  ATOM      6  N   UNL     1      37.025  45.685  18.152 -0.20 +0.06    -0.193 NA ATOM      7  C   UNL     1      35.789  45.476  17.646 -0.19 -0.11    +0.231 A  ATOM      8  N   UNL     1      34.963  44.484  18.012 -0.18 +0.07    -0.193 NA ATOM      9  C   UNL     1      35.489  43.689  18.950 -0.25 -0.03    +0.167 A  ENDROOTBRANCH   1  10ATOM     10  C   UNL     1      33.599  42.069  19.226 -0.32 -0.00    +0.156 C  BRANCH  10  11ATOM     11  C   UNL     1      32.449  43.068  19.406 -0.37 -0.00    +0.131 C  ATOM     12  C   UNL     1      31.919  43.619  18.087 -0.34 -0.01    +0.040 C  BRANCH  11  13ATOM     13  O   UNL     1      32.904  44.161  20.210 -0.54 +0.02    -0.392 OA ATOM     14  H   UNL     1      33.560  44.673  19.705 -0.02 -0.06    +0.211 HD ENDBRANCH  11  13ENDBRANCH  10  11ENDBRANCH   1  10BRANCH   7  15ATOM     15  N   UNL     1      35.413  46.406  16.678 -0.16 +0.33    -0.324 N  ATOM     16  H   UNL     1      34.672  46.978  17.059 -0.20 -0.29    +0.170 HD BRANCH  15  17ATOM     17  C   UNL     1      35.856  46.708  15.385 -0.28 -0.04    +0.044 A  ATOM     18  C   UNL     1      35.319  46.137  14.221 -0.40 -0.02    +0.030 A  ATOM     19  C   UNL     1      36.893  47.643  15.237 -0.37 -0.06    +0.069 A  ATOM     20  C   UNL     1      35.798  46.481  12.949 -0.54 -0.03    +0.051 A  ATOM     21  C   UNL     1      37.366  47.982  13.972 -0.41 -0.08    +0.166 A  ATOM     22  C   UNL     1      36.823  47.405  12.832 -0.51 -0.06    +0.151 A  ATOM     23  F   UNL     1      38.358  48.877  13.850 -0.13 +0.09    -0.203 F  BRANCH  22  24ATOM     24  O   UNL     1      37.279  47.730  11.589 -0.78 +0.07    -0.505 OA ATOM     25  H   UNL     1      36.678  48.414  11.237 -0.16 -0.14    +0.293 HD ENDBRANCH  22  24ENDBRANCH  15  17ENDBRANCH   7  15BRANCH   5  26ATOM     26  N   UNL     1      38.831  45.156  19.536 -0.17 +0.02    -0.364 N  ATOM     27  H   UNL     1      38.942  44.828  20.490 +0.09 +0.00    +0.162 HD BRANCH  26  28ATOM     28  C   UNL     1      39.925  44.827  18.640 -0.38 -0.01    +0.150 C  BRANCH  28  29ATOM     29  C   UNL     1      40.277  46.052  17.827 -0.46 +0.00    -0.029 A  ATOM     30  C   UNL     1      39.755  46.232  16.537 -0.44 -0.00    +0.005 A  ATOM     31  C   UNL     1      41.159  47.013  18.342 -0.52 -0.00    +0.005 A  ATOM     32  C   UNL     1      40.097  47.358  15.787 -0.51 -0.00    +0.000 A  ATOM     33  C   UNL     1      41.499  48.138  17.590 -0.47 -0.00    +0.000 A  ATOM     34  C   UNL     1      40.966  48.312  16.313 -0.56 -0.00    +0.000 A  ENDBRANCH  28  29ENDBRANCH  26  28ENDBRANCH   5  26TORSDOF 9TERENDMDL