MODEL        8USER    Run = 8USERUSER    Estimated Free Energy of Binding    = -10.43 kcal/mol  [=(1)+(2)+(3)-(4)]USERUSER    (1) Final Intermolecular Energy     = -12.82 kcal/molUSER        vdW + Hbond + desolv Energy     = -12.49 kcal/molUSER        Electrostatic Energy            =  -0.33 kcal/molUSER        Moving Ligand-Fixed Receptor    = -12.82 kcal/molUSER        Moving Ligand-Moving Receptor   =  +0.00 kcal/molUSER    (2) Final Total Internal Energy     =  -1.65 kcal/molUSER    (3) Torsional Free Energy           =  +2.39 kcal/molUSER    (4) Unbound System's Energy         =  -1.65 kcal/molUSERUSERREMARK SMILES COc1ccc(C2=C(NCCO)[C@@H]3C=NC=CC3=N2)cc1-c1ccc(O)cc1REMARK SMILES IDX 7 1 8 2 13 3 14 4 15 5 16 6 17 7 18 8 19 9 6 10 3 11 4 12REMARK SMILES IDX 21 13 5 14 20 15 2 16 1 17 22 18 23 19 28 20 24 21 27 22REMARK SMILES IDX 25 23 26 24 9 26 10 28 11 29 12 30REMARK H PARENT 26 25 9 27 12 31USER                              x       y       z     vdW  Elec       q    TypeUSER                           _______ _______ _______ _____ _____    ______ ____ROOTATOM      1  C   UNL     1      38.249  46.031  15.702 -0.38 -0.03    +0.091 C  ATOM      2  C   UNL     1      38.646  47.168  15.084 -0.48 -0.02    +0.052 C  ATOM      3  C   UNL     1      38.195  47.090  13.655 -0.43 -0.04    +0.128 C  ATOM      4  C   UNL     1      37.271  48.136  13.097 -0.41 -0.03    +0.100 C  ATOM      5  N   UNL     1      36.303  47.853  12.272 -0.73 +0.12    -0.268 NA ATOM      6  C   UNL     1      36.070  46.522  11.990 -0.64 -0.06    +0.112 C  ATOM      7  C   UNL     1      36.540  45.462  12.664 -0.58 -0.02    +0.045 C  ATOM      8  C   UNL     1      37.414  45.816  13.781 -0.47 -0.02    +0.057 C  ATOM      9  N   UNL     1      37.533  45.170  14.895 -0.20 +0.09    -0.250 NA ENDROOTBRANCH   1  10ATOM     10  C   UNL     1      38.522  45.664  17.103 -0.39 -0.00    +0.003 A  ATOM     11  C   UNL     1      39.007  44.935  19.792 -0.30 -0.00    +0.126 A  ATOM     12  C   UNL     1      37.816  44.570  19.156 -0.33 -0.01    +0.048 A  ATOM     13  C   UNL     1      39.974  45.688  19.087 -0.42 -0.00    +0.024 A  ATOM     14  C   UNL     1      37.576  44.934  17.827 -0.35 -0.00    +0.014 A  ATOM     15  C   UNL     1      39.704  46.051  17.750 -0.44 -0.00    +0.023 A  BRANCH  11  16ATOM     16  O   UNL     1      39.312  44.621  21.093 -0.07 -0.01    -0.496 OA ATOM     17  C   UNL     1      38.246  44.572  22.032 -0.24 +0.02    +0.278 C  ENDBRANCH  11  16BRANCH  13  18ATOM     18  C   UNL     1      41.254  46.104  19.694 -0.41 -0.00    -0.014 A  ATOM     19  C   UNL     1      42.137  46.958  19.010 -0.53 +0.00    +0.012 A  ATOM     20  C   UNL     1      41.614  45.676  20.984 -0.32 +0.00    +0.012 A  ATOM     21  C   UNL     1      43.338  47.370  19.595 -0.39 +0.01    +0.047 A  ATOM     22  C   UNL     1      42.815  46.087  21.572 -0.27 +0.01    +0.047 A  ATOM     23  C   UNL     1      43.666  46.932  20.870 -0.27 +0.06    +0.115 A  BRANCH  23  24ATOM     24  O   UNL     1      44.845  47.358  21.407 -0.65 -0.44    -0.508 OA ATOM     25  H   UNL     1      44.794  48.319  21.535 -0.40 +0.05    +0.293 HD ENDBRANCH  23  24ENDBRANCH  13  18ENDBRANCH   1  10BRANCH   2  26ATOM     26  N   UNL     1      39.410  48.219  15.570 -0.21 +0.15    -0.383 N  ATOM     27  H   UNL     1      39.742  48.027  16.517 +0.11 -0.05    +0.160 HD BRANCH  26  28ATOM     28  C   UNL     1      40.400  48.960  14.791 -0.52 -0.04    +0.141 C  BRANCH  28  29ATOM     29  C   UNL     1      41.352  49.720  15.720 -0.54 -0.02    +0.177 C  BRANCH  29  30ATOM     30  O   UNL     1      41.691  48.912  16.842 -0.84 -0.05    -0.395 OA ATOM     31  H   UNL     1      42.174  48.142  16.492 -0.36 +0.01    +0.210 HD ENDBRANCH  29  30ENDBRANCH  28  29ENDBRANCH  26  28ENDBRANCH   2  26TORSDOF 8TERENDMDL