
     RDKit          3D

 42 44  0  0  0  0  0  0  0  0999 V2000
    6.7714    1.6716   -0.1179 C   0  0  0  0  0  0  0  0  0  0  0  0
    5.5893    0.7719   -0.3342 C   0  0  0  0  0  0  0  0  0  0  0  0
    4.4762    0.8478    0.5154 C   0  0  0  0  0  0  0  0  0  0  0  0
    3.3693    0.0119    0.3160 C   0  0  0  0  0  0  0  0  0  0  0  0
    2.2090    0.1320    1.2433 C   0  0  0  0  0  0  0  0  0  0  0  0
    2.4314    0.3794    2.4218 O   0  0  0  0  0  0  0  0  0  0  0  0
    0.9732   -0.0153    0.6401 N   0  0  0  0  0  0  0  0  0  0  0  0
   -0.2915   -0.0094    1.2662 C   0  0  0  0  0  0  0  0  0  0  0  0
   -0.4758    0.0406    2.6470 C   0  0  0  0  0  0  0  0  0  0  0  0
   -1.7633    0.0244    3.1876 C   0  0  0  0  0  0  0  0  0  0  0  0
   -2.8770   -0.0402    2.3502 C   0  0  0  0  0  0  0  0  0  0  0  0
   -2.7240   -0.0892    0.9584 C   0  0  0  0  0  0  0  0  0  0  0  0
   -3.8957   -0.1344    0.0664 C   0  0  0  0  0  0  0  0  0  0  0  0
   -4.1252    0.9217   -0.8363 C   0  0  0  0  0  0  0  0  0  0  0  0
   -5.2283    0.9162   -1.6953 C   0  0  0  0  0  0  0  0  0  0  0  0
   -6.1147   -0.1530   -1.6580 C   0  0  0  0  0  0  0  0  0  0  0  0
   -7.2042   -0.2012   -2.4767 O   0  0  0  0  0  0  0  0  0  0  0  0
   -5.9190   -1.2122   -0.7805 C   0  0  0  0  0  0  0  0  0  0  0  0
   -4.8157   -1.1985    0.0753 C   0  0  0  0  0  0  0  0  0  0  0  0
   -4.6202   -2.2495    0.9325 O   0  0  0  0  0  0  0  0  0  0  0  0
   -1.4187   -0.0754    0.4330 C   0  0  0  0  0  0  0  0  0  0  0  0
    3.3838   -0.9306   -0.7202 C   0  0  0  0  0  0  0  0  0  0  0  0
    4.4905   -1.0167   -1.5676 C   0  0  0  0  0  0  0  0  0  0  0  0
    5.5789   -0.1664   -1.3719 C   0  0  0  0  0  0  0  0  0  0  0  0
    6.6673   -0.2423   -2.1939 O   0  0  0  0  0  0  0  0  0  0  0  0
    7.6584    1.0784    0.1267 H   0  0  0  0  0  0  0  0  0  0  0  0
    6.5982    2.3705    0.7071 H   0  0  0  0  0  0  0  0  0  0  0  0
    6.9675    2.2643   -1.0173 H   0  0  0  0  0  0  0  0  0  0  0  0
    4.4642    1.5609    1.3385 H   0  0  0  0  0  0  0  0  0  0  0  0
    0.9597   -0.0708   -0.3695 H   0  0  0  0  0  0  0  0  0  0  0  0
    0.3634    0.0823    3.3341 H   0  0  0  0  0  0  0  0  0  0  0  0
   -1.8961    0.0582    4.2658 H   0  0  0  0  0  0  0  0  0  0  0  0
   -3.8722   -0.0556    2.7895 H   0  0  0  0  0  0  0  0  0  0  0  0
   -3.4420    1.7691   -0.8621 H   0  0  0  0  0  0  0  0  0  0  0  0
   -5.3757    1.7498   -2.3745 H   0  0  0  0  0  0  0  0  0  0  0  0
   -7.2255    0.6070   -3.0155 H   0  0  0  0  0  0  0  0  0  0  0  0
   -6.6289   -2.0325   -0.7762 H   0  0  0  0  0  0  0  0  0  0  0  0
   -5.3284   -2.9003    0.8011 H   0  0  0  0  0  0  0  0  0  0  0  0
   -1.2933   -0.1251   -0.6461 H   0  0  0  0  0  0  0  0  0  0  0  0
    2.5574   -1.6227   -0.8584 H   0  0  0  0  0  0  0  0  0  0  0  0
    4.4923   -1.7552   -2.3637 H   0  0  0  0  0  0  0  0  0  0  0  0
    6.5338   -0.9616   -2.8323 H   0  0  0  0  0  0  0  0  0  0  0  0
  1  2  1  0
  2  3  2  0
  3  4  1  0
  4  5  1  0
  5  6  2  0
  5  7  1  0
  7  8  1  0
  8  9  2  0
  9 10  1  0
 10 11  2  0
 11 12  1  0
 12 13  1  0
 13 14  2  0
 14 15  1  0
 15 16  2  0
 16 17  1  0
 16 18  1  0
 18 19  2  0
 19 20  1  0
 12 21  2  0
  4 22  2  0
 22 23  1  0
 23 24  2  0
 24 25  1  0
 24  2  1  0
 21  8  1  0
 19 13  1  0
  1 26  1  0
  1 27  1  0
  1 28  1  0
  3 29  1  0
  7 30  1  0
  9 31  1  0
 10 32  1  0
 11 33  1  0
 14 34  1  0
 15 35  1  0
 17 36  1  0
 18 37  1  0
 20 38  1  0
 21 39  1  0
 22 40  1  0
 23 41  1  0
 25 42  1  0
M  END
$$$$
