
     RDKit          3D

 45 47  0  0  0  0  0  0  0  0999 V2000
    5.3053    3.6515   -0.2475 C   0  0  0  0  0  0  0  0  0  0  0  0
    4.0680    2.9633   -0.3765 O   0  0  0  0  0  0  0  0  0  0  0  0
    4.0711    1.6232   -0.1027 C   0  0  0  0  0  0  0  0  0  0  0  0
    5.1817    0.8664    0.2715 C   0  0  0  0  0  0  0  0  0  0  0  0
    5.0460   -0.5007    0.5268 C   0  0  0  0  0  0  0  0  0  0  0  0
    3.8011   -1.1200    0.4050 C   0  0  0  0  0  0  0  0  0  0  0  0
    2.6809   -0.3741    0.0187 C   0  0  0  0  0  0  0  0  0  0  0  0
    1.3204   -0.9974   -0.1085 C   0  0  0  0  0  0  0  0  0  0  0  0
    0.2865   -0.2229    0.0903 N   0  0  0  0  0  0  0  0  0  0  0  0
   -0.9636   -0.7274   -0.1138 N   0  0  0  0  0  0  0  0  0  0  0  0
   -2.0693    0.1247    0.1375 C   0  0  0  0  0  0  0  0  0  0  0  0
   -1.9260    1.2880    0.9079 C   0  0  0  0  0  0  0  0  0  0  0  0
   -3.0234    2.0982    1.2094 C   0  0  0  0  0  0  0  0  0  0  0  0
   -4.2985    1.7545    0.7694 C   0  0  0  0  0  0  0  0  0  0  0  0
   -5.2843    2.6318    1.1277 O   0  0  0  0  0  0  0  0  0  0  0  0
   -6.6024    2.3358    0.6854 C   0  0  0  0  0  0  0  0  0  0  0  0
   -4.4676    0.5809    0.0346 C   0  0  0  0  0  0  0  0  0  0  0  0
   -3.3682   -0.2490   -0.2714 C   0  0  0  0  0  0  0  0  0  0  0  0
   -3.6139   -1.5161   -1.0465 C   0  0  0  0  0  0  0  0  0  0  0  0
    1.2338   -2.4134   -0.4299 C   0  0  0  0  0  0  0  0  0  0  0  0
    0.3852   -3.4172    0.0058 C   0  0  0  0  0  0  0  0  0  0  0  0
    0.7675   -4.6034   -0.6643 C   0  0  0  0  0  0  0  0  0  0  0  0
    1.8253   -4.2600   -1.4701 C   0  0  0  0  0  0  0  0  0  0  0  0
    2.1179   -2.9421   -1.3352 O   0  0  0  0  0  0  0  0  0  0  0  0
    2.8255    0.9999   -0.2237 C   0  0  0  0  0  0  0  0  0  0  0  0
    6.0465    3.2665   -0.9556 H   0  0  0  0  0  0  0  0  0  0  0  0
    5.1293    4.7040   -0.4896 H   0  0  0  0  0  0  0  0  0  0  0  0
    5.6783    3.6043    0.7810 H   0  0  0  0  0  0  0  0  0  0  0  0
    6.1665    1.3094    0.3769 H   0  0  0  0  0  0  0  0  0  0  0  0
    5.9137   -1.0847    0.8246 H   0  0  0  0  0  0  0  0  0  0  0  0
    3.7215   -2.1816    0.6239 H   0  0  0  0  0  0  0  0  0  0  0  0
   -1.0922   -1.2758   -0.9638 H   0  0  0  0  0  0  0  0  0  0  0  0
   -0.9452    1.5772    1.2777 H   0  0  0  0  0  0  0  0  0  0  0  0
   -2.8766    3.0012    1.7958 H   0  0  0  0  0  0  0  0  0  0  0  0
   -6.9606    1.3946    1.1152 H   0  0  0  0  0  0  0  0  0  0  0  0
   -7.2611    3.1347    1.0395 H   0  0  0  0  0  0  0  0  0  0  0  0
   -6.6583    2.3188   -0.4081 H   0  0  0  0  0  0  0  0  0  0  0  0
   -5.4523    0.2798   -0.3079 H   0  0  0  0  0  0  0  0  0  0  0  0
   -3.1544   -1.4471   -2.0376 H   0  0  0  0  0  0  0  0  0  0  0  0
   -3.2030   -2.3782   -0.5111 H   0  0  0  0  0  0  0  0  0  0  0  0
   -4.6839   -1.7030   -1.1870 H   0  0  0  0  0  0  0  0  0  0  0  0
   -0.4080   -3.2972    0.7322 H   0  0  0  0  0  0  0  0  0  0  0  0
    0.3285   -5.5866   -0.5695 H   0  0  0  0  0  0  0  0  0  0  0  0
    2.4492   -4.8083   -2.1627 H   0  0  0  0  0  0  0  0  0  0  0  0
    1.9631    1.5974   -0.5139 H   0  0  0  0  0  0  0  0  0  0  0  0
  1  2  1  0
  2  3  1  0
  3  4  2  0
  4  5  1  0
  5  6  2  0
  6  7  1  0
  7  8  1  0
  8  9  2  3
  9 10  1  0
 10 11  1  0
 11 12  2  0
 12 13  1  0
 13 14  2  0
 14 15  1  0
 15 16  1  0
 14 17  1  0
 17 18  2  0
 18 19  1  0
  8 20  1  0
 20 21  2  0
 21 22  1  0
 22 23  2  0
 23 24  1  0
  7 25  2  0
 25  3  1  0
 18 11  1  0
 24 20  1  0
  1 26  1  0
  1 27  1  0
  1 28  1  0
  4 29  1  0
  5 30  1  0
  6 31  1  0
 10 32  1  0
 12 33  1  0
 13 34  1  0
 16 35  1  0
 16 36  1  0
 16 37  1  0
 17 38  1  0
 19 39  1  0
 19 40  1  0
 19 41  1  0
 21 42  1  0
 22 43  1  0
 23 44  1  0
 25 45  1  0
M  END
$$$$
