
     RDKit          3D

 40 44  0  0  0  0  0  0  0  0999 V2000
    4.7791    3.3583   -1.3627 N   0  0  0  0  0  0  0  0  0  0  0  0
    4.6656    2.0284   -1.4690 C   0  0  0  0  0  0  0  0  0  0  0  0
    4.8365    1.2288   -2.5093 N   0  0  0  0  0  0  0  0  0  0  0  0
    4.5123   -0.0122   -1.9356 C   0  0  0  0  0  0  0  0  0  0  0  0
    5.3847   -0.7956   -1.0920 C   0  0  0  0  0  0  0  0  0  0  0  0
    4.8288   -1.9446   -0.5818 N   0  0  0  0  0  0  0  0  0  0  0  0
    3.4991   -1.8925   -0.2980 C   0  0  0  0  0  0  0  0  0  0  0  0
    2.6880   -0.7581   -0.4982 C   0  0  0  0  0  0  0  0  0  0  0  0
    1.2659   -0.6527   -0.1442 C   0  0  0  0  0  0  0  0  0  0  0  0
    0.6615    0.5864    0.1070 C   0  0  0  0  0  0  0  0  0  0  0  0
   -0.6976    0.6871    0.4488 C   0  0  0  0  0  0  0  0  0  0  0  0
   -1.5285   -0.4349    0.5522 C   0  0  0  0  0  0  0  0  0  0  0  0
   -2.8644   -0.3234    0.8996 N   0  0  0  0  0  0  0  0  0  0  0  0
   -3.6666   -1.4914    1.2991 C   0  0  0  0  0  0  0  0  0  0  0  0
   -4.8911   -1.0497    2.1329 C   0  0  0  0  0  0  0  0  0  0  0  0
   -5.8006   -0.0919    1.4741 N   0  0  0  0  0  0  0  0  0  0  0  0
   -5.1128    0.6457    0.4007 C   0  0  0  0  0  0  0  0  0  0  0  0
   -3.6095    0.9215    0.6375 C   0  0  0  0  0  0  0  0  0  0  0  0
   -0.9195   -1.6690    0.2972 C   0  0  0  0  0  0  0  0  0  0  0  0
    0.4393   -1.7792   -0.0462 C   0  0  0  0  0  0  0  0  0  0  0  0
    3.3900    0.3306   -1.0794 C   0  0  0  0  0  0  0  0  0  0  0  0
    4.4197    1.1602   -0.3857 N   0  0  0  0  0  0  0  0  0  0  0  0
    5.4899    0.2916   -0.0367 C   0  0  0  0  0  0  0  0  0  0  0  0
    6.2081    0.4965    0.9183 O   0  0  0  0  0  0  0  0  0  0  0  0
    5.0029    3.7825   -0.4667 H   0  0  0  0  0  0  0  0  0  0  0  0
    5.2191    3.8377   -2.1447 H   0  0  0  0  0  0  0  0  0  0  0  0
    3.1036   -2.8059    0.1409 H   0  0  0  0  0  0  0  0  0  0  0  0
    1.2353    1.5089    0.0523 H   0  0  0  0  0  0  0  0  0  0  0  0
   -1.0873    1.6804    0.6550 H   0  0  0  0  0  0  0  0  0  0  0  0
   -3.0770   -2.1724    1.9246 H   0  0  0  0  0  0  0  0  0  0  0  0
   -3.9951   -2.0412    0.4083 H   0  0  0  0  0  0  0  0  0  0  0  0
   -5.4711   -1.9321    2.4244 H   0  0  0  0  0  0  0  0  0  0  0  0
   -4.5264   -0.5895    3.0604 H   0  0  0  0  0  0  0  0  0  0  0  0
   -6.1308    0.5665    2.1789 H   0  0  0  0  0  0  0  0  0  0  0  0
   -5.2229    0.0677   -0.5264 H   0  0  0  0  0  0  0  0  0  0  0  0
   -5.6353    1.5947    0.2335 H   0  0  0  0  0  0  0  0  0  0  0  0
   -3.2284    1.4270   -0.2584 H   0  0  0  0  0  0  0  0  0  0  0  0
   -3.4885    1.5993    1.4913 H   0  0  0  0  0  0  0  0  0  0  0  0
   -1.4976   -2.5875    0.3338 H   0  0  0  0  0  0  0  0  0  0  0  0
    0.8213   -2.7759   -0.2563 H   0  0  0  0  0  0  0  0  0  0  0  0
  1  2  1  0
  2  3  2  0
  3  4  1  0
  4  5  2  0
  5  6  1  0
  6  7  2  0
  7  8  1  0
  8  9  1  0
  9 10  2  0
 10 11  1  0
 11 12  2  0
 12 13  1  0
 13 14  1  0
 14 15  1  0
 15 16  1  0
 16 17  1  0
 17 18  1  0
 12 19  1  0
 19 20  2  0
  8 21  2  0
 21 22  1  0
 22 23  1  0
 23 24  2  0
 22  2  1  0
 21  4  1  0
 23  5  1  0
 20  9  1  0
 18 13  1  0
  1 25  1  0
  1 26  1  0
  7 27  1  0
 10 28  1  0
 11 29  1  0
 14 30  1  0
 14 31  1  0
 15 32  1  0
 15 33  1  0
 16 34  1  0
 17 35  1  0
 17 36  1  0
 18 37  1  0
 18 38  1  0
 19 39  1  0
 20 40  1  0
M  END
$$$$
