MODEL        7USER    Run = 7USERUSER    Estimated Free Energy of Binding    = -11.39 kcal/mol  [=(1)+(2)+(3)-(4)]USERUSER    (1) Final Intermolecular Energy     = -13.48 kcal/molUSER        vdW + Hbond + desolv Energy     = -13.44 kcal/molUSER        Electrostatic Energy            =  -0.04 kcal/molUSER        Moving Ligand-Fixed Receptor    = -13.48 kcal/molUSER        Moving Ligand-Moving Receptor   =  +0.00 kcal/molUSER    (2) Final Total Internal Energy     =  -0.87 kcal/molUSER    (3) Torsional Free Energy           =  +2.09 kcal/molUSER    (4) Unbound System's Energy         =  -0.87 kcal/molUSERUSERREMARK SMILES Nc1nccc(-c2ccc(C(=O)CN3CCC(Nc4nc5ccccc5s4)CC3)cc2)n1REMARK SMILES IDX 11 1 12 2 10 3 7 4 8 5 31 6 9 7 30 8 6 9 2 10 3 11 32 12REMARK SMILES IDX 4 13 5 14 1 15 13 18 14 19 15 20 29 21 16 22 28 23 17 24REMARK SMILES IDX 18 25 19 27 20 28 27 29 21 30 26 31 22 32 25 33 23 34 24 35REMARK H PARENT 1 16 1 17 18 26USER                              x       y       z     vdW  Elec       q    TypeUSER                           _______ _______ _______ _____ _____    ______ ____ROOTATOM      1  C   UNL     1      39.547  44.975  21.556 -0.26 +0.01    +0.176 C  ATOM      2  O   UNL     1      39.239  46.033  21.003 -0.17 -0.01    -0.293 OA ENDROOTBRANCH   1   3ATOM      3  C   UNL     1      38.666  44.436  22.638 -0.30 +0.00    +0.019 A  ATOM      4  C   UNL     1      37.036  43.497  24.774 -0.36 +0.00    +0.000 A  ATOM      5  C   UNL     1      37.286  42.707  23.635 -0.39 +0.00    +0.011 A  ATOM      6  C   UNL     1      37.610  44.781  24.806 -0.31 +0.00    +0.011 A  ATOM      7  C   UNL     1      38.091  43.164  22.581 -0.34 +0.00    +0.012 A  ATOM      8  C   UNL     1      38.411  45.244  23.753 -0.29 +0.00    +0.012 A  BRANCH   4   9ATOM      9  C   UNL     1      36.196  42.986  25.877 -0.35 -0.01    +0.076 A  ATOM     10  C   UNL     1      35.022  41.203  26.725 -0.40 -0.09    +0.220 A  ATOM     11  N   UNL     1      34.646  41.868  27.819 -0.36 +0.08    -0.222 NA ATOM     12  N   UNL     1      35.771  41.710  25.742 -0.31 +0.05    -0.213 NA ATOM     13  C   UNL     1      35.090  43.130  27.935 -0.46 -0.04    +0.117 A  ATOM     14  C   UNL     1      35.870  43.746  26.987 -0.42 -0.01    +0.049 A  BRANCH  10  15ATOM     15  N   UNL     1      34.560  39.913  26.576 -0.19 +0.25    -0.368 N  ATOM     16  H   UNL     1      33.838  39.900  25.868 -0.38 -0.16    +0.159 HD ATOM     17  H   UNL     1      35.345  39.283  26.450 -0.45 -0.12    +0.159 HD ENDBRANCH  10  15ENDBRANCH   4   9ENDBRANCH   1   3BRANCH   1  18ATOM     18  C   UNL     1      40.832  44.233  21.183 -0.27 +0.01    +0.165 C  BRANCH  18  19ATOM     19  N   UNL     1      41.427  44.756  19.939 -0.19 -0.04    -0.296 NA ATOM     20  C   UNL     1      40.551  44.600  18.765 -0.42 +0.00    +0.087 C  ATOM     21  C   UNL     1      41.900  46.134  20.136 -0.40 +0.01    +0.087 C  ATOM     22  C   UNL     1      39.799  45.872  18.378 -0.48 -0.00    +0.040 C  ATOM     23  C   UNL     1      42.101  46.864  18.814 -0.57 +0.00    +0.040 C  ATOM     24  C   UNL     1      40.755  47.044  18.100 -0.50 -0.01    +0.084 C  BRANCH  24  25ATOM     25  N   UNL     1      40.956  47.181  16.659 -0.19 +0.04    -0.359 N  ATOM     26  H   UNL     1      41.774  47.727  16.394 -0.35 -0.02    +0.163 HD BRANCH  25  27ATOM     27  C   UNL     1      39.933  47.305  15.773 -0.36 -0.04    +0.184 A  ATOM     28  N   UNL     1      39.450  46.249  15.158 -0.28 +0.04    -0.220 NA ATOM     29  S   UNL     1      39.147  48.788  15.376 -0.64 +0.05    -0.097 S  ATOM     30  C   UNL     1      38.413  46.604  14.311 -0.38 -0.03    +0.084 A  ATOM     31  C   UNL     1      38.101  47.963  14.290 -0.49 -0.03    +0.056 A  ATOM     32  C   UNL     1      37.671  45.723  13.492 -0.41 -0.01    +0.030 A  ATOM     33  C   UNL     1      37.077  48.478  13.477 -0.52 -0.01    +0.021 A  ATOM     34  C   UNL     1      36.649  46.224  12.679 -0.61 -0.00    +0.002 A  ATOM     35  C   UNL     1      36.359  47.586  12.671 -0.67 -0.00    +0.002 A  ENDBRANCH  25  27ENDBRANCH  24  25ENDBRANCH  18  19ENDBRANCH   1  18TORSDOF 7TERENDMDL