MODEL        8USER    Run = 8USERUSER    Estimated Free Energy of Binding    = -10.90 kcal/mol  [=(1)+(2)+(3)-(4)]USERUSER    (1) Final Intermolecular Energy     = -13.59 kcal/molUSER        vdW + Hbond + desolv Energy     = -13.36 kcal/molUSER        Electrostatic Energy            =  -0.23 kcal/molUSER        Moving Ligand-Fixed Receptor    = -13.59 kcal/molUSER        Moving Ligand-Moving Receptor   =  +0.00 kcal/molUSER    (2) Final Total Internal Energy     =  -1.78 kcal/molUSER    (3) Torsional Free Energy           =  +2.68 kcal/molUSER    (4) Unbound System's Energy         =  -1.78 kcal/molUSERUSERREMARK SMILES Nc1nccc(-c2ccc(C(=O)CCN3CC[C@@H](Nc4nc5ccc(F)cc5s4)C[C@@H]3O)cc2)n1REMARK SMILES IDX 13 1 11 2 12 3 10 4 7 5 8 6 34 7 9 8 33 9 6 10 2 11 3 12REMARK SMILES IDX 35 13 4 14 5 15 1 16 14 19 15 20 16 21 31 22 17 23 30 24REMARK SMILES IDX 18 25 32 26 19 28 20 30 21 31 29 32 22 33 28 34 23 35 27 36REMARK SMILES IDX 24 37 25 38 26 39REMARK H PARENT 1 17 1 18 32 27 19 29USER                              x       y       z     vdW  Elec       q    TypeUSER                           _______ _______ _______ _____ _____    ______ ____ROOTATOM      1  C   UNL     1      39.377  48.369  15.541 -0.53 -0.04    +0.096 C  ENDROOTBRANCH   1   2ATOM      2  C   UNL     1      40.679  48.580  16.287 -0.50 -0.03    +0.164 C  ATOM      3  O   UNL     1      41.489  49.427  15.910 -1.00 +0.00    -0.294 OA BRANCH   2   4ATOM      4  C   UNL     1      40.993  47.763  17.501 -0.51 -0.00    +0.018 A  ATOM      5  C   UNL     1      41.710  46.255  19.813 -0.43 +0.00    +0.000 A  ATOM      6  C   UNL     1      40.534  45.983  19.090 -0.44 -0.00    +0.011 A  ATOM      7  C   UNL     1      42.515  47.309  19.339 -0.51 +0.00    +0.011 A  ATOM      8  C   UNL     1      40.173  46.727  17.955 -0.47 -0.00    +0.012 A  ATOM      9  C   UNL     1      42.165  48.053  18.205 -0.39 -0.00    +0.012 A  BRANCH   5  10ATOM     10  C   UNL     1      42.117  45.470  21.005 -0.26 +0.02    +0.076 A  ATOM     11  C   UNL     1      41.905  43.485  22.154 -0.22 +0.01    +0.220 A  ATOM     12  N   UNL     1      42.720  43.869  23.136 -0.12 -0.02    -0.222 NA ATOM     13  N   UNL     1      41.598  44.223  21.086 -0.22 -0.03    -0.213 NA ATOM     14  C   UNL     1      43.234  45.105  23.030 -0.11 +0.02    +0.117 A  ATOM     15  C   UNL     1      42.968  45.953  21.981 -0.24 +0.01    +0.049 A  BRANCH  11  16ATOM     16  N   UNL     1      41.382  42.209  22.223 -0.02 +0.01    -0.368 N  ATOM     17  H   UNL     1      40.910  42.083  23.106 +0.06 +0.00    +0.159 HD ATOM     18  H   UNL     1      42.093  41.537  21.977 -0.49 -0.05    +0.159 HD ENDBRANCH  11  16ENDBRANCH   5  10ENDBRANCH   2   4ENDBRANCH   1   2BRANCH   1  19ATOM     19  C   UNL     1      39.536  47.618  14.214 -0.36 -0.02    +0.095 C  BRANCH  19  20ATOM     20  N   UNL     1      38.270  47.040  13.722 -0.29 +0.08    -0.278 NA ATOM     21  C   UNL     1      38.162  45.597  14.004 -0.37 -0.03    +0.089 C  ATOM     22  C   UNL     1      37.129  47.797  14.229 -0.44 -0.11    +0.187 C  ATOM     23  C   UNL     1      37.373  45.282  15.272 -0.40 -0.02    +0.040 C  ATOM     24  C   UNL     1      35.830  46.993  14.220 -0.42 -0.06    +0.073 C  ATOM     25  C   UNL     1      35.926  45.793  15.170 -0.37 -0.06    +0.086 C  BRANCH  22  26ATOM     26  O   UNL     1      36.958  48.913  13.377 -0.55 +0.17    -0.378 OA ATOM     27  H   UNL     1      37.492  49.600  13.817 -0.34 -0.14    +0.212 HD ENDBRANCH  22  26BRANCH  25  28ATOM     28  N   UNL     1      35.421  46.169  16.494 -0.13 +0.33    -0.359 N  ATOM     29  H   UNL     1      34.495  46.587  16.511 -0.15 -0.28    +0.163 HD BRANCH  28  30ATOM     30  C   UNL     1      35.707  45.388  17.566 -0.22 -0.09    +0.184 A  ATOM     31  N   UNL     1      36.778  45.485  18.314 -0.20 +0.06    -0.220 NA ATOM     32  S   UNL     1      34.605  44.147  18.024 -0.41 +0.03    -0.097 S  ATOM     33  C   UNL     1      36.755  44.535  19.320 -0.28 -0.01    +0.084 A  ATOM     34  C   UNL     1      35.635  43.700  19.326 -0.35 -0.01    +0.059 A  ATOM     35  C   UNL     1      37.746  44.353  20.310 -0.35 -0.00    +0.033 A  ATOM     36  C   UNL     1      35.468  42.686  20.282 -0.41 -0.00    +0.060 A  ATOM     37  C   UNL     1      37.593  43.343  21.266 -0.34 +0.00    +0.041 A  ATOM     38  C   UNL     1      36.468  42.530  21.240 -0.39 +0.00    +0.124 A  ATOM     39  F   UNL     1      36.337  41.567  22.163 -0.20 -0.01    -0.207 F  ENDBRANCH  28  30ENDBRANCH  25  28ENDBRANCH  19  20ENDBRANCH   1  19TORSDOF 9TERENDMDL