MODEL        5USER    Run = 5USERUSER    Estimated Free Energy of Binding    = -11.33 kcal/mol  [=(1)+(2)+(3)-(4)]USERUSER    (1) Final Intermolecular Energy     = -13.71 kcal/molUSER        vdW + Hbond + desolv Energy     = -13.53 kcal/molUSER        Electrostatic Energy            =  -0.18 kcal/molUSER        Moving Ligand-Fixed Receptor    = -13.71 kcal/molUSER        Moving Ligand-Moving Receptor   =  +0.00 kcal/molUSER    (2) Final Total Internal Energy     =  -1.82 kcal/molUSER    (3) Torsional Free Energy           =  +2.39 kcal/molUSER    (4) Unbound System's Energy         =  -1.82 kcal/molUSERUSERREMARK SMILES Nc1nccc(-c2ccc(C(=O)CCN3CCC(Nc4nc5ccccc5s4)CC3)cc2)n1REMARK SMILES IDX 11 1 12 2 10 3 7 4 8 5 32 6 9 7 31 8 6 9 2 10 3 11 33 12REMARK SMILES IDX 4 13 5 14 1 15 13 18 14 19 15 20 16 21 30 22 17 23 29 24REMARK SMILES IDX 18 25 19 26 20 28 21 29 28 30 22 31 27 32 23 33 26 34 24 35REMARK SMILES IDX 25 36REMARK H PARENT 1 16 1 17 19 27USER                              x       y       z     vdW  Elec       q    TypeUSER                           _______ _______ _______ _____ _____    ______ ____ROOTATOM      1  C   UNL     1      36.982  47.159  13.099 -0.53 -0.07    +0.164 C  ATOM      2  O   UNL     1      37.228  48.111  12.363 -0.98 +0.02    -0.294 OA ENDROOTBRANCH   1   3ATOM      3  C   UNL     1      37.801  46.968  14.330 -0.44 -0.01    +0.018 A  ATOM      4  C   UNL     1      39.449  46.561  16.618 -0.45 -0.00    +0.000 A  ATOM      5  C   UNL     1      38.268  47.330  16.679 -0.27 -0.01    +0.011 A  ATOM      6  C   UNL     1      39.788  46.015  15.367 -0.31 -0.00    +0.011 A  ATOM      7  C   UNL     1      37.456  47.541  15.554 -0.43 -0.01    +0.012 A  ATOM      8  C   UNL     1      38.978  46.214  14.239 -0.37 -0.00    +0.012 A  BRANCH   4   9ATOM      9  C   UNL     1      40.281  46.371  17.827 -0.43 -0.01    +0.076 A  ATOM     10  C   UNL     1      42.261  46.878  18.889 -0.36 +0.02    +0.220 A  ATOM     11  N   UNL     1      41.966  46.157  19.970 -0.27 -0.04    -0.222 NA ATOM     12  N   UNL     1      41.479  47.000  17.814 -0.35 +0.02    -0.213 NA ATOM     13  C   UNL     1      40.772  45.544  19.962 -0.33 +0.01    +0.117 A  ATOM     14  C   UNL     1      39.885  45.617  18.913 -0.41 -0.00    +0.049 A  BRANCH  10  15ATOM     15  N   UNL     1      43.482  47.517  18.848 -0.27 -0.07    -0.368 N  ATOM     16  H   UNL     1      43.364  48.480  19.127 -0.52 -0.02    +0.159 HD ATOM     17  H   UNL     1      43.933  47.352  17.958 -0.46 +0.02    +0.159 HD ENDBRANCH  10  15ENDBRANCH   4   9ENDBRANCH   1   3BRANCH   1  18ATOM     18  C   UNL     1      35.836  46.213  12.792 -0.56 -0.05    +0.096 C  BRANCH  18  19ATOM     19  C   UNL     1      34.690  46.263  13.808 -0.33 -0.07    +0.092 C  BRANCH  19  20ATOM     20  N   UNL     1      34.942  45.553  15.071 -0.16 +0.23    -0.303 NA ATOM     21  C   UNL     1      35.938  44.486  14.949 -0.30 -0.04    +0.086 C  ATOM     22  C   UNL     1      33.677  45.058  15.644 -0.32 -0.06    +0.086 C  ATOM     23  C   UNL     1      36.342  43.964  16.334 -0.40 -0.01    +0.040 C  ATOM     24  C   UNL     1      33.838  43.860  16.585 -0.36 -0.02    +0.040 C  ATOM     25  C   UNL     1      35.171  43.922  17.331 -0.31 -0.03    +0.084 C  BRANCH  25  26ATOM     26  N   UNL     1      35.268  42.748  18.200 -0.13 +0.09    -0.359 N  ATOM     27  H   UNL     1      35.484  41.887  17.706 -0.03 -0.06    +0.163 HD BRANCH  26  28ATOM     28  C   UNL     1      35.869  42.796  19.416 -0.26 -0.02    +0.184 A  ATOM     29  N   UNL     1      35.596  41.887  20.322 -0.28 +0.00    -0.220 NA ATOM     30  S   UNL     1      36.981  44.010  19.923 -0.49 +0.01    -0.097 S  ATOM     31  C   UNL     1      36.285  42.145  21.494 -0.45 +0.00    +0.084 A  ATOM     32  C   UNL     1      37.095  43.279  21.474 -0.38 +0.00    +0.056 A  ATOM     33  C   UNL     1      36.228  41.373  22.672 -0.47 +0.00    +0.030 A  ATOM     34  C   UNL     1      37.845  43.676  22.594 -0.34 +0.00    +0.021 A  ATOM     35  C   UNL     1      36.969  41.759  23.793 -0.40 +0.00    +0.002 A  ATOM     36  C   UNL     1      37.764  42.899  23.753 -0.35 +0.00    +0.002 A  ENDBRANCH  26  28ENDBRANCH  25  26ENDBRANCH  19  20ENDBRANCH  18  19ENDBRANCH   1  18TORSDOF 8TERENDMDL