MODEL        10USER    Run = 10USERUSER    Estimated Free Energy of Binding    = -12.68 kcal/mol  [=(1)+(2)+(3)-(4)]USERUSER    (1) Final Intermolecular Energy     = -14.77 kcal/molUSER        vdW + Hbond + desolv Energy     = -14.49 kcal/molUSER        Electrostatic Energy            =  -0.27 kcal/molUSER        Moving Ligand-Fixed Receptor    = -14.77 kcal/molUSER        Moving Ligand-Moving Receptor   =  +0.00 kcal/molUSER    (2) Final Total Internal Energy     =  -1.76 kcal/molUSER    (3) Torsional Free Energy           =  +2.09 kcal/molUSER    (4) Unbound System's Energy         =  -1.76 kcal/molUSERUSERREMARK SMILES CN1CCN(c2ccc(-c3nc4ccc(F)cc4nc3-c3ccc(CN4CCC(n5c(O)nc6ccccc65)CC4)cc3)cc2)CC1REMARK SMILES IDX 21 1 22 2 23 3 24 4 42 5 43 6 20 7 10 8 11 9 12 10 19 11REMARK SMILES IDX 13 12 18 13 14 14 17 15 15 16 16 17 9 18 6 19 7 20 45 21REMARK SMILES IDX 8 22 44 23 5 24 2 25 3 26 47 27 4 28 46 29 1 30 25 31 26 32REMARK SMILES IDX 27 33 41 34 28 35 40 36 29 37 30 38 31 39 39 40 33 41 38 42REMARK SMILES IDX 34 43 37 44 35 45 36 46 32 47REMARK H PARENT 32 48USER                              x       y       z     vdW  Elec       q    TypeUSER                           _______ _______ _______ _____ _____    ______ ____ROOTATOM      1  C   UNL     1      34.302  43.627  17.212 -0.32 -0.00    +0.002 A  ATOM      2  C   UNL     1      33.085  44.122  17.709 -0.31 -0.00    +0.011 A  ATOM      3  C   UNL     1      32.117  43.266  18.245 -0.32 -0.00    +0.006 A  ATOM      4  C   UNL     1      32.338  41.884  18.286 -0.34 +0.01    -0.034 A  ATOM      5  C   UNL     1      33.538  41.377  17.773 -0.40 -0.00    +0.006 A  ATOM      6  C   UNL     1      34.504  42.237  17.240 -0.41 -0.00    +0.011 A  ENDROOTBRANCH   1   7ATOM      7  C   UNL     1      35.313  44.548  16.664 -0.25 -0.05    +0.097 A  ATOM      8  C   UNL     1      36.476  44.963  17.334 -0.27 -0.04    +0.097 A  ATOM      9  N   UNL     1      37.392  45.764  16.718 -0.20 +0.10    -0.244 NA ATOM     10  C   UNL     1      37.125  46.166  15.464 -0.31 -0.05    +0.090 A  ATOM     11  N   UNL     1      35.040  44.973  15.397 -0.18 +0.15    -0.244 NA ATOM     12  C   UNL     1      38.030  46.992  14.805 -0.41 -0.01    +0.033 A  ATOM     13  C   UNL     1      35.940  45.774  14.801 -0.32 -0.06    +0.092 A  ATOM     14  C   UNL     1      37.784  47.438  13.508 -0.50 -0.01    +0.041 A  ATOM     15  C   UNL     1      35.702  46.220  13.511 -0.44 -0.04    +0.069 A  ATOM     16  C   UNL     1      36.618  47.046  12.872 -0.53 -0.06    +0.125 A  ATOM     17  F   UNL     1      36.370  47.468  11.626 -0.22 +0.10    -0.207 F  BRANCH   8  18ATOM     18  C   UNL     1      36.818  44.629  18.729 -0.35 -0.00    +0.003 A  ATOM     19  C   UNL     1      37.449  43.971  21.457 -0.37 +0.00    +0.037 A  ATOM     20  C   UNL     1      36.137  43.923  20.968 -0.33 +0.00    +0.026 A  ATOM     21  C   UNL     1      38.437  44.342  20.535 -0.34 -0.00    +0.026 A  ATOM     22  C   UNL     1      35.824  44.240  19.636 -0.39 -0.00    +0.012 A  ATOM     23  C   UNL     1      38.135  44.656  19.201 -0.36 -0.00    +0.012 A  BRANCH  19  24ATOM     24  N   UNL     1      37.757  43.663  22.770 -0.13 -0.03    -0.369 N  ATOM     25  N   UNL     1      38.472  43.050  25.621 -0.08 +0.00    -0.303 NA ATOM     26  C   UNL     1      37.137  43.498  25.168 -0.33 +0.00    +0.105 C  ATOM     27  C   UNL     1      39.404  42.906  24.484 -0.21 +0.01    +0.105 C  ATOM     28  C   UNL     1      37.161  44.390  23.904 -0.24 +0.02    +0.132 C  ATOM     29  C   UNL     1      38.752  42.631  23.108 -0.24 +0.01    +0.132 C  ATOM     30  C   UNL     1      38.363  41.817  26.395 -0.31 -0.01    +0.105 C  ENDBRANCH  19  24ENDBRANCH   8  18ENDBRANCH   1   7BRANCH   4  31ATOM     31  C   UNL     1      31.302  40.949  18.871 -0.20 -0.00    +0.120 C  BRANCH  31  32ATOM     32  N   UNL     1      30.818  39.945  17.911 -0.18 +0.01    -0.299 NA ATOM     33  C   UNL     1      30.488  38.671  18.562 -0.41 +0.02    +0.087 C  ATOM     34  C   UNL     1      29.702  40.412  17.075 -0.35 -0.00    +0.087 C  ATOM     35  C   UNL     1      29.204  38.718  19.391 -0.35 +0.01    +0.041 C  ATOM     36  C   UNL     1      28.377  40.541  17.826 -0.25 +0.00    +0.041 C  ATOM     37  C   UNL     1      28.033  39.231  18.545 -0.25 +0.02    +0.095 C  BRANCH  37  38ATOM     38  N   UNL     1      26.791  39.310  19.302 -0.11 +0.02    -0.291 N  ATOM     39  C   UNL     1      26.059  38.230  19.715 -0.11 -0.14    +0.295 A  ATOM     40  C   UNL     1      26.131  40.435  19.753 -0.23 -0.01    +0.072 A  ATOM     41  N   UNL     1      24.994  38.553  20.392 -0.18 +0.16    -0.195 NA ATOM     42  C   UNL     1      26.373  41.813  19.655 -0.26 -0.00    +0.029 A  ATOM     43  C   UNL     1      25.018  39.926  20.428 -0.28 -0.03    +0.092 A  ATOM     44  C   UNL     1      25.453  42.675  20.262 -0.47 -0.00    +0.002 A  ATOM     45  C   UNL     1      24.108  40.808  21.031 -0.44 -0.01    +0.031 A  ATOM     46  C   UNL     1      24.338  42.185  20.940 -0.55 -0.00    +0.002 A  BRANCH  39  47ATOM     47  O   UNL     1      26.374  36.974  19.475 -0.08 +0.28    -0.480 OA ATOM     48  H   UNL     1      25.535  36.524  19.687 -0.38 -0.63    +0.296 HD ENDBRANCH  39  47ENDBRANCH  37  38ENDBRANCH  31  32ENDBRANCH   4  31TORSDOF 7TERENDMDL