MODEL        6USER    Run = 6USERUSER    Estimated Free Energy of Binding    = -14.11 kcal/mol  [=(1)+(2)+(3)-(4)]USERUSER    (1) Final Intermolecular Energy     = -16.20 kcal/molUSER        vdW + Hbond + desolv Energy     = -16.02 kcal/molUSER        Electrostatic Energy            =  -0.17 kcal/molUSER        Moving Ligand-Fixed Receptor    = -16.20 kcal/molUSER        Moving Ligand-Moving Receptor   =  +0.00 kcal/molUSER    (2) Final Total Internal Energy     =  -2.47 kcal/molUSER    (3) Torsional Free Energy           =  +2.09 kcal/molUSER    (4) Unbound System's Energy         =  -2.47 kcal/molUSERUSERREMARK SMILES CN1CCN(C(=O)c2ccc(-c3nc4ccccc4nc3-c3ccc(CN4CCC(n5c(O)nc6ccccc65)CC4)cc3)cc2)CC1REMARK SMILES IDX 22 1 23 2 24 3 25 4 43 5 44 6 21 7 12 8 13 9 14 10 20 11REMARK SMILES IDX 15 12 19 13 16 14 18 15 17 16 11 17 8 18 9 19 46 20 10 21REMARK SMILES IDX 45 22 6 23 2 24 3 25 48 26 4 27 47 28 5 29 1 30 7 31 26 32REMARK SMILES IDX 27 33 28 34 42 35 29 36 41 37 30 38 31 39 32 40 40 41 34 42REMARK SMILES IDX 39 43 35 44 38 45 36 46 37 47 33 48REMARK H PARENT 33 49USER                              x       y       z     vdW  Elec       q    TypeUSER                           _______ _______ _______ _____ _____    ______ ____ROOTATOM      1  C   UNL     1      35.411  44.149  17.559 -0.31 -0.00    +0.002 A  ATOM      2  C   UNL     1      36.374  43.895  16.569 -0.36 -0.00    +0.011 A  ATOM      3  C   UNL     1      36.347  44.567  15.343 -0.37 -0.00    +0.006 A  ATOM      4  C   UNL     1      35.338  45.494  15.057 -0.34 +0.02    -0.034 A  ATOM      5  C   UNL     1      34.381  45.762  16.047 -0.21 -0.01    +0.006 A  ATOM      6  C   UNL     1      34.414  45.096  17.276 -0.33 -0.01    +0.011 A  ENDROOTBRANCH   1   7ATOM      7  C   UNL     1      35.439  43.411  18.832 -0.30 -0.02    +0.097 A  ATOM      8  C   UNL     1      34.511  42.433  19.222 -0.35 -0.01    +0.097 A  ATOM      9  N   UNL     1      34.670  41.744  20.390 -0.02 -0.02    -0.244 NA ATOM     10  C   UNL     1      35.728  42.055  21.160 -0.36 +0.00    +0.089 A  ATOM     11  N   UNL     1      36.498  43.734  19.626 -0.21 +0.02    -0.244 NA ATOM     12  C   UNL     1      35.926  41.379  22.358 -0.30 +0.00    +0.030 A  ATOM     13  C   UNL     1      36.644  43.057  20.778 -0.37 +0.00    +0.089 A  ATOM     14  C   UNL     1      37.010  41.673  23.188 -0.44 +0.00    +0.002 A  ATOM     15  C   UNL     1      37.721  43.344  21.611 -0.35 +0.00    +0.030 A  ATOM     16  C   UNL     1      37.912  42.659  22.811 -0.38 +0.00    +0.002 A  BRANCH   8  17ATOM     17  C   UNL     1      33.290  42.059  18.480 -0.40 -0.00    +0.002 A  ATOM     18  C   UNL     1      30.913  41.293  17.170 -0.30 -0.01    +0.040 A  ATOM     19  C   UNL     1      31.227  42.645  17.307 -0.28 -0.00    +0.014 A  ATOM     20  C   UNL     1      31.788  40.316  17.648 -0.38 -0.00    +0.014 A  ATOM     21  C   UNL     1      32.400  43.022  17.970 -0.32 -0.00    +0.011 A  ATOM     22  C   UNL     1      32.961  40.700  18.304 -0.23 -0.00    +0.011 A  BRANCH  18  23ATOM     23  C   UNL     1      29.658  40.910  16.485 -0.27 -0.05    +0.253 C  ATOM     24  N   UNL     1      26.475  43.304  16.299 -0.09 +0.07    -0.303 NA ATOM     25  C   UNL     1      26.664  42.043  15.540 -0.27 -0.05    +0.105 C  ATOM     26  C   UNL     1      27.706  43.627  17.055 -0.23 -0.02    +0.105 C  ATOM     27  C   UNL     1      27.216  40.869  16.378 -0.25 -0.01    +0.135 C  ATOM     28  C   UNL     1      28.275  42.464  17.900 -0.11 -0.02    +0.135 C  ATOM     29  N   UNL     1      28.443  41.260  17.075 -0.07 +0.04    -0.336 N  ATOM     30  C   UNL     1      25.304  43.240  17.171 -0.35 -0.00    +0.105 C  ATOM     31  O   UNL     1      29.750  40.283  15.432 -0.38 +0.04    -0.269 OA ENDBRANCH  18  23ENDBRANCH   8  17ENDBRANCH   1   7BRANCH   4  32ATOM     32  C   UNL     1      35.270  46.187  13.709 -0.38 -0.08    +0.120 C  BRANCH  32  33ATOM     33  N   UNL     1      36.355  47.131  13.398 -0.32 +0.17    -0.299 NA ATOM     34  C   UNL     1      37.570  46.518  12.861 -0.46 -0.03    +0.087 C  ATOM     35  C   UNL     1      36.569  48.146  14.431 -0.36 -0.07    +0.087 C  ATOM     36  C   UNL     1      38.775  46.654  13.786 -0.34 -0.01    +0.041 C  ATOM     37  C   UNL     1      37.807  48.997  14.153 -0.06 -0.03    +0.041 C  ATOM     38  C   UNL     1      39.080  48.137  14.038 -0.40 -0.03    +0.095 C  BRANCH  38  39ATOM     39  N   UNL     1      40.010  48.332  15.145 -0.31 +0.08    -0.291 N  ATOM     40  C   UNL     1      40.945  49.321  15.266 -0.38 -0.07    +0.295 A  ATOM     41  C   UNL     1      40.110  47.549  16.279 -0.47 -0.02    +0.072 A  ATOM     42  N   UNL     1      41.641  49.248  16.368 -0.97 -0.02    -0.195 NA ATOM     43  C   UNL     1      39.431  46.410  16.732 -0.43 -0.01    +0.029 A  ATOM     44  C   UNL     1      41.137  48.146  17.014 -0.44 -0.01    +0.092 A  ATOM     45  C   UNL     1      39.823  45.878  17.966 -0.45 -0.00    +0.002 A  ATOM     46  C   UNL     1      41.514  47.597  18.249 -0.46 -0.00    +0.031 A  ATOM     47  C   UNL     1      40.848  46.458  18.714 -0.48 -0.00    +0.002 A  BRANCH  40  48ATOM     48  O   UNL     1      41.151  50.275  14.382 -0.25 +0.18    -0.480 OA ATOM     49  H   UNL     1      40.534  50.963  14.692 -0.13 -0.21    +0.296 HD ENDBRANCH  40  48ENDBRANCH  38  39ENDBRANCH  32  33ENDBRANCH   4  32TORSDOF 7TERENDMDL