MODEL        9USER    Run = 9USERUSER    Estimated Free Energy of Binding    = -11.85 kcal/mol  [=(1)+(2)+(3)-(4)]USERUSER    (1) Final Intermolecular Energy     = -13.93 kcal/molUSER        vdW + Hbond + desolv Energy     = -13.78 kcal/molUSER        Electrostatic Energy            =  -0.15 kcal/molUSER        Moving Ligand-Fixed Receptor    = -13.93 kcal/molUSER        Moving Ligand-Moving Receptor   =  +0.00 kcal/molUSER    (2) Final Total Internal Energy     =  -1.78 kcal/molUSER    (3) Torsional Free Energy           =  +2.09 kcal/molUSER    (4) Unbound System's Energy         =  -1.78 kcal/molUSERUSERREMARK SMILES Oc1ccc(-c2nc3ccccc3nc2-c2ccc(CN3CCC(n4c(O)nc5ccccc54)CC3)cc2)cc1REMARK SMILES IDX 16 1 17 2 18 3 19 4 37 5 38 6 15 7 6 8 7 9 8 10 14 11 9 12REMARK SMILES IDX 13 13 10 14 12 15 11 16 5 17 2 18 3 19 40 20 4 21 39 22 1 23REMARK SMILES IDX 20 25 21 26 22 27 36 28 23 29 35 30 24 31 25 32 26 33 34 34REMARK SMILES IDX 28 35 33 36 29 37 32 38 30 39 31 40 27 41REMARK H PARENT 1 24 27 42USER                              x       y       z     vdW  Elec       q    TypeUSER                           _______ _______ _______ _____ _____    ______ ____ROOTATOM      1  C   UNL     1      36.281  44.830  17.370 -0.33 -0.00    +0.002 A  ATOM      2  C   UNL     1      35.119  45.562  17.668 -0.37 -0.01    +0.011 A  ATOM      3  C   UNL     1      33.846  45.047  17.399 -0.34 -0.00    +0.006 A  ATOM      4  C   UNL     1      33.697  43.794  16.791 -0.30 +0.01    -0.034 A  ATOM      5  C   UNL     1      34.846  43.062  16.471 -0.42 -0.00    +0.006 A  ATOM      6  C   UNL     1      36.115  43.573  16.757 -0.37 -0.00    +0.011 A  ENDROOTBRANCH   1   7ATOM      7  C   UNL     1      37.636  45.345  17.651 -0.30 -0.03    +0.097 A  ATOM      8  C   UNL     1      38.442  46.067  16.756 -0.33 -0.03    +0.097 A  ATOM      9  N   UNL     1      39.705  46.453  17.098 -0.28 +0.05    -0.244 NA ATOM     10  C   UNL     1      40.136  46.151  18.335 -0.41 -0.01    +0.089 A  ATOM     11  N   UNL     1      38.082  45.046  18.907 -0.23 +0.03    -0.244 NA ATOM     12  C   UNL     1      41.409  46.544  18.733 -0.49 +0.00    +0.030 A  ATOM     13  C   UNL     1      39.319  45.447  19.245 -0.35 -0.01    +0.089 A  ATOM     14  C   UNL     1      41.892  46.258  20.010 -0.42 +0.00    +0.002 A  ATOM     15  C   UNL     1      39.809  45.166  20.516 -0.35 +0.00    +0.030 A  ATOM     16  C   UNL     1      41.087  45.564  20.906 -0.34 +0.00    +0.002 A  BRANCH   8  17ATOM     17  C   UNL     1      38.042  46.505  15.407 -0.40 -0.00    +0.003 A  ATOM     18  C   UNL     1      37.284  47.379  12.845 -0.50 -0.03    +0.115 A  ATOM     19  C   UNL     1      37.315  46.020  13.128 -0.46 -0.02    +0.047 A  ATOM     20  C   UNL     1      37.614  48.315  13.819 -0.50 -0.02    +0.047 A  ATOM     21  C   UNL     1      37.687  45.586  14.403 -0.40 -0.00    +0.014 A  ATOM     22  C   UNL     1      37.984  47.877  15.095 -0.49 -0.01    +0.014 A  BRANCH  18  23ATOM     23  O   UNL     1      36.916  47.761  11.590 -0.75 +0.15    -0.508 OA ATOM     24  H   UNL     1      36.164  48.374  11.660 -0.14 -0.16    +0.293 HD ENDBRANCH  18  23ENDBRANCH   8  17ENDBRANCH   1   7BRANCH   4  25ATOM     25  C   UNL     1      32.317  43.250  16.488 -0.30 -0.05    +0.120 C  BRANCH  25  26ATOM     26  N   UNL     1      31.634  42.705  17.671 -0.11 +0.07    -0.299 NA ATOM     27  C   UNL     1      32.578  42.167  18.664 -0.37 -0.01    +0.087 C  ATOM     28  C   UNL     1      30.555  41.777  17.310 -0.29 -0.02    +0.087 C  ATOM     29  C   UNL     1      32.030  40.972  19.443 -0.35 +0.00    +0.041 C  ATOM     30  C   UNL     1      31.016  40.329  17.182 -0.34 -0.01    +0.041 C  ATOM     31  C   UNL     1      31.696  39.832  18.471 -0.43 -0.00    +0.095 C  BRANCH  31  32ATOM     32  N   UNL     1      30.971  38.744  19.117 -0.22 -0.05    -0.291 N  ATOM     33  C   UNL     1      31.505  37.578  19.587 -0.29 +0.07    +0.295 A  ATOM     34  C   UNL     1      29.620  38.711  19.400 -0.30 +0.01    +0.072 A  ATOM     35  N   UNL     1      30.625  36.798  20.152 -0.33 -0.05    -0.195 NA ATOM     36  C   UNL     1      28.559  39.600  19.174 -0.16 +0.00    +0.029 A  ATOM     37  C   UNL     1      29.441  37.485  20.044 -0.28 +0.01    +0.092 A  ATOM     38  C   UNL     1      27.291  39.207  19.613 -0.25 -0.00    +0.002 A  ATOM     39  C   UNL     1      28.161  37.113  20.482 -0.30 -0.00    +0.031 A  ATOM     40  C   UNL     1      27.092  37.988  20.261 -0.29 -0.00    +0.002 A  BRANCH  33  41ATOM     41  O   UNL     1      32.772  37.234  19.485 -0.18 -0.11    -0.480 OA ATOM     42  H   UNL     1      32.705  36.263  19.431 +0.24 +0.06    +0.296 HD ENDBRANCH  33  41ENDBRANCH  31  32ENDBRANCH  25  26ENDBRANCH   4  25TORSDOF 7TERENDMDL