REMARK SMILES CN1CCN(c2ccc(-c3nc4ccc(F)cc4nc3-c3ccc(CN4CCC(n5c(O)nc6ccccc65)CC4)cc3)cc2)CC1
REMARK SMILES IDX 21 1 22 2 23 3 24 4 42 5 43 6 20 7 10 8 11 9 12 10 19 11
REMARK SMILES IDX 13 12 18 13 14 14 17 15 15 16 16 17 9 18 6 19 7 20 45 21
REMARK SMILES IDX 8 22 44 23 5 24 2 25 3 26 47 27 4 28 46 29 1 30 25 31 26 32
REMARK SMILES IDX 27 33 41 34 28 35 40 36 29 37 30 38 31 39 39 40 33 41 38 42
REMARK SMILES IDX 34 43 37 44 35 45 36 46 32 47
REMARK H PARENT 32 48
ROOT
ATOM      1  C   UNL     1      -0.526  -2.076   1.142  1.00  0.00     0.002 A 
ATOM      2  C   UNL     1       0.561  -1.474   1.797  1.00  0.00     0.011 A 
ATOM      3  C   UNL     1       1.476  -0.676   1.103  1.00  0.00     0.006 A 
ATOM      4  C   UNL     1       1.334  -0.469  -0.274  1.00  0.00    -0.034 A 
ATOM      5  C   UNL     1       0.267  -1.083  -0.942  1.00  0.00     0.006 A 
ATOM      6  C   UNL     1      -0.647  -1.878  -0.244  1.00  0.00     0.011 A 
ENDROOT
BRANCH   1   7
ATOM      7  C   UNL     1      -1.486  -2.902   1.895  1.00  0.00     0.097 A 
ATOM      8  C   UNL     1      -2.880  -2.731   1.887  1.00  0.00     0.097 A 
ATOM      9  N   UNL     1      -3.696  -3.591   2.562  1.00  0.00    -0.244 NA
ATOM     10  C   UNL     1      -3.117  -4.583   3.258  1.00  0.00     0.090 A 
ATOM     11  N   UNL     1      -0.903  -3.902   2.617  1.00  0.00    -0.244 NA
ATOM     12  C   UNL     1      -3.914  -5.475   3.967  1.00  0.00     0.033 A 
ATOM     13  C   UNL     1      -1.712  -4.737   3.291  1.00  0.00     0.092 A 
ATOM     14  C   UNL     1      -3.350  -6.512   4.709  1.00  0.00     0.041 A 
ATOM     15  C   UNL     1      -1.157  -5.770   4.030  1.00  0.00     0.069 A 
ATOM     16  C   UNL     1      -1.972  -6.648   4.733  1.00  0.00     0.125 A 
ATOM     17  F   UNL     1      -1.418  -7.639   5.442  1.00  0.00    -0.207 F 
BRANCH   8  18
ATOM     18  C   UNL     1      -3.598  -1.635   1.210  1.00  0.00     0.003 A 
ATOM     19  C   UNL     1      -5.021   0.477  -0.127  1.00  0.00     0.037 A 
ATOM     20  C   UNL     1      -5.383  -0.869  -0.274  1.00  0.00     0.026 A 
ATOM     21  C   UNL     1      -3.937   0.734   0.723  1.00  0.00     0.026 A 
ATOM     22  C   UNL     1      -4.693  -1.903   0.379  1.00  0.00     0.012 A 
ATOM     23  C   UNL     1      -3.244  -0.292   1.383  1.00  0.00     0.012 A 
BRANCH  19  24
ATOM     24  N   UNL     1      -5.698   1.496  -0.773  1.00  0.00    -0.369 N 
ATOM     25  N   UNL     1      -7.148   3.678  -2.240  1.00  0.00    -0.303 NA
ATOM     26  C   UNL     1      -7.803   2.654  -1.397  1.00  0.00     0.105 C 
ATOM     27  C   UNL     1      -5.680   3.513  -2.240  1.00  0.00     0.105 C 
ATOM     28  C   UNL     1      -7.047   1.305  -1.332  1.00  0.00     0.132 C 
ATOM     29  C   UNL     1      -5.079   2.813  -0.998  1.00  0.00     0.132 C 
ATOM     30  C   UNL     1      -7.545   5.018  -1.819  1.00  0.00     0.105 C 
ENDBRANCH  19  24
ENDBRANCH   8  18
ENDBRANCH   1   7
BRANCH   4  31
ATOM     31  C   UNL     1       2.313   0.399  -1.035  1.00  0.00     0.120 C 
BRANCH  31  32
ATOM     32  N   UNL     1       3.095  -0.346  -2.034  1.00  0.00    -0.299 NA
ATOM     33  C   UNL     1       3.784   0.547  -2.974  1.00  0.00     0.087 C 
ATOM     34  C   UNL     1       4.031  -1.318  -1.451  1.00  0.00     0.087 C 
ATOM     35  C   UNL     1       4.979   1.280  -2.363  1.00  0.00     0.041 C 
ATOM     36  C   UNL     1       5.242  -0.681  -0.768  1.00  0.00     0.041 C 
ATOM     37  C   UNL     1       5.954   0.285  -1.723  1.00  0.00     0.095 C 
BRANCH  37  38
ATOM     38  N   UNL     1       7.100   0.943  -1.111  1.00  0.00    -0.291 N 
ATOM     39  C   UNL     1       8.396   0.801  -1.528  1.00  0.00     0.295 A 
ATOM     40  C   UNL     1       7.119   1.818  -0.044  1.00  0.00     0.072 A 
ATOM     41  N   UNL     1       9.245   1.504  -0.833  1.00  0.00    -0.195 NA
ATOM     42  C   UNL     1       6.131   2.353   0.796  1.00  0.00     0.029 A 
ATOM     43  C   UNL     1       8.470   2.147   0.100  1.00  0.00     0.092 A 
ATOM     44  C   UNL     1       6.545   3.239   1.797  1.00  0.00     0.002 A 
ATOM     45  C   UNL     1       8.863   3.039   1.110  1.00  0.00     0.031 A 
ATOM     46  C   UNL     1       7.888   3.579   1.955  1.00  0.00     0.002 A 
BRANCH  39  47
ATOM     47  O   UNL     1       8.782   0.042  -2.533  1.00  0.00    -0.480 OA
ATOM     48  H   UNL     1       9.744   0.200  -2.531  1.00  0.00     0.296 HD
ENDBRANCH  39  47
ENDBRANCH  37  38
ENDBRANCH  31  32
ENDBRANCH   4  31
TORSDOF 7
