MODEL        8USER    Run = 8USERUSER    Estimated Free Energy of Binding    = -11.94 kcal/mol  [=(1)+(2)+(3)-(4)]USERUSER    (1) Final Intermolecular Energy     = -14.32 kcal/molUSER        vdW + Hbond + desolv Energy     = -14.25 kcal/molUSER        Electrostatic Energy            =  -0.08 kcal/molUSER        Moving Ligand-Fixed Receptor    = -14.32 kcal/molUSER        Moving Ligand-Moving Receptor   =  +0.00 kcal/molUSER    (2) Final Total Internal Energy     =  -1.78 kcal/molUSER    (3) Torsional Free Energy           =  +2.39 kcal/molUSER    (4) Unbound System's Energy         =  -1.78 kcal/molUSERUSERREMARK SMILES N#Cc1cnc(-c2ccc(CNCc3ccc(-c4nc5ccccc5o4)cc3)cc2)c(-c2ccc(F)cc2)c1REMARK SMILES IDX 11 1 10 2 7 3 8 4 30 5 9 6 29 7 6 8 3 9 4 10 39 11 5 12REMARK SMILES IDX 31 13 2 14 1 15 32 16 33 17 38 18 34 19 37 20 35 21 36 22REMARK SMILES IDX 12 23 13 25 14 26 15 27 28 28 16 29 27 30 17 31 18 32 19 33REMARK SMILES IDX 26 34 20 35 25 36 21 37 24 38 22 39 23 40REMARK H PARENT 12 24USER                              x       y       z     vdW  Elec       q    TypeUSER                           _______ _______ _______ _____ _____    ______ ____ROOTATOM      1  C   UNL     1      36.288  41.970  25.009 -0.32 -0.01    +0.117 C  ENDROOTBRANCH   1   2ATOM      2  C   UNL     1      36.689  42.577  23.684 -0.36 -0.00    -0.034 A  ATOM      3  C   UNL     1      37.417  43.720  21.191 -0.39 +0.00    +0.001 A  ATOM      4  C   UNL     1      37.566  44.436  22.391 -0.35 +0.00    +0.011 A  ATOM      5  C   UNL     1      36.875  42.426  21.264 -0.46 +0.00    +0.011 A  ATOM      6  C   UNL     1      37.213  43.874  23.621 -0.33 +0.00    +0.006 A  ATOM      7  C   UNL     1      36.522  41.860  22.493 -0.53 +0.00    +0.006 A  BRANCH   3   8ATOM      8  C   UNL     1      37.802  44.334  19.905 -0.31 -0.00    +0.078 A  ATOM      9  C   UNL     1      38.762  45.582  17.633 -0.36 -0.01    +0.071 A  ATOM     10  C   UNL     1      39.515  45.451  18.783 -0.34 -0.01    +0.131 A  ATOM     11  C   UNL     1      37.474  45.049  17.632 -0.34 -0.01    +0.032 A  ATOM     12  N   UNL     1      39.069  44.841  19.904 -0.22 +0.01    -0.254 NA ATOM     13  C   UNL     1      36.962  44.404  18.774 -0.35 -0.00    +0.009 A  BRANCH   9  14ATOM     14  C   UNL     1      39.298  46.238  16.484 -0.42 -0.02    +0.101 C  ATOM     15  N   UNL     1      39.735  46.769  15.550 -0.31 +0.04    -0.192 NA ENDBRANCH   9  14BRANCH  13  16ATOM     16  C   UNL     1      35.612  43.816  18.715 -0.34 +0.00    -0.016 A  ATOM     17  C   UNL     1      35.358  42.679  17.925 -0.37 -0.00    +0.012 A  ATOM     18  C   UNL     1      34.549  44.366  19.454 -0.39 -0.00    +0.012 A  ATOM     19  C   UNL     1      34.080  42.118  17.868 -0.39 -0.01    +0.040 A  ATOM     20  C   UNL     1      33.270  43.805  19.396 -0.41 -0.00    +0.040 A  ATOM     21  C   UNL     1      33.048  42.687  18.603 -0.28 -0.02    +0.123 A  ATOM     22  F   UNL     1      31.824  42.149  18.548 -0.05 +0.02    -0.207 F  ENDBRANCH  13  16ENDBRANCH   3   8ENDBRANCH   1   2BRANCH   1  23ATOM     23  N   UNL     1      37.416  41.449  25.777 -0.11 +0.04    -0.309 NA ATOM     24  H   UNL     1      37.683  40.536  25.416 -0.29 -0.02    +0.123 HD BRANCH  23  25ATOM     25  C   UNL     1      37.117  41.323  27.202 -0.47 -0.03    +0.117 C  BRANCH  25  26ATOM     26  C   UNL     1      36.384  42.548  27.698 -0.37 +0.01    -0.034 A  ATOM     27  C   UNL     1      35.025  42.483  28.030 -0.49 -0.00    +0.006 A  ATOM     28  C   UNL     1      37.060  43.764  27.857 -0.37 -0.00    +0.006 A  ATOM     29  C   UNL     1      34.351  43.617  28.498 -0.56 -0.00    +0.014 A  ATOM     30  C   UNL     1      36.386  44.896  28.324 -0.35 -0.00    +0.014 A  ATOM     31  C   UNL     1      35.024  44.839  28.650 -0.48 -0.01    +0.037 A  BRANCH  31  32ATOM     32  C   UNL     1      34.347  46.040  29.136 -0.23 -0.05    +0.227 A  ATOM     33  N   UNL     1      34.803  47.280  29.204 -0.34 +0.04    -0.209 NA ATOM     34  O   UNL     1      33.058  45.881  29.589 -0.77 +0.00    -0.436 OA ATOM     35  C   UNL     1      33.754  47.986  29.735 -0.30 -0.01    +0.110 A  ATOM     36  C   UNL     1      32.686  47.136  29.971 -0.23 -0.00    +0.155 A  ATOM     37  C   UNL     1      33.620  49.345  30.047 -0.24 +0.00    +0.032 A  ATOM     38  C   UNL     1      31.465  47.527  30.505 -0.46 +0.00    +0.049 A  ATOM     39  C   UNL     1      32.402  49.781  30.590 -0.24 +0.00    +0.003 A  ATOM     40  C   UNL     1      31.346  48.888  30.814 -0.32 +0.00    +0.004 A  ENDBRANCH  31  32ENDBRANCH  25  26ENDBRANCH  23  25ENDBRANCH   1  23TORSDOF 8TERENDMDL