REMARK SMILES N#Cc1cnc(-c2ccc(CNCc3ccc(-c4nc5ccccc5o4)cc3)cc2)c(-c2ccc(F)cc2)c1
REMARK SMILES IDX 11 1 10 2 7 3 8 4 30 5 9 6 29 7 6 8 3 9 4 10 39 11 5 12
REMARK SMILES IDX 31 13 2 14 1 15 32 16 33 17 38 18 34 19 37 20 35 21 36 22
REMARK SMILES IDX 12 23 13 25 14 26 15 27 28 28 16 29 27 30 17 31 18 32 19 33
REMARK SMILES IDX 26 34 20 35 25 36 21 37 24 38 22 39 23 40
REMARK H PARENT 12 24
ROOT
ATOM      1  C   UNL     1       0.571  -2.864  -0.770  1.00  0.00     0.117 C 
ENDROOT
BRANCH   1   2
ATOM      2  C   UNL     1       1.641  -1.949  -0.222  1.00  0.00    -0.034 A 
ATOM      3  C   UNL     1       3.633  -0.212   0.812  1.00  0.00     0.001 A 
ATOM      4  C   UNL     1       3.169  -1.311   1.555  1.00  0.00     0.011 A 
ATOM      5  C   UNL     1       3.062   0.011  -0.452  1.00  0.00     0.011 A 
ATOM      6  C   UNL     1       2.191  -2.171   1.046  1.00  0.00     0.006 A 
ATOM      7  C   UNL     1       2.085  -0.848  -0.965  1.00  0.00     0.006 A 
BRANCH   3   8
ATOM      8  C   UNL     1       4.670   0.679   1.369  1.00  0.00     0.078 A 
ATOM      9  C   UNL     1       6.419   2.414   2.622  1.00  0.00     0.071 A 
ATOM     10  C   UNL     1       5.219   2.031   3.188  1.00  0.00     0.131 A 
ATOM     11  C   UNL     1       6.750   1.887   1.374  1.00  0.00     0.032 A 
ATOM     12  N   UNL     1       4.350   1.181   2.597  1.00  0.00    -0.254 NA
ATOM     13  C   UNL     1       5.879   0.997   0.716  1.00  0.00     0.009 A 
BRANCH   9  14
ATOM     14  C   UNL     1       7.290   3.316   3.304  1.00  0.00     0.101 C 
ATOM     15  N   UNL     1       7.999   4.050   3.856  1.00  0.00    -0.192 NA
ENDBRANCH   9  14
BRANCH  13  16
ATOM     16  C   UNL     1       6.288   0.429  -0.581  1.00  0.00    -0.016 A 
ATOM     17  C   UNL     1       6.486   1.261  -1.698  1.00  0.00     0.012 A 
ATOM     18  C   UNL     1       6.503  -0.953  -0.731  1.00  0.00     0.012 A 
ATOM     19  C   UNL     1       6.876   0.726  -2.929  1.00  0.00     0.040 A 
ATOM     20  C   UNL     1       6.892  -1.488  -1.962  1.00  0.00     0.040 A 
ATOM     21  C   UNL     1       7.074  -0.643  -3.049  1.00  0.00     0.123 A 
ATOM     22  F   UNL     1       7.447  -1.155  -4.228  1.00  0.00    -0.207 F 
ENDBRANCH  13  16
ENDBRANCH   3   8
ENDBRANCH   1   2
BRANCH   1  23
ATOM     23  N   UNL     1      -0.762  -2.266  -0.775  1.00  0.00    -0.309 NA
ATOM     24  H   UNL     1      -0.717  -1.334  -1.181  1.00  0.00     0.123 HD
BRANCH  23  25
ATOM     25  C   UNL     1      -1.341  -2.169   0.563  1.00  0.00     0.117 C 
BRANCH  25  26
ATOM     26  C   UNL     1      -2.714  -1.541   0.500  1.00  0.00    -0.034 A 
ATOM     27  C   UNL     1      -2.915  -0.217   0.909  1.00  0.00     0.006 A 
ATOM     28  C   UNL     1      -3.805  -2.268   0.007  1.00  0.00     0.006 A 
ATOM     29  C   UNL     1      -4.186   0.364   0.841  1.00  0.00     0.014 A 
ATOM     30  C   UNL     1      -5.074  -1.686  -0.061  1.00  0.00     0.014 A 
ATOM     31  C   UNL     1      -5.283  -0.364   0.356  1.00  0.00     0.037 A 
BRANCH  31  32
ATOM     32  C   UNL     1      -6.622   0.216   0.273  1.00  0.00     0.227 A 
ATOM     33  N   UNL     1      -7.743  -0.341  -0.154  1.00  0.00    -0.209 NA
ATOM     34  O   UNL     1      -6.757   1.519   0.691  1.00  0.00    -0.436 OA
ATOM     35  C   UNL     1      -8.678   0.652  -0.011  1.00  0.00     0.110 A 
ATOM     36  C   UNL     1      -8.080   1.790   0.505  1.00  0.00     0.155 A 
ATOM     37  C   UNL     1     -10.050   0.676  -0.291  1.00  0.00     0.032 A 
ATOM     38  C   UNL     1      -8.743   2.981   0.774  1.00  0.00     0.049 A 
ATOM     39  C   UNL     1     -10.757   1.861  -0.035  1.00  0.00     0.003 A 
ATOM     40  C   UNL     1     -10.114   2.990   0.488  1.00  0.00     0.004 A 
ENDBRANCH  31  32
ENDBRANCH  25  26
ENDBRANCH  23  25
ENDBRANCH   1  23
TORSDOF 8
