MODEL        5USER    Run = 5USERUSER    Estimated Free Energy of Binding    =  -9.58 kcal/mol  [=(1)+(2)+(3)-(4)]USERUSER    (1) Final Intermolecular Energy     = -11.37 kcal/molUSER        vdW + Hbond + desolv Energy     = -11.34 kcal/molUSER        Electrostatic Energy            =  -0.02 kcal/molUSER        Moving Ligand-Fixed Receptor    = -11.37 kcal/molUSER        Moving Ligand-Moving Receptor   =  +0.00 kcal/molUSER    (2) Final Total Internal Energy     =  -2.87 kcal/molUSER    (3) Torsional Free Energy           =  +1.79 kcal/molUSER    (4) Unbound System's Energy         =  -2.87 kcal/molUSERUSERREMARK SMILES COc1ccccc1C(=O)Nc1cc(Cl)nc(-c2ccccc2)c1-c1ccccc1C(F)(F)FREMARK SMILES IDX 12 1 13 2 14 3 15 4 16 5 17 6 24 7 11 8 9 9 10 10 8 12 3 13REMARK SMILES IDX 4 14 5 15 7 16 6 17 2 18 1 19 25 20 26 21 30 22 27 23 29 24REMARK SMILES IDX 28 25 31 26 32 27 33 28 34 29 18 30 19 31 23 32 20 33 22 34REMARK SMILES IDX 21 35REMARK H PARENT 11 11USER                              x       y       z     vdW  Elec       q    TypeUSER                           _______ _______ _______ _____ _____    ______ ____ROOTATOM      1  C   UNL     1      38.232  45.364  18.658 -0.33 -0.01    +0.054 A  ATOM      2  C   UNL     1      39.528  45.846  18.853 -0.38 -0.01    +0.067 A  ATOM      3  C   UNL     1      40.086  46.628  17.867 -0.38 -0.02    +0.131 A  ATOM      4  Cl  UNL     1      41.690  47.215  18.013 -0.62 +0.00    -0.062 Cl ATOM      5  N   UNL     1      39.459  46.990  16.739 -0.29 +0.06    -0.235 NA ATOM      6  C   UNL     1      38.172  46.582  16.587 -0.34 -0.03    +0.082 A  ATOM      7  C   UNL     1      37.489  45.766  17.523 -0.34 -0.01    +0.032 A  ENDROOTBRANCH   1   8ATOM      8  N   UNL     1      37.736  44.533  19.689 -0.17 +0.02    -0.321 N  ATOM      9  C   UNL     1      38.010  44.665  21.038 -0.24 +0.01    +0.259 C  ATOM     10  O   UNL     1      38.636  45.599  21.527 -0.25 -0.02    -0.269 OA ATOM     11  H   UNL     1      36.902  43.988  19.487 +0.12 -0.02    +0.170 HD BRANCH   9  12ATOM     12  C   UNL     1      37.421  43.625  21.948 -0.33 +0.00    +0.082 A  ATOM     13  C   UNL     1      36.723  42.483  21.514 -0.38 +0.01    +0.131 A  ATOM     14  C   UNL     1      36.195  41.585  22.453 -0.47 +0.00    +0.047 A  ATOM     15  C   UNL     1      36.391  41.793  23.818 -0.36 +0.00    +0.004 A  ATOM     16  C   UNL     1      37.610  43.815  23.329 -0.33 +0.00    +0.018 A  ATOM     17  C   UNL     1      37.103  42.903  24.257 -0.39 +0.00    +0.001 A  BRANCH  13  18ATOM     18  O   UNL     1      36.494  42.293  20.172 -0.13 +0.02    -0.496 OA ATOM     19  C   UNL     1      35.123  42.476  19.806 -0.30 -0.01    +0.278 C  ENDBRANCH  13  18ENDBRANCH   9  12ENDBRANCH   1   8BRANCH   7  20ATOM     20  C   UNL     1      36.045  45.466  17.348 -0.34 +0.00    -0.002 A  ATOM     21  C   UNL     1      35.095  46.310  17.961 -0.38 -0.01    +0.009 A  ATOM     22  C   UNL     1      35.573  44.347  16.619 -0.28 -0.03    +0.063 A  ATOM     23  C   UNL     1      33.724  46.075  17.846 -0.41 -0.00    +0.001 A  ATOM     24  C   UNL     1      34.183  44.133  16.504 -0.31 -0.01    +0.014 A  ATOM     25  C   UNL     1      33.267  44.987  17.114 -0.33 -0.00    +0.001 A  BRANCH  22  26ATOM     26  C   UNL     1      36.501  43.364  15.941 -0.17 -0.14    +0.417 C  ATOM     27  F   UNL     1      36.529  43.514  14.583 -0.11 +0.05    -0.166 F  ATOM     28  F   UNL     1      36.170  42.057  16.140 -0.18 +0.07    -0.166 F  ATOM     29  F   UNL     1      37.799  43.490  16.337 -0.01 +0.04    -0.166 F  ENDBRANCH  22  26ENDBRANCH   7  20BRANCH   6  30ATOM     30  C   UNL     1      37.551  47.111  15.360 -0.43 -0.00    +0.001 A  ATOM     31  C   UNL     1      37.498  48.491  15.105 -0.51 -0.01    +0.010 A  ATOM     32  C   UNL     1      37.015  46.236  14.401 -0.41 -0.00    +0.010 A  ATOM     33  C   UNL     1      36.901  48.981  13.942 -0.40 -0.00    +0.001 A  ATOM     34  C   UNL     1      36.418  46.726  13.237 -0.57 -0.00    +0.001 A  ATOM     35  C   UNL     1      36.358  48.099  13.010 -0.58 -0.00    +0.000 A  ENDBRANCH   6  30TORSDOF 6TERENDMDL