REMARK SMILES COc1ccccc1C(=O)Nc1cc(Cl)nc(-c2ccccc2)c1-c1ccccc1C(F)(F)F
REMARK SMILES IDX 12 1 13 2 14 3 15 4 16 5 17 6 24 7 11 8 9 9 10 10 8 12 3 13
REMARK SMILES IDX 4 14 5 15 7 16 6 17 2 18 1 19 25 20 26 21 30 22 27 23 29 24
REMARK SMILES IDX 28 25 31 26 32 27 33 28 34 29 18 30 19 31 23 32 20 33 22 34
REMARK SMILES IDX 21 35
REMARK H PARENT 11 11
ROOT
ATOM      1  C   UNL     1      -0.480   1.632  -0.451  1.00  0.00     0.054 A 
ATOM      2  C   UNL     1      -0.747   2.845  -1.089  1.00  0.00     0.067 A 
ATOM      3  C   UNL     1       0.319   3.589  -1.544  1.00  0.00     0.131 A 
ATOM      4  Cl  UNL     1       0.072   5.112  -2.292  1.00  0.00    -0.062 Cl
ATOM      5  N   UNL     1       1.602   3.215  -1.447  1.00  0.00    -0.235 NA
ATOM      6  C   UNL     1       1.854   2.000  -0.893  1.00  0.00     0.082 A 
ATOM      7  C   UNL     1       0.847   1.146  -0.379  1.00  0.00     0.032 A 
ENDROOT
BRANCH   1   8
ATOM      8  N   UNL     1      -1.616   0.940   0.028  1.00  0.00    -0.321 N 
ATOM      9  C   UNL     1      -1.720   0.301   1.249  1.00  0.00     0.259 C 
ATOM     10  O   UNL     1      -0.867   0.350   2.129  1.00  0.00    -0.269 OA
ATOM     11  H   UNL     1      -2.511   1.160  -0.402  1.00  0.00     0.170 HD
BRANCH   9  12
ATOM     12  C   UNL     1      -3.007  -0.426   1.520  1.00  0.00     0.082 A 
ATOM     13  C   UNL     1      -4.094  -0.489   0.629  1.00  0.00     0.131 A 
ATOM     14  C   UNL     1      -5.259  -1.180   0.993  1.00  0.00     0.047 A 
ATOM     15  C   UNL     1      -5.335  -1.843   2.218  1.00  0.00     0.004 A 
ATOM     16  C   UNL     1      -3.102  -1.103   2.749  1.00  0.00     0.018 A 
ATOM     17  C   UNL     1      -4.256  -1.810   3.094  1.00  0.00     0.001 A 
BRANCH  13  18
ATOM     18  O   UNL     1      -4.039   0.193  -0.563  1.00  0.00    -0.496 OA
ATOM     19  C   UNL     1      -4.403  -0.614  -1.687  1.00  0.00     0.278 C 
ENDBRANCH  13  18
ENDBRANCH   9  12
ENDBRANCH   1   8
BRANCH   7  20
ATOM     20  C   UNL     1       1.188  -0.219   0.096  1.00  0.00    -0.002 A 
ATOM     21  C   UNL     1       1.900  -0.361   1.306  1.00  0.00     0.009 A 
ATOM     22  C   UNL     1       0.861  -1.392  -0.628  1.00  0.00     0.063 A 
ATOM     23  C   UNL     1       2.262  -1.614   1.801  1.00  0.00     0.001 A 
ATOM     24  C   UNL     1       1.225  -2.651  -0.105  1.00  0.00     0.014 A 
ATOM     25  C   UNL     1       1.922  -2.761   1.096  1.00  0.00     0.001 A 
BRANCH  22  26
ATOM     26  C   UNL     1       0.121  -1.358  -1.946  1.00  0.00     0.417 C 
ATOM     27  F   UNL     1       0.328  -2.480  -2.698  1.00  0.00    -0.166 F 
ATOM     28  F   UNL     1       0.477  -0.324  -2.759  1.00  0.00    -0.166 F 
ATOM     29  F   UNL     1      -1.232  -1.276  -1.800  1.00  0.00    -0.166 F 
ENDBRANCH  22  26
ENDBRANCH   7  20
BRANCH   6  30
ATOM     30  C   UNL     1       3.285   1.651  -0.920  1.00  0.00     0.001 A 
ATOM     31  C   UNL     1       3.785   0.690  -1.814  1.00  0.00     0.010 A 
ATOM     32  C   UNL     1       4.189   2.294  -0.059  1.00  0.00     0.010 A 
ATOM     33  C   UNL     1       5.143   0.362  -1.825  1.00  0.00     0.001 A 
ATOM     34  C   UNL     1       5.547   1.967  -0.071  1.00  0.00     0.001 A 
ATOM     35  C   UNL     1       6.022   0.998  -0.951  1.00  0.00     0.000 A 
ENDBRANCH   6  30
TORSDOF 6
