REMARK SMILES Nc1n[nH]c2cc(S(=O)(=O)c3ccc(F)cc3)ccc12
REMARK SMILES IDX 2 1 3 2 4 3 5 4 6 5 7 6 18 7 19 8 20 9 1 11 8 14 9 15 10 16
REMARK SMILES IDX 11 17 12 18 17 19 13 20 16 21 14 22 15 23
REMARK H PARENT 4 10 1 12 1 13
ROOT
ATOM      1  C   UNL     1       4.031   0.405  -1.048  1.00  0.00     0.153 A 
ATOM      2  N   UNL     1       4.307   1.700  -0.935  1.00  0.00    -0.157 NA
ATOM      3  N   UNL     1       3.264   2.192  -0.247  1.00  0.00    -0.276 N 
ATOM      4  C   UNL     1       2.322   1.257   0.092  1.00  0.00     0.069 A 
ATOM      5  C   UNL     1       1.116   1.364   0.793  1.00  0.00     0.049 A 
ATOM      6  C   UNL     1       0.384   0.178   0.956  1.00  0.00     0.074 A 
ATOM      7  C   UNL     1       0.839  -1.049   0.461  1.00  0.00     0.021 A 
ATOM      8  C   UNL     1       2.051  -1.120  -0.237  1.00  0.00     0.015 A 
ATOM      9  C   UNL     1       2.803   0.057  -0.424  1.00  0.00     0.044 A 
ATOM     10  H   UNL     1       3.256   3.183  -0.036  1.00  0.00     0.190 HD
ENDROOT
BRANCH   1  11
ATOM     11  N   UNL     1       4.843  -0.461  -1.673  1.00  0.00    -0.382 N 
ATOM     12  H   UNL     1       4.831  -1.437  -1.404  1.00  0.00     0.158 HD
ATOM     13  H   UNL     1       5.778  -0.115  -1.861  1.00  0.00     0.158 HD
ENDBRANCH   1  11
BRANCH   6  14
ATOM     14  S   UNL     1      -1.170   0.225   1.826  1.00  0.00     0.206 S 
ATOM     15  O   UNL     1      -1.132  -0.853   2.797  1.00  0.00    -0.219 OA
ATOM     16  O   UNL     1      -1.405   1.594   2.247  1.00  0.00    -0.219 OA
BRANCH  14  17
ATOM     17  C   UNL     1      -2.431  -0.157   0.630  1.00  0.00     0.072 A 
ATOM     18  C   UNL     1      -3.150  -1.354   0.728  1.00  0.00     0.024 A 
ATOM     19  C   UNL     1      -2.698   0.762  -0.393  1.00  0.00     0.024 A 
ATOM     20  C   UNL     1      -4.135  -1.638  -0.218  1.00  0.00     0.040 A 
ATOM     21  C   UNL     1      -3.685   0.468  -1.334  1.00  0.00     0.040 A 
ATOM     22  C   UNL     1      -4.392  -0.728  -1.240  1.00  0.00     0.123 A 
ATOM     23  F   UNL     1      -5.338  -1.005  -2.146  1.00  0.00    -0.207 F 
ENDBRANCH  14  17
ENDBRANCH   6  14
TORSDOF 3
