MODEL        2USER    Run = 2USERUSER    Estimated Free Energy of Binding    =  -8.75 kcal/mol  [=(1)+(2)+(3)-(4)]USERUSER    (1) Final Intermolecular Energy     =  -9.94 kcal/molUSER        vdW + Hbond + desolv Energy     =  -9.83 kcal/molUSER        Electrostatic Energy            =  -0.11 kcal/molUSER        Moving Ligand-Fixed Receptor    =  -9.94 kcal/molUSER        Moving Ligand-Moving Receptor   =  +0.00 kcal/molUSER    (2) Final Total Internal Energy     =  -0.67 kcal/molUSER    (3) Torsional Free Energy           =  +1.19 kcal/molUSER    (4) Unbound System's Energy         =  -0.67 kcal/molUSERUSERREMARK SMILES Nc1n[nH]c2cc(C(=O)[S@](=O)c3ccccc3)ccc12REMARK SMILES IDX 2 1 3 2 4 3 5 4 6 5 7 6 18 7 19 8 20 9 1 11 8 14 9 15 10 16REMARK SMILES IDX 11 17 12 18 13 19 17 20 14 21 16 22 15 23REMARK H PARENT 4 10 1 12 1 13USER                              x       y       z     vdW  Elec       q    TypeUSER                           _______ _______ _______ _____ _____    ______ ____ROOTATOM      1  C   UNL     1      41.406  48.489  16.892 -0.32 -0.00    +0.153 A  ATOM      2  N   UNL     1      41.525  49.770  16.558 -0.97 -0.00    -0.157 NA ATOM      3  N   UNL     1      40.666  49.917  15.537 -0.42 +0.10    -0.276 N  ATOM      4  C   UNL     1      40.008  48.768  15.186 -0.52 -0.02    +0.068 A  ATOM      5  C   UNL     1      39.060  48.500  14.191 -0.43 -0.02    +0.041 A  ATOM      6  C   UNL     1      38.560  47.186  14.094 -0.44 -0.01    +0.034 A  ATOM      7  C   UNL     1      39.022  46.199  14.971 -0.41 -0.00    +0.014 A  ATOM      8  C   UNL     1      39.973  46.492  15.963 -0.44 -0.00    +0.015 A  ATOM      9  C   UNL     1      40.475  47.801  16.067 -0.51 -0.01    +0.044 A  ATOM     10  H   UNL     1      40.575  50.834  15.117 -0.23 -0.11    +0.190 HD ENDROOTBRANCH   1  11ATOM     11  N   UNL     1      42.107  47.926  17.887 -0.23 +0.01    -0.382 N  ATOM     12  H   UNL     1      42.810  47.229  17.675 -0.49 -0.04    +0.158 HD ATOM     13  H   UNL     1      42.377  48.553  18.637 -0.00 +0.00    +0.158 HD ENDBRANCH   1  11BRANCH   6  14ATOM     14  C   UNL     1      37.566  46.928  13.013 -0.39 -0.08    +0.254 C  ATOM     15  O   UNL     1      37.126  47.855  12.339 -1.08 +0.05    -0.278 OA BRANCH  14  16ATOM     16  S   UNL     1      36.902  45.285  12.592 -0.65 -0.04    +0.126 S  ATOM     17  O   UNL     1      35.777  45.494  11.618 -0.36 +0.11    -0.246 OA BRANCH  16  18ATOM     18  C   UNL     1      36.129  44.977  14.200 -0.27 -0.02    +0.047 A  ATOM     19  C   UNL     1      35.086  45.793  14.654 -0.36 -0.01    +0.018 A  ATOM     20  C   UNL     1      36.540  43.892  14.985 -0.29 -0.01    +0.018 A  ATOM     21  C   UNL     1      34.483  45.546  15.889 -0.30 -0.00    +0.001 A  ATOM     22  C   UNL     1      35.937  43.647  16.220 -0.40 -0.00    +0.001 A  ATOM     23  C   UNL     1      34.912  44.476  16.673 -0.31 -0.00    +0.000 A  ENDBRANCH  16  18ENDBRANCH  14  16ENDBRANCH   6  14TORSDOF 4TERENDMDL