REMARK SMILES Nc1n[nH]c2cc(C(=O)[S@](=O)c3ccccc3)ccc12
REMARK SMILES IDX 2 1 3 2 4 3 5 4 6 5 7 6 18 7 19 8 20 9 1 11 8 14 9 15 10 16
REMARK SMILES IDX 11 17 12 18 13 19 17 20 14 21 16 22 15 23
REMARK H PARENT 4 10 1 12 1 13
ROOT
ATOM      1  C   UNL     1       4.011   1.263  -1.080  1.00  0.00     0.153 A 
ATOM      2  N   UNL     1       4.499   2.121  -0.190  1.00  0.00    -0.157 NA
ATOM      3  N   UNL     1       3.668   2.004   0.858  1.00  0.00    -0.276 N 
ATOM      4  C   UNL     1       2.646   1.112   0.668  1.00  0.00     0.068 A 
ATOM      5  C   UNL     1       1.586   0.716   1.492  1.00  0.00     0.041 A 
ATOM      6  C   UNL     1       0.690  -0.252   0.994  1.00  0.00     0.034 A 
ATOM      7  C   UNL     1       0.874  -0.774  -0.291  1.00  0.00     0.014 A 
ATOM      8  C   UNL     1       1.947  -0.362  -1.099  1.00  0.00     0.015 A 
ATOM      9  C   UNL     1       2.846   0.601  -0.608  1.00  0.00     0.044 A 
ATOM     10  H   UNL     1       3.852   2.567   1.680  1.00  0.00     0.190 HD
ENDROOT
BRANCH   1  11
ATOM     11  N   UNL     1       4.563   1.072  -2.287  1.00  0.00    -0.382 N 
ATOM     12  H   UNL     1       3.993   0.733  -3.052  1.00  0.00     0.158 HD
ATOM     13  H   UNL     1       5.241   1.771  -2.571  1.00  0.00     0.158 HD
ENDBRANCH   1  11
BRANCH   6  14
ATOM     14  C   UNL     1      -0.439  -0.639   1.887  1.00  0.00     0.254 C 
ATOM     15  O   UNL     1      -0.690   0.019   2.893  1.00  0.00    -0.278 OA
BRANCH  14  16
ATOM     16  S   UNL     1      -1.523  -2.078   1.617  1.00  0.00     0.126 S 
ATOM     17  O   UNL     1      -0.752  -3.071   0.795  1.00  0.00    -0.246 OA
BRANCH  16  18
ATOM     18  C   UNL     1      -2.657  -1.247   0.476  1.00  0.00     0.047 A 
ATOM     19  C   UNL     1      -2.868  -1.756  -0.811  1.00  0.00     0.018 A 
ATOM     20  C   UNL     1      -3.366  -0.111   0.887  1.00  0.00     0.018 A 
ATOM     21  C   UNL     1      -3.752  -1.121  -1.685  1.00  0.00     0.001 A 
ATOM     22  C   UNL     1      -4.249   0.524   0.011  1.00  0.00     0.001 A 
ATOM     23  C   UNL     1      -4.439   0.021  -1.275  1.00  0.00     0.000 A 
ENDBRANCH  16  18
ENDBRANCH  14  16
ENDBRANCH   6  14
TORSDOF 4
