MODEL        10USER    Run = 10USERUSER    Estimated Free Energy of Binding    =  -8.04 kcal/mol  [=(1)+(2)+(3)-(4)]USERUSER    (1) Final Intermolecular Energy     =  -8.93 kcal/molUSER        vdW + Hbond + desolv Energy     =  -8.68 kcal/molUSER        Electrostatic Energy            =  -0.25 kcal/molUSER        Moving Ligand-Fixed Receptor    =  -8.93 kcal/molUSER        Moving Ligand-Moving Receptor   =  +0.00 kcal/molUSER    (2) Final Total Internal Energy     =  -0.35 kcal/molUSER    (3) Torsional Free Energy           =  +0.89 kcal/molUSER    (4) Unbound System's Energy         =  -0.35 kcal/molUSERUSERREMARK SMILES Nc1n[nH]c2cc(S(=O)(=O)c3ccc(F)cc3)ccc12REMARK SMILES IDX 2 1 3 2 4 3 5 4 6 5 7 6 18 7 19 8 20 9 1 11 8 14 9 15 10 16REMARK SMILES IDX 11 17 12 18 17 19 13 20 16 21 14 22 15 23REMARK H PARENT 4 10 1 12 1 13USER                              x       y       z     vdW  Elec       q    TypeUSER                           _______ _______ _______ _____ _____    ______ ____ROOTATOM      1  C   UNL     1      41.367  48.506  17.042 -0.31 -0.01    +0.153 A  ATOM      2  N   UNL     1      41.454  49.689  16.442 -1.07 +0.00    -0.157 NA ATOM      3  N   UNL     1      40.422  49.690  15.583 -0.38 +0.11    -0.276 N  ATOM      4  C   UNL     1      39.667  48.547  15.609 -0.50 -0.03    +0.069 A  ATOM      5  C   UNL     1      38.533  48.165  14.884 -0.49 -0.02    +0.049 A  ATOM      6  C   UNL     1      38.011  46.894  15.169 -0.37 -0.03    +0.074 A  ATOM      7  C   UNL     1      38.580  46.058  16.136 -0.38 -0.01    +0.021 A  ATOM      8  C   UNL     1      39.716  46.472  16.843 -0.45 -0.00    +0.015 A  ATOM      9  C   UNL     1      40.267  47.740  16.571 -0.50 -0.01    +0.044 A  ATOM     10  H   UNL     1      40.284  50.509  15.004 -0.25 -0.13    +0.190 HD ENDROOTBRANCH   1  11ATOM     11  N   UNL     1      42.224  48.108  17.995 -0.24 -0.00    -0.382 N  ATOM     12  H   UNL     1      42.618  48.793  18.627 -0.09 +0.00    +0.158 HD ATOM     13  H   UNL     1      42.897  47.408  17.702 -0.49 -0.03    +0.158 HD ENDBRANCH   1  11BRANCH   6  14ATOM     14  S   UNL     1      36.575  46.322  14.283 -0.46 -0.11    +0.206 S  ATOM     15  O   UNL     1      36.101  47.445  13.496 -0.45 +0.14    -0.219 OA ATOM     16  O   UNL     1      36.914  45.062  13.648 -0.35 +0.08    -0.219 OA BRANCH  14  17ATOM     17  C   UNL     1      35.339  45.951  15.509 -0.30 -0.06    +0.072 A  ATOM     18  C   UNL     1      35.630  46.115  16.869 -0.35 -0.02    +0.024 A  ATOM     19  C   UNL     1      34.077  45.510  15.090 -0.28 -0.02    +0.024 A  ATOM     20  C   UNL     1      34.650  45.819  17.816 -0.40 -0.03    +0.040 A  ATOM     21  C   UNL     1      33.105  45.217  16.046 -0.29 -0.03    +0.040 A  ATOM     22  C   UNL     1      33.400  45.371  17.399 -0.26 -0.08    +0.123 A  ATOM     23  F   UNL     1      32.462  45.088  18.312 -0.04 +0.05    -0.207 F  ENDBRANCH  14  17ENDBRANCH   6  14TORSDOF 3TERENDMDL