REMARK SMILES Cc1c(S(=O)(=O)c2ccccc2)ccc2c(N)n[nH]c12
REMARK SMILES IDX 1 1 2 2 3 3 13 4 14 5 15 6 16 7 18 8 19 9 20 10 4 12 5 13
REMARK SMILES IDX 6 14 7 15 8 16 12 17 9 18 11 19 10 20 17 21
REMARK H PARENT 19 11 17 22 17 23
ROOT
ATOM      1  C   UNL     1      -0.145  -1.909   0.711  1.00  0.00     0.048 C 
ATOM      2  C   UNL     1       0.748  -0.898   0.053  1.00  0.00    -0.006 A 
ATOM      3  C   UNL     1       0.373  -0.150  -1.094  1.00  0.00     0.077 A 
ATOM      4  C   UNL     1       1.246   0.762  -1.707  1.00  0.00     0.022 A 
ATOM      5  C   UNL     1       2.527   0.984  -1.195  1.00  0.00     0.015 A 
ATOM      6  C   UNL     1       2.934   0.268  -0.058  1.00  0.00     0.044 A 
ATOM      7  C   UNL     1       4.109   0.205   0.738  1.00  0.00     0.153 A 
ATOM      8  N   UNL     1       3.996  -0.664   1.735  1.00  0.00    -0.157 NA
ATOM      9  N   UNL     1       2.758  -1.158   1.587  1.00  0.00    -0.275 N 
ATOM     10  C   UNL     1       2.054  -0.639   0.527  1.00  0.00     0.071 A 
ATOM     11  H   UNL     1       2.447  -1.857   2.251  1.00  0.00     0.190 HD
ENDROOT
BRANCH   3  12
ATOM     12  S   UNL     1      -1.255  -0.333  -1.837  1.00  0.00     0.206 S 
ATOM     13  O   UNL     1      -1.503  -1.758  -1.958  1.00  0.00    -0.219 OA
ATOM     14  O   UNL     1      -1.307   0.517  -3.014  1.00  0.00    -0.219 OA
BRANCH  12  15
ATOM     15  C   UNL     1      -2.447   0.342  -0.705  1.00  0.00     0.072 A 
ATOM     16  C   UNL     1      -3.584  -0.400  -0.372  1.00  0.00     0.021 A 
ATOM     17  C   UNL     1      -2.226   1.606  -0.148  1.00  0.00     0.021 A 
ATOM     18  C   UNL     1      -4.503   0.127   0.534  1.00  0.00     0.001 A 
ATOM     19  C   UNL     1      -3.151   2.124   0.758  1.00  0.00     0.001 A 
ATOM     20  C   UNL     1      -4.286   1.385   1.099  1.00  0.00     0.000 A 
ENDBRANCH  12  15
ENDBRANCH   3  12
BRANCH   7  21
ATOM     21  N   UNL     1       5.222   0.922   0.518  1.00  0.00    -0.382 N 
ATOM     22  H   UNL     1       6.045   0.602   1.018  1.00  0.00     0.158 HD
ATOM     23  H   UNL     1       5.430   1.241  -0.419  1.00  0.00     0.158 HD
ENDBRANCH   7  21
TORSDOF 3
