MODEL        7USER    Run = 7USERUSER    Estimated Free Energy of Binding    =  -8.52 kcal/mol  [=(1)+(2)+(3)-(4)]USERUSER    (1) Final Intermolecular Energy     =  -9.41 kcal/molUSER        vdW + Hbond + desolv Energy     =  -9.38 kcal/molUSER        Electrostatic Energy            =  -0.03 kcal/molUSER        Moving Ligand-Fixed Receptor    =  -9.41 kcal/molUSER        Moving Ligand-Moving Receptor   =  +0.00 kcal/molUSER    (2) Final Total Internal Energy     =  -0.41 kcal/molUSER    (3) Torsional Free Energy           =  +0.89 kcal/molUSER    (4) Unbound System's Energy         =  -0.41 kcal/molUSERUSERREMARK SMILES Cc1c(S(=O)(=O)c2ccccc2)ccc2c(N)n[nH]c12REMARK SMILES IDX 1 1 2 2 3 3 13 4 14 5 15 6 16 7 18 8 19 9 20 10 4 12 5 13REMARK SMILES IDX 6 14 7 15 8 16 12 17 9 18 11 19 10 20 17 21REMARK H PARENT 19 11 17 22 17 23USER                              x       y       z     vdW  Elec       q    TypeUSER                           _______ _______ _______ _____ _____    ______ ____ROOTATOM      1  C   UNL     1      37.770  48.501  15.151 -0.56 -0.03    +0.048 C  ATOM      2  C   UNL     1      38.577  47.670  16.104 -0.44 +0.00    -0.006 A  ATOM      3  C   UNL     1      38.126  46.437  16.645 -0.34 -0.03    +0.077 A  ATOM      4  C   UNL     1      38.891  45.701  17.563 -0.40 -0.00    +0.022 A  ATOM      5  C   UNL     1      40.150  46.150  17.970 -0.46 -0.00    +0.015 A  ATOM      6  C   UNL     1      40.636  47.362  17.452 -0.49 -0.01    +0.044 A  ATOM      7  C   UNL     1      41.818  48.134  17.609 -0.25 -0.00    +0.153 A  ATOM      8  N   UNL     1      41.794  49.245  16.883 -0.92 -0.03    -0.157 NA ATOM      9  N   UNL     1      40.608  49.191  16.259 -0.34 +0.07    -0.275 N  ATOM     10  C   UNL     1      39.854  48.080  16.551 -0.41 -0.02    +0.071 A  ATOM     11  H   UNL     1      40.367  49.954  15.638 +0.05 -0.08    +0.190 HD ENDROOTBRANCH   3  12ATOM     12  S   UNL     1      36.530  45.745  16.187 -0.38 -0.11    +0.206 S  ATOM     13  O   UNL     1      35.517  46.630  16.731 -0.32 +0.24    -0.219 OA ATOM     14  O   UNL     1      36.535  44.337  16.545 -0.24 +0.08    -0.219 OA BRANCH  12  15ATOM     15  C   UNL     1      36.409  45.788  14.414 -0.36 -0.04    +0.072 A  ATOM     16  C   UNL     1      35.721  46.834  13.792 -0.46 -0.01    +0.021 A  ATOM     17  C   UNL     1      37.018  44.780  13.660 -0.38 -0.01    +0.021 A  ATOM     18  C   UNL     1      35.649  46.873  12.401 -0.52 -0.00    +0.001 A  ATOM     19  C   UNL     1      36.941  44.828  12.268 -0.52 -0.00    +0.001 A  ATOM     20  C   UNL     1      36.260  45.874  11.640 -0.44 -0.00    +0.000 A  ENDBRANCH  12  15ENDBRANCH   3  12BRANCH   7  21ATOM     21  N   UNL     1      42.847  47.806  18.405 -0.23 -0.01    -0.382 N  ATOM     22  H   UNL     1      43.570  47.247  17.964 -0.50 -0.00    +0.158 HD ATOM     23  H   UNL     1      43.218  48.494  19.047 -0.47 -0.02    +0.158 HD ENDBRANCH   7  21TORSDOF 3TERENDMDL