REMARK SMILES Brc1ccc(-c2cc3nccnn3c2-c2ccnc3[nH]ccc23)cc1
REMARK SMILES IDX 6 1 7 2 8 3 9 4 10 5 11 6 12 7 13 8 14 9 5 10 2 11 3 12
REMARK SMILES IDX 25 13 4 14 24 15 1 16 15 17 16 18 23 19 17 20 22 21 19 22
REMARK SMILES IDX 18 23 21 24 20 25
REMARK H PARENT 20 26
ROOT
ATOM      1  C   UNL     1       1.089   0.700   0.657  1.00  0.00     0.012 A 
ATOM      2  C   UNL     1       1.448   1.574   1.719  1.00  0.00     0.060 A 
ATOM      3  C   UNL     1       0.402   2.440   1.941  1.00  0.00     0.154 A 
ATOM      4  N   UNL     1       0.270   3.452   2.845  1.00  0.00    -0.235 NA
ATOM      5  C   UNL     1      -0.860   4.079   2.787  1.00  0.00     0.135 A 
ATOM      6  C   UNL     1      -1.929   3.718   1.798  1.00  0.00     0.154 A 
ATOM      7  N   UNL     1      -1.806   2.760   0.935  1.00  0.00    -0.173 NA
ATOM      8  N   UNL     1      -0.601   2.114   1.034  1.00  0.00    -0.214 N 
ATOM      9  C   UNL     1      -0.203   1.038   0.256  1.00  0.00     0.083 A 
ENDROOT
BRANCH   1  10
ATOM     10  C   UNL     1       1.890  -0.376   0.090  1.00  0.00    -0.016 A 
ATOM     11  C   UNL     1       3.442  -2.453  -0.967  1.00  0.00     0.018 A 
ATOM     12  C   UNL     1       2.838  -1.535  -1.824  1.00  0.00     0.016 A 
ATOM     13  C   UNL     1       3.285  -2.340   0.413  1.00  0.00     0.016 A 
ATOM     14  C   UNL     1       2.067  -0.496  -1.295  1.00  0.00     0.010 A 
ATOM     15  C   UNL     1       2.513  -1.301   0.940  1.00  0.00     0.010 A 
ATOM     16  Br  UNL     1       4.482  -3.860  -1.681  1.00  0.00    -0.051 Br
ENDBRANCH   1  10
BRANCH   9  17
ATOM     17  C   UNL     1      -1.080   0.442  -0.751  1.00  0.00     0.013 A 
ATOM     18  C   UNL     1      -1.522   1.153  -1.870  1.00  0.00     0.031 A 
ATOM     19  C   UNL     1      -1.501  -0.895  -0.610  1.00  0.00     0.028 A 
ATOM     20  C   UNL     1      -2.339   0.513  -2.791  1.00  0.00     0.114 A 
ATOM     21  C   UNL     1      -1.326  -1.949   0.335  1.00  0.00     0.030 A 
ATOM     22  C   UNL     1      -2.316  -1.405  -1.617  1.00  0.00     0.137 A 
ATOM     23  N   UNL     1      -2.762  -0.769  -2.717  1.00  0.00    -0.239 NA
ATOM     24  C   UNL     1      -2.018  -3.050  -0.123  1.00  0.00     0.085 A 
ATOM     25  N   UNL     1      -2.611  -2.704  -1.309  1.00  0.00    -0.346 N 
ATOM     26  H   UNL     1      -3.188  -3.296  -1.889  1.00  0.00     0.167 HD
ENDBRANCH   9  17
TORSDOF 2
