MODEL        1USER    Run = 1USERUSER    Estimated Free Energy of Binding    =  -9.70 kcal/mol  [=(1)+(2)+(3)-(4)]USERUSER    (1) Final Intermolecular Energy     = -10.89 kcal/molUSER        vdW + Hbond + desolv Energy     = -10.65 kcal/molUSER        Electrostatic Energy            =  -0.24 kcal/molUSER        Moving Ligand-Fixed Receptor    = -10.89 kcal/molUSER        Moving Ligand-Moving Receptor   =  +0.00 kcal/molUSER    (2) Final Total Internal Energy     =  -0.84 kcal/molUSER    (3) Torsional Free Energy           =  +1.19 kcal/molUSER    (4) Unbound System's Energy         =  -0.84 kcal/molUSERUSERREMARK SMILES Oc1nc(-c2cccc(-c3ccc(F)cc3)c2)cc(-c2nn[nH]n2)c1ClREMARK SMILES IDX 2 1 3 2 4 3 18 4 19 5 25 6 26 7 1 8 5 10 6 11 17 12 7 13REMARK SMILES IDX 9 14 8 15 10 16 11 17 16 18 12 19 15 20 13 21 14 22 20 23REMARK SMILES IDX 21 24 24 25 22 26 23 27REMARK H PARENT 1 9 23 28USER                              x       y       z     vdW  Elec       q    TypeUSER                           _______ _______ _______ _____ _____    ______ ____ROOTATOM      1  C   UNL     1      18.430 -13.372  -4.787 -0.32 +0.05    +0.231 A  ATOM      2  N   UNL     1      18.396 -14.460  -5.580 -0.31 -0.04    -0.212 NA ATOM      3  C   UNL     1      17.667 -14.378  -6.716 -0.36 -0.00    +0.075 A  ATOM      4  C   UNL     1      17.000 -13.204  -7.063 -0.37 -0.01    +0.043 A  ATOM      5  C   UNL     1      17.064 -12.074  -6.224 -0.41 -0.01    +0.049 A  ATOM      6  C   UNL     1      17.796 -12.162  -5.038 -0.40 +0.01    +0.114 A  ATOM      7  Cl  UNL     1      17.900 -10.886  -3.879 -0.78 -0.01    -0.078 Cl ENDROOTBRANCH   1   8ATOM      8  O   UNL     1      19.167 -13.581  -3.664 -0.18 -0.18    -0.492 OA ATOM      9  H   UNL     1      19.788 -12.834  -3.718 -0.30 +0.01    +0.295 HD ENDBRANCH   1   8BRANCH   3  10ATOM     10  C   UNL     1      17.638 -15.594  -7.552 -0.41 +0.00    +0.001 A  ATOM     11  C   UNL     1      18.328 -16.753  -7.156 -0.41 +0.00    +0.010 A  ATOM     12  C   UNL     1      16.919 -15.652  -8.763 -0.37 -0.00    +0.019 A  ATOM     13  C   UNL     1      18.314 -17.910  -7.935 -0.40 +0.00    +0.001 A  ATOM     14  C   UNL     1      16.889 -16.808  -9.567 -0.35 +0.00    -0.018 A  ATOM     15  C   UNL     1      17.600 -17.935  -9.132 -0.38 +0.00    +0.009 A  BRANCH  14  16ATOM     16  C   UNL     1      16.127 -16.834 -10.826 -0.27 +0.00    -0.018 A  ATOM     17  C   UNL     1      16.100 -15.715 -11.677 -0.32 -0.00    +0.012 A  ATOM     18  C   UNL     1      15.404 -17.979 -11.209 -0.40 -0.00    +0.012 A  ATOM     19  C   UNL     1      15.375 -15.739 -12.872 -0.37 -0.01    +0.040 A  ATOM     20  C   UNL     1      14.678 -18.004 -12.403 -0.36 -0.01    +0.040 A  ATOM     21  C   UNL     1      14.672 -16.883 -13.222 -0.28 -0.03    +0.123 A  ATOM     22  F   UNL     1      13.977 -16.906 -14.367 -0.04 +0.04    -0.207 F  ENDBRANCH  14  16ENDBRANCH   3  10BRANCH   5  23ATOM     23  C   UNL     1      16.361 -10.870  -6.642 -0.34 -0.04    +0.206 A  ATOM     24  N   UNL     1      16.665 -10.157  -7.777 -0.42 +0.02    -0.108 NA ATOM     25  N   UNL     1      15.292 -10.366  -5.995 -0.47 +0.06    -0.134 NA ATOM     26  N   UNL     1      15.801  -9.156  -7.848 -0.71 +0.01    -0.050 NA ATOM     27  N   UNL     1      15.019  -9.309  -6.776 -0.56 +0.08    -0.177 N  ATOM     28  H   UNL     1      14.262  -8.663  -6.572 -0.40 -0.18    +0.216 HD ENDBRANCH   5  23TORSDOF 4TERENDMDL