MODEL        7USER    Run = 7USERUSER    Estimated Free Energy of Binding    =  -9.24 kcal/mol  [=(1)+(2)+(3)-(4)]USERUSER    (1) Final Intermolecular Energy     =  -9.84 kcal/molUSER        vdW + Hbond + desolv Energy     =  -9.83 kcal/molUSER        Electrostatic Energy            =  -0.01 kcal/molUSER        Moving Ligand-Fixed Receptor    =  -9.84 kcal/molUSER        Moving Ligand-Moving Receptor   =  +0.00 kcal/molUSER    (2) Final Total Internal Energy     =  -1.38 kcal/molUSER    (3) Torsional Free Energy           =  +0.60 kcal/molUSER    (4) Unbound System's Energy         =  -1.38 kcal/molUSERUSERREMARK SMILES Brc1ccc(-c2cc3nccnn3c2-c2ccnc3[nH]ccc23)cc1REMARK SMILES IDX 6 1 7 2 8 3 9 4 10 5 11 6 12 7 13 8 14 9 5 10 2 11 3 12REMARK SMILES IDX 25 13 4 14 24 15 1 16 15 17 16 18 23 19 17 20 22 21 19 22REMARK SMILES IDX 18 23 21 24 20 25REMARK H PARENT 20 26USER                              x       y       z     vdW  Elec       q    TypeUSER                           _______ _______ _______ _____ _____    ______ ____ROOTATOM      1  C   UNL     1      17.236 -14.266  -8.007 -0.38 -0.00    +0.012 A  ATOM      2  C   UNL     1      18.139 -15.253  -7.527 -0.38 +0.00    +0.060 A  ATOM      3  C   UNL     1      18.673 -14.812  -6.338 -0.34 +0.02    +0.154 A  ATOM      4  N   UNL     1      19.578 -15.400  -5.504 -0.30 -0.09    -0.235 NA ATOM      5  C   UNL     1      19.869 -14.704  -4.453 -0.49 +0.07    +0.135 A  ATOM      6  C   UNL     1      19.260 -13.359  -4.186 -0.40 +0.04    +0.154 A  ATOM      7  N   UNL     1      18.404 -12.796  -4.977 -0.37 -0.03    -0.173 NA ATOM      8  N   UNL     1      18.113 -13.566  -6.073 -0.29 -0.01    -0.214 N  ATOM      9  C   UNL     1      17.217 -13.229  -7.075 -0.34 -0.01    +0.083 A  ENDROOTBRANCH   1  10ATOM     10  C   UNL     1      16.444 -14.313  -9.228 -0.35 +0.00    -0.016 A  ATOM     11  C   UNL     1      14.891 -14.413 -11.556 -0.32 -0.01    +0.018 A  ATOM     12  C   UNL     1      16.275 -14.273 -11.652 -0.44 -0.00    +0.016 A  ATOM     13  C   UNL     1      14.276 -14.510 -10.309 -0.32 -0.01    +0.016 A  ATOM     14  C   UNL     1      17.049 -14.228 -10.489 -0.41 -0.00    +0.010 A  ATOM     15  C   UNL     1      15.052 -14.463  -9.148 -0.33 -0.00    +0.010 A  ATOM     16  Br  UNL     1      13.843 -14.471 -13.127 -0.60 +0.02    -0.051 Br ENDBRANCH   1  10BRANCH   9  17ATOM     17  C   UNL     1      16.436 -11.993  -7.033 -0.43 -0.00    +0.013 A  ATOM     18  C   UNL     1      15.576 -11.690  -5.974 -0.49 -0.01    +0.031 A  ATOM     19  C   UNL     1      16.544 -11.060  -8.083 -0.46 -0.01    +0.028 A  ATOM     20  C   UNL     1      14.881 -10.489  -5.998 -0.31 -0.06    +0.114 A  ATOM     21  C   UNL     1      17.248 -10.960  -9.320 -0.41 -0.01    +0.030 A  ATOM     22  C   UNL     1      15.790  -9.896  -7.968 -0.54 -0.04    +0.137 A  ATOM     23  N   UNL     1      14.956  -9.550  -6.969 -0.51 +0.10    -0.239 NA ATOM     24  C   UNL     1      16.914  -9.756  -9.902 -0.36 -0.02    +0.085 A  ATOM     25  N   UNL     1      16.031  -9.121  -9.068 -0.38 +0.09    -0.346 N  ATOM     26  H   UNL     1      15.603  -8.219  -9.219 +0.10 -0.06    +0.167 HD ENDBRANCH   9  17TORSDOF 2TERENDMDL