REMARK SMILES FC(F)(F)c1ccc(-c2cc3nccnn3c2-c2ccnc3[nH]ccc23)cc1
REMARK SMILES IDX 9 1 10 2 11 3 12 4 13 5 14 6 15 7 16 8 17 9 8 10 5 11 6 12
REMARK SMILES IDX 28 13 7 14 27 15 2 16 1 17 3 18 4 19 18 20 19 21 26 22 20 23
REMARK SMILES IDX 25 24 22 25 21 26 24 27 23 28
REMARK H PARENT 23 29
ROOT
ATOM      1  C   UNL     1       0.593   1.330   0.206  1.00  0.00     0.012 A 
ATOM      2  C   UNL     1       0.623   2.672   0.671  1.00  0.00     0.060 A 
ATOM      3  C   UNL     1      -0.671   3.140   0.725  1.00  0.00     0.154 A 
ATOM      4  N   UNL     1      -1.154   4.357   1.105  1.00  0.00    -0.235 NA
ATOM      5  C   UNL     1      -2.439   4.475   1.015  1.00  0.00     0.135 A 
ATOM      6  C   UNL     1      -3.316   3.359   0.530  1.00  0.00     0.154 A 
ATOM      7  N   UNL     1      -2.861   2.201   0.174  1.00  0.00    -0.173 NA
ATOM      8  N   UNL     1      -1.500   2.111   0.291  1.00  0.00    -0.214 N 
ATOM      9  C   UNL     1      -0.739   0.996  -0.024  1.00  0.00     0.083 A 
ENDROOT
BRANCH   1  10
ATOM     10  C   UNL     1       1.725   0.443  -0.018  1.00  0.00    -0.016 A 
ATOM     11  C   UNL     1       3.937  -1.252  -0.461  1.00  0.00     0.056 A 
ATOM     12  C   UNL     1       3.907   0.041  -1.004  1.00  0.00     0.014 A 
ATOM     13  C   UNL     1       2.854  -1.680   0.322  1.00  0.00     0.014 A 
ATOM     14  C   UNL     1       2.811   0.881  -0.785  1.00  0.00     0.009 A 
ATOM     15  C   UNL     1       1.759  -0.840   0.542  1.00  0.00     0.009 A 
BRANCH  11  16
ATOM     16  C   UNL     1       5.130  -2.149  -0.681  1.00  0.00     0.416 C 
ATOM     17  F   UNL     1       5.727  -1.953  -1.890  1.00  0.00    -0.166 F 
ATOM     18  F   UNL     1       4.822  -3.475  -0.631  1.00  0.00    -0.166 F 
ATOM     19  F   UNL     1       6.103  -1.955   0.251  1.00  0.00    -0.166 F 
ENDBRANCH  11  16
ENDBRANCH   1  10
BRANCH   9  20
ATOM     20  C   UNL     1      -1.328  -0.234  -0.546  1.00  0.00     0.013 A 
ATOM     21  C   UNL     1      -1.081  -0.681  -1.846  1.00  0.00     0.031 A 
ATOM     22  C   UNL     1      -2.139  -1.030   0.287  1.00  0.00     0.028 A 
ATOM     23  C   UNL     1      -1.651  -1.877  -2.260  1.00  0.00     0.114 A 
ATOM     24  C   UNL     1      -2.613  -0.983   1.630  1.00  0.00     0.030 A 
ATOM     25  C   UNL     1      -2.640  -2.205  -0.266  1.00  0.00     0.137 A 
ATOM     26  N   UNL     1      -2.441  -2.679  -1.510  1.00  0.00    -0.239 NA
ATOM     27  C   UNL     1      -3.383  -2.107   1.847  1.00  0.00     0.085 A 
ATOM     28  N   UNL     1      -3.392  -2.836   0.686  1.00  0.00    -0.346 N 
ATOM     29  H   UNL     1      -3.868  -3.712   0.528  1.00  0.00     0.167 HD
ENDBRANCH   9  20
TORSDOF 3
