MODEL        5USER    Run = 5USERUSER    Estimated Free Energy of Binding    =  -8.69 kcal/mol  [=(1)+(2)+(3)-(4)]USERUSER    (1) Final Intermolecular Energy     =  -9.58 kcal/molUSER        vdW + Hbond + desolv Energy     =  -9.59 kcal/molUSER        Electrostatic Energy            =  +0.01 kcal/molUSER        Moving Ligand-Fixed Receptor    =  -9.58 kcal/molUSER        Moving Ligand-Moving Receptor   =  +0.00 kcal/molUSER    (2) Final Total Internal Energy     =  -1.41 kcal/molUSER    (3) Torsional Free Energy           =  +0.89 kcal/molUSER    (4) Unbound System's Energy         =  -1.41 kcal/molUSERUSERREMARK SMILES FC(F)(F)c1ccc(-c2cc3nccnn3c2-c2ccnc3[nH]ccc23)cc1REMARK SMILES IDX 9 1 10 2 11 3 12 4 13 5 14 6 15 7 16 8 17 9 8 10 5 11 6 12REMARK SMILES IDX 28 13 7 14 27 15 2 16 1 17 3 18 4 19 18 20 19 21 26 22 20 23REMARK SMILES IDX 25 24 22 25 21 26 24 27 23 28REMARK H PARENT 23 29USER                              x       y       z     vdW  Elec       q    TypeUSER                           _______ _______ _______ _____ _____    ______ ____ROOTATOM      1  C   UNL     1      17.132 -14.172  -7.944 -0.37 -0.00    +0.012 A  ATOM      2  C   UNL     1      18.070 -15.134  -7.483 -0.38 +0.00    +0.060 A  ATOM      3  C   UNL     1      18.585 -14.695  -6.283 -0.34 +0.02    +0.154 A  ATOM      4  N   UNL     1      19.510 -15.265  -5.459 -0.30 -0.09    -0.235 NA ATOM      5  C   UNL     1      19.789 -14.568  -4.405 -0.49 +0.07    +0.135 A  ATOM      6  C   UNL     1      19.145 -13.243  -4.124 -0.39 +0.04    +0.154 A  ATOM      7  N   UNL     1      18.263 -12.703  -4.902 -0.38 -0.03    -0.173 NA ATOM      8  N   UNL     1      17.987 -13.472  -6.000 -0.29 -0.01    -0.214 N  ATOM      9  C   UNL     1      17.091 -13.144  -7.006 -0.34 -0.01    +0.083 A  ENDROOTBRANCH   1  10ATOM     10  C   UNL     1      16.351 -14.212  -9.172 -0.35 +0.00    -0.016 A  ATOM     11  C   UNL     1      14.864 -14.298 -11.568 -0.29 -0.02    +0.056 A  ATOM     12  C   UNL     1      16.266 -14.300 -11.597 -0.44 -0.00    +0.014 A  ATOM     13  C   UNL     1      14.215 -14.270 -10.324 -0.32 -0.01    +0.014 A  ATOM     14  C   UNL     1      17.004 -14.258 -10.409 -0.40 -0.00    +0.009 A  ATOM     15  C   UNL     1      14.952 -14.228  -9.138 -0.34 -0.00    +0.009 A  BRANCH  11  16ATOM     16  C   UNL     1      14.070 -14.365 -12.849 -0.10 -0.17    +0.416 C  ATOM     17  F   UNL     1      12.870 -14.991 -12.699 -0.03 +0.05    -0.166 F  ATOM     18  F   UNL     1      14.715 -15.035 -13.846 -0.12 +0.08    -0.166 F  ATOM     19  F   UNL     1      13.787 -13.131 -13.350 -0.13 +0.09    -0.166 F  ENDBRANCH  11  16ENDBRANCH   1  10BRANCH   9  20ATOM     20  C   UNL     1      16.335 -11.894  -7.007 -0.44 -0.00    +0.013 A  ATOM     21  C   UNL     1      15.505 -11.529  -5.945 -0.51 -0.01    +0.031 A  ATOM     22  C   UNL     1      16.469 -10.996  -8.084 -0.46 -0.01    +0.028 A  ATOM     23  C   UNL     1      14.843 -10.310  -6.003 -0.23 -0.06    +0.114 A  ATOM     24  C   UNL     1      17.194 -10.942  -9.309 -0.42 -0.01    +0.030 A  ATOM     25  C   UNL     1      15.745  -9.810  -8.003 -0.56 -0.04    +0.137 A  ATOM     26  N   UNL     1      14.927  -9.412  -7.011 -0.53 +0.10    -0.239 NA ATOM     27  C   UNL     1      16.887  -9.749  -9.931 -0.36 -0.02    +0.085 A  ATOM     28  N   UNL     1      16.004  -9.076  -9.127 -0.37 +0.09    -0.346 N  ATOM     29  H   UNL     1      15.594  -8.171  -9.307 +0.11 -0.06    +0.167 HD ENDBRANCH   9  20TORSDOF 3TERENDMDL