REMARK SMILES Oc1nc(-c2cccc(-c3ccc(F)cc3)c2)cc(-c2nn[nH]n2)c1Cl
REMARK SMILES IDX 2 1 3 2 4 3 18 4 19 5 25 6 26 7 1 8 5 10 6 11 17 12 7 13
REMARK SMILES IDX 9 14 8 15 10 16 11 17 16 18 12 19 15 20 13 21 14 22 20 23
REMARK SMILES IDX 21 24 24 25 22 26 23 27
REMARK H PARENT 1 9 23 28
ROOT
ATOM      1  C   UNL     1      -3.602  -1.371  -1.868  1.00  0.00     0.231 A 
ATOM      2  N   UNL     1      -2.271  -1.579  -1.869  1.00  0.00    -0.212 NA
ATOM      3  C   UNL     1      -1.557  -1.033  -0.858  1.00  0.00     0.075 A 
ATOM      4  C   UNL     1      -2.179  -0.307   0.156  1.00  0.00     0.043 A 
ATOM      5  C   UNL     1      -3.575  -0.116   0.142  1.00  0.00     0.049 A 
ATOM      6  C   UNL     1      -4.313  -0.658  -0.912  1.00  0.00     0.114 A 
ATOM      7  Cl  UNL     1      -6.016  -0.441  -1.100  1.00  0.00    -0.078 Cl
ENDROOT
BRANCH   1   8
ATOM      8  O   UNL     1      -4.208  -1.940  -2.943  1.00  0.00    -0.492 OA
ATOM      9  H   UNL     1      -3.438  -2.326  -3.397  1.00  0.00     0.295 HD
ENDBRANCH   1   8
BRANCH   3  10
ATOM     10  C   UNL     1      -0.100  -1.267  -0.900  1.00  0.00     0.001 A 
ATOM     11  C   UNL     1       0.419  -2.467  -1.416  1.00  0.00     0.010 A 
ATOM     12  C   UNL     1       0.825  -0.307  -0.441  1.00  0.00     0.019 A 
ATOM     13  C   UNL     1       1.793  -2.705  -1.461  1.00  0.00     0.001 A 
ATOM     14  C   UNL     1       2.216  -0.524  -0.476  1.00  0.00    -0.018 A 
ATOM     15  C   UNL     1       2.683  -1.740  -0.993  1.00  0.00     0.009 A 
BRANCH  14  16
ATOM     16  C   UNL     1       3.153   0.501   0.011  1.00  0.00    -0.018 A 
ATOM     17  C   UNL     1       3.052   1.010   1.318  1.00  0.00     0.012 A 
ATOM     18  C   UNL     1       4.174   0.999  -0.820  1.00  0.00     0.012 A 
ATOM     19  C   UNL     1       3.941   1.984   1.780  1.00  0.00     0.040 A 
ATOM     20  C   UNL     1       5.063   1.974  -0.359  1.00  0.00     0.040 A 
ATOM     21  C   UNL     1       4.937   2.456   0.937  1.00  0.00     0.123 A 
ATOM     22  F   UNL     1       5.789   3.390   1.379  1.00  0.00    -0.207 F 
ENDBRANCH  14  16
ENDBRANCH   3  10
BRANCH   5  23
ATOM     23  C   UNL     1      -4.174   0.637   1.234  1.00  0.00     0.206 A 
ATOM     24  N   UNL     1      -5.418   0.377   1.756  1.00  0.00    -0.108 NA
ATOM     25  N   UNL     1      -3.541   1.626   1.894  1.00  0.00    -0.134 NA
ATOM     26  N   UNL     1      -5.608   1.234   2.748  1.00  0.00    -0.050 NA
ATOM     27  N   UNL     1      -4.486   1.957   2.788  1.00  0.00    -0.177 N 
ATOM     28  H   UNL     1      -4.360   2.708   3.461  1.00  0.00     0.216 HD
ENDBRANCH   5  23
TORSDOF 4
