REMARK SMILES COc1ccc(O)c(C(=O)c2ccc(C(=O)N[C@@H]3CCCNC[C@H]3NC(=O)c3cnc4cc(N(C)C)c(F)cc4n3)cc2)c1F
REMARK SMILES IDX 18 1 17 3 15 4 16 5 14 7 11 8 12 9 43 10 13 11 42 12 9 13
REMARK SMILES IDX 10 14 8 15 3 16 4 17 44 18 5 19 6 20 45 21 2 22 1 23 7 24
REMARK SMILES IDX 24 26 23 27 22 28 21 30 20 31 19 32 25 34 26 35 27 37 28 38
REMARK SMILES IDX 29 39 41 40 30 41 40 42 31 43 39 44 32 45 37 46 33 47 38 48
REMARK SMILES IDX 34 49 35 50 36 51
REMARK H PARENT 17 6 7 25 22 29 25 36
REMARK Flexibility Score:  100.900
ROOT
ATOM      1  C   UNL     1       0.399   0.336   0.038  1.00  0.00     0.106 CG0
ATOM      2  G   UNL     1       0.801   1.008  -1.289  1.00  0.00     0.000 G0
ENDROOT
BRANCH   1   3
ATOM      3  N   UNL     1      -1.061   0.280   0.140  1.00  0.00    -0.347 N 
ATOM      4  C   UNL     1      -1.702   0.300   1.361  1.00  0.00     0.251 C 
ATOM      5  O   UNL     1      -1.135   0.537   2.420  1.00  0.00    -0.269 OA
ATOM      6  H   UNL     1      -1.481  -0.302  -0.581  1.00  0.00     0.164 HD
BRANCH   4   7
ATOM      7  C   UNL     1      -3.157  -0.026   1.341  1.00  0.00     0.039 A 
ATOM      8  C   UNL     1      -5.894  -0.638   1.391  1.00  0.00     0.023 A 
ATOM      9  C   UNL     1      -5.304  -0.163   0.213  1.00  0.00     0.013 A 
ATOM     10  C   UNL     1      -5.111  -0.829   2.535  1.00  0.00     0.013 A 
ATOM     11  C   UNL     1      -3.942   0.153   0.192  1.00  0.00     0.014 A 
ATOM     12  C   UNL     1      -3.749  -0.513   2.513  1.00  0.00     0.014 A 
BRANCH   8  13
ATOM     13  C   UNL     1      -7.328  -1.010   1.447  1.00  0.00     0.199 C 
ATOM     14  O   UNL     1      -7.657  -2.017   2.078  1.00  0.00    -0.288 OA
BRANCH  13  15
ATOM     15  C   UNL     1      -8.389  -0.266   0.732  1.00  0.00     0.104 A 
ATOM     16  C   UNL     1      -9.319   1.800  -0.172  1.00  0.00     0.155 A 
ATOM     17  C   UNL     1     -10.423   1.091  -0.650  1.00  0.00     0.053 A 
ATOM     18  C   UNL     1      -8.313   1.112   0.522  1.00  0.00     0.179 A 
ATOM     19  C   UNL     1     -10.526  -0.283  -0.419  1.00  0.00     0.051 A 
ATOM     20  C   UNL     1      -9.523  -0.951   0.279  1.00  0.00     0.130 A 
ATOM     21  F   UNL     1      -7.274   1.812   1.007  1.00  0.00    -0.202 F 
BRANCH  16  22
ATOM     22  O   UNL     1      -9.115   3.145  -0.323  1.00  0.00    -0.494 OA
ATOM     23  C   UNL     1     -10.140   3.894  -0.964  1.00  0.00     0.278 C 
ENDBRANCH  16  22
BRANCH  20  24
ATOM     24  O   UNL     1      -9.717  -2.291   0.487  1.00  0.00    -0.507 OA
ATOM     25  H   UNL     1      -9.068  -2.587   1.167  1.00  0.00     0.293 HD
ENDBRANCH  20  24
ENDBRANCH  13  15
ENDBRANCH   8  13
ENDBRANCH   4   7
ENDBRANCH   1   3
BRANCH   1  26
ATOM     26  C   UNL     1       1.034  -1.066   0.275  1.00  0.00     0.118 C 
BRANCH  26  27
ATOM     27  C   UNL     1       0.602  -2.150  -0.768  1.00  0.00     0.108 C 
BRANCH  27  28
ATOM     28  N   UNL     1      -0.501  -1.769  -1.669  1.00  0.00    -0.315 NA
ATOM     29  H   UNL     1      -0.910  -2.623  -2.056  1.00  0.00     0.122 HD
BRANCH  28  30
ATOM     30  C   UNL     1      -0.061  -0.924  -2.784  1.00  0.00     0.081 C 
BRANCH  30  31
ATOM     31  C   UNL     1       1.046   0.087  -2.485  1.00  0.00     0.017 C 
BRANCH  31  32
ATOM     32  C   UNL     1       0.801   1.008  -1.289  1.00  0.00     0.028 CG0
ATOM     33  G   UNL     1       0.399   0.336   0.038  1.00  0.00     0.000 G0
ENDBRANCH  31  32
ENDBRANCH  30  31
ENDBRANCH  28  30
ENDBRANCH  27  28
ENDBRANCH  26  27
BRANCH  26  34
ATOM     34  N   UNL     1       2.491  -0.974   0.382  1.00  0.00    -0.345 N 
ATOM     35  C   UNL     1       3.283  -2.017   0.811  1.00  0.00     0.271 C 
ATOM     36  H   UNL     1       2.959  -0.078   0.265  1.00  0.00     0.164 HD
ATOM     37  O   UNL     1       2.864  -3.136   1.076  1.00  0.00    -0.267 OA
BRANCH  35  38
ATOM     38  C   UNL     1       4.731  -1.684   0.913  1.00  0.00     0.147 A 
ATOM     39  C   UNL     1       5.639  -2.635   1.331  1.00  0.00     0.146 A 
ATOM     40  N   UNL     1       5.103  -0.422   0.557  1.00  0.00    -0.239 NA
ATOM     41  N   UNL     1       6.967  -2.370   1.409  1.00  0.00    -0.252 NA
ATOM     42  C   UNL     1       6.421  -0.155   0.631  1.00  0.00     0.093 A 
ATOM     43  C   UNL     1       7.359  -1.128   1.057  1.00  0.00     0.091 A 
ATOM     44  C   UNL     1       6.878   1.098   0.275  1.00  0.00     0.072 A 
ATOM     45  C   UNL     1       8.710  -0.793   1.104  1.00  0.00     0.059 A 
ATOM     46  C   UNL     1       8.236   1.408   0.329  1.00  0.00     0.148 A 
ATOM     47  C   UNL     1       9.203   0.479   0.755  1.00  0.00     0.075 A 
ATOM     48  F   UNL     1       8.580   2.656  -0.026  1.00  0.00    -0.205 F 
BRANCH  47  49
ATOM     49  N   UNL     1      10.586   0.732   0.806  1.00  0.00    -0.375 N 
ATOM     50  C   UNL     1      11.263   0.306   2.036  1.00  0.00     0.143 C 
ATOM     51  C   UNL     1      11.089   1.985   0.240  1.00  0.00     0.143 C 
ENDBRANCH  47  49
ENDBRANCH  35  38
ENDBRANCH  26  34
ENDBRANCH   1  26
TORSDOF 9
