MODEL        8USER    Run = 8USERUSER    Estimated Free Energy of Binding    =  -9.41 kcal/mol  [=(1)+(2)+(3)-(4)]USERUSER    (1) Final Intermolecular Energy     = -10.90 kcal/molUSER        vdW + Hbond + desolv Energy     = -10.76 kcal/molUSER        Electrostatic Energy            =  -0.14 kcal/molUSER        Moving Ligand-Fixed Receptor    = -10.90 kcal/molUSER        Moving Ligand-Moving Receptor   =  +0.00 kcal/molUSER    (2) Final Total Internal Energy     =  -1.33 kcal/molUSER    (3) Torsional Free Energy           =  +1.49 kcal/molUSER    (4) Unbound System's Energy         =  -1.33 kcal/molUSERUSERREMARK SMILES CNC(=O)c1cc(/C=C/c2n[nH]c3cc(Cl)ccc23)ccc1OCREMARK SMILES IDX 8 1 7 2 5 3 6 4 22 5 21 6 20 7 3 8 2 9 1 10 4 12 23 13 24 14REMARK SMILES IDX 9 15 10 16 11 17 19 18 12 19 18 20 13 21 17 22 14 23 15 24REMARK SMILES IDX 16 26REMARK H PARENT 2 11 12 25USER                              x       y       z     vdW  Elec       q    TypeUSER                           _______ _______ _______ _____ _____    ______ ____ROOTATOM      1  C   UNL     1      37.172  45.597  14.966 -0.43 -0.00    +0.010 C  ENDROOTBRANCH   1   2ATOM      2  C   UNL     1      38.244  46.567  15.223 -0.39 +0.01    -0.025 A  ATOM      3  C   UNL     1      40.060  47.329  16.684 -0.45 -0.02    +0.082 A  ATOM      4  C   UNL     1      39.002  46.444  16.393 -0.41 -0.01    +0.025 A  ATOM      5  C   UNL     1      40.378  48.352  15.766 -0.47 -0.03    +0.131 A  ATOM      6  C   UNL     1      39.626  48.462  14.589 -0.50 -0.02    +0.048 A  ATOM      7  C   UNL     1      38.575  47.577  14.320 -0.49 -0.00    +0.012 A  BRANCH   3   8ATOM      8  C   UNL     1      40.777  47.083  17.981 -0.38 -0.03    +0.254 C  ATOM      9  N   UNL     1      42.092  47.475  18.070 -0.26 +0.02    -0.355 N  ATOM     10  C   UNL     1      42.896  47.184  19.228 -0.48 +0.03    +0.143 C  ATOM     11  H   UNL     1      42.550  47.782  17.217 -0.48 -0.03    +0.163 HD ATOM     12  O   UNL     1      40.187  46.553  18.919 -0.32 +0.02    -0.269 OA ENDBRANCH   3   8BRANCH   5  13ATOM     13  O   UNL     1      41.423  49.189  16.071 -0.83 +0.01    -0.496 OA ATOM     14  C   UNL     1      41.576  50.376  15.299 -0.47 -0.06    +0.278 C  ENDBRANCH   5  13ENDBRANCH   1   2BRANCH   1  15ATOM     15  C   UNL     1      36.119  45.407  15.779 -0.39 -0.02    +0.031 C  BRANCH  15  16ATOM     16  C   UNL     1      35.848  44.240  16.566 -0.28 -0.04    +0.093 A  ATOM     17  N   UNL     1      35.219  43.182  16.035 -0.33 +0.07    -0.175 NA ATOM     18  C   UNL     1      36.144  44.027  17.951 -0.31 -0.01    +0.027 A  ATOM     19  N   UNL     1      35.158  42.295  17.037 -0.27 +0.11    -0.277 N  ATOM     20  C   UNL     1      36.720  44.763  19.008 -0.32 -0.00    +0.014 A  ATOM     21  C   UNL     1      35.688  42.738  18.216 -0.24 -0.02    +0.067 A  ATOM     22  C   UNL     1      36.836  44.173  20.275 -0.37 -0.00    +0.021 A  ATOM     23  C   UNL     1      35.793  42.126  19.471 -0.34 -0.00    +0.048 A  ATOM     24  C   UNL     1      36.381  42.874  20.493 -0.42 -0.00    +0.043 A  ATOM     25  H   UNL     1      34.727  41.396  16.853 -0.44 -0.13    +0.190 HD ATOM     26  Cl  UNL     1      36.537  42.175  22.061 -0.72 -0.01    -0.084 Cl ENDBRANCH  15  16ENDBRANCH   1  15TORSDOF 5TERENDMDL