REMARK SMILES CNC(=O)c1cc(/C=C/c2n[nH]c3cc(Cl)ccc23)ccc1OC
REMARK SMILES IDX 8 1 7 2 5 3 6 4 22 5 21 6 20 7 3 8 2 9 1 10 4 12 23 13 24 14
REMARK SMILES IDX 9 15 10 16 11 17 19 18 12 19 18 20 13 21 17 22 14 23 15 24
REMARK SMILES IDX 16 26
REMARK H PARENT 2 11 12 25
ROOT
ATOM      1  C   UNL     1       1.045   0.374  -0.427  1.00  0.00     0.010 C 
ENDROOT
BRANCH   1   2
ATOM      2  C   UNL     1      -0.413   0.319  -0.594  1.00  0.00    -0.025 A 
ATOM      3  C   UNL     1      -2.610  -0.129   0.398  1.00  0.00     0.082 A 
ATOM      4  C   UNL     1      -1.204  -0.080   0.488  1.00  0.00     0.025 A 
ATOM      5  C   UNL     1      -3.239   0.251  -0.806  1.00  0.00     0.131 A 
ATOM      6  C   UNL     1      -2.443   0.664  -1.883  1.00  0.00     0.048 A 
ATOM      7  C   UNL     1      -1.048   0.702  -1.776  1.00  0.00     0.012 A 
BRANCH   3   8
ATOM      8  C   UNL     1      -3.327  -0.588   1.636  1.00  0.00     0.254 C 
ATOM      9  N   UNL     1      -4.676  -0.838   1.539  1.00  0.00    -0.355 N 
ATOM     10  C   UNL     1      -5.472  -1.173   2.690  1.00  0.00     0.143 C 
ATOM     11  H   UNL     1      -5.143  -0.569   0.678  1.00  0.00     0.163 HD
ATOM     12  O   UNL     1      -2.708  -0.734   2.687  1.00  0.00    -0.269 OA
ENDBRANCH   3   8
BRANCH   5  13
ATOM     13  O   UNL     1      -4.610   0.206  -0.859  1.00  0.00    -0.496 OA
ATOM     14  C   UNL     1      -5.247   0.621  -2.063  1.00  0.00     0.278 C 
ENDBRANCH   5  13
ENDBRANCH   1   2
BRANCH   1  15
ATOM     15  C   UNL     1       1.925   0.037  -1.385  1.00  0.00     0.031 C 
BRANCH  15  16
ATOM     16  C   UNL     1       3.354   0.083  -1.286  1.00  0.00     0.093 A 
ATOM     17  N   UNL     1       4.111   0.335  -2.364  1.00  0.00    -0.175 NA
ATOM     18  C   UNL     1       4.161  -0.146  -0.126  1.00  0.00     0.027 A 
ATOM     19  N   UNL     1       5.367   0.318  -1.898  1.00  0.00    -0.277 N 
ATOM     20  C   UNL     1       3.951  -0.494   1.225  1.00  0.00     0.014 A 
ATOM     21  C   UNL     1       5.471   0.029  -0.566  1.00  0.00     0.067 A 
ATOM     22  C   UNL     1       5.054  -0.628   2.081  1.00  0.00     0.021 A 
ATOM     23  C   UNL     1       6.588  -0.098   0.268  1.00  0.00     0.048 A 
ATOM     24  C   UNL     1       6.347  -0.428   1.604  1.00  0.00     0.043 A 
ATOM     25  H   UNL     1       6.121   0.503  -2.550  1.00  0.00     0.190 HD
ATOM     26  Cl  UNL     1       7.683  -0.600   2.679  1.00  0.00    -0.084 Cl
ENDBRANCH  15  16
ENDBRANCH   1  15
TORSDOF 5
