MODEL        1USER    Run = 1USERUSER    Estimated Free Energy of Binding    =  -8.71 kcal/mol  [=(1)+(2)+(3)-(4)]USERUSER    (1) Final Intermolecular Energy     =  -9.00 kcal/molUSER        vdW + Hbond + desolv Energy     =  -8.94 kcal/molUSER        Electrostatic Energy            =  -0.06 kcal/molUSER        Moving Ligand-Fixed Receptor    =  -9.00 kcal/molUSER        Moving Ligand-Moving Receptor   =  +0.00 kcal/molUSER    (2) Final Total Internal Energy     =  -0.23 kcal/molUSER    (3) Torsional Free Energy           =  +0.30 kcal/molUSER    (4) Unbound System's Energy         =  -0.23 kcal/molUSERUSERREMARK SMILES Cn1ccc2nc(-c3nc4ccc(Cl)cc4[nH]c3=O)ccc21REMARK SMILES IDX 8 1 9 2 10 3 11 4 12 5 13 6 14 7 15 8 16 9 17 10 18 11 19 12REMARK SMILES IDX 7 14 2 15 3 16 22 17 4 18 21 19 5 20 20 21 6 22 1 23REMARK H PARENT 17 13USER                              x       y       z     vdW  Elec       q    TypeUSER                           _______ _______ _______ _____ _____    ______ ____ROOTATOM      1  C   UNL     1      40.423  47.213  17.104 -0.39 -0.02    +0.154 A  ATOM      2  N   UNL     1      39.643  46.247  16.690 -0.25 +0.04    -0.239 NA ATOM      3  C   UNL     1      38.843  46.460  15.556 -0.36 -0.03    +0.088 A  ATOM      4  C   UNL     1      38.009  45.429  15.121 -0.34 -0.01    +0.032 A  ATOM      5  C   UNL     1      37.182  45.609  14.009 -0.42 -0.01    +0.023 A  ATOM      6  C   UNL     1      37.188  46.827  13.331 -0.51 -0.02    +0.043 A  ATOM      7  Cl  UNL     1      36.169  47.046  11.962 -0.91 +0.04    -0.084 Cl ATOM      8  C   UNL     1      38.013  47.869  13.751 -0.48 -0.02    +0.049 A  ATOM      9  C   UNL     1      38.834  47.678  14.862 -0.45 -0.03    +0.069 A  ATOM     10  N   UNL     1      39.682  48.703  15.285 -0.29 +0.13    -0.319 N  ATOM     11  C   UNL     1      40.552  48.540  16.338 -0.31 -0.06    +0.276 A  ATOM     12  O   UNL     1      41.401  49.379  16.593 -1.06 -0.00    -0.267 OA ATOM     13  H   UNL     1      39.753  49.573  14.777 -0.16 -0.11    +0.170 HD ENDROOTBRANCH   1  14ATOM     14  C   UNL     1      41.220  47.034  18.344 -0.45 -0.00    +0.095 A  ATOM     15  N   UNL     1      43.159  46.250  21.797 -0.12 -0.12    -0.349 N  ATOM     16  C   UNL     1      42.200  45.511  22.443 -0.17 +0.01    +0.088 A  ATOM     17  C   UNL     1      42.706  46.635  20.555 -0.35 +0.02    +0.067 A  ATOM     18  C   UNL     1      41.109  45.415  21.608 -0.26 +0.00    +0.048 A  ATOM     19  C   UNL     1      43.290  47.381  19.528 -0.43 +0.01    +0.031 A  ATOM     20  C   UNL     1      41.418  46.117  20.421 -0.31 +0.01    +0.089 A  ATOM     21  C   UNL     1      42.507  47.571  18.391 -0.42 +0.00    +0.033 A  ATOM     22  N   UNL     1      40.654  46.291  19.318 -0.27 +0.00    -0.244 NA ATOM     23  C   UNL     1      44.458  46.576  22.345 -0.22 +0.09    +0.149 C  ENDBRANCH   1  14TORSDOF 1TERENDMDL