MODEL        10USER    Run = 10USERUSER    Estimated Free Energy of Binding    = -11.74 kcal/mol  [=(1)+(2)+(3)-(4)]USERUSER    (1) Final Intermolecular Energy     = -13.23 kcal/molUSER        vdW + Hbond + desolv Energy     = -13.22 kcal/molUSER        Electrostatic Energy            =  -0.01 kcal/molUSER        Moving Ligand-Fixed Receptor    = -13.23 kcal/molUSER        Moving Ligand-Moving Receptor   =  +0.00 kcal/molUSER    (2) Final Total Internal Energy     =  -1.57 kcal/molUSER    (3) Torsional Free Energy           =  +1.49 kcal/molUSER    (4) Unbound System's Energy         =  -1.57 kcal/molUSERUSERREMARK SMILES C[C@H]1CN(Cc2ccc(-c3n[nH]c4c3C(=O)c3c(NC(=O)NN5CCNCC5)cccc3-4)cc2)CCN1CREMARK SMILES IDX 10 1 11 2 12 3 13 4 14 5 15 6 16 7 17 8 18 9 29 10 30 11REMARK SMILES IDX 31 12 32 13 9 15 6 16 7 17 34 18 8 19 33 20 5 21 4 22 2 23REMARK SMILES IDX 3 24 37 25 36 26 35 27 1 28 38 29 19 30 20 31 22 32 21 34REMARK SMILES IDX 23 36 24 37 28 38 25 39 27 40 26 41REMARK H PARENT 12 14 19 33 22 35 26 42USER                              x       y       z     vdW  Elec       q    TypeUSER                           _______ _______ _______ _____ _____    ______ ____ROOTATOM      1  C   UNL     1      35.398  44.789  15.977 -0.26 -0.06    +0.104 A  ATOM      2  N   UNL     1      34.952  45.130  14.738 -0.18 +0.11    -0.174 NA ATOM      3  N   UNL     1      35.906  45.917  14.199 -0.22 +0.16    -0.276 N  ATOM      4  C   UNL     1      36.934  46.088  15.043 -0.33 -0.04    +0.078 A  ATOM      5  C   UNL     1      36.657  45.384  16.188 -0.30 -0.04    +0.076 A  ATOM      6  C   UNL     1      37.763  45.562  17.105 -0.29 -0.06    +0.200 C  ATOM      7  O   UNL     1      37.928  45.121  18.230 -0.24 +0.05    -0.288 OA ATOM      8  C   UNL     1      38.734  46.452  16.378 -0.37 -0.02    +0.056 A  ATOM      9  C   UNL     1      39.962  46.933  16.801 -0.45 -0.01    +0.054 A  ATOM     10  C   UNL     1      40.637  47.763  15.899 -0.52 -0.00    +0.027 A  ATOM     11  C   UNL     1      40.092  48.075  14.629 -0.50 -0.00    +0.003 A  ATOM     12  C   UNL     1      38.854  47.572  14.217 -0.47 -0.00    +0.011 A  ATOM     13  C   UNL     1      38.190  46.762  15.106 -0.41 -0.01    +0.014 A  ATOM     14  H   UNL     1      35.764  46.287  13.264 +0.14 -0.11    +0.190 HD ENDROOTBRANCH   1  15ATOM     15  C   UNL     1      34.579  43.931  16.847 -0.32 -0.00    +0.003 A  ATOM     16  C   UNL     1      32.972  42.340  18.564 -0.36 +0.00    -0.034 A  ATOM     17  C   UNL     1      33.932  41.754  17.728 -0.42 -0.00    +0.006 A  ATOM     18  C   UNL     1      32.817  43.729  18.534 -0.36 -0.00    +0.006 A  ATOM     19  C   UNL     1      34.723  42.540  16.879 -0.43 -0.00    +0.011 A  ATOM     20  C   UNL     1      33.611  44.510  17.687 -0.32 -0.00    +0.011 A  BRANCH  16  21ATOM     21  C   UNL     1      32.121  41.488  19.481 -0.22 +0.01    +0.120 C  BRANCH  21  22ATOM     22  N   UNL     1      32.047  40.075  19.080 -0.56 -0.03    -0.296 NA ATOM     23  C   UNL     1      31.168  37.785  19.800 -0.51 +0.01    +0.067 C  ATOM     24  C   UNL     1      31.667  39.202  20.212 -0.39 +0.03    +0.103 C  ATOM     25  N   UNL     1      30.057  37.798  18.817 -0.37 -0.12    -0.301 NA ATOM     26  C   UNL     1      29.818  39.144  18.268 -0.35 +0.02    +0.100 C  ATOM     27  C   UNL     1      31.130  39.890  17.936 -0.38 -0.00    +0.100 C  ATOM     28  C   UNL     1      32.309  36.947  19.210 -0.63 +0.01    +0.026 C  ATOM     29  C   UNL     1      28.826  37.243  19.375 -0.20 +0.03    +0.105 C  ENDBRANCH  21  22ENDBRANCH  16  21ENDBRANCH   1  15BRANCH   9  30ATOM     30  N   UNL     1      40.437  46.583  18.082 -0.28 +0.03    -0.306 N  ATOM     31  C   UNL     1      41.419  47.224  18.818 -0.19 -0.00    +0.333 C  ATOM     32  N   UNL     1      41.560  46.620  20.075 -0.23 -0.03    -0.270 N  ATOM     33  H   UNL     1      40.096  45.700  18.455 +0.11 -0.01    +0.171 HD ATOM     34  O   UNL     1      42.096  48.170  18.430 -0.50 +0.00    -0.247 OA ATOM     35  H   UNL     1      40.725  46.166  20.427 +0.10 +0.01    +0.187 HD BRANCH  32  36ATOM     36  N   UNL     1      42.420  47.230  21.027 -0.18 -0.03    -0.217 NA ATOM     37  C   UNL     1      41.887  47.163  22.396 -0.18 +0.02    +0.123 C  ATOM     38  C   UNL     1      43.775  46.641  20.977 -0.22 +0.08    +0.123 C  ATOM     39  C   UNL     1      42.796  47.906  23.408 -0.32 +0.02    +0.098 C  ATOM     40  C   UNL     1      44.669  47.064  22.169 -0.28 +0.06    +0.098 C  ATOM     41  N   UNL     1      44.147  48.226  22.907 -0.29 -0.08    -0.314 NA ATOM     42  H   UNL     1      44.028  48.968  22.211 -0.53 +0.01    +0.122 HD ENDBRANCH  32  36ENDBRANCH   9  30TORSDOF 5TERENDMDL