REMARK SMILES CCCCCC[C@@H](O)[C@@H]1CCc2cccc(-c3ccnc(NC(C)=O)c3)c2O1
REMARK SMILES IDX 6 1 5 2 4 3 3 4 2 5 1 6 7 7 8 8 9 10 10 11 28 12 11 13 27 14
REMARK SMILES IDX 12 15 16 16 13 17 15 18 14 19 17 20 18 21 26 22 19 23 21 24
REMARK SMILES IDX 20 25 22 26 23 27 24 29 25 30
REMARK H PARENT 8 9 22 28
ROOT
ATOM      1  C   UNL     1       2.817  -1.252  -0.057  1.00  0.00     0.036 C 
ENDROOT
BRANCH   1   2
ATOM      2  C   UNL     1       3.729  -1.518   1.147  1.00  0.00     0.003 C 
BRANCH   2   3
ATOM      3  C   UNL     1       5.032  -2.226   0.773  1.00  0.00     0.000 C 
BRANCH   3   4
ATOM      4  C   UNL     1       5.973  -1.477  -0.178  1.00  0.00    -0.000 C 
BRANCH   4   5
ATOM      5  C   UNL     1       6.568  -0.183   0.387  1.00  0.00    -0.003 C 
ATOM      6  C   UNL     1       5.779   1.066   0.023  1.00  0.00     0.004 C 
ENDBRANCH   4   5
ENDBRANCH   3   4
ENDBRANCH   2   3
ENDBRANCH   1   2
BRANCH   1   7
ATOM      7  C   UNL     1       1.493  -0.601   0.361  1.00  0.00     0.155 C 
BRANCH   7   8
ATOM      8  O   UNL     1       1.779   0.695   0.890  1.00  0.00    -0.389 OA
ATOM      9  H   UNL     1       0.924   1.086   1.147  1.00  0.00     0.211 HD
ENDBRANCH   7   8
BRANCH   7  10
ATOM     10  C   UNL     1       0.463  -0.547  -0.797  1.00  0.00     0.202 C 
ATOM     11  C   UNL     1       0.876   0.202  -2.065  1.00  0.00     0.053 C 
ATOM     12  O   UNL     1      -0.803  -0.103  -0.280  1.00  0.00    -0.487 OA
ATOM     13  C   UNL     1       0.878   1.703  -1.857  1.00  0.00     0.043 C 
ATOM     14  C   UNL     1      -1.145   1.218  -0.419  1.00  0.00     0.130 A 
ATOM     15  C   UNL     1      -0.382   2.129  -1.163  1.00  0.00    -0.005 A 
ATOM     16  C   UNL     1      -2.326   1.634   0.231  1.00  0.00     0.024 A 
ATOM     17  C   UNL     1      -0.789   3.469  -1.239  1.00  0.00     0.007 A 
ATOM     18  C   UNL     1      -2.717   2.979   0.125  1.00  0.00     0.012 A 
ATOM     19  C   UNL     1      -1.953   3.891  -0.601  1.00  0.00     0.001 A 
BRANCH  16  20
ATOM     20  C   UNL     1      -3.147   0.705   1.018  1.00  0.00    -0.009 A 
ATOM     21  C   UNL     1      -2.790   0.368   2.325  1.00  0.00     0.029 A 
ATOM     22  C   UNL     1      -4.308   0.136   0.475  1.00  0.00     0.056 A 
ATOM     23  C   UNL     1      -3.596  -0.512   3.023  1.00  0.00     0.114 A 
ATOM     24  C   UNL     1      -5.056  -0.740   1.248  1.00  0.00     0.133 A 
ATOM     25  N   UNL     1      -4.717  -1.069   2.514  1.00  0.00    -0.239 NA
BRANCH  24  26
ATOM     26  N   UNL     1      -6.222  -1.374   0.817  1.00  0.00    -0.311 N 
ATOM     27  C   UNL     1      -6.855  -1.266  -0.398  1.00  0.00     0.222 C 
ATOM     28  H   UNL     1      -6.604  -1.980   1.530  1.00  0.00     0.171 HD
ATOM     29  C   UNL     1      -8.085  -2.134  -0.491  1.00  0.00     0.114 C 
ATOM     30  O   UNL     1      -6.502  -0.580  -1.350  1.00  0.00    -0.275 OA
ENDBRANCH  24  26
ENDBRANCH  16  20
ENDBRANCH   7  10
ENDBRANCH   1   7
TORSDOF 9
