REMARK SMILES CCCCCNCc1ccc(NC(=O)CCc2cn(-c3ccncc3)nc2C)cc1C
REMARK SMILES IDX 7 1 6 2 5 4 4 5 3 6 2 7 1 8 8 9 9 10 30 11 10 12 29 13 11 14
REMARK SMILES IDX 31 15 12 16 13 17 14 19 15 20 16 21 17 22 18 23 27 24 19 25
REMARK SMILES IDX 26 26 28 27 20 28 21 29 25 30 22 31 24 32 23 33
REMARK H PARENT 6 3 12 18
ROOT
ATOM      1  C   UNL     1       5.021  -1.310  -0.566  1.00  0.00     0.117 C 
ENDROOT
BRANCH   1   2
ATOM      2  N   UNL     1       5.694  -0.165  -1.183  1.00  0.00    -0.313 NA
ATOM      3  H   UNL     1       6.683  -0.385  -1.287  1.00  0.00     0.123 HD
BRANCH   2   4
ATOM      4  C   UNL     1       5.550   1.093  -0.449  1.00  0.00     0.081 C 
BRANCH   4   5
ATOM      5  C   UNL     1       6.215   1.141   0.933  1.00  0.00     0.015 C 
BRANCH   5   6
ATOM      6  C   UNL     1       7.711   0.809   0.966  1.00  0.00     0.001 C 
BRANCH   6   7
ATOM      7  C   UNL     1       8.564   1.759   0.124  1.00  0.00    -0.003 C 
ATOM      8  C   UNL     1      10.046   1.456   0.277  1.00  0.00     0.004 C 
ENDBRANCH   6   7
ENDBRANCH   5   6
ENDBRANCH   4   5
ENDBRANCH   2   4
ENDBRANCH   1   2
BRANCH   1   9
ATOM      9  C   UNL     1       3.511  -1.198  -0.528  1.00  0.00    -0.031 A 
ATOM     10  C   UNL     1       2.874  -1.085   0.719  1.00  0.00     0.007 A 
ATOM     11  C   UNL     1       2.717  -1.202  -1.693  1.00  0.00    -0.045 A 
ATOM     12  C   UNL     1       1.484  -0.972   0.820  1.00  0.00     0.026 A 
ATOM     13  C   UNL     1       1.320  -1.077  -1.575  1.00  0.00     0.029 A 
ATOM     14  C   UNL     1       0.695  -0.965  -0.326  1.00  0.00     0.041 A 
ATOM     15  C   UNL     1       3.324  -1.293  -3.067  1.00  0.00     0.045 C 
BRANCH  14  16
ATOM     16  N   UNL     1      -0.712  -0.852  -0.318  1.00  0.00    -0.326 N 
ATOM     17  C   UNL     1      -1.545  -0.731   0.783  1.00  0.00     0.224 C 
ATOM     18  H   UNL     1      -1.157  -0.862  -1.227  1.00  0.00     0.169 HD
ATOM     19  O   UNL     1      -1.204  -0.698   1.960  1.00  0.00    -0.275 OA
BRANCH  17  20
ATOM     20  C   UNL     1      -3.001  -0.643   0.365  1.00  0.00     0.105 C 
BRANCH  20  21
ATOM     21  C   UNL     1      -3.929  -0.498   1.569  1.00  0.00     0.049 C 
BRANCH  21  22
ATOM     22  C   UNL     1      -5.363  -0.428   1.160  1.00  0.00    -0.006 A 
ATOM     23  C   UNL     1      -6.100   0.700   0.865  1.00  0.00     0.119 A 
ATOM     24  C   UNL     1      -6.279  -1.494   0.987  1.00  0.00     0.063 A 
ATOM     25  N   UNL     1      -7.373   0.290   0.538  1.00  0.00    -0.240 N 
ATOM     26  N   UNL     1      -7.482  -1.060   0.600  1.00  0.00    -0.173 NA
ATOM     27  C   UNL     1      -6.040  -2.947   1.178  1.00  0.00     0.069 C 
BRANCH  25  28
ATOM     28  C   UNL     1      -8.485   1.093   0.165  1.00  0.00     0.068 A 
ATOM     29  C   UNL     1      -8.389   2.484   0.095  1.00  0.00     0.048 A 
ATOM     30  C   UNL     1      -9.704   0.478  -0.140  1.00  0.00     0.048 A 
ATOM     31  C   UNL     1      -9.518   3.196  -0.280  1.00  0.00     0.113 A 
ATOM     32  C   UNL     1     -10.771   1.281  -0.503  1.00  0.00     0.113 A 
ATOM     33  N   UNL     1     -10.704   2.627  -0.581  1.00  0.00    -0.265 NA
ENDBRANCH  25  28
ENDBRANCH  21  22
ENDBRANCH  20  21
ENDBRANCH  17  20
ENDBRANCH  14  16
ENDBRANCH   1   9
TORSDOF 11
