MODEL        6USER    Run = 6USERUSER    Estimated Free Energy of Binding    = -10.23 kcal/mol  [=(1)+(2)+(3)-(4)]USERUSER    (1) Final Intermolecular Energy     = -13.52 kcal/molUSER        vdW + Hbond + desolv Energy     = -13.49 kcal/molUSER        Electrostatic Energy            =  -0.03 kcal/molUSER        Moving Ligand-Fixed Receptor    = -13.52 kcal/molUSER        Moving Ligand-Moving Receptor   =  +0.00 kcal/molUSER    (2) Final Total Internal Energy     =  -1.70 kcal/molUSER    (3) Torsional Free Energy           =  +3.28 kcal/molUSER    (4) Unbound System's Energy         =  -1.70 kcal/molUSERUSERREMARK SMILES CCCCCNCc1ccc(NC(=O)CCc2cn(-c3ccncc3)nc2C)cc1CREMARK SMILES IDX 7 1 6 2 5 4 4 5 3 6 2 7 1 8 8 9 9 10 30 11 10 12 29 13 11 14REMARK SMILES IDX 31 15 12 16 13 17 14 19 15 20 16 21 17 22 18 23 27 24 19 25REMARK SMILES IDX 26 26 28 27 20 28 21 29 25 30 22 31 24 32 23 33REMARK H PARENT 6 3 12 18USER                              x       y       z     vdW  Elec       q    TypeUSER                           _______ _______ _______ _____ _____    ______ ____ROOTATOM      1  C   UNL     1      41.056  47.454  17.005 -0.43 -0.01    +0.117 C  ENDROOTBRANCH   1   2ATOM      2  N   UNL     1      41.033  48.870  16.634 -0.62 +0.03    -0.313 NA ATOM      3  H   UNL     1      40.099  49.237  16.808 +0.08 -0.04    +0.123 HD BRANCH   2   4ATOM      4  C   UNL     1      41.412  49.142  15.247 -0.59 -0.01    +0.081 C  BRANCH   4   5ATOM      5  C   UNL     1      41.814  50.590  14.935 -0.69 -0.00    +0.015 C  BRANCH   5   6ATOM      6  C   UNL     1      42.937  50.764  13.907 -0.62 -0.00    +0.001 C  BRANCH   6   7ATOM      7  C   UNL     1      42.492  50.497  12.468 -0.72 +0.00    -0.003 C  ATOM      8  C   UNL     1      43.077  51.521  11.508 -0.60 -0.00    +0.004 C  ENDBRANCH   6   7ENDBRANCH   5   6ENDBRANCH   4   5ENDBRANCH   2   4ENDBRANCH   1   2BRANCH   1   9ATOM      9  C   UNL     1      39.692  46.864  17.297 -0.45 +0.01    -0.031 A  ATOM     10  C   UNL     1      39.534  46.063  18.440 -0.42 -0.00    +0.007 A  ATOM     11  C   UNL     1      38.573  47.085  16.468 -0.39 +0.02    -0.045 A  ATOM     12  C   UNL     1      38.299  45.496  18.767 -0.33 -0.00    +0.026 A  ATOM     13  C   UNL     1      37.334  46.515  16.817 -0.32 -0.01    +0.029 A  ATOM     14  C   UNL     1      37.188  45.718  17.960 -0.27 -0.01    +0.041 A  ATOM     15  C   UNL     1      38.654  47.952  15.241 -0.54 -0.02    +0.045 C  BRANCH  14  16ATOM     16  N   UNL     1      35.904  45.188  18.215 -0.14 +0.11    -0.326 N  ATOM     17  C   UNL     1      34.744  45.887  18.508 -0.29 -0.12    +0.224 C  ATOM     18  H   UNL     1      35.832  44.180  18.178 +0.12 -0.05    +0.169 HD ATOM     19  O   UNL     1      34.623  47.103  18.597 -0.86 +0.19    -0.275 OA BRANCH  17  20ATOM     20  C   UNL     1      33.574  44.944  18.724 -0.42 -0.04    +0.105 C  BRANCH  20  21ATOM     21  C   UNL     1      33.113  44.304  17.417 -0.34 -0.02    +0.049 C  BRANCH  21  22ATOM     22  C   UNL     1      34.155  44.400  16.353 -0.31 +0.00    -0.006 A  ATOM     23  C   UNL     1      34.365  45.441  15.472 -0.24 -0.10    +0.119 A  ATOM     24  C   UNL     1      35.151  43.453  16.012 -0.34 -0.03    +0.063 A  ATOM     25  N   UNL     1      35.431  45.098  14.672 -0.19 +0.13    -0.240 N  ATOM     26  N   UNL     1      35.924  43.881  15.010 -0.21 +0.07    -0.173 NA ATOM     27  C   UNL     1      35.398  42.123  16.625 -0.32 -0.03    +0.069 C  BRANCH  25  28ATOM     28  C   UNL     1      36.014  45.851  13.617 -0.41 -0.04    +0.068 A  ATOM     29  C   UNL     1      36.635  45.228  12.532 -0.49 -0.02    +0.048 A  ATOM     30  C   UNL     1      35.967  47.249  13.663 -0.44 -0.03    +0.048 A  ATOM     31  C   UNL     1      37.176  46.033  11.542 -0.27 -0.03    +0.113 A  ATOM     32  C   UNL     1      36.539  47.960  12.623 -0.53 -0.05    +0.113 A  ATOM     33  N   UNL     1      37.142  47.382  11.562 -0.91 +0.07    -0.265 NA ENDBRANCH  25  28ENDBRANCH  21  22ENDBRANCH  20  21ENDBRANCH  17  20ENDBRANCH  14  16ENDBRANCH   1   9TORSDOF 11TERENDMDL