REMARK SMILES Cn1ccc2nc(-c3nc4ccc(Cl)cc4[nH]c3=O)ccc21
REMARK SMILES IDX 8 1 9 2 10 3 11 4 12 5 13 6 14 7 15 8 16 9 17 10 18 11 19 12
REMARK SMILES IDX 7 14 2 15 3 16 22 17 4 18 21 19 5 20 20 21 6 22 1 23
REMARK H PARENT 17 13
ROOT
ATOM      1  C   UNL     1       0.925  -0.170  -0.231  1.00  0.00     0.154 A 
ATOM      2  N   UNL     1       1.652   0.773   0.313  1.00  0.00    -0.239 NA
ATOM      3  C   UNL     1       3.046   0.616   0.352  1.00  0.00     0.088 A 
ATOM      4  C   UNL     1       3.817   1.621   0.938  1.00  0.00     0.032 A 
ATOM      5  C   UNL     1       5.207   1.494   1.015  1.00  0.00     0.023 A 
ATOM      6  C   UNL     1       5.827   0.354   0.505  1.00  0.00     0.043 A 
ATOM      7  Cl  UNL     1       7.538   0.200   0.601  1.00  0.00    -0.084 Cl
ATOM      8  C   UNL     1       5.074  -0.661  -0.083  1.00  0.00     0.049 A 
ATOM      9  C   UNL     1       3.688  -0.523  -0.154  1.00  0.00     0.069 A 
ATOM     10  N   UNL     1       2.920  -1.519  -0.757  1.00  0.00    -0.319 N 
ATOM     11  C   UNL     1       1.557  -1.399  -0.904  1.00  0.00     0.276 A 
ATOM     12  O   UNL     1       0.921  -2.195  -1.576  1.00  0.00    -0.267 OA
ATOM     13  H   UNL     1       3.347  -2.326  -1.190  1.00  0.00     0.170 HD
ENDROOT
BRANCH   1  14
ATOM     14  C   UNL     1      -0.556  -0.058  -0.215  1.00  0.00     0.095 A 
ATOM     15  N   UNL     1      -4.588  -0.102  -0.012  1.00  0.00    -0.349 N 
ATOM     16  C   UNL     1      -4.802  -1.451   0.118  1.00  0.00     0.088 A 
ATOM     17  C   UNL     1      -3.238   0.159  -0.096  1.00  0.00     0.067 A 
ATOM     18  C   UNL     1      -3.574  -2.075   0.118  1.00  0.00     0.048 A 
ATOM     19  C   UNL     1      -2.514   1.346  -0.231  1.00  0.00     0.031 A 
ATOM     20  C   UNL     1      -2.587  -1.072  -0.015  1.00  0.00     0.089 A 
ATOM     21  C   UNL     1      -1.128   1.212  -0.285  1.00  0.00     0.033 A 
ATOM     22  N   UNL     1      -1.242  -1.210  -0.060  1.00  0.00    -0.244 NA
ATOM     23  C   UNL     1      -5.631   0.899  -0.054  1.00  0.00     0.149 C 
ENDBRANCH   1  14
TORSDOF 1
