MODEL        9USER    Run = 9USERUSER    Estimated Free Energy of Binding    =  -8.86 kcal/mol  [=(1)+(2)+(3)-(4)]USERUSER    (1) Final Intermolecular Energy     = -11.84 kcal/molUSER        vdW + Hbond + desolv Energy     = -11.73 kcal/molUSER        Electrostatic Energy            =  -0.11 kcal/molUSER        Moving Ligand-Fixed Receptor    = -11.84 kcal/molUSER        Moving Ligand-Moving Receptor   =  +0.00 kcal/molUSER    (2) Final Total Internal Energy     =  -2.35 kcal/molUSER    (3) Torsional Free Energy           =  +2.98 kcal/molUSER    (4) Unbound System's Energy         =  -2.35 kcal/molUSERUSERREMARK SMILES Cc1cc(F)ccc1C=N[C@H]1C=CN1Cc1ccc(NC(=O)CC(C)(C)O)cc1NREMARK SMILES IDX 16 1 17 2 18 3 19 4 28 5 29 6 15 7 14 8 11 9 12 10 13 11REMARK SMILES IDX 10 12 9 13 8 14 2 15 3 16 4 17 7 18 6 19 1 20 5 21 30 22REMARK SMILES IDX 20 25 21 26 22 28 23 29 24 30 25 31 26 32 27 33REMARK H PARENT 30 23 30 24 20 27 27 34USER                              x       y       z     vdW  Elec       q    TypeUSER                           _______ _______ _______ _____ _____    ______ ____ROOTATOM      1  C   UNL     1      34.968  45.230  16.622 -0.32 +0.00    -0.005 A  ATOM      2  C   UNL     1      33.630  45.417  17.012 -0.33 -0.01    +0.010 A  ATOM      3  C   UNL     1      32.777  44.325  17.200 -0.29 -0.01    +0.026 A  ATOM      4  C   UNL     1      33.250  43.027  17.023 -0.31 -0.02    +0.043 A  ATOM      5  C   UNL     1      34.580  42.839  16.624 -0.38 -0.02    +0.052 A  ATOM      6  C   UNL     1      35.425  43.925  16.355 -0.33 -0.02    +0.039 A  ENDROOTBRANCH   1   7ATOM      7  C   UNL     1      35.869  46.439  16.462 -0.31 -0.14    +0.156 C  BRANCH   7   8ATOM      8  N   UNL     1      35.829  46.894  15.086 -0.12 +0.35    -0.349 N  ATOM      9  C   UNL     1      37.025  47.084  14.313 -0.35 -0.13    +0.225 C  ATOM     10  C   UNL     1      36.113  46.679  13.175 -0.62 -0.02    +0.039 C  ATOM     11  C   UNL     1      35.199  46.303  14.099 -0.43 -0.07    +0.083 C  BRANCH   9  12ATOM     12  N   UNL     1      38.043  46.072  14.562 -0.21 +0.09    -0.264 NA BRANCH  12  13ATOM     13  C   UNL     1      39.278  46.447  14.685 -0.41 -0.03    +0.116 C  BRANCH  13  14ATOM     14  C   UNL     1      39.999  46.762  15.932 -0.47 +0.00    -0.005 A  ATOM     15  C   UNL     1      40.708  47.970  16.062 -0.52 +0.01    -0.039 A  ATOM     16  C   UNL     1      41.375  48.217  17.270 -0.44 -0.00    +0.043 A  ATOM     17  C   UNL     1      41.348  47.270  18.294 -0.43 -0.01    +0.123 A  ATOM     18  C   UNL     1      39.996  45.804  16.953 -0.34 -0.00    +0.013 A  ATOM     19  C   UNL     1      40.679  46.063  18.140 -0.46 -0.00    +0.040 A  ATOM     20  C   UNL     1      40.760  48.982  14.951 -0.66 -0.01    +0.045 C  ATOM     21  F   UNL     1      42.003  47.520  19.436 -0.11 -0.01    -0.207 F  ENDBRANCH  13  14ENDBRANCH  12  13ENDBRANCH   9  12ENDBRANCH   7   8ENDBRANCH   1   7BRANCH   6  22ATOM     22  N   UNL     1      36.768  43.672  16.014 -0.13 +0.13    -0.398 N  ATOM     23  H   UNL     1      37.105  44.257  15.257 +0.10 -0.05    +0.156 HD ATOM     24  H   UNL     1      37.374  43.755  16.832 +0.10 -0.04    +0.156 HD ENDBRANCH   6  22BRANCH   4  25ATOM     25  N   UNL     1      32.472  41.870  17.212 -0.13 +0.14    -0.326 N  ATOM     26  C   UNL     1      32.289  41.136  18.365 -0.30 -0.03    +0.227 C  ATOM     27  H   UNL     1      32.020  41.484  16.382 -0.43 -0.12    +0.169 HD ATOM     28  O   UNL     1      32.793  41.351  19.463 -0.51 -0.03    -0.275 OA BRANCH  26  29ATOM     29  C   UNL     1      31.303  39.990  18.179 -0.36 -0.01    +0.135 C  BRANCH  29  30ATOM     30  C   UNL     1      31.588  38.757  19.054 -0.48 +0.01    +0.068 C  ATOM     31  C   UNL     1      32.682  37.906  18.400 -0.37 +0.00    +0.042 C  ATOM     32  C   UNL     1      30.331  37.911  19.283 -0.45 +0.01    +0.042 C  BRANCH  30  33ATOM     33  O   UNL     1      32.092  39.197  20.328 -1.04 -0.15    -0.390 OA ATOM     34  H   UNL     1      31.864  40.142  20.421 +0.12 +0.07    +0.211 HD ENDBRANCH  30  33ENDBRANCH  29  30ENDBRANCH  26  29ENDBRANCH   4  25TORSDOF 10TERENDMDL