REMARK SMILES Cc1cc(F)ccc1C=N[C@H]1C=CN1Cc1ccc(NC(=O)CC(C)(C)O)cc1N
REMARK SMILES IDX 16 1 17 2 18 3 19 4 28 5 29 6 15 7 14 8 11 9 12 10 13 11
REMARK SMILES IDX 10 12 9 13 8 14 2 15 3 16 4 17 7 18 6 19 1 20 5 21 30 22
REMARK SMILES IDX 20 25 21 26 22 28 23 29 24 30 25 31 26 32 27 33
REMARK H PARENT 30 23 30 24 20 27 27 34
ROOT
ATOM      1  C   UNL     1      -0.116   0.360  -1.660  1.00  0.00    -0.005 A 
ATOM      2  C   UNL     1      -0.385  -0.890  -1.075  1.00  0.00     0.010 A 
ATOM      3  C   UNL     1      -1.545  -1.097  -0.322  1.00  0.00     0.026 A 
ATOM      4  C   UNL     1      -2.468  -0.066  -0.159  1.00  0.00     0.043 A 
ATOM      5  C   UNL     1      -2.197   1.183  -0.732  1.00  0.00     0.052 A 
ATOM      6  C   UNL     1      -1.001   1.429  -1.422  1.00  0.00     0.039 A 
ENDROOT
BRANCH   1   7
ATOM      7  C   UNL     1       1.137   0.532  -2.496  1.00  0.00     0.156 C 
BRANCH   7   8
ATOM      8  N   UNL     1       2.121   1.286  -1.745  1.00  0.00    -0.349 N 
ATOM      9  C   UNL     1       3.094   0.644  -0.905  1.00  0.00     0.225 C 
ATOM     10  C   UNL     1       3.937   1.831  -1.316  1.00  0.00     0.039 C 
ATOM     11  C   UNL     1       3.001   2.118  -2.250  1.00  0.00     0.083 C 
BRANCH   9  12
ATOM     12  N   UNL     1       3.615  -0.596  -1.466  1.00  0.00    -0.264 NA
BRANCH  12  13
ATOM     13  C   UNL     1       4.564  -1.215  -0.835  1.00  0.00     0.116 C 
BRANCH  13  14
ATOM     14  C   UNL     1       5.166  -0.849   0.460  1.00  0.00    -0.005 A 
ATOM     15  C   UNL     1       6.470  -0.327   0.519  1.00  0.00    -0.039 A 
ATOM     16  C   UNL     1       6.992   0.004   1.778  1.00  0.00     0.043 A 
ATOM     17  C   UNL     1       6.236  -0.210   2.930  1.00  0.00     0.123 A 
ATOM     18  C   UNL     1       4.421  -1.085   1.622  1.00  0.00     0.013 A 
ATOM     19  C   UNL     1       4.964  -0.764   2.864  1.00  0.00     0.040 A 
ATOM     20  C   UNL     1       7.298  -0.119  -0.719  1.00  0.00     0.045 C 
ATOM     21  F   UNL     1       6.758   0.101   4.125  1.00  0.00    -0.207 F 
ENDBRANCH  13  14
ENDBRANCH  12  13
ENDBRANCH   9  12
ENDBRANCH   7   8
ENDBRANCH   1   7
BRANCH   6  22
ATOM     22  N   UNL     1      -0.813   2.688  -2.026  1.00  0.00    -0.398 N 
ATOM     23  H   UNL     1      -1.272   3.442  -1.526  1.00  0.00     0.156 HD
ATOM     24  H   UNL     1       0.181   2.888  -2.150  1.00  0.00     0.156 HD
ENDBRANCH   6  22
BRANCH   4  25
ATOM     25  N   UNL     1      -3.671  -0.190   0.560  1.00  0.00    -0.326 N 
ATOM     26  C   UNL     1      -4.174  -1.297   1.211  1.00  0.00     0.227 C 
ATOM     27  H   UNL     1      -4.286   0.625   0.564  1.00  0.00     0.169 HD
ATOM     28  O   UNL     1      -3.661  -2.410   1.274  1.00  0.00    -0.275 OA
BRANCH  26  29
ATOM     29  C   UNL     1      -5.476  -1.004   1.944  1.00  0.00     0.135 C 
BRANCH  29  30
ATOM     30  C   UNL     1      -6.588  -0.419   1.056  1.00  0.00     0.068 C 
ATOM     31  C   UNL     1      -7.848  -0.186   1.898  1.00  0.00     0.042 C 
ATOM     32  C   UNL     1      -6.913  -1.329  -0.134  1.00  0.00     0.042 C 
BRANCH  30  33
ATOM     33  O   UNL     1      -6.162   0.863   0.560  1.00  0.00    -0.390 OA
ATOM     34  H   UNL     1      -6.899   1.231   0.035  1.00  0.00     0.211 HD
ENDBRANCH  30  33
ENDBRANCH  29  30
ENDBRANCH  26  29
ENDBRANCH   4  25
TORSDOF 10
