REMARK SMILES C[C@H]1CN(Cc2ccc(-c3n[nH]c4c3C(=O)c3c(NC(=O)NN5CCNCC5)cccc3-4)cc2)CCN1C
REMARK SMILES IDX 10 1 11 2 12 3 13 4 14 5 15 6 16 7 17 8 18 9 29 10 30 11
REMARK SMILES IDX 31 12 32 13 9 15 6 16 7 17 34 18 8 19 33 20 5 21 4 22 2 23
REMARK SMILES IDX 3 24 37 25 36 26 35 27 1 28 38 29 19 30 20 31 22 32 21 34
REMARK SMILES IDX 23 36 24 37 28 38 25 39 27 40 26 41
REMARK H PARENT 12 14 19 33 22 35 26 42
ROOT
ATOM      1  C   UNL     1      -0.647   3.364  -0.647  1.00  0.00     0.104 A 
ATOM      2  N   UNL     1      -0.884   4.697  -0.514  1.00  0.00    -0.174 NA
ATOM      3  N   UNL     1       0.296   5.255  -0.172  1.00  0.00    -0.276 N 
ATOM      4  C   UNL     1       1.266   4.333  -0.083  1.00  0.00     0.078 A 
ATOM      5  C   UNL     1       0.713   3.113  -0.381  1.00  0.00     0.076 A 
ATOM      6  C   UNL     1       1.754   2.112  -0.288  1.00  0.00     0.200 C 
ATOM      7  O   UNL     1       1.701   0.906  -0.466  1.00  0.00    -0.288 OA
ATOM      8  C   UNL     1       2.994   2.872   0.099  1.00  0.00     0.056 A 
ATOM      9  C   UNL     1       4.276   2.396   0.320  1.00  0.00     0.054 A 
ATOM     10  C   UNL     1       5.228   3.353   0.688  1.00  0.00     0.027 A 
ATOM     11  C   UNL     1       4.891   4.724   0.812  1.00  0.00     0.003 A 
ATOM     12  C   UNL     1       3.592   5.185   0.577  1.00  0.00     0.011 A 
ATOM     13  C   UNL     1       2.657   4.243   0.221  1.00  0.00     0.014 A 
ATOM     14  H   UNL     1       0.336   6.258  -0.020  1.00  0.00     0.190 HD
ENDROOT
BRANCH   1  15
ATOM     15  C   UNL     1      -1.743   2.452  -1.010  1.00  0.00     0.003 A 
ATOM     16  C   UNL     1      -3.910   0.749  -1.692  1.00  0.00    -0.034 A 
ATOM     17  C   UNL     1      -2.610   0.243  -1.561  1.00  0.00     0.006 A 
ATOM     18  C   UNL     1      -4.121   2.115  -1.482  1.00  0.00     0.006 A 
ATOM     19  C   UNL     1      -1.540   1.085  -1.227  1.00  0.00     0.011 A 
ATOM     20  C   UNL     1      -3.051   2.951  -1.145  1.00  0.00     0.011 A 
BRANCH  16  21
ATOM     21  C   UNL     1      -5.063  -0.164  -2.051  1.00  0.00     0.120 C 
BRANCH  21  22
ATOM     22  N   UNL     1      -5.365  -1.172  -1.023  1.00  0.00    -0.296 NA
ATOM     23  C   UNL     1      -6.488  -1.508   1.248  1.00  0.00     0.067 C 
ATOM     24  C   UNL     1      -5.765  -0.549   0.257  1.00  0.00     0.103 C 
ATOM     25  N   UNL     1      -7.666  -2.199   0.669  1.00  0.00    -0.301 NA
ATOM     26  C   UNL     1      -7.762  -2.004  -0.788  1.00  0.00     0.100 C 
ATOM     27  C   UNL     1      -6.393  -2.124  -1.494  1.00  0.00     0.100 C 
ATOM     28  C   UNL     1      -5.529  -2.579   1.781  1.00  0.00     0.026 C 
ATOM     29  C   UNL     1      -8.910  -1.804   1.325  1.00  0.00     0.105 C 
ENDBRANCH  21  22
ENDBRANCH  16  21
ENDBRANCH   1  15
BRANCH   9  30
ATOM     30  N   UNL     1       4.534   1.016   0.181  1.00  0.00    -0.306 N 
ATOM     31  C   UNL     1       5.761   0.380   0.256  1.00  0.00     0.333 C 
ATOM     32  N   UNL     1       5.600  -1.007   0.138  1.00  0.00    -0.270 N 
ATOM     33  H   UNL     1       3.746   0.446  -0.114  1.00  0.00     0.171 HD
ATOM     34  O   UNL     1       6.846   0.938   0.381  1.00  0.00    -0.247 OA
ATOM     35  H   UNL     1       4.703  -1.361   0.451  1.00  0.00     0.187 HD
BRANCH  32  36
ATOM     36  N   UNL     1       6.734  -1.840   0.336  1.00  0.00    -0.217 NA
ATOM     37  C   UNL     1       6.380  -3.158   0.884  1.00  0.00     0.123 C 
ATOM     38  C   UNL     1       7.505  -1.998  -0.915  1.00  0.00     0.123 C 
ATOM     39  C   UNL     1       7.634  -4.021   1.173  1.00  0.00     0.098 C 
ATOM     40  C   UNL     1       8.582  -3.108  -0.833  1.00  0.00     0.098 C 
ATOM     41  N   UNL     1       8.878  -3.534   0.545  1.00  0.00    -0.314 NA
ATOM     42  H   UNL     1       9.140  -2.682   1.050  1.00  0.00     0.122 HD
ENDBRANCH  32  36
ENDBRANCH   9  30
TORSDOF 5
