MODEL        8USER    Run = 8USERUSER    Estimated Free Energy of Binding    =  -9.41 kcal/mol  [=(1)+(2)+(3)-(4)]USERUSER    (1) Final Intermolecular Energy     = -12.10 kcal/molUSER        vdW + Hbond + desolv Energy     = -12.04 kcal/molUSER        Electrostatic Energy            =  -0.06 kcal/molUSER        Moving Ligand-Fixed Receptor    = -12.10 kcal/molUSER        Moving Ligand-Moving Receptor   =  +0.00 kcal/molUSER    (2) Final Total Internal Energy     =  -2.86 kcal/molUSER    (3) Torsional Free Energy           =  +2.68 kcal/molUSER    (4) Unbound System's Energy         =  -2.86 kcal/molUSERUSERREMARK SMILES CCCCCC[C@@H](O)[C@@H]1CCc2cccc(-c3ccnc(NC(C)=O)c3)c2O1REMARK SMILES IDX 6 1 5 2 4 3 3 4 2 5 1 6 7 7 8 8 9 10 10 11 28 12 11 13 27 14REMARK SMILES IDX 12 15 16 16 13 17 15 18 14 19 17 20 18 21 26 22 19 23 21 24REMARK SMILES IDX 20 25 22 26 23 27 24 29 25 30REMARK H PARENT 8 9 22 28USER                              x       y       z     vdW  Elec       q    TypeUSER                           _______ _______ _______ _____ _____    ______ ____ROOTATOM      1  C   UNL     1      36.078  43.312  16.420 -0.45 -0.01    +0.036 C  ENDROOTBRANCH   1   2ATOM      2  C   UNL     1      34.833  42.572  16.923 -0.49 -0.00    +0.003 C  BRANCH   2   3ATOM      3  C   UNL     1      35.038  41.898  18.281 -0.40 -0.00    +0.000 C  BRANCH   3   4ATOM      4  C   UNL     1      34.677  42.725  19.520 -0.49 +0.00    -0.000 C  BRANCH   4   5ATOM      5  C   UNL     1      35.837  42.984  20.486 -0.51 +0.00    -0.003 C  ATOM      6  C   UNL     1      36.308  41.742  21.228 -0.61 +0.00    +0.004 C  ENDBRANCH   4   5ENDBRANCH   3   4ENDBRANCH   2   3ENDBRANCH   1   2BRANCH   1   7ATOM      7  C   UNL     1      36.592  44.330  17.446 -0.28 -0.05    +0.155 C  BRANCH   7   8ATOM      8  O   UNL     1      38.019  44.278  17.452 -0.14 +0.08    -0.389 OA ATOM      9  H   UNL     1      38.331  45.192  17.588 +0.14 -0.04    +0.211 HD ENDBRANCH   7   8BRANCH   7  10ATOM     10  C   UNL     1      36.058  45.762  17.184 -0.27 -0.11    +0.202 C  ATOM     11  C   UNL     1      34.655  45.887  16.588 -0.32 -0.05    +0.053 C  ATOM     12  O   UNL     1      37.042  46.502  16.442 -0.10 +0.29    -0.487 OA ATOM     13  C   UNL     1      34.628  45.496  15.124 -0.37 -0.03    +0.043 C  ATOM     14  C   UNL     1      36.899  46.609  15.082 -0.30 -0.08    +0.130 A  ATOM     15  C   UNL     1      35.766  46.148  14.396 -0.42 +0.00    -0.005 A  ATOM     16  C   UNL     1      37.963  47.217  14.383 -0.46 -0.01    +0.024 A  ATOM     17  C   UNL     1      35.706  46.275  13.001 -0.54 -0.00    +0.007 A  ATOM     18  C   UNL     1      37.869  47.344  12.987 -0.47 -0.00    +0.012 A  ATOM     19  C   UNL     1      36.751  46.874  12.300 -0.68 -0.00    +0.001 A  BRANCH  16  20ATOM     20  C   UNL     1      39.163  47.709  15.072 -0.51 +0.00    -0.009 A  ATOM     21  C   UNL     1      39.807  48.871  14.643 -0.45 -0.01    +0.029 A  ATOM     22  C   UNL     1      39.689  47.023  16.176 -0.44 -0.01    +0.056 A  ATOM     23  C   UNL     1      40.933  49.291  15.324 -0.55 -0.02    +0.114 A  ATOM     24  C   UNL     1      40.826  47.517  16.799 -0.39 -0.02    +0.133 A  ATOM     25  N   UNL     1      41.453  48.642  16.389 -0.85 +0.00    -0.239 NA BRANCH  24  26ATOM     26  N   UNL     1      41.446  46.920  17.897 -0.30 +0.02    -0.311 N  ATOM     27  C   UNL     1      40.868  46.225  18.932 -0.38 -0.00    +0.222 C  ATOM     28  H   UNL     1      42.449  47.045  17.875 -0.38 -0.02    +0.171 HD ATOM     29  C   UNL     1      41.882  45.710  19.924 -0.32 +0.02    +0.114 C  ATOM     30  O   UNL     1      39.674  45.992  19.082 -0.30 +0.02    -0.275 OA ENDBRANCH  24  26ENDBRANCH  16  20ENDBRANCH   7  10ENDBRANCH   1   7TORSDOF 9TERENDMDL