REMARK SMILES Cc1n[nH]cc1CC[C@H](N)COC(=O)c1ccc2ccccc2c1
REMARK SMILES IDX 9 1 8 2 7 3 6 4 2 5 3 6 4 7 5 8 1 9 10 11 11 14 12 15 13 16
REMARK SMILES IDX 14 17 15 18 16 19 24 20 17 21 23 22 18 23 22 24 19 25 21 26
REMARK SMILES IDX 20 27
REMARK H PARENT 4 10 10 12 10 13
ROOT
ATOM      1  C   UNL     1      -1.818   0.975  -0.559  1.00  0.00     0.089 C 
ENDROOT
BRANCH   1   2
ATOM      2  C   UNL     1      -1.775  -0.485  -0.059  1.00  0.00     0.027 C 
BRANCH   2   3
ATOM      3  C   UNL     1      -2.701  -0.786   1.128  1.00  0.00     0.041 C 
BRANCH   3   4
ATOM      4  C   UNL     1      -4.048  -1.301   0.732  1.00  0.00    -0.007 A 
ATOM      5  C   UNL     1      -5.314  -0.649   0.794  1.00  0.00     0.062 A 
ATOM      6  N   UNL     1      -6.302  -1.442   0.357  1.00  0.00    -0.181 NA
ATOM      7  N   UNL     1      -5.687  -2.586   0.033  1.00  0.00    -0.285 N 
ATOM      8  C   UNL     1      -4.342  -2.556   0.237  1.00  0.00     0.109 A 
ATOM      9  C   UNL     1      -5.638   0.724   1.258  1.00  0.00     0.069 C 
ATOM     10  H   UNL     1      -6.252  -3.350  -0.320  1.00  0.00     0.189 HD
ENDBRANCH   3   4
ENDBRANCH   2   3
ENDBRANCH   1   2
BRANCH   1  11
ATOM     11  N   UNL     1      -3.172   1.375  -0.948  1.00  0.00    -0.325 NA
ATOM     12  H   UNL     1      -3.558   0.723  -1.631  1.00  0.00     0.119 HD
ATOM     13  H   UNL     1      -3.160   2.295  -1.386  1.00  0.00     0.119 HD
ENDBRANCH   1  11
BRANCH   1  14
ATOM     14  C   UNL     1      -0.829   1.174  -1.733  1.00  0.00     0.251 C 
BRANCH  14  15
ATOM     15  O   UNL     1       0.517   0.827  -1.365  1.00  0.00    -0.460 OA
BRANCH  15  16
ATOM     16  C   UNL     1       1.208   1.787  -0.702  1.00  0.00     0.338 C 
ATOM     17  O   UNL     1       0.784   2.892  -0.404  1.00  0.00    -0.246 OA
BRANCH  16  18
ATOM     18  C   UNL     1       2.577   1.312  -0.365  1.00  0.00     0.060 A 
ATOM     19  C   UNL     1       3.421   2.180   0.336  1.00  0.00     0.016 A 
ATOM     20  C   UNL     1       3.040   0.037  -0.720  1.00  0.00     0.024 A 
ATOM     21  C   UNL     1       4.715   1.781   0.679  1.00  0.00     0.009 A 
ATOM     22  C   UNL     1       4.340  -0.376  -0.380  1.00  0.00    -0.018 A 
ATOM     23  C   UNL     1       5.188   0.507   0.328  1.00  0.00    -0.018 A 
ATOM     24  C   UNL     1       4.817  -1.650  -0.730  1.00  0.00     0.009 A 
ATOM     25  C   UNL     1       6.486   0.092   0.666  1.00  0.00     0.009 A 
ATOM     26  C   UNL     1       6.110  -2.048  -0.386  1.00  0.00     0.001 A 
ATOM     27  C   UNL     1       6.943  -1.178   0.311  1.00  0.00     0.001 A 
ENDBRANCH  16  18
ENDBRANCH  15  16
ENDBRANCH  14  15
ENDBRANCH   1  14
TORSDOF 8
