REMARK SMILES Cc1[nH]ncc1CC[C@H](N)COC(=O)c1ccc2ccccc2c1
REMARK SMILES IDX 9 1 8 2 7 3 6 4 2 5 3 6 4 7 5 8 1 9 10 11 11 14 12 15 13 16
REMARK SMILES IDX 14 17 15 18 16 19 24 20 17 21 23 22 18 23 22 24 19 25 21 26
REMARK SMILES IDX 20 27
REMARK H PARENT 3 10 10 12 10 13
ROOT
ATOM      1  C   UNL     1      -1.842   0.972   0.094  1.00  0.00     0.089 C 
ENDROOT
BRANCH   1   2
ATOM      2  C   UNL     1      -1.944  -0.296  -0.782  1.00  0.00     0.027 C 
BRANCH   2   3
ATOM      3  C   UNL     1      -2.821  -1.415  -0.203  1.00  0.00     0.041 C 
BRANCH   3   4
ATOM      4  C   UNL     1      -4.257  -1.337  -0.609  1.00  0.00    -0.007 A 
ATOM      5  C   UNL     1      -5.367  -1.038   0.160  1.00  0.00     0.035 A 
ATOM      6  N   UNL     1      -6.440  -1.104  -0.686  1.00  0.00    -0.283 N 
ATOM      7  N   UNL     1      -6.116  -1.432  -1.946  1.00  0.00    -0.184 NA
ATOM      8  C   UNL     1      -4.792  -1.582  -1.897  1.00  0.00     0.138 A 
ATOM      9  C   UNL     1      -5.531  -0.685   1.589  1.00  0.00     0.066 C 
ATOM     10  H   UNL     1      -7.417  -0.938  -0.470  1.00  0.00     0.190 HD
ENDBRANCH   3   4
ENDBRANCH   2   3
ENDBRANCH   1   2
BRANCH   1  11
ATOM     11  N   UNL     1      -3.156   1.573   0.339  1.00  0.00    -0.325 NA
ATOM     12  H   UNL     1      -3.646   1.730  -0.542  1.00  0.00     0.119 HD
ATOM     13  H   UNL     1      -3.053   2.479   0.793  1.00  0.00     0.119 HD
ENDBRANCH   1  11
BRANCH   1  14
ATOM     14  C   UNL     1      -0.884   2.000  -0.555  1.00  0.00     0.251 C 
BRANCH  14  15
ATOM     15  O   UNL     1       0.428   1.453  -0.764  1.00  0.00    -0.460 OA
BRANCH  15  16
ATOM     16  C   UNL     1       1.247   1.469   0.317  1.00  0.00     0.338 C 
ATOM     17  O   UNL     1       0.960   1.901   1.422  1.00  0.00    -0.246 OA
BRANCH  16  18
ATOM     18  C   UNL     1       2.568   0.871  -0.016  1.00  0.00     0.060 A 
ATOM     19  C   UNL     1       2.873   0.388  -1.293  1.00  0.00     0.016 A 
ATOM     20  C   UNL     1       3.531   0.792   1.000  1.00  0.00     0.024 A 
ATOM     21  C   UNL     1       4.130  -0.167  -1.551  1.00  0.00     0.009 A 
ATOM     22  C   UNL     1       4.797   0.236   0.752  1.00  0.00    -0.018 A 
ATOM     23  C   UNL     1       5.100  -0.250  -0.540  1.00  0.00    -0.018 A 
ATOM     24  C   UNL     1       5.769   0.153   1.762  1.00  0.00     0.009 A 
ATOM     25  C   UNL     1       6.366  -0.806  -0.786  1.00  0.00     0.009 A 
ATOM     26  C   UNL     1       7.023  -0.403   1.502  1.00  0.00     0.001 A 
ATOM     27  C   UNL     1       7.321  -0.881   0.229  1.00  0.00     0.001 A 
ENDBRANCH  16  18
ENDBRANCH  15  16
ENDBRANCH  14  15
ENDBRANCH   1  14
TORSDOF 8
