MODEL        7USER    Run = 7USERUSER    Estimated Free Energy of Binding    =  -9.58 kcal/mol  [=(1)+(2)+(3)-(4)]USERUSER    (1) Final Intermolecular Energy     = -11.97 kcal/molUSER        vdW + Hbond + desolv Energy     = -11.75 kcal/molUSER        Electrostatic Energy            =  -0.22 kcal/molUSER        Moving Ligand-Fixed Receptor    = -11.97 kcal/molUSER        Moving Ligand-Moving Receptor   =  +0.00 kcal/molUSER    (2) Final Total Internal Energy     =  -1.82 kcal/molUSER    (3) Torsional Free Energy           =  +2.39 kcal/molUSER    (4) Unbound System's Energy         =  -1.82 kcal/molUSERUSERREMARK SMILES Cc1n[nH]cc1CC[C@H](N)COC(=O)c1ccc2ccccc2c1REMARK SMILES IDX 9 1 8 2 7 3 6 4 2 5 3 6 4 7 5 8 1 9 10 11 11 14 12 15 13 16REMARK SMILES IDX 14 17 15 18 16 19 24 20 17 21 23 22 18 23 22 24 19 25 21 26REMARK SMILES IDX 20 27REMARK H PARENT 4 10 10 12 10 13USER                              x       y       z     vdW  Elec       q    TypeUSER                           _______ _______ _______ _____ _____    ______ ____ROOTATOM      1  C   UNL     1      34.148  46.245  17.580 -0.36 -0.09    +0.089 C  ENDROOTBRANCH   1   2ATOM      2  C   UNL     1      35.507  46.543  16.912 -0.37 -0.03    +0.027 C  BRANCH   2   3ATOM      3  C   UNL     1      35.616  46.095  15.448 -0.39 -0.03    +0.041 C  BRANCH   3   4ATOM      4  C   UNL     1      36.342  47.063  14.568 -0.41 +0.01    -0.007 A  ATOM      5  C   UNL     1      36.577  47.001  13.164 -0.55 -0.03    +0.062 A  ATOM      6  N   UNL     1      37.280  48.056  12.732 -0.99 +0.03    -0.181 NA ATOM      7  N   UNL     1      37.506  48.777  13.837 -0.33 +0.15    -0.285 N  ATOM      8  C   UNL     1      36.968  48.229  14.961 -0.37 -0.10    +0.109 A  ATOM      9  C   UNL     1      36.154  45.963  12.189 -0.62 -0.03    +0.069 C  ATOM     10  H   UNL     1      38.040  49.634  13.750 -0.40 -0.13    +0.189 HD ENDBRANCH   3   4ENDBRANCH   2   3ENDBRANCH   1   2BRANCH   1  11ATOM     11  N   UNL     1      33.894  47.137  18.713 -0.90 +0.24    -0.325 NA ATOM     12  H   UNL     1      34.096  46.666  19.595 -0.50 -0.07    +0.119 HD ATOM     13  H   UNL     1      32.913  47.411  18.738 -0.48 -0.11    +0.119 HD ENDBRANCH   1  11BRANCH   1  14ATOM     14  C   UNL     1      34.077  44.763  18.023 -0.24 -0.10    +0.251 C  BRANCH  14  15ATOM     15  O   UNL     1      34.223  44.621  19.447 -0.16 +0.12    -0.460 OA BRANCH  15  16ATOM     16  C   UNL     1      35.070  43.643  19.853 -0.23 -0.03    +0.338 C  ATOM     17  O   UNL     1      34.749  42.510  20.171 -0.51 -0.01    -0.246 OA BRANCH  16  18ATOM     18  C   UNL     1      36.476  44.131  19.854 -0.35 -0.01    +0.060 A  ATOM     19  C   UNL     1      37.177  44.117  21.064 -0.38 +0.00    +0.016 A  ATOM     20  C   UNL     1      37.112  44.595  18.693 -0.34 -0.00    +0.024 A  ATOM     21  C   UNL     1      38.500  44.562  21.118 -0.36 +0.00    +0.009 A  ATOM     22  C   UNL     1      38.443  45.045  18.735 -0.38 +0.00    -0.018 A  ATOM     23  C   UNL     1      39.146  45.028  19.962 -0.37 +0.00    -0.018 A  ATOM     24  C   UNL     1      39.092  45.513  17.580 -0.41 -0.00    +0.009 A  ATOM     25  C   UNL     1      40.475  45.479  20.000 -0.40 +0.00    +0.009 A  ATOM     26  C   UNL     1      40.415  45.957  17.635 -0.47 -0.00    +0.001 A  ATOM     27  C   UNL     1      41.105  45.940  18.843 -0.48 +0.00    +0.001 A  ENDBRANCH  16  18ENDBRANCH  15  16ENDBRANCH  14  15ENDBRANCH   1  14TORSDOF 8TERENDMDL