MODEL        7USER    Run = 7USERUSER    Estimated Free Energy of Binding    =  -8.42 kcal/mol  [=(1)+(2)+(3)-(4)]USERUSER    (1) Final Intermolecular Energy     = -10.81 kcal/molUSER        vdW + Hbond + desolv Energy     = -10.68 kcal/molUSER        Electrostatic Energy            =  -0.13 kcal/molUSER        Moving Ligand-Fixed Receptor    = -10.81 kcal/molUSER        Moving Ligand-Moving Receptor   =  +0.00 kcal/molUSER    (2) Final Total Internal Energy     =  -2.45 kcal/molUSER    (3) Torsional Free Energy           =  +2.39 kcal/molUSER    (4) Unbound System's Energy         =  -2.45 kcal/molUSERUSERREMARK SMILES Cc1[nH]ncc1CC[C@H](N)COC(=O)c1ccc2ccccc2c1REMARK SMILES IDX 9 1 8 2 7 3 6 4 2 5 3 6 4 7 5 8 1 9 10 11 11 14 12 15 13 16REMARK SMILES IDX 14 17 15 18 16 19 24 20 17 21 23 22 18 23 22 24 19 25 21 26REMARK SMILES IDX 20 27REMARK H PARENT 3 10 10 12 10 13USER                              x       y       z     vdW  Elec       q    TypeUSER                           _______ _______ _______ _____ _____    ______ ____ROOTATOM      1  C   UNL     1      42.643  46.613  19.675 -0.40 +0.02    +0.089 C  ENDROOTBRANCH   1   2ATOM      2  C   UNL     1      42.552  47.076  21.146 -0.36 +0.00    +0.027 C  BRANCH   2   3ATOM      3  C   UNL     1      43.193  46.125  22.166 -0.28 +0.01    +0.041 C  BRANCH   3   4ATOM      4  C   UNL     1      42.661  44.729  22.118 -0.24 -0.00    -0.007 A  ATOM      5  C   UNL     1      43.342  43.530  22.229 -0.27 +0.01    +0.035 A  ATOM      6  N   UNL     1      42.396  42.549  22.115 -0.18 +0.02    -0.283 N  ATOM      7  N   UNL     1      41.152  43.015  21.928 -0.23 -0.00    -0.184 NA ATOM      8  C   UNL     1      41.314  44.338  21.922 -0.21 +0.01    +0.138 A  ATOM      9  C   UNL     1      44.770  43.205  22.444 -0.29 +0.02    +0.066 C  ATOM     10  H   UNL     1      42.531  41.544  22.154 -0.51 -0.08    +0.190 HD ENDBRANCH   3   4ENDBRANCH   2   3ENDBRANCH   1   2BRANCH   1  11ATOM     11  N   UNL     1      43.447  47.531  18.863 -0.29 -0.06    -0.325 NA ATOM     12  H   UNL     1      43.178  48.498  19.047 -0.49 -0.01    +0.119 HD ATOM     13  H   UNL     1      43.291  47.358  17.872 -0.54 -0.02    +0.119 HD ENDBRANCH   1  11BRANCH   1  14ATOM     14  C   UNL     1      41.227  46.449  19.073 -0.35 +0.01    +0.251 C  BRANCH  14  15ATOM     15  O   UNL     1      41.243  46.520  17.638 -0.19 +0.04    -0.460 OA BRANCH  15  16ATOM     16  C   UNL     1      41.058  47.756  17.112 -0.31 -0.04    +0.338 C  ATOM     17  O   UNL     1      41.713  48.751  17.381 -0.84 -0.02    -0.246 OA BRANCH  16  18ATOM     18  C   UNL     1      39.936  47.749  16.135 -0.48 -0.02    +0.060 A  ATOM     19  C   UNL     1      39.343  48.925  15.664 -0.49 -0.01    +0.016 A  ATOM     20  C   UNL     1      39.465  46.509  15.681 -0.43 -0.01    +0.024 A  ATOM     21  C   UNL     1      38.289  48.861  14.747 -0.38 -0.01    +0.009 A  ATOM     22  C   UNL     1      38.407  46.432  14.760 -0.41 +0.01    -0.018 A  ATOM     23  C   UNL     1      37.812  47.624  14.288 -0.50 +0.01    -0.018 A  ATOM     24  C   UNL     1      37.928  45.196  14.299 -0.34 -0.00    +0.009 A  ATOM     25  C   UNL     1      36.753  47.545  13.368 -0.59 -0.00    +0.009 A  ATOM     26  C   UNL     1      36.875  45.134  13.384 -0.48 -0.00    +0.001 A  ATOM     27  C   UNL     1      36.289  46.308  12.919 -0.59 -0.00    +0.001 A  ENDBRANCH  16  18ENDBRANCH  15  16ENDBRANCH  14  15ENDBRANCH   1  14TORSDOF 8TERENDMDL