REMARK SMILES N[C@@H](CCc1cn[nH]c1)COC(=O)c1ccc2ccccc2c1
REMARK SMILES IDX 2 1 1 2 3 5 4 6 5 7 6 8 9 9 7 10 8 11 10 13 11 14 12 15
REMARK SMILES IDX 13 16 14 17 15 18 23 19 16 20 22 21 17 22 21 23 18 24 20 25
REMARK SMILES IDX 19 26
REMARK H PARENT 1 3 1 4 8 12
ROOT
ATOM      1  C   UNL     1      -1.900   0.538   0.300  1.00  0.00     0.089 C 
ENDROOT
BRANCH   1   2
ATOM      2  N   UNL     1      -1.154   1.781   0.045  1.00  0.00    -0.325 NA
ATOM      3  H   UNL     1      -1.744   2.598   0.189  1.00  0.00     0.119 HD
ATOM      4  H   UNL     1      -0.846   1.808  -0.931  1.00  0.00     0.119 HD
ENDBRANCH   1   2
BRANCH   1   5
ATOM      5  C   UNL     1      -3.351   0.707  -0.184  1.00  0.00     0.027 C 
BRANCH   5   6
ATOM      6  C   UNL     1      -4.249  -0.488   0.158  1.00  0.00     0.040 C 
BRANCH   6   7
ATOM      7  C   UNL     1      -5.677  -0.230  -0.178  1.00  0.00    -0.010 A 
ATOM      8  C   UNL     1      -6.330  -0.443  -1.414  1.00  0.00     0.138 A 
ATOM      9  C   UNL     1      -6.669   0.269   0.639  1.00  0.00     0.108 A 
ATOM     10  N   UNL     1      -7.620  -0.105  -1.379  1.00  0.00    -0.184 NA
ATOM     11  N   UNL     1      -7.802   0.324  -0.120  1.00  0.00    -0.285 N 
ATOM     12  H   UNL     1      -8.727   0.640   0.152  1.00  0.00     0.189 HD
ENDBRANCH   6   7
ENDBRANCH   5   6
ENDBRANCH   1   5
BRANCH   1  13
ATOM     13  C   UNL     1      -1.207  -0.687  -0.343  1.00  0.00     0.251 C 
BRANCH  13  14
ATOM     14  O   UNL     1       0.164  -0.789   0.081  1.00  0.00    -0.460 OA
BRANCH  14  15
ATOM     15  C   UNL     1       1.076  -0.221  -0.749  1.00  0.00     0.338 C 
ATOM     16  O   UNL     1       0.838   0.307  -1.825  1.00  0.00    -0.246 OA
BRANCH  15  17
ATOM     17  C   UNL     1       2.446  -0.339  -0.179  1.00  0.00     0.060 A 
ATOM     18  C   UNL     1       2.686  -0.864   1.095  1.00  0.00     0.016 A 
ATOM     19  C   UNL     1       3.526   0.100  -0.959  1.00  0.00     0.024 A 
ATOM     20  C   UNL     1       3.993  -0.954   1.582  1.00  0.00     0.009 A 
ATOM     21  C   UNL     1       4.843   0.014  -0.480  1.00  0.00    -0.018 A 
ATOM     22  C   UNL     1       5.080  -0.520   0.807  1.00  0.00    -0.018 A 
ATOM     23  C   UNL     1       5.931   0.449  -1.254  1.00  0.00     0.009 A 
ATOM     24  C   UNL     1       6.398  -0.605   1.284  1.00  0.00     0.009 A 
ATOM     25  C   UNL     1       7.236   0.358  -0.765  1.00  0.00     0.001 A 
ATOM     26  C   UNL     1       7.469  -0.168   0.502  1.00  0.00     0.001 A 
ENDBRANCH  15  17
ENDBRANCH  14  15
ENDBRANCH  13  14
ENDBRANCH   1  13
TORSDOF 8
