MODEL        4USER    Run = 4USERUSER    Estimated Free Energy of Binding    =  -8.90 kcal/mol  [=(1)+(2)+(3)-(4)]USERUSER    (1) Final Intermolecular Energy     = -11.29 kcal/molUSER        vdW + Hbond + desolv Energy     = -11.10 kcal/molUSER        Electrostatic Energy            =  -0.19 kcal/molUSER        Moving Ligand-Fixed Receptor    = -11.29 kcal/molUSER        Moving Ligand-Moving Receptor   =  +0.00 kcal/molUSER    (2) Final Total Internal Energy     =  -1.78 kcal/molUSER    (3) Torsional Free Energy           =  +2.39 kcal/molUSER    (4) Unbound System's Energy         =  -1.78 kcal/molUSERUSERREMARK SMILES N[C@@H](CCc1cn[nH]c1)COC(=O)c1ccc2ccccc2c1REMARK SMILES IDX 2 1 1 2 3 5 4 6 5 7 6 8 9 9 7 10 8 11 10 13 11 14 12 15REMARK SMILES IDX 13 16 14 17 15 18 23 19 16 20 22 21 17 22 21 23 18 24 20 25REMARK SMILES IDX 19 26REMARK H PARENT 1 3 1 4 8 12USER                              x       y       z     vdW  Elec       q    TypeUSER                           _______ _______ _______ _____ _____    ______ ____ROOTATOM      1  C   UNL     1      34.170  46.236  17.596 -0.38 -0.09    +0.089 C  ENDROOTBRANCH   1   2ATOM      2  N   UNL     1      33.922  47.161  18.714 -0.91 +0.24    -0.325 NA ATOM      3  H   UNL     1      34.121  46.717  19.608 -0.50 -0.06    +0.119 HD ATOM      4  H   UNL     1      32.934  47.429  18.731 -0.48 -0.11    +0.119 HD ENDBRANCH   1   2BRANCH   1   5ATOM      5  C   UNL     1      35.530  46.565  16.956 -0.37 -0.03    +0.027 C  BRANCH   5   6ATOM      6  C   UNL     1      35.661  46.061  15.513 -0.39 -0.03    +0.040 C  BRANCH   6   7ATOM      7  C   UNL     1      36.316  47.062  14.627 -0.40 +0.01    -0.010 A  ATOM      8  C   UNL     1      36.340  47.087  13.214 -0.48 -0.07    +0.138 A  ATOM      9  C   UNL     1      37.038  48.180  14.990 -0.38 -0.09    +0.108 A  ATOM     10  N   UNL     1      37.020  48.127  12.729 -1.01 +0.05    -0.184 NA ATOM     11  N   UNL     1      37.434  48.777  13.828 -0.33 +0.15    -0.285 N  ATOM     12  H   UNL     1      37.982  49.622  13.710 -0.40 -0.13    +0.189 HD ENDBRANCH   6   7ENDBRANCH   5   6ENDBRANCH   1   5BRANCH   1  13ATOM     13  C   UNL     1      34.077  44.758  18.046 -0.24 -0.10    +0.251 C  BRANCH  13  14ATOM     14  O   UNL     1      34.262  44.636  19.467 -0.16 +0.12    -0.460 OA BRANCH  14  15ATOM     15  C   UNL     1      35.070  43.620  19.866 -0.23 -0.03    +0.338 C  ATOM     16  O   UNL     1      34.713  42.483  20.139 -0.51 -0.01    -0.246 OA BRANCH  15  17ATOM     17  C   UNL     1      36.484  44.078  19.949 -0.36 -0.00    +0.060 A  ATOM     18  C   UNL     1      37.215  44.041  21.140 -0.39 +0.00    +0.016 A  ATOM     19  C   UNL     1      37.090  44.564  18.781 -0.34 -0.00    +0.024 A  ATOM     20  C   UNL     1      38.542  44.482  21.163 -0.35 +0.00    +0.009 A  ATOM     21  C   UNL     1      38.422  45.009  18.793 -0.38 +0.00    -0.018 A  ATOM     22  C   UNL     1      39.157  44.968  19.999 -0.37 +0.00    -0.018 A  ATOM     23  C   UNL     1      39.038  45.497  17.629 -0.41 -0.00    +0.009 A  ATOM     24  C   UNL     1      40.489  45.413  20.008 -0.40 +0.00    +0.009 A  ATOM     25  C   UNL     1      40.363  45.937  17.654 -0.47 -0.00    +0.001 A  ATOM     26  C   UNL     1      41.087  45.895  18.842 -0.48 +0.00    +0.001 A  ENDBRANCH  15  17ENDBRANCH  14  15ENDBRANCH  13  14ENDBRANCH   1  13TORSDOF 8TERENDMDL