MODEL        4USER    Run = 4USERUSER    Estimated Free Energy of Binding    =  -9.67 kcal/mol  [=(1)+(2)+(3)-(4)]USERUSER    (1) Final Intermolecular Energy     = -12.35 kcal/molUSER        vdW + Hbond + desolv Energy     = -12.18 kcal/molUSER        Electrostatic Energy            =  -0.18 kcal/molUSER        Moving Ligand-Fixed Receptor    = -12.35 kcal/molUSER        Moving Ligand-Moving Receptor   =  +0.00 kcal/molUSER    (2) Final Total Internal Energy     =  -1.31 kcal/molUSER    (3) Torsional Free Energy           =  +2.68 kcal/molUSER    (4) Unbound System's Energy         =  -1.31 kcal/molUSERUSERREMARK SMILES C=c1c(Nc2cccc(C(F)(F)F)c2)nccc1=CNC(=O)Nc1ccc(C(C)(C)C)c(OCC)c1REMARK SMILES IDX 19 1 18 2 2 3 3 4 15 5 17 6 16 7 1 8 4 9 5 11 6 12 14 13REMARK SMILES IDX 7 14 9 15 8 16 10 17 11 18 12 19 13 20 20 21 21 22 23 23REMARK SMILES IDX 22 25 24 27 25 28 36 29 26 30 32 31 27 32 33 33 34 34 35 35REMARK SMILES IDX 28 36 29 37 30 38 31 39REMARK H PARENT 4 10 20 24 23 26USER                              x       y       z     vdW  Elec       q    TypeUSER                           _______ _______ _______ _____ _____    ______ ____ROOTATOM      1  C   UNL     1      30.433  37.302  19.655 -0.26 +0.03    +0.096 C  ENDROOTBRANCH   1   2ATOM      2  C   UNL     1      29.480  37.459  20.598 -0.34 +0.00    +0.002 A  ATOM      3  C   UNL     1      28.289  38.290  20.361 -0.26 -0.00    +0.019 A  ATOM      4  C   UNL     1      27.080  37.972  21.260 -0.22 -0.05    +0.137 A  ATOM      5  N   UNL     1      27.235  37.271  22.357 -0.22 +0.09    -0.239 NA ATOM      6  C   UNL     1      29.560  36.821  21.903 -0.36 -0.00    +0.030 A  ATOM      7  C   UNL     1      28.476  36.792  22.688 -0.26 -0.00    +0.114 A  ATOM      8  C   UNL     1      28.220  39.328  19.506 -0.26 +0.00    +0.022 C  BRANCH   4   9ATOM      9  N   UNL     1      25.823  38.417  20.869 -0.12 +0.22    -0.340 N  ATOM     10  H   UNL     1      25.159  37.698  20.623 -0.17 -0.25    +0.168 HD BRANCH   9  11ATOM     11  C   UNL     1      25.269  39.709  20.932 -0.33 -0.01    +0.040 A  ATOM     12  C   UNL     1      24.314  39.983  21.924 -0.42 -0.01    +0.026 A  ATOM     13  C   UNL     1      25.615  40.746  20.057 -0.30 -0.01    +0.039 A  ATOM     14  C   UNL     1      23.728  41.246  22.041 -0.55 -0.00    +0.003 A  ATOM     15  C   UNL     1      25.030  42.022  20.156 -0.41 -0.01    +0.058 A  ATOM     16  C   UNL     1      24.086  42.262  21.161 -0.55 -0.00    +0.013 A  BRANCH  15  17ATOM     17  C   UNL     1      25.432  43.127  19.212 -0.17 -0.10    +0.416 C  ATOM     18  F   UNL     1      24.486  43.429  18.280 -0.13 +0.02    -0.166 F  ATOM     19  F   UNL     1      26.564  42.829  18.516 -0.07 +0.02    -0.166 F  ATOM     20  F   UNL     1      25.695  44.297  19.862 -0.18 +0.07    -0.166 F  ENDBRANCH  15  17ENDBRANCH   9  11ENDBRANCH   4   9ENDBRANCH   1   2BRANCH   1  21ATOM     21  N   UNL     1      30.797  38.241  18.712 -0.23 -0.08    -0.314 N  ATOM     22  C   UNL     1      31.601  39.336  19.004 -0.26 +0.04    +0.323 C  ATOM     23  N   UNL     1      31.817  40.108  17.877 -0.23 +0.05    -0.308 N  ATOM     24  H   UNL     1      30.351  38.215  17.808 +0.09 +0.07    +0.171 HD ATOM     25  O   UNL     1      32.051  39.549  20.125 -1.11 -0.09    -0.248 OA ATOM     26  H   UNL     1      31.553  39.694  16.997 -0.05 -0.04    +0.171 HD BRANCH  23  27ATOM     27  C   UNL     1      32.513  41.332  17.799 -0.35 -0.01    +0.046 A  ATOM     28  C   UNL     1      33.852  41.490  18.130 -0.32 -0.01    +0.027 A  ATOM     29  C   UNL     1      31.800  42.456  17.377 -0.26 -0.02    +0.073 A  ATOM     30  C   UNL     1      34.462  42.752  18.060 -0.37 -0.00    +0.010 A  ATOM     31  C   UNL     1      32.421  43.713  17.263 -0.22 -0.04    +0.125 A  ATOM     32  C   UNL     1      33.765  43.903  17.646 -0.31 +0.00    -0.000 A  BRANCH  31  33ATOM     33  O   UNL     1      31.680  44.791  16.848 -0.47 +0.13    -0.493 OA BRANCH  33  34ATOM     34  C   UNL     1      31.047  44.624  15.572 -0.27 -0.11    +0.226 C  ATOM     35  C   UNL     1      31.283  45.868  14.735 -0.55 -0.03    +0.049 C  ENDBRANCH  33  34ENDBRANCH  31  33BRANCH  32  36ATOM     36  C   UNL     1      34.465  45.281  17.604 -0.42 +0.01    -0.010 C  ATOM     37  C   UNL     1      33.690  46.392  18.361 -0.54 -0.01    +0.016 C  ATOM     38  C   UNL     1      34.617  45.791  16.151 -0.32 -0.02    +0.016 C  ATOM     39  C   UNL     1      35.854  45.185  18.268 -0.39 -0.01    +0.016 C  ENDBRANCH  32  36ENDBRANCH  23  27ENDBRANCH   1  21TORSDOF 9TERENDMDL