MODEL        1USER    Run = 1USERUSER    Estimated Free Energy of Binding    =  -9.44 kcal/mol  [=(1)+(2)+(3)-(4)]USERUSER    (1) Final Intermolecular Energy     = -12.13 kcal/molUSER        vdW + Hbond + desolv Energy     = -11.48 kcal/molUSER        Electrostatic Energy            =  -0.65 kcal/molUSER        Moving Ligand-Fixed Receptor    = -12.13 kcal/molUSER        Moving Ligand-Moving Receptor   =  +0.00 kcal/molUSER    (2) Final Total Internal Energy     =  -1.55 kcal/molUSER    (3) Torsional Free Energy           =  +2.68 kcal/molUSER    (4) Unbound System's Energy         =  -1.55 kcal/molUSERUSERREMARK SMILES C=c1c(Nc2cccc(C(F)(F)F)c2)nccc1=CNC(=O)Nc1ccc(C(C)(C)C)c(OCF)c1REMARK SMILES IDX 19 1 18 2 2 3 3 4 15 5 17 6 16 7 1 8 4 9 5 11 6 12 14 13REMARK SMILES IDX 7 14 9 15 8 16 10 17 11 18 12 19 13 20 20 21 21 22 23 23REMARK SMILES IDX 22 25 24 27 25 28 36 29 26 30 32 31 27 32 33 33 34 34 35 35REMARK SMILES IDX 28 36 29 37 30 38 31 39REMARK H PARENT 4 10 20 24 23 26USER                              x       y       z     vdW  Elec       q    TypeUSER                           _______ _______ _______ _____ _____    ______ ____ROOTATOM      1  C   UNL     1      35.524  25.117  16.983 -0.24 -0.07    +0.096 C  ENDROOTBRANCH   1   2ATOM      2  C   UNL     1      35.839  26.006  16.017 -0.31 -0.00    +0.002 A  ATOM      3  C   UNL     1      37.124  25.947  15.303 -0.29 -0.01    +0.019 A  ATOM      4  C   UNL     1      37.582  27.272  14.669 -0.31 -0.04    +0.137 A  ATOM      5  N   UNL     1      36.724  28.248  14.485 -0.44 +0.02    -0.239 NA ATOM      6  C   UNL     1      34.947  27.086  15.626 -0.46 -0.01    +0.030 A  ATOM      7  C   UNL     1      35.423  28.095  14.886 -0.30 -0.03    +0.114 A  ATOM      8  C   UNL     1      37.852  24.832  15.107 -0.32 -0.01    +0.022 C  BRANCH   4   9ATOM      9  N   UNL     1      38.920  27.421  14.328 -0.18 +0.13    -0.340 N  ATOM     10  H   UNL     1      39.258  26.813  13.596 -0.37 -0.12    +0.168 HD BRANCH   9  11ATOM     11  C   UNL     1      39.941  28.125  14.994 -0.36 -0.01    +0.040 A  ATOM     12  C   UNL     1      41.161  28.327  14.329 -0.43 -0.01    +0.026 A  ATOM     13  C   UNL     1      39.815  28.637  16.290 -0.28 +0.00    +0.039 A  ATOM     14  C   UNL     1      42.219  29.006  14.940 -0.43 -0.00    +0.003 A  ATOM     15  C   UNL     1      40.865  29.330  16.918 -0.28 +0.02    +0.058 A  ATOM     16  C   UNL     1      42.073  29.502  16.232 -0.29 +0.00    +0.013 A  BRANCH  15  17ATOM     17  C   UNL     1      40.697  29.845  18.326 -0.22 +0.30    +0.416 C  ATOM     18  F   UNL     1      40.921  28.884  19.264 -0.09 -0.18    -0.166 F  ATOM     19  F   UNL     1      39.450  30.333  18.578 -0.18 -0.08    -0.166 F  ATOM     20  F   UNL     1      41.555  30.862  18.627 -0.10 -0.20    -0.166 F  ENDBRANCH  15  17ENDBRANCH   9  11ENDBRANCH   4   9ENDBRANCH   1   2BRANCH   1  21ATOM     21  N   UNL     1      35.421  25.391  18.330 -0.08 +0.39    -0.314 N  ATOM     22  C   UNL     1      36.014  26.496  18.929 -0.18 -0.25    +0.323 C  ATOM     23  N   UNL     1      35.717  26.551  20.278 -0.12 +0.31    -0.308 N  ATOM     24  H   UNL     1      34.886  24.768  18.911 -0.44 -0.43    +0.171 HD ATOM     25  O   UNL     1      36.707  27.294  18.306 -0.21 +0.09    -0.248 OA ATOM     26  H   UNL     1      35.081  25.852  20.627 -0.47 -0.38    +0.171 HD BRANCH  23  27ATOM     27  C   UNL     1      36.151  27.509  21.218 -0.30 -0.02    +0.046 A  ATOM     28  C   UNL     1      37.447  27.596  21.707 -0.16 -0.00    +0.027 A  ATOM     29  C   UNL     1      35.206  28.426  21.681 -0.36 -0.03    +0.073 A  ATOM     30  C   UNL     1      37.800  28.599  22.624 -0.19 +0.00    +0.010 A  ATOM     31  C   UNL     1      35.548  29.411  22.627 -0.31 -0.01    +0.128 A  ATOM     32  C   UNL     1      36.870  29.544  23.100 -0.30 -0.00    -0.000 A  BRANCH  31  33ATOM     33  O   UNL     1      34.595  30.308  23.040 -0.16 +0.01    -0.463 OA BRANCH  33  34ATOM     34  C   UNL     1      33.283  29.991  22.580 -0.24 -0.01    +0.446 C  ATOM     35  F   UNL     1      32.400  30.274  23.572 -0.18 -0.03    -0.206 F  ENDBRANCH  33  34ENDBRANCH  31  33BRANCH  32  36ATOM     36  C   UNL     1      37.299  30.654  24.087 -0.51 -0.00    -0.010 C  ATOM     37  C   UNL     1      38.707  30.359  24.651 -0.44 +0.00    +0.016 C  ATOM     38  C   UNL     1      36.362  30.788  25.317 -0.53 +0.00    +0.016 C  ATOM     39  C   UNL     1      37.292  32.032  23.389 -0.44 +0.00    +0.016 C  ENDBRANCH  32  36ENDBRANCH  23  27ENDBRANCH   1  21TORSDOF 9TERENDMDL