REMARK SMILES C=c1c(Nc2cccc(C(F)(F)F)c2)nccc1=CNC(=O)Nc1ccc(C(C)(C)C)c(OCF)c1
REMARK SMILES IDX 19 1 18 2 2 3 3 4 15 5 17 6 16 7 1 8 4 9 5 11 6 12 14 13
REMARK SMILES IDX 7 14 9 15 8 16 10 17 11 18 12 19 13 20 20 21 21 22 23 23
REMARK SMILES IDX 22 25 24 27 25 28 36 29 26 30 32 31 27 32 33 33 34 34 35 35
REMARK SMILES IDX 28 36 29 37 30 38 31 39
REMARK H PARENT 4 10 20 24 23 26
ROOT
ATOM      1  C   UNL     1       1.376  -0.794  -0.585  1.00  0.00     0.096 C 
ENDROOT
BRANCH   1   2
ATOM      2  C   UNL     1       2.618  -0.275  -0.680  1.00  0.00     0.002 A 
ATOM      3  C   UNL     1       3.807  -1.135  -0.791  1.00  0.00     0.019 A 
ATOM      4  C   UNL     1       5.128  -0.486  -0.341  1.00  0.00     0.137 A 
ATOM      5  N   UNL     1       5.217   0.817  -0.220  1.00  0.00    -0.239 NA
ATOM      6  C   UNL     1       2.872   1.157  -0.665  1.00  0.00     0.030 A 
ATOM      7  C   UNL     1       4.120   1.600  -0.467  1.00  0.00     0.114 A 
ATOM      8  C   UNL     1       3.823  -2.373  -1.319  1.00  0.00     0.022 C 
BRANCH   4   9
ATOM      9  N   UNL     1       6.205  -1.309  -0.038  1.00  0.00    -0.340 N 
ATOM     10  H   UNL     1       5.978  -2.269   0.179  1.00  0.00     0.168 HD
BRANCH   9  11
ATOM     11  C   UNL     1       7.543  -0.969   0.236  1.00  0.00     0.040 A 
ATOM     12  C   UNL     1       8.347  -1.898   0.915  1.00  0.00     0.026 A 
ATOM     13  C   UNL     1       8.125   0.251  -0.127  1.00  0.00     0.039 A 
ATOM     14  C   UNL     1       9.679  -1.616   1.230  1.00  0.00     0.003 A 
ATOM     15  C   UNL     1       9.467   0.550   0.173  1.00  0.00     0.058 A 
ATOM     16  C   UNL     1      10.236  -0.394   0.864  1.00  0.00     0.013 A 
BRANCH  15  17
ATOM     17  C   UNL     1      10.049   1.886  -0.214  1.00  0.00     0.416 C 
ATOM     18  F   UNL     1       9.807   2.851   0.716  1.00  0.00    -0.166 F 
ATOM     19  F   UNL     1       9.561   2.368  -1.392  1.00  0.00    -0.166 F 
ATOM     20  F   UNL     1      11.404   1.852  -0.367  1.00  0.00    -0.166 F 
ENDBRANCH  15  17
ENDBRANCH   9  11
ENDBRANCH   4   9
ENDBRANCH   1   2
BRANCH   1  21
ATOM     21  N   UNL     1       0.209  -0.074  -0.442  1.00  0.00    -0.314 N 
ATOM     22  C   UNL     1      -1.046  -0.667  -0.367  1.00  0.00     0.323 C 
ATOM     23  N   UNL     1      -2.035   0.282  -0.183  1.00  0.00    -0.308 N 
ATOM     24  H   UNL     1       0.263   0.929  -0.381  1.00  0.00     0.171 HD
ATOM     25  O   UNL     1      -1.212  -1.878  -0.460  1.00  0.00    -0.248 OA
ATOM     26  H   UNL     1      -1.728   1.234  -0.064  1.00  0.00     0.171 HD
BRANCH  23  27
ATOM     27  C   UNL     1      -3.426   0.069  -0.081  1.00  0.00     0.046 A 
ATOM     28  C   UNL     1      -4.039  -1.171  -0.191  1.00  0.00     0.027 A 
ATOM     29  C   UNL     1      -4.230   1.187   0.146  1.00  0.00     0.073 A 
ATOM     30  C   UNL     1      -5.430  -1.296  -0.051  1.00  0.00     0.010 A 
ATOM     31  C   UNL     1      -5.628   1.070   0.252  1.00  0.00     0.128 A 
ATOM     32  C   UNL     1      -6.265  -0.187   0.189  1.00  0.00    -0.000 A 
BRANCH  31  33
ATOM     33  O   UNL     1      -6.381   2.191   0.498  1.00  0.00    -0.463 OA
BRANCH  33  34
ATOM     34  C   UNL     1      -6.163   3.237  -0.445  1.00  0.00     0.446 C 
ATOM     35  F   UNL     1      -5.126   3.999  -0.010  1.00  0.00    -0.206 F 
ENDBRANCH  33  34
ENDBRANCH  31  33
BRANCH  32  36
ATOM     36  C   UNL     1      -7.790  -0.364   0.368  1.00  0.00    -0.010 C 
ATOM     37  C   UNL     1      -8.231   0.134   1.763  1.00  0.00     0.016 C 
ATOM     38  C   UNL     1      -8.260  -1.840   0.270  1.00  0.00     0.016 C 
ATOM     39  C   UNL     1      -8.558   0.405  -0.730  1.00  0.00     0.016 C 
ENDBRANCH  32  36
ENDBRANCH  23  27
ENDBRANCH   1  21
TORSDOF 9
