MODEL        7USER    Run = 7USERUSER    Estimated Free Energy of Binding    = -11.29 kcal/mol  [=(1)+(2)+(3)-(4)]USERUSER    (1) Final Intermolecular Energy     = -14.27 kcal/molUSER        vdW + Hbond + desolv Energy     = -14.08 kcal/molUSER        Electrostatic Energy            =  -0.19 kcal/molUSER        Moving Ligand-Fixed Receptor    = -14.27 kcal/molUSER        Moving Ligand-Moving Receptor   =  +0.00 kcal/molUSER    (2) Final Total Internal Energy     =  -3.50 kcal/molUSER    (3) Torsional Free Energy           =  +2.98 kcal/molUSER    (4) Unbound System's Energy         =  -3.50 kcal/molUSERUSERREMARK SMILES COc1ccc(O)c(C(=O)c2ccc(Nc3nc4c(s3)CCC[C@H]4C(=O)Nc3ccc(NC(=O)c4ccn(C)n4)cc3)cc2)c1FREMARK SMILES IDX 16 1 17 2 18 3 19 4 20 5 21 6 22 7 23 8 24 9 15 10 14 12REMARK SMILES IDX 11 13 12 14 44 15 13 16 43 17 9 18 10 19 8 20 3 21 4 22REMARK SMILES IDX 45 23 5 24 6 25 46 26 2 27 1 28 7 29 25 31 27 32 26 33 28 35REMARK SMILES IDX 29 36 42 37 30 38 41 39 31 40 32 41 33 42 34 44 35 45 36 46REMARK SMILES IDX 40 47 37 48 38 49 39 50REMARK H PARENT 15 11 7 30 27 34 32 43USER                              x       y       z     vdW  Elec       q    TypeUSER                           _______ _______ _______ _____ _____    ______ ____ROOTATOM      1  C   UNL     1      36.434  43.851  17.164 -0.20 -0.06    +0.187 A  ATOM      2  N   UNL     1      37.538  44.567  17.030 -0.20 +0.06    -0.224 NA ATOM      3  C   UNL     1      37.616  45.102  15.755 -0.30 -0.02    +0.069 A  ATOM      4  C   UNL     1      36.618  44.691  14.899 -0.36 -0.01    +0.031 A  ATOM      5  S   UNL     1      35.548  43.641  15.682 -0.45 +0.04    -0.102 S  ATOM      6  C   UNL     1      36.517  45.122  13.484 -0.46 -0.02    +0.049 C  ATOM      7  C   UNL     1      36.946  46.589  13.413 -0.59 -0.00    +0.007 C  ATOM      8  C   UNL     1      38.299  46.902  14.096 -0.51 -0.01    +0.020 C  ATOM      9  C   UNL     1      38.741  45.976  15.275 -0.36 -0.04    +0.129 C  ENDROOTBRANCH   1  10ATOM     10  N   UNL     1      36.108  43.262  18.341 -0.10 +0.07    -0.332 N  ATOM     11  H   UNL     1      35.606  42.383  18.254 +0.10 -0.04    +0.169 HD BRANCH  10  12ATOM     12  C   UNL     1      36.679  43.429  19.620 -0.32 -0.00    +0.040 A  ATOM     13  C   UNL     1      37.659  43.691  22.256 -0.36 +0.00    +0.023 A  ATOM     14  C   UNL     1      36.925  42.559  21.894 -0.46 +0.00    +0.014 A  ATOM     15  C   UNL     1      37.939  44.668  21.300 -0.34 +0.00    +0.014 A  ATOM     16  C   UNL     1      36.438  42.438  20.587 -0.44 -0.00    +0.027 A  ATOM     17  C   UNL     1      37.442  44.541  19.997 -0.30 -0.00    +0.027 A  BRANCH  13  18ATOM     18  C   UNL     1      38.214  43.856  23.617 -0.23 +0.01    +0.199 C  ATOM     19  O   UNL     1      39.435  43.947  23.754 -0.10 -0.01    -0.288 OA BRANCH  18  20ATOM     20  C   UNL     1      37.373  43.877  24.837 -0.26 +0.00    +0.104 A  ATOM     21  C   UNL     1      35.791  42.826  26.374 -0.32 -0.02    +0.155 A  ATOM     22  C   UNL     1      35.784  43.982  27.156 -0.42 -0.01    +0.053 A  ATOM     23  C   UNL     1      36.585  42.788  25.216 -0.26 -0.00    +0.179 A  ATOM     24  C   UNL     1      36.548  45.087  26.775 -0.26 -0.01    +0.051 A  ATOM     25  C   UNL     1      37.324  45.040  25.617 -0.25 +0.00    +0.130 A  ATOM     26  F   UNL     1      36.562  41.673  24.464 -0.14 +0.01    -0.202 F  BRANCH  21  27ATOM     27  O   UNL     1      35.076  41.689  26.636 -0.21 +0.14    -0.494 OA ATOM     28  C   UNL     1      35.736  40.658  27.363 -0.39 -0.12    +0.278 C  ENDBRANCH  21  27BRANCH  25  29ATOM     29  O   UNL     1      38.019  46.177  25.304 -0.26 -0.04    -0.507 OA ATOM     30  H   UNL     1      38.777  45.920  24.730 +0.14 +0.02    +0.293 HD ENDBRANCH  25  29ENDBRANCH  18  20ENDBRANCH  13  18ENDBRANCH  10  12ENDBRANCH   1  10BRANCH   9  31ATOM     31  C   UNL     1      39.481  46.763  16.373 -0.35 -0.06    +0.233 C  ATOM     32  N   UNL     1      39.921  45.977  17.426 -0.21 +0.04    -0.326 N  ATOM     33  O   UNL     1      39.731  47.960  16.238 -0.35 +0.09    -0.274 OA ATOM     34  H   UNL     1      39.470  45.066  17.502 +0.11 -0.02    +0.169 HD BRANCH  32  35ATOM     35  C   UNL     1      40.791  46.338  18.473 -0.46 -0.00    +0.041 A  ATOM     36  C   UNL     1      41.785  47.281  18.189 -0.48 -0.00    +0.028 A  ATOM     37  C   UNL     1      40.701  45.835  19.771 -0.40 +0.00    +0.028 A  ATOM     38  C   UNL     1      42.671  47.719  19.184 -0.43 +0.00    +0.028 A  ATOM     39  C   UNL     1      41.592  46.264  20.762 -0.32 +0.00    +0.028 A  ATOM     40  C   UNL     1      42.579  47.212  20.478 -0.29 +0.01    +0.041 A  BRANCH  40  41ATOM     41  N   UNL     1      43.419  47.600  21.536 -0.15 -0.07    -0.321 N  ATOM     42  C   UNL     1      44.489  46.921  22.086 -0.20 +0.17    +0.276 C  ATOM     43  H   UNL     1      43.266  48.512  21.962 -0.37 +0.01    +0.170 HD ATOM     44  O   UNL     1      44.914  45.821  21.749 -0.46 -0.33    -0.267 OA BRANCH  42  45ATOM     45  C   UNL     1      45.128  47.702  23.164 -0.19 +0.05    +0.150 A  ATOM     46  C   UNL     1      46.425  47.510  23.713 -0.12 +0.02    +0.056 A  ATOM     47  N   UNL     1      44.505  48.748  23.748 -0.36 -0.05    -0.168 NA ATOM     48  C   UNL     1      46.566  48.491  24.667 -0.08 +0.02    +0.109 A  ATOM     49  N   UNL     1      45.398  49.195  24.654 -0.10 -0.05    -0.275 N  ATOM     50  C   UNL     1      45.059  50.321  25.492 -0.22 +0.02    +0.173 C  ENDBRANCH  42  45ENDBRANCH  40  41ENDBRANCH  32  35ENDBRANCH   9  31TORSDOF 10TERENDMDL