MODEL        6USER    Run = 6USERUSER    Estimated Free Energy of Binding    =  -9.65 kcal/mol  [=(1)+(2)+(3)-(4)]USERUSER    (1) Final Intermolecular Energy     = -11.44 kcal/molUSER        vdW + Hbond + desolv Energy     = -11.32 kcal/molUSER        Electrostatic Energy            =  -0.12 kcal/molUSER        Moving Ligand-Fixed Receptor    = -11.44 kcal/molUSER        Moving Ligand-Moving Receptor   =  +0.00 kcal/molUSER    (2) Final Total Internal Energy     =  -1.17 kcal/molUSER    (3) Torsional Free Energy           =  +1.79 kcal/molUSER    (4) Unbound System's Energy         =  -1.17 kcal/molUSERUSERREMARK SMILES CNC(=O)c1ccc(Nc2nc3c(s2)CCC[C@H]3C(=O)N2CCOCC2)cc1SC(F)FREMARK SMILES IDX 5 1 6 2 7 3 8 4 27 5 28 6 3 7 2 8 1 9 4 11 29 12 30 13 31 14REMARK SMILES IDX 32 15 9 16 10 18 11 19 14 20 12 21 13 22 18 23 15 24 17 25REMARK SMILES IDX 16 26 19 27 21 28 22 29 26 30 23 31 25 32 24 33 20 34REMARK H PARENT 2 10 9 17USER                              x       y       z     vdW  Elec       q    TypeUSER                           _______ _______ _______ _____ _____    ______ ____ROOTATOM      1  C   UNL     1      31.538  42.255  17.982 -0.27 -0.01    +0.053 A  ATOM      2  C   UNL     1      31.711  43.597  18.344 -0.30 -0.00    +0.017 A  ATOM      3  C   UNL     1      32.885  44.014  18.977 -0.39 -0.00    +0.027 A  ATOM      4  C   UNL     1      33.910  43.108  19.261 -0.37 -0.00    +0.041 A  ATOM      5  C   UNL     1      33.713  41.760  18.913 -0.32 -0.00    +0.042 A  ATOM      6  C   UNL     1      32.531  41.311  18.291 -0.38 -0.00    +0.028 A  ENDROOTBRANCH   1   7ATOM      7  C   UNL     1      30.274  41.930  17.274 -0.17 -0.06    +0.252 C  ATOM      8  N   UNL     1      30.367  40.997  16.268 -0.18 +0.11    -0.355 N  ATOM      9  C   UNL     1      29.242  40.712  15.412 -0.34 -0.04    +0.143 C  ATOM     10  H   UNL     1      31.282  40.667  15.993 -0.48 -0.11    +0.163 HD ATOM     11  O   UNL     1      29.239  42.503  17.585 -0.13 +0.04    -0.269 OA ENDBRANCH   1   7BRANCH   6  12ATOM     12  S   UNL     1      32.412  39.550  17.976 -0.60 +0.01    -0.054 SA BRANCH  12  13ATOM     13  C   UNL     1      31.413  39.057  19.408 -0.20 +0.06    +0.405 C  ATOM     14  F   UNL     1      31.413  40.064  20.323 -0.10 -0.04    -0.198 F  ATOM     15  F   UNL     1      30.119  38.880  19.032 -0.08 -0.03    -0.198 F  ENDBRANCH  12  13ENDBRANCH   6  12BRANCH   4  16ATOM     16  N   UNL     1      35.093  43.467  19.932 -0.20 +0.02    -0.332 N  ATOM     17  H   UNL     1      35.088  43.288  20.930 +0.10 +0.02    +0.169 HD BRANCH  16  18ATOM     18  C   UNL     1      36.207  44.097  19.488 -0.26 -0.02    +0.187 A  ATOM     19  N   UNL     1      36.177  44.814  18.380 -0.20 +0.06    -0.224 NA ATOM     20  S   UNL     1      37.781  43.988  20.208 -0.45 +0.00    -0.102 S  ATOM     21  C   UNL     1      37.442  45.269  18.055 -0.31 -0.02    +0.069 A  ATOM     22  C   UNL     1      38.423  44.950  18.970 -0.37 -0.00    +0.031 A  ATOM     23  C   UNL     1      37.703  46.116  16.841 -0.35 -0.05    +0.129 C  ATOM     24  C   UNL     1      39.854  45.356  18.882 -0.46 -0.00    +0.049 C  ATOM     25  C   UNL     1      39.228  46.292  16.603 -0.48 -0.00    +0.020 C  ATOM     26  C   UNL     1      39.995  46.540  17.912 -0.53 -0.00    +0.007 C  BRANCH  23  27ATOM     27  C   UNL     1      37.073  45.486  15.593 -0.26 -0.10    +0.231 C  ATOM     28  N   UNL     1      36.837  46.299  14.492 -0.15 +0.18    -0.337 N  ATOM     29  C   UNL     1      37.114  47.739  14.426 -0.46 -0.09    +0.148 C  ATOM     30  C   UNL     1      36.319  45.717  13.255 -0.44 -0.07    +0.148 C  ATOM     31  C   UNL     1      36.532  48.377  13.165 -0.43 -0.09    +0.181 C  ATOM     32  C   UNL     1      37.029  46.317  12.040 -0.52 -0.06    +0.181 C  ATOM     33  O   UNL     1      36.998  47.750  11.970 -1.01 +0.09    -0.378 OA ATOM     34  O   UNL     1      36.813  44.282  15.561 -0.25 +0.10    -0.274 OA ENDBRANCH  23  27ENDBRANCH  16  18ENDBRANCH   4  16TORSDOF 6TERENDMDL