MODEL        7USER    Run = 7USERUSER    Estimated Free Energy of Binding    = -10.07 kcal/mol  [=(1)+(2)+(3)-(4)]USERUSER    (1) Final Intermolecular Energy     = -11.27 kcal/molUSER        vdW + Hbond + desolv Energy     = -11.27 kcal/molUSER        Electrostatic Energy            =  -0.00 kcal/molUSER        Moving Ligand-Fixed Receptor    = -11.27 kcal/molUSER        Moving Ligand-Moving Receptor   =  +0.00 kcal/molUSER    (2) Final Total Internal Energy     =  -1.05 kcal/molUSER    (3) Torsional Free Energy           =  +1.19 kcal/molUSER    (4) Unbound System's Energy         =  -1.05 kcal/molUSERUSERREMARK SMILES CNC(=O)c1ccc(Nc2nc3c(s2)CCC[C@H]3C(=O)N2CCN(C)CC2)cc1FREMARK SMILES IDX 9 1 8 3 5 4 6 5 29 6 7 7 28 8 30 9 3 10 2 11 1 12 4 14 10 15REMARK SMILES IDX 11 16 14 17 12 18 13 19 18 20 15 21 17 22 16 23 19 24 21 25REMARK SMILES IDX 22 26 27 27 23 28 26 29 24 30 20 31 25 32REMARK H PARENT 9 2 2 13USER                              x       y       z     vdW  Elec       q    TypeUSER                           _______ _______ _______ _____ _____    ______ ____ROOTATOM      1  N   UNL     1      39.047  44.873  19.071 -0.19 +0.02    -0.331 N  ATOM      2  H   UNL     1      39.758  44.148  19.139 +0.10 -0.00    +0.169 HD ENDROOTBRANCH   1   3ATOM      3  C   UNL     1      39.545  45.954  18.305 -0.41 -0.01    +0.043 A  ATOM      4  C   UNL     1      40.698  48.021  16.751 -0.48 -0.01    +0.075 A  ATOM      5  C   UNL     1      39.496  47.412  16.351 -0.47 -0.01    +0.019 A  ATOM      6  C   UNL     1      41.331  47.553  17.905 -0.41 -0.01    +0.138 A  ATOM      7  C   UNL     1      38.926  46.387  17.121 -0.40 -0.01    +0.027 A  ATOM      8  C   UNL     1      40.774  46.523  18.667 -0.43 -0.00    +0.066 A  ATOM      9  F   UNL     1      42.503  48.073  18.315 -0.22 -0.00    -0.206 F  BRANCH   4  10ATOM     10  C   UNL     1      41.229  49.144  15.933 -0.41 -0.02    +0.253 C  ATOM     11  N   UNL     1      41.288  48.960  14.568 -0.30 +0.05    -0.355 N  ATOM     12  C   UNL     1      41.789  49.984  13.696 -0.60 -0.03    +0.143 C  ATOM     13  H   UNL     1      40.879  48.119  14.155 +0.13 -0.01    +0.163 HD ATOM     14  O   UNL     1      41.592  50.178  16.481 -0.97 +0.01    -0.269 OA ENDBRANCH   4  10ENDBRANCH   1   3BRANCH   1  15ATOM     15  C   UNL     1      37.821  44.316  18.877 -0.21 -0.02    +0.187 A  ATOM     16  N   UNL     1      37.274  44.234  17.684 -0.19 +0.05    -0.224 NA ATOM     17  S   UNL     1      36.900  43.572  20.144 -0.49 +0.00    -0.102 S  ATOM     18  C   UNL     1      36.016  43.669  17.772 -0.27 -0.02    +0.069 A  ATOM     19  C   UNL     1      35.683  43.199  19.026 -0.36 -0.00    +0.031 A  ATOM     20  C   UNL     1      35.136  43.501  16.560 -0.35 -0.05    +0.129 C  ATOM     21  C   UNL     1      34.424  42.485  19.361 -0.45 -0.00    +0.049 C  ATOM     22  C   UNL     1      33.775  42.853  16.936 -0.41 -0.01    +0.020 C  ATOM     23  C   UNL     1      33.879  41.829  18.082 -0.48 -0.00    +0.007 C  BRANCH  20  24ATOM     24  C   UNL     1      34.864  44.853  15.896 -0.22 -0.14    +0.231 C  ATOM     25  N   UNL     1      35.873  45.445  15.143 -0.13 +0.20    -0.340 N  ATOM     26  C   UNL     1      37.190  44.880  14.833 -0.32 -0.05    +0.135 C  ATOM     27  C   UNL     1      35.599  46.770  14.576 -0.27 -0.12    +0.135 C  ATOM     28  C   UNL     1      37.555  45.121  13.348 -0.36 -0.03    +0.105 C  ATOM     29  C   UNL     1      36.833  47.404  13.902 -0.51 -0.06    +0.105 C  ATOM     30  N   UNL     1      37.513  46.540  12.911 -0.31 +0.09    -0.303 NA ATOM     31  O   UNL     1      33.751  45.385  15.971 -0.22 +0.24    -0.274 OA ATOM     32  C   UNL     1      36.888  46.646  11.579 -0.64 -0.04    +0.105 C  ENDBRANCH  20  24ENDBRANCH   1  15TORSDOF 4TERENDMDL